data_PCOD8142612
_publ_section_title
;
Structure prediction by ZEFSAII (Michael W. Deem and Ramdas Pophale) SiO2 
 PCOD8142612
Probable space group: C 2/C
;
_chemical_formula_sum "Si O2"
_cell_formula_units_Z 52
_cell_length_a 26.336633
_cell_length_b 6.622765
_cell_length_c 16.804264
_cell_angle_alpha 90.000000
_cell_angle_beta 125.728708
_cell_angle_gamma 90.000000
_cell_volume 2379.377483
_symmetry_space_group_name_H-M "C 2/C"
_symmetry_group_IT_number 15
_symmetry_cell_setting 'monoclinic'
loop_
_space_group_symop_operation_xyz
x,y,z
-x,y,1/2-z
-x,-y,-z
x,-y,1/2+z
1/2+x,1/2+y,z
1/2-x,1/2+y,1/2-z
1/2-x,1/2-y,-z
1/2+x,1/2-y,1/2+z
loop_
_atom_site_type_symbol
_atom_site_label
_atom_site_fract_x
_atom_site_fract_y
_atom_site_fract_z
Si Si1 0.107564 0.386249 0.246667
Si Si2 0.278447 0.355441 0.603351
Si Si3 0.563384 0.531499 0.451332
Si Si4 0.700614 0.241476 0.305717
Si Si5 0.470395 0.785704 0.467477
Si Si6 0.500000 0.737659 0.250000
Si Si7 0.198420 0.093077 0.634220
O O1 0.151084 0.220163 0.326244
O O2 0.140931 0.605385 0.276021
O O3 0.091490 0.304596 0.143861
O O4 0.044194 0.389650 0.240828
O O5 0.250000 0.250000 0.500000
O O6 0.281601 0.600780 0.606854
O O7 0.237439 0.287531 0.641452
O O8 0.525676 0.652661 0.482852
O O9 0.551385 0.297062 0.465700
O O10 0.539492 0.586085 0.341913
O O11 0.636564 0.579660 0.524162
O O12 0.681732 0.374298 0.211422
O O13 0.761056 0.107364 0.342934
O O14 0.500000 0.000000 0.500000
#
# Coordination Sequence:
#
# PCOD8142612 Si02
#       7
#     8   8   8   8   8   4   8
#     4  10  23  41  67  94 137 173 231 280 344 407
#     4  11  24  43  65  98 137 175 223 284 347 410
#     4  10  22  39  64  89 132 172 227 277 337 396
#     4  11  23  40  67 101 135 177 227 286 343 414
#     4  10  21  39  62  94 122 172 227 284 330 395
#     4  10  22  46  64  96 136 192 228 286 350 418
#     4  11  22  39  67  99 132 180 227 281 342 413
#
# _framework density 21.854455999999999
#
# number of rings (size 3 to 8) (size 9 to 14) (size 15 to 20)
#    0.000    1.538    1.538    2.769    2.154    6.154 
#    0.000   11.538    0.000    0.000    0.000    0.000 
#    0.000    0.000    0.000    0.000    0.000    0.000 
#
# Total GULP energy -322335.028133 kJ/mol
# GULP energy per Si atom -12397.501082 kJ/mol
# Density = 2.180471 g / cm^3
# Si number density = 21.854456 Si / 1000 Ang^3
#
#
#
# Elastic Constant Matrix: (Units=GPa)
#
#
# Indices 1 2 3 4 5 6 
#
# 1 90.0237 53.6106 53.6352 0.0000 12.9463 0.0000
# 2 53.6106 151.5453 55.3653 -0.0002 3.6970 0.0006
# 3 53.6352 55.3653 144.7706 0.0000 14.2413 0.0001
# 4 0.0000 -0.0002 0.0000 35.5154 0.0000 -0.9197
# 5 12.9463 3.6970 14.2413 0.0000 39.4762 0.0000
# 6 0.0000 0.0006 0.0001 -0.9197 0.0000 25.4137
#
#
#
# Elastic Compliance Matrix: (Units=1/GPa)
#
#
# Indices 1 2 3 4 5 6 
#
# 1 0.016661 -0.004278 -0.004187 0.000000 -0.003553 0.000000
# 2 -0.004278 0.008773 -0.001895 0.000000 0.001265 0.000000
# 3 -0.004187 -0.001895 0.009363 0.000000 -0.001827 0.000000
# 4 0.000000 0.000000 0.000000 0.028183 0.000000 0.001020
# 5 -0.003553 0.001265 -0.001827 0.000000 0.027038 0.000000
# 6 0.000000 0.000000 0.000000 0.001020 0.000000 0.039386
#
#
# Mechanical properties :
#
#
# Convention : Reuss Voigt Hill
#
# Bulk Modulus (GPa) = 71.03168 79.06245 75.04706
# Shear Modulus (GPa) = 32.29622 34.99628 33.64625
#
# Velocity S-wave (km/s) = 3.84837 4.00601 3.92798
# Velocity P-wave (km/s) = 7.23321 7.59295 7.41526
#
# Compressibility (1/GPa) = 0.01407823
#
# Stress axis : x y z
#
# Youngs Moduli (GPa) = 60.01935 113.98155 106.80089
#
# Poissons Ratio (x) = 0.48757 0.44721
# Poissons Ratio (y) = 0.25674 0.20237
# Poissons Ratio (z) = 0.25132 0.21598
#
# Static dielectric constant tensor:
#      x y z
#    x 3.946300 0.000000 0.074400 
#    y 0.000000 4.139070 0.000000 
#    z 0.074400 0.000000 3.851660 
# 
# 
# High freq. dielectric constant tensor:
#      x y z
#    x 1.860160 0.000000 0.011990 
#    y 0.000000 1.856720 0.000000 
#    z 0.011990 0.000000 1.863880 
# 
# From -- ./inp_files/221341.got.cif
#   From: 2010.06.25/outbox.cif.g09.slc.cpg/sg15_111_cif.got.tgz:221341.got - 2010.06.28 07:06:18.
