data_PCOD8142884
_publ_section_title
;
Structure prediction by ZEFSAII (Michael W. Deem and Ramdas Pophale) SiO2 
 PCOD8142884
Probable space group: C 2/C
;
_chemical_formula_sum "Si O2"
_cell_formula_units_Z 44
_cell_length_a 25.738401
_cell_length_b 4.991272
_cell_length_c 15.009665
_cell_angle_alpha 90.000000
_cell_angle_beta 113.930073
_cell_angle_gamma 90.000000
_cell_volume 1762.501773
_symmetry_space_group_name_H-M "C 2/C"
_symmetry_group_IT_number 15
_symmetry_cell_setting 'monoclinic'
loop_
_space_group_symop_operation_xyz
x,y,z
-x,y,1/2-z
-x,-y,-z
x,-y,1/2+z
1/2+x,1/2+y,z
1/2-x,1/2+y,1/2-z
1/2-x,1/2-y,-z
1/2+x,1/2-y,1/2+z
loop_
_atom_site_type_symbol
_atom_site_label
_atom_site_fract_x
_atom_site_fract_y
_atom_site_fract_z
Si Si1 0.381302 0.682036 0.136543
Si Si2 0.216906 0.799586 0.244082
Si Si3 0.385084 0.393349 0.845229
Si Si4 0.813123 0.697170 0.079090
Si Si5 0.046327 0.401736 0.600248
Si Si6 0.000000 0.608838 0.750000
O O1 0.370057 0.633479 0.231739
O O2 0.357539 0.417235 0.070916
O O3 0.449325 0.718424 0.168502
O O4 0.341799 0.918918 0.070329
O O5 0.234600 0.526631 0.205092
O O6 0.170594 0.964167 0.151020
O O7 0.189611 0.698526 0.316266
O O8 0.399706 0.093070 0.887009
O O9 0.438624 0.590392 0.901626
O O10 0.750000 0.750000 0.000000
O O11 0.028128 0.433399 0.691217
O O12 0.000000 0.500000 0.500000
#
# Coordination Sequence:
#
# PCOD8142884 Si02
#       6
#     8   8   8   8   8   4
#     4  10  21  39  67  89 120 175 203 259 320 380
#     4  11  21  38  63  88 117 167 206 246 313 373
#     4  10  21  41  63  85 129 163 207 257 313 376
#     4  11  23  42  62  91 133 160 210 265 319 371
#     4  11  23  41  64  94 127 167 206 265 317 377
#     4  10  22  42  68  92 128 164 220 250 320 390
#
# _framework density 24.964516
#
# number of rings (size 3 to 8) (size 9 to 14) (size 15 to 20)
#    0.000    1.455    0.000    8.727    0.000    6.545 
#    9.818    0.000    0.000    0.000    0.000    0.000 
#    0.000    0.000    0.000    0.000    0.000    0.000 
#
# Total GULP energy -272546.620658 kJ/mol
# GULP energy per Si atom -12388.482757 kJ/mol
# Density = 2.490770 g / cm^3
# Si number density = 24.964516 Si / 1000 Ang^3
#
#
#
# Elastic Constant Matrix: (Units=GPa)
#
#
# Indices 1 2 3 4 5 6 
#
# 1 70.4943 9.2311 -5.8661 0.0000 17.9642 0.0000
# 2 9.2311 135.6461 0.9176 0.0001 5.1271 0.0000
# 3 -5.8661 0.9176 57.3637 0.0000 24.4380 0.0000
# 4 0.0000 0.0001 0.0000 31.6508 0.0000 18.0869
# 5 17.9642 5.1271 24.4380 0.0000 37.2416 0.0000
# 6 0.0000 0.0000 0.0000 18.0869 0.0000 40.4383
#
#
#
# Elastic Compliance Matrix: (Units=1/GPa)
#
#
# Indices 1 2 3 4 5 6 
#
# 1 0.018503 -0.000784 0.007858 0.000000 -0.013973 0.000000
# 2 -0.000784 0.007452 0.000106 0.000000 -0.000717 0.000000
# 3 0.007858 0.000106 0.027560 0.000000 -0.021890 0.000000
# 4 0.000000 0.000000 0.000000 0.042443 0.000000 -0.018984
# 5 -0.013973 -0.000717 -0.021890 0.000000 0.048055 0.000000
# 6 0.000000 0.000000 0.000000 -0.018984 0.000000 0.033220
#
#
# Mechanical properties :
#
#
# Convention : Reuss Voigt Hill
#
# Bulk Modulus (GPa) = 14.73317 30.22995 22.48156
# Shear Modulus (GPa) = 26.95449 39.14757 33.05103
#
# Velocity S-wave (km/s) = 3.28946 3.96426 3.64252
# Velocity P-wave (km/s) = 4.51020 5.75232 5.16871
#
# Compressibility (1/GPa) = 0.06787408
#
# Stress axis : x y z
#
# Youngs Moduli (GPa) = 54.04540 134.19423 36.28460
#
# Poissons Ratio (x) = 0.10523 -0.28511
# Poissons Ratio (y) = 0.04238 -0.00385
# Poissons Ratio (z) = -0.42467 -0.01425
#
# Static dielectric constant tensor:
#      x y z
#    x 4.753970 0.000000 0.553580 
#    y 0.000000 5.154860 0.000000 
#    z 0.553580 0.000000 4.355830 
# 
# 
# High freq. dielectric constant tensor:
#      x y z
#    x 1.984990 0.000000 0.034790 
#    y 0.000000 2.011600 0.000000 
#    z 0.034790 0.000000 1.969930 
# 
# From -- ./inp_files/217862.got.cif
#   From: 2010.06.25/outbox.cif.g09.slc.cpg/sg15_109_cif.got.tgz:217862.got - 2010.06.28 07:06:18.
