data_PCOD8142064
_publ_section_title
;
Structure prediction by ZEFSAII (Michael W. Deem and Ramdas Pophale) SiO2 
 PCOD8142064
Probable space group: C 2/C
;
_chemical_formula_sum "Si O2"
_cell_formula_units_Z 56
_cell_length_a 9.138688
_cell_length_b 23.013551
_cell_length_c 14.356592
_cell_angle_alpha 90.000000
_cell_angle_beta 66.463163
_cell_angle_gamma 90.000000
_cell_volume 2768.185031
_symmetry_space_group_name_H-M "C 2/C"
_symmetry_group_IT_number 15
_symmetry_cell_setting 'monoclinic'
loop_
_space_group_symop_operation_xyz
x,y,z
-x,y,1/2-z
-x,-y,-z
x,-y,1/2+z
1/2+x,1/2+y,z
1/2-x,1/2+y,1/2-z
1/2-x,1/2-y,-z
1/2+x,1/2-y,1/2+z
loop_
_atom_site_type_symbol
_atom_site_label
_atom_site_fract_x
_atom_site_fract_y
_atom_site_fract_z
Si Si1 0.277413 0.629907 0.549726
Si Si2 0.186484 0.999836 0.477089
Si Si3 0.177138 0.002075 0.693558
Si Si4 0.957093 0.171951 0.153451
Si Si5 0.336305 0.630853 0.743071
Si Si6 0.469995 0.803721 0.148431
Si Si7 0.181518 0.415241 0.706339
O O1 0.233492 0.562017 0.565779
O O2 0.411098 0.636808 0.437361
O O3 0.342549 0.650810 0.633686
O O4 0.120496 0.666067 0.559263
O O5 0.216794 0.015111 0.576831
O O6 0.276435 0.048659 0.396228
O O7 0.000000 0.000000 0.500000
O O8 0.188059 0.061653 0.748451
O O9 0.000000 0.975267 0.750000
O O10 0.295347 0.954863 0.707616
O O11 0.952594 0.237919 0.117279
O O12 0.785438 0.143126 0.182194
O O13 0.000000 0.170285 0.250000
O O14 0.500000 0.650135 0.750000
O O15 0.192054 0.661982 0.834525
O O16 0.500000 0.807569 0.250000
O O17 0.000000 0.394366 0.750000
#
# Coordination Sequence:
#
# PCOD8142064 Si02
#       7
#     8   8   8   8   8   8   8
#     4  11  20  39  68  89 118 165 214 261 304 374
#     4  12  21  38  65  93 125 169 209 254 326 379
#     4  11  21  39  63  91 124 168 208 254 315 388
#     4  11  23  44  63  88 125 168 215 254 315 378
#     4  10  21  38  61  91 124 158 204 260 318 372
#     4   9  22  40  66  91 117 162 218 268 300 364
#     4  12  26  39  60  96 134 164 202 264 323 387
#
# _framework density 20.229862000000001
#
# number of rings (size 3 to 8) (size 9 to 14) (size 15 to 20)
#    0.000    1.143    4.286    2.571    2.000    1.143 
#    2.571    0.714    0.000    0.000    0.000    0.000 
#    0.000    0.000    0.000    0.000    0.000    0.000 
#
# Total GULP energy -347338.629366 kJ/mol
# GULP energy per Si atom -12404.951049 kJ/mol
# Density = 2.018382 g / cm^3
# Si number density = 20.229862 Si / 1000 Ang^3
#
#
#
# Elastic Constant Matrix: (Units=GPa)
#
#
# Indices 1 2 3 4 5 6 
#
# 1 140.0218 64.3777 44.1759 0.0000 -22.6695 0.0000
# 2 64.3777 112.1006 18.0348 0.0000 -12.2019 0.0000
# 3 44.1759 18.0348 100.0037 0.0000 -0.0698 0.0000
# 4 0.0000 0.0000 0.0000 26.2978 0.0000 -5.0343
# 5 -22.6695 -12.2019 -0.0698 0.0000 32.3876 0.0000
# 6 0.0000 0.0000 0.0000 -5.0343 0.0000 32.2245
#
#
#
# Elastic Compliance Matrix: (Units=1/GPa)
#
#
# Indices 1 2 3 4 5 6 
#
# 1 0.012094 -0.005555 -0.004336 0.000000 0.006363 0.000000
# 2 -0.005555 0.012143 0.000265 0.000000 0.000687 0.000000
# 3 -0.004336 0.000265 0.011865 0.000000 -0.002910 0.000000
# 4 0.000000 0.000000 0.000000 0.039198 0.000000 0.006124
# 5 0.006363 0.000687 -0.002910 0.000000 0.035582 0.000000
# 6 0.000000 0.000000 0.000000 0.006124 0.000000 0.031989
#
#
# Mechanical properties :
#
#
# Convention : Reuss Voigt Hill
#
# Bulk Modulus (GPa) = 59.35143 67.25587 63.30365
# Shear Modulus (GPa) = 29.80765 33.21780 31.51273
#
# Velocity S-wave (km/s) = 3.84272 4.05658 3.95109
# Velocity P-wave (km/s) = 7.00649 7.43365 7.22323
#
# Compressibility (1/GPa) = 0.01684879
#
# Stress axis : x y z
#
# Youngs Moduli (GPa) = 82.68522 82.35148 84.27890
#
# Poissons Ratio (x) = 0.45748 0.36545
# Poissons Ratio (y) = 0.45934 -0.02230
# Poissons Ratio (z) = 0.35854 -0.02179
#
# Static dielectric constant tensor:
#      x y z
#    x 3.640550 0.000000 -0.046630 
#    y 0.000000 3.755150 0.000000 
#    z -0.046630 0.000000 3.778830 
# 
# 
# High freq. dielectric constant tensor:
#      x y z
#    x 1.781110 0.000000 -0.002730 
#    y 0.000000 1.788820 0.000000 
#    z -0.002730 0.000000 1.790510 
# 
# From -- ./inp_files/137260.got.cif
#   From: 2010.06.25/outbox.cif.g09.slc.cpg/sg15_69_cif.got.tgz:137260.got - 2010.06.28 07:06:18.
