data_PCOD8142081
_publ_section_title
;
Structure prediction by ZEFSAII (Michael W. Deem and Ramdas Pophale) SiO2 
 PCOD8142081
Probable space group: C 2/C
;
_chemical_formula_sum "Si O2"
_cell_formula_units_Z 56
_cell_length_a 14.710569
_cell_length_b 15.925831
_cell_length_c 9.912402
_cell_angle_alpha 90.000000
_cell_angle_beta 96.356337
_cell_angle_gamma 90.000000
_cell_volume 2307.982168
_symmetry_space_group_name_H-M "C 2/C"
_symmetry_group_IT_number 15
_symmetry_cell_setting 'monoclinic'
loop_
_space_group_symop_operation_xyz
x,y,z
-x,y,1/2-z
-x,-y,-z
x,-y,1/2+z
1/2+x,1/2+y,z
1/2-x,1/2+y,1/2-z
1/2-x,1/2-y,-z
1/2+x,1/2-y,1/2+z
loop_
_atom_site_type_symbol
_atom_site_label
_atom_site_fract_x
_atom_site_fract_y
_atom_site_fract_z
Si Si1 0.173324 0.319598 0.494628
Si Si2 0.917612 0.572739 0.332311
Si Si3 0.917071 0.417488 0.474573
Si Si4 0.355646 0.484420 0.174658
Si Si5 0.000000 0.844539 0.250000
Si Si6 0.735292 0.006055 0.903877
Si Si7 0.500000 0.617628 0.250000
Si Si8 0.483540 0.254632 0.964508
O O1 0.250000 0.250000 0.500000
O O2 0.157906 0.355578 0.647421
O O3 0.210063 0.397039 0.412610
O O4 0.080420 0.278733 0.421459
O O5 0.882202 0.474468 0.338635
O O6 0.000000 0.601138 0.250000
O O7 0.973897 0.571993 0.486567
O O8 0.857622 0.446201 0.602732
O O9 0.904183 0.317727 0.446472
O O10 0.408718 0.401552 0.233130
O O11 0.279614 0.512269 0.268613
O O12 0.425134 0.560757 0.163388
O O13 0.304844 0.469515 0.025975
O O14 0.999810 0.786139 0.380974
O O15 0.451635 0.671478 0.359955
#
# Coordination Sequence:
#
# PCOD8142081 Si02
#       8
#     8   8   8   8   4   8   4   8
#     4  10  21  38  61  96 132 165 217 274 323 384
#     4   9  19  36  61  88 127 180 216 256 325 401
#     4   9  22  37  59  95 129 166 213 263 325 406
#     4  11  24  44  67  91 125 174 224 272 325 399
#     4  11  24  44  68  91 124 172 228 269 326 402
#     4  11  24  41  65  96 130 172 213 273 336 395
#     4  11  24  44  66  91 126 172 226 271 328 396
#     4  11  24  41  66  96 130 171 213 274 338 394
#
# _framework density 24.263621000000001
#
# number of rings (size 3 to 8) (size 9 to 14) (size 15 to 20)
#    0.000    1.714    0.000    4.286    9.000    3.429 
#    0.000    4.286    0.000    0.000    0.000    0.000 
#    0.000    0.000    0.000    0.000    0.000    0.000 
#
# Total GULP energy -346946.883117 kJ/mol
# GULP energy per Si atom -12390.960111 kJ/mol
# Density = 2.420840 g / cm^3
# Si number density = 24.263621 Si / 1000 Ang^3
#
#
#
# Elastic Constant Matrix: (Units=GPa)
#
#
# Indices 1 2 3 4 5 6 
#
# 1 102.0858 50.0878 13.5053 0.0000 -4.2906 0.0000
# 2 50.0878 154.7194 28.4301 0.0000 -11.8018 0.0000
# 3 13.5053 28.4301 64.4570 0.0000 -11.7212 0.0000
# 4 0.0000 0.0000 0.0000 24.6028 0.0000 -5.4956
# 5 -4.2906 -11.8018 -11.7212 0.0000 39.5138 0.0000
# 6 0.0000 0.0000 0.0000 -5.4956 0.0000 43.3809
#
#
#
# Elastic Compliance Matrix: (Units=1/GPa)
#
#
# Indices 1 2 3 4 5 6 
#
# 1 0.011688 -0.003631 -0.000860 0.000000 -0.000071 0.000000
# 2 -0.003631 0.008220 -0.002632 0.000000 0.001280 0.000000
# 3 -0.000860 -0.002632 0.017647 0.000000 0.004355 0.000000
# 4 0.000000 0.000000 0.000000 0.041829 0.000000 0.005299
# 5 -0.000071 0.001280 0.004355 0.000000 0.026974 0.000000
# 6 0.000000 0.000000 0.000000 0.005299 0.000000 0.023723
#
#
# Mechanical properties :
#
#
# Convention : Reuss Voigt Hill
#
# Bulk Modulus (GPa) = 42.90219 56.14538 49.52379
# Shear Modulus (GPa) = 32.87343 36.78211 34.82777
#
# Velocity S-wave (km/s) = 3.68481 3.89773 3.79277
# Velocity P-wave (km/s) = 5.98531 6.59138 6.29564
#
# Compressibility (1/GPa) = 0.02330883
#
# Stress axis : x y z
#
# Youngs Moduli (GPa) = 85.55699 121.65261 56.66565
#
# Poissons Ratio (x) = 0.44174 0.04874
# Poissons Ratio (y) = 0.31067 0.14915
# Poissons Ratio (z) = 0.07359 0.32020
#
# Static dielectric constant tensor:
#      x y z
#    x 4.558970 0.000000 0.121760 
#    y 0.000000 4.698160 0.000000 
#    z 0.121760 0.000000 4.475760 
# 
# 
# High freq. dielectric constant tensor:
#      x y z
#    x 1.962920 0.000000 -0.003760 
#    y 0.000000 1.974230 0.000000 
#    z -0.003760 0.000000 1.961130 
# 
# From -- ./inp_files/97081.got.cif
#   From: 2010.06.25/outbox.cif.g09.slc.cpg/sg15_49_cif.got.tgz:97081.got - 2010.06.28 07:06:18.
