data_PCOD8142833
_publ_section_title
;
Structure prediction by ZEFSAII (Michael W. Deem and Ramdas Pophale) SiO2 
 PCOD8142833
Probable space group: C 2/C
;
_chemical_formula_sum "Si O2"
_cell_formula_units_Z 44
_cell_length_a 11.205262
_cell_length_b 13.932873
_cell_length_c 20.301104
_cell_angle_alpha 90.000000
_cell_angle_beta 41.103160
_cell_angle_gamma 90.000000
_cell_volume 2083.642235
_symmetry_space_group_name_H-M "C 2/C"
_symmetry_group_IT_number 15
_symmetry_cell_setting 'monoclinic'
loop_
_space_group_symop_operation_xyz
x,y,z
-x,y,1/2-z
-x,-y,-z
x,-y,1/2+z
1/2+x,1/2+y,z
1/2-x,1/2+y,1/2-z
1/2-x,1/2-y,-z
1/2+x,1/2-y,1/2+z
loop_
_atom_site_type_symbol
_atom_site_label
_atom_site_fract_x
_atom_site_fract_y
_atom_site_fract_z
Si Si1 0.428528 0.481132 0.130773
Si Si2 0.941131 0.834143 0.849831
Si Si3 0.500000 0.827634 0.750000
Si Si4 0.787042 0.522773 0.409387
Si Si5 0.672585 0.355151 0.215701
Si Si6 0.436876 0.142664 0.933907
O O1 0.446361 0.576093 0.168197
O O2 0.289827 0.498748 0.130047
O O3 0.342646 0.390656 0.203446
O O4 0.624509 0.446031 0.024494
O O5 0.979760 0.742720 0.879590
O O6 0.000000 0.816243 0.750000
O O7 0.723224 0.852580 0.945514
O O8 0.574930 0.889455 0.657679
O O9 0.343762 0.760156 0.783408
O O10 0.892656 0.432902 0.395169
O O11 0.500000 0.405535 0.250000
O O12 0.874664 0.385157 0.106341
#
# Coordination Sequence:
#
# PCOD8142833 Si02
#       6
#     8   8   4   8   8   8
#     4  10  21  40  64  92 129 160 212 260 322 380
#     4  10  22  40  67  98 128 165 206 270 320 377
#     4  10  22  38  58  86 126 160 212 250 318 360
#     4  10  21  39  66  92 121 169 211 264 313 388
#     4  10  23  40  60  88 133 166 207 270 304 378
#     4  10  22  41  64  98 127 163 219 257 315 383
#
# _framework density 21.116869000000001
#
# number of rings (size 3 to 8) (size 9 to 14) (size 15 to 20)
#    0.545    1.455    0.000    2.727    3.818    2.182 
#    0.000   10.000    0.000    0.000    0.000    0.000 
#    0.000    0.000    0.000    0.000    0.000    0.000 
#
# Total GULP energy -272641.160366 kJ/mol
# GULP energy per Si atom -12392.780017 kJ/mol
# Density = 2.106881 g / cm^3
# Si number density = 21.116869 Si / 1000 Ang^3
#
#
#
# Elastic Constant Matrix: (Units=GPa)
#
#
# Indices 1 2 3 4 5 6 
#
# 1 90.9406 15.4988 53.1016 -0.0001 -30.2618 0.0001
# 2 15.4988 87.8040 39.3060 -0.0001 1.7208 0.0001
# 3 53.1016 39.3060 124.5116 -0.0003 -6.7262 0.0000
# 4 -0.0001 -0.0001 -0.0003 31.7646 0.0001 -0.8287
# 5 -30.2618 1.7208 -6.7262 0.0001 38.8800 0.0000
# 6 0.0001 0.0001 0.0000 -0.8287 0.0000 22.6168
#
#
#
# Elastic Compliance Matrix: (Units=1/GPa)
#
#
# Indices 1 2 3 4 5 6 
#
# 1 0.020499 -0.000402 -0.007826 0.000000 0.014619 0.000000
# 2 -0.000402 0.013339 -0.004127 0.000000 -0.001617 0.000000
# 3 -0.007826 -0.004127 0.012469 0.000000 -0.003751 0.000000
# 4 0.000000 0.000000 0.000000 0.031512 0.000000 0.001155
# 5 0.014619 -0.001617 -0.003751 0.000000 0.036521 0.000000
# 6 0.000000 0.000000 0.000000 0.001155 0.000000 0.044257
#
#
# Mechanical properties :
#
#
# Convention : Reuss Voigt Hill
#
# Bulk Modulus (GPa) = 46.30001 57.67432 51.98717
# Shear Modulus (GPa) = 26.24593 31.67560 28.96076
#
# Velocity S-wave (km/s) = 3.52929 3.87720 3.70733
# Velocity P-wave (km/s) = 6.21136 6.88585 6.55728
#
# Compressibility (1/GPa) = 0.02159827
#
# Stress axis : x y z
#
# Youngs Moduli (GPa) = 48.78282 74.96790 80.19820
#
# Poissons Ratio (x) = 0.03011 0.62762
# Poissons Ratio (y) = 0.01959 0.33097
# Poissons Ratio (z) = 0.38177 0.30939
#
# Static dielectric constant tensor:
#      x y z
#    x 3.721540 0.000000 -0.292950 
#    y 0.000000 3.731270 0.000000 
#    z -0.292950 0.000000 3.995450 
# 
# 
# High freq. dielectric constant tensor:
#      x y z
#    x 1.821230 0.000000 -0.021290 
#    y 0.000000 1.826130 0.000000 
#    z -0.021290 0.000000 1.833810 
# 
# From -- ./inp_files/238620.got.cif
#   From: 2010.06.25/outbox.cif.g09.slc.cpg/sg15_120_cif.got.tgz:238620.got - 2010.06.28 07:06:18.
