data_PCOD8142342
_publ_section_title
;
Structure prediction by ZEFSAII (Michael W. Deem and Ramdas Pophale) SiO2 
 PCOD8142342
Probable space group: C 2/C
;
_chemical_formula_sum "Si O2"
_cell_formula_units_Z 56
_cell_length_a 14.382829
_cell_length_b 19.103711
_cell_length_c 20.281987
_cell_angle_alpha 90.000000
_cell_angle_beta 28.379269
_cell_angle_gamma 90.000000
_cell_volume 2648.779226
_symmetry_space_group_name_H-M "C 2/C"
_symmetry_group_IT_number 15
_symmetry_cell_setting 'monoclinic'
loop_
_space_group_symop_operation_xyz
x,y,z
-x,y,1/2-z
-x,-y,-z
x,-y,1/2+z
1/2+x,1/2+y,z
1/2-x,1/2+y,1/2-z
1/2-x,1/2-y,-z
1/2+x,1/2-y,1/2+z
loop_
_atom_site_type_symbol
_atom_site_label
_atom_site_fract_x
_atom_site_fract_y
_atom_site_fract_z
Si Si1 0.541639 0.577180 0.152697
Si Si2 0.205824 0.711118 0.203612
Si Si3 0.500000 0.326418 0.250000
Si Si4 0.638612 0.828352 0.111840
Si Si5 0.633056 0.886131 0.867586
Si Si6 0.213228 0.561836 0.988375
Si Si7 0.583324 0.781193 0.010636
Si Si8 0.500000 0.895491 0.750000
O O1 0.500000 0.612162 0.250000
O O2 0.338730 0.571553 0.238204
O O3 0.640887 0.502911 0.105386
O O4 0.680538 0.624690 0.022267
O O5 0.120483 0.679448 0.324760
O O6 0.432650 0.728390 0.070631
O O7 0.178260 0.651613 0.165851
O O8 0.094587 0.780874 0.249642
O O9 0.660900 0.370199 0.109215
O O10 0.500000 0.869715 0.250000
O O11 0.509742 0.805293 0.129073
O O12 0.713393 0.759666 0.104790
O O13 0.461077 0.941619 0.957490
O O14 0.607862 0.852759 0.955131
O O15 0.106009 0.560581 0.126515
#
# Coordination Sequence:
#
# PCOD8142342 Si02
#       8
#     8   8   4   8   8   8   8   4
#     4  12  25  46  66  90 135 180 223 273 321 398
#     4  10  21  38  67 101 133 164 214 278 338 393
#     4  11  22  40  68 104 130 173 218 274 336 395
#     4  11  25  40  65 100 134 171 213 275 336 393
#     4  11  23  43  70  98 130 177 223 273 333 390
#     4  11  25  46  65  94 136 178 225 270 325 398
#     4  11  21  39  67  98 135 167 212 273 336 400
#     4   9  24  42  66  94 134 169 212 278 336 383
#
# _framework density 21.141815000000001
#
# number of rings (size 3 to 8) (size 9 to 14) (size 15 to 20)
#    0.000    1.143    5.000    0.857    5.000    2.286 
#    2.571    2.857    0.000    0.000    0.000    0.000 
#    0.000    0.000    0.000    0.000    0.000    0.000 
#
# Total GULP energy -347043.746030 kJ/mol
# GULP energy per Si atom -12394.419501 kJ/mol
# Density = 2.109370 g / cm^3
# Si number density = 21.141815 Si / 1000 Ang^3
#
#
#
# Elastic Constant Matrix: (Units=GPa)
#
#
# Indices 1 2 3 4 5 6 
#
# 1 146.4974 46.7135 61.8812 -0.0088 -12.3655 -0.0056
# 2 46.7135 77.2993 37.1157 -0.0157 -7.6944 -0.0057
# 3 61.8812 37.1157 121.6949 -0.0662 7.1882 -0.0152
# 4 -0.0088 -0.0157 -0.0662 24.6183 0.0092 -5.8559
# 5 -12.3655 -7.6944 7.1882 0.0092 38.6116 0.0034
# 6 -0.0056 -0.0057 -0.0152 -5.8559 0.0034 29.5671
#
#
#
# Elastic Compliance Matrix: (Units=1/GPa)
#
#
# Indices 1 2 3 4 5 6 
#
# 1 0.010054 -0.003756 -0.004159 -0.000012 0.003246 -0.000004
# 2 -0.003756 0.017171 -0.003497 -0.000001 0.002870 0.000000
# 3 -0.004159 -0.003497 0.011646 0.000032 -0.004197 0.000011
# 4 -0.000012 -0.000001 0.000032 0.042629 -0.000021 0.008443
# 5 0.003246 0.002870 -0.004197 -0.000021 0.028292 -0.000008
# 6 -0.000004 0.000000 0.000011 0.008443 -0.000008 0.035494
#
#
# Mechanical properties :
#
#
# Convention : Reuss Voigt Hill
#
# Bulk Modulus (GPa) = 62.30929 70.76805 66.53867
# Shear Modulus (GPa) = 28.82536 31.87813 30.35174
#
# Velocity S-wave (km/s) = 3.69647 3.88728 3.79308
# Velocity P-wave (km/s) = 6.91047 7.32760 7.12209
#
# Compressibility (1/GPa) = 0.01604897
#
# Stress axis : x y z
#
# Youngs Moduli (GPa) = 99.45883 58.23692 85.86418
#
# Poissons Ratio (x) = 0.21875 0.35709
# Poissons Ratio (y) = 0.37358 0.30023
# Poissons Ratio (z) = 0.41362 0.20363
#
# Static dielectric constant tensor:
#      x y z
#    x 4.245030 -0.000030 -0.000410 
#    y -0.000030 3.604450 0.000110 
#    z -0.000410 0.000110 3.843270 
# 
# 
# High freq. dielectric constant tensor:
#      x y z
#    x 1.848690 0.000000 -0.003360 
#    y 0.000000 1.807130 0.000010 
#    z -0.003360 0.000010 1.828380 
# 
# From -- ./inp_files/245138.got.cif
#   From: 2010.06.25/outbox.cif.g09.slc.cpg/sg15_123_cif.got.tgz:245138.got - 2010.06.28 07:06:18.
