data_PCOD8142597
_publ_section_title
;
Structure prediction by ZEFSAII (Michael W. Deem and Ramdas Pophale) SiO2 
 PCOD8142597
Probable space group: C 2/C
;
_chemical_formula_sum "Si O2"
_cell_formula_units_Z 56
_cell_length_a 17.609830
_cell_length_b 8.559518
_cell_length_c 25.546987
_cell_angle_alpha 90.000000
_cell_angle_beta 135.510952
_cell_angle_gamma 90.000000
_cell_volume 2698.494068
_symmetry_space_group_name_H-M "C 2/C"
_symmetry_group_IT_number 15
_symmetry_cell_setting 'monoclinic'
loop_
_space_group_symop_operation_xyz
x,y,z
-x,y,1/2-z
-x,-y,-z
x,-y,1/2+z
1/2+x,1/2+y,z
1/2-x,1/2+y,1/2-z
1/2-x,1/2-y,-z
1/2+x,1/2-y,1/2+z
loop_
_atom_site_type_symbol
_atom_site_label
_atom_site_fract_x
_atom_site_fract_y
_atom_site_fract_z
Si Si1 0.192953 0.712780 0.843397
Si Si2 0.624866 0.479755 0.551362
Si Si3 0.395713 0.141795 0.591328
Si Si4 0.670217 0.483914 0.959948
Si Si5 0.366554 0.940060 0.291429
Si Si6 0.759879 0.266211 0.690974
Si Si7 0.879262 0.953952 0.175526
O O1 0.314197 0.644003 0.908064
O O2 0.119413 0.639639 0.853287
O O3 0.139831 0.668643 0.762517
O O4 0.199689 0.899596 0.851637
O O5 0.500000 0.500000 0.500000
O O6 0.644131 0.424618 0.500840
O O7 0.667190 0.350528 0.612296
O O8 0.394779 0.319843 0.570382
O O9 0.298503 0.046478 0.516333
O O10 0.507611 0.058425 0.629845
O O11 0.629432 0.586939 0.890642
O O12 0.292622 0.869944 0.300724
O O13 0.324749 0.114643 0.260092
O O14 0.846038 0.195211 0.692871
O O15 0.000000 0.004569 0.250000
#
# Coordination Sequence:
#
# PCOD8142597 Si02
#       7
#     8   8   8   8   8   8   8
#     4   9  19  35  62  91 119 158 205 239 293 371
#     4  10  21  39  62  91 127 164 199 248 304 361
#     4   9  17  34  63  90 112 153 198 243 295 357
#     4   9  19  36  60  89 119 153 200 244 295 363
#     4  11  21  39  60  85 122 157 199 256 306 354
#     4  11  26  39  58  88 119 160 209 251 303 372
#     4  11  23  40  60  88 123 159 204 256 303 355
#
# _framework density 20.752314999999999
#
# number of rings (size 3 to 8) (size 9 to 14) (size 15 to 20)
#    0.000    2.000    0.000    4.714    0.000    6.286 
#    0.000    5.714    0.000    0.000    0.000    0.000 
#    0.000    0.000    0.000    0.000    0.000    0.000 
#
# Total GULP energy -347271.378744 kJ/mol
# GULP energy per Si atom -12402.549241 kJ/mol
# Density = 2.070508 g / cm^3
# Si number density = 20.752315 Si / 1000 Ang^3
#
#
#
# Elastic Constant Matrix: (Units=GPa)
#
#
# Indices 1 2 3 4 5 6 
#
# 1 88.6191 45.9456 56.1164 0.0000 9.1163 0.0000
# 2 45.9456 87.6677 40.3517 0.0000 5.9469 0.0000
# 3 56.1164 40.3517 127.5291 0.0000 4.9167 0.0000
# 4 0.0000 0.0000 0.0000 19.0766 0.0000 -8.1255
# 5 9.1163 5.9469 4.9167 0.0000 43.0390 0.0000
# 6 0.0000 0.0000 0.0000 -8.1255 0.0000 35.2910
#
#
#
# Elastic Compliance Matrix: (Units=1/GPa)
#
#
# Indices 1 2 3 4 5 6 
#
# 1 0.018991 -0.007009 -0.006048 0.000000 -0.002363 0.000000
# 2 -0.007009 0.016019 -0.001965 0.000000 -0.000504 0.000000
# 3 -0.006048 -0.001965 0.011113 0.000000 0.000283 0.000000
# 4 0.000000 0.000000 0.000000 0.058120 0.000000 0.013382
# 5 -0.002363 -0.000504 0.000283 0.000000 0.023773 0.000000
# 6 0.000000 0.000000 0.000000 0.013382 0.000000 0.031417
#
#
# Mechanical properties :
#
#
# Convention : Reuss Voigt Hill
#
# Bulk Modulus (GPa) = 62.19016 65.40480 63.79748
# Shear Modulus (GPa) = 25.66273 30.24148 27.95210
#
# Velocity S-wave (km/s) = 3.52038 3.82155 3.67405
# Velocity P-wave (km/s) = 6.82326 7.14546 6.98622
#
# Compressibility (1/GPa) = 0.01607971
#
# Stress axis : x y z
#
# Youngs Moduli (GPa) = 52.65712 62.42733 89.98222
#
# Poissons Ratio (x) = 0.43755 0.54418
# Poissons Ratio (y) = 0.36907 0.17681
# Poissons Ratio (z) = 0.31845 0.12266
#
# Static dielectric constant tensor:
#      x y z
#    x 3.690080 0.000000 -0.200270 
#    y 0.000000 3.518340 0.000000 
#    z -0.200270 0.000000 3.920920 
# 
# 
# High freq. dielectric constant tensor:
#      x y z
#    x 1.808030 0.000000 -0.008740 
#    y 0.000000 1.786700 0.000000 
#    z -0.008740 0.000000 1.825660 
# 
# From -- ./inp_files/298554.got.cif
#   From: 2010.06.25/outbox.cif.g09.slc.cpg/sg15_150_cif.got.tgz:298554.got - 2010.06.28 07:06:18.
