data_PCOD8142361
_publ_section_title
;
Structure prediction by ZEFSAII (Michael W. Deem and Ramdas Pophale) SiO2 
 PCOD8142361
Probable space group: C 2/C
;
_chemical_formula_sum "Si O2"
_cell_formula_units_Z 32
_cell_length_a 29.095305
_cell_length_b 4.972676
_cell_length_c 17.677125
_cell_angle_alpha 90.000000
_cell_angle_beta 144.729567
_cell_angle_gamma 90.000000
_cell_volume 1476.824394
_symmetry_space_group_name_H-M "C 2/C"
_symmetry_group_IT_number 15
_symmetry_cell_setting 'monoclinic'
loop_
_space_group_symop_operation_xyz
x,y,z
-x,y,1/2-z
-x,-y,-z
x,-y,1/2+z
1/2+x,1/2+y,z
1/2-x,1/2+y,1/2-z
1/2-x,1/2-y,-z
1/2+x,1/2-y,1/2+z
loop_
_atom_site_type_symbol
_atom_site_label
_atom_site_fract_x
_atom_site_fract_y
_atom_site_fract_z
Si Si1 0.548467 0.724576 0.475460
Si Si2 0.720529 0.391125 0.168034
Si Si3 0.050109 0.731761 0.151539
Si Si4 0.216263 0.505646 0.410697
O O1 0.627464 0.675389 0.532646
O O2 0.479076 0.518457 0.352827
O O3 0.570815 0.686616 0.593512
O O4 0.524330 0.034744 0.436225
O O5 0.731499 0.623934 0.244859
O O6 0.755762 0.497981 0.137494
O O7 0.121976 0.568531 0.286854
O O8 0.250000 0.250000 0.500000
O O9 0.250000 0.750000 0.500000
#
# Coordination Sequence:
#
# PCOD8142361 Si02
#       4
#     8   8   8   8
#     4  10  21  38  67  95 124 163 224 280 310 379
#     4  12  24  42  68 100 128 169 232 275 316 390
#     4  10  21  40  63  95 128 168 214 269 333 382
#     4  12  26  44  64  96 139 176 209 269 345 402
#
# _framework density 21.668113999999999
#
# number of rings (size 3 to 8) (size 9 to 14) (size 15 to 20)
#    0.000    1.000    2.500    4.500    7.000    0.000 
#    0.000    7.500    0.000    0.000    0.000    0.000 
#    0.000    0.000    0.000    0.000    0.000    0.000 
#
# Total GULP energy -198277.062648 kJ/mol
# GULP energy per Si atom -12392.316415 kJ/mol
# Density = 2.161880 g / cm^3
# Si number density = 21.668114 Si / 1000 Ang^3
#
#
#
# Elastic Constant Matrix: (Units=GPa)
#
#
# Indices 1 2 3 4 5 6 
#
# 1 69.0847 24.1627 30.4949 0.0003 19.5062 0.0007
# 2 24.1627 138.8833 34.9147 -0.0016 4.7643 0.0006
# 3 30.4949 34.9147 100.9952 -0.0010 16.2390 0.0001
# 4 0.0003 -0.0016 -0.0010 55.7021 0.0000 -2.9072
# 5 19.5062 4.7643 16.2390 0.0000 26.8563 -0.0001
# 6 0.0007 0.0006 0.0001 -2.9072 -0.0001 31.6025
#
#
#
# Elastic Compliance Matrix: (Units=1/GPa)
#
#
# Indices 1 2 3 4 5 6 
#
# 1 0.020199 -0.002252 -0.003352 0.000000 -0.012245 0.000000
# 2 -0.002252 0.008138 -0.002398 0.000000 0.001641 0.000000
# 3 -0.003352 -0.002398 0.012498 0.000000 -0.004697 0.000000
# 4 0.000000 0.000000 0.000000 0.018039 0.000000 0.001659
# 5 -0.012245 0.001641 -0.004697 0.000000 0.048678 0.000000
# 6 0.000000 0.000000 0.000000 0.001659 0.000000 0.031796
#
#
# Mechanical properties :
#
#
# Convention : Reuss Voigt Hill
#
# Bulk Modulus (GPa) = 40.26815 54.23420 47.25117
# Shear Modulus (GPa) = 30.55712 37.45826 34.00769
#
# Velocity S-wave (km/s) = 3.75938 4.16231 3.96597
# Velocity P-wave (km/s) = 6.12114 6.94144 6.54415
#
# Compressibility (1/GPa) = 0.02483352
#
# Stress axis : x y z
#
# Youngs Moduli (GPa) = 49.50644 122.87357 80.01524
#
# Poissons Ratio (x) = 0.27666 0.26820
# Poissons Ratio (y) = 0.11147 0.19184
# Poissons Ratio (z) = 0.16594 0.29460
#
# Static dielectric constant tensor:
#      x y z
#    x 3.673630 0.000000 0.156940 
#    y 0.000000 4.124330 0.000000 
#    z 0.156940 0.000000 4.047870 
# 
# 
# High freq. dielectric constant tensor:
#      x y z
#    x 1.828800 0.000000 0.025400 
#    y 0.000000 1.879850 0.000000 
#    z 0.025400 0.000000 1.843900 
# 
# From -- ./inp_files/212552.got.cif
#   From: 2010.06.25/outbox.cif.g09.slc.cpg/sg15_107_cif.got.tgz:212552.got - 2010.06.28 07:06:18.
