data_PCOD8142255
_publ_section_title
;
Structure prediction by ZEFSAII (Michael W. Deem and Ramdas Pophale) SiO2 
 PCOD8142255
Probable space group: C 2/C
;
_chemical_formula_sum "Si O2"
_cell_formula_units_Z 56
_cell_length_a 24.741861
_cell_length_b 17.898358
_cell_length_c 18.174329
_cell_angle_alpha 90.000000
_cell_angle_beta 18.616684
_cell_angle_gamma 90.000000
_cell_volume 2569.299994
_symmetry_space_group_name_H-M "C 2/C"
_symmetry_group_IT_number 15
_symmetry_cell_setting 'monoclinic'
loop_
_space_group_symop_operation_xyz
x,y,z
-x,y,1/2-z
-x,-y,-z
x,-y,1/2+z
1/2+x,1/2+y,z
1/2-x,1/2+y,1/2-z
1/2-x,1/2-y,-z
1/2+x,1/2-y,1/2+z
loop_
_atom_site_type_symbol
_atom_site_label
_atom_site_fract_x
_atom_site_fract_y
_atom_site_fract_z
Si Si1 0.212980 0.047564 0.754549
Si Si2 0.260986 0.390315 0.728249
Si Si3 0.641190 0.196728 0.509603
Si Si4 0.073989 0.399144 0.818840
Si Si5 0.946986 0.770503 0.144456
Si Si6 0.694517 0.884070 0.514227
Si Si7 0.474009 0.687588 0.451070
O O1 0.403943 0.052297 0.540087
O O2 0.217938 0.063317 0.660301
O O3 0.146511 0.963893 0.857229
O O4 0.087313 0.102552 0.960364
O O5 0.125216 0.363463 0.964268
O O6 0.173600 0.411725 0.765100
O O7 0.393552 0.323781 0.545728
O O8 0.606893 0.278764 0.518893
O O9 0.822575 0.193214 0.315532
O O10 0.500000 0.174845 0.750000
O O11 0.016234 0.313436 0.877451
O O12 0.200419 0.421709 0.588132
O O13 0.787743 0.803972 0.393718
O O14 0.908005 0.766337 0.107233
O O15 0.500000 0.867940 0.750000
#
# Coordination Sequence:
#
# PCOD8142255 Si02
#       7
#     8   8   8   8   8   8   8
#     4  10  22  42  62  90 130 171 209 251 324 384
#     4  11  24  39  66  92 128 170 209 262 317 386
#     4  11  23  40  65  95 120 167 219 275 315 370
#     4  11  21  39  64  94 128 164 214 259 318 374
#     4  10  21  38  64  93 125 163 209 258 311 372
#     4   9  21  36  62  92 126 164 203 259 310 374
#     4  10  21  40  65  90 126 167 215 265 316 377
#
# _framework density 21.795819000000002
#
# number of rings (size 3 to 8) (size 9 to 14) (size 15 to 20)
#    0.000    1.714    1.429    3.000    4.000    7.429 
#    0.000    0.000    6.286    0.000    0.000    0.000 
#    0.000    0.000    0.000    0.000    0.000    0.000 
#
# Total GULP energy -347156.892318 kJ/mol
# GULP energy per Si atom -12398.460440 kJ/mol
# Density = 2.174621 g / cm^3
# Si number density = 21.795819 Si / 1000 Ang^3
#
#
#
# Elastic Constant Matrix: (Units=GPa)
#
#
# Indices 1 2 3 4 5 6 
#
# 1 86.6029 28.7674 35.9842 -0.0369 18.3490 0.0470
# 2 28.7674 93.2353 29.1396 -0.0125 5.8249 0.0074
# 3 35.9842 29.1396 128.4585 -0.0237 10.1022 0.0285
# 4 -0.0369 -0.0125 -0.0237 23.4182 0.0193 -5.7569
# 5 18.3490 5.8249 10.1022 0.0193 23.8369 -0.0197
# 6 0.0470 0.0074 0.0285 -5.7569 -0.0197 24.7263
#
#
#
# Elastic Compliance Matrix: (Units=1/GPa)
#
#
# Indices 1 2 3 4 5 6 
#
# 1 0.016074 -0.003403 -0.002920 0.000022 -0.010304 -0.000029
# 2 -0.003403 0.012337 -0.001877 0.000000 0.000400 0.000005
# 3 -0.002920 -0.001877 0.009119 0.000003 -0.001158 -0.000005
# 4 0.000022 0.000000 0.000003 0.045294 -0.000046 0.010546
# 5 -0.010304 0.000400 -0.001158 -0.000046 0.050277 0.000050
# 6 -0.000029 0.000005 -0.000005 0.010546 0.000050 0.042898
#
#
# Mechanical properties :
#
#
# Convention : Reuss Voigt Hill
#
# Bulk Modulus (GPa) = 47.32568 55.11989 51.22278
# Shear Modulus (GPa) = 25.06970 28.68997 26.87983
#
# Velocity S-wave (km/s) = 3.39515 3.63203 3.51558
# Velocity P-wave (km/s) = 6.09342 6.55232 6.32703
#
# Compressibility (1/GPa) = 0.02113018
#
# Stress axis : x y z
#
# Youngs Moduli (GPa) = 62.21205 81.05628 109.65516
#
# Poissons Ratio (x) = 0.27584 0.32024
# Poissons Ratio (y) = 0.21171 0.20580
# Poissons Ratio (z) = 0.18168 0.15212
#
# Static dielectric constant tensor:
#      x y z
#    x 4.059720 -0.000040 0.240240 
#    y -0.000040 3.764180 0.000060 
#    z 0.240240 0.000060 4.071180 
# 
# 
# High freq. dielectric constant tensor:
#      x y z
#    x 1.856430 0.000000 -0.001080 
#    y 0.000000 1.839810 0.000000 
#    z -0.001080 0.000000 1.859260 
# 
# From -- ./inp_files/222929.got.cif
#   From: 2010.06.25/outbox.cif.g09.slc.cpg/sg15_112_cif.got.tgz:222929.got - 2010.06.28 07:06:18.
