data_PCOD8142181
_publ_section_title
;
Structure prediction by ZEFSAII (Michael W. Deem and Ramdas Pophale) SiO2 
 PCOD8142181
Probable space group: C 2/C
;
_chemical_formula_sum "Si O2"
_cell_formula_units_Z 48
_cell_length_a 22.729029
_cell_length_b 11.435178
_cell_length_c 11.631664
_cell_angle_alpha 90.000000
_cell_angle_beta 124.622594
_cell_angle_gamma 90.000000
_cell_volume 2487.821730
_symmetry_space_group_name_H-M "C 2/C"
_symmetry_group_IT_number 15
_symmetry_cell_setting 'monoclinic'
loop_
_space_group_symop_operation_xyz
x,y,z
-x,y,1/2-z
-x,-y,-z
x,-y,1/2+z
1/2+x,1/2+y,z
1/2-x,1/2+y,1/2-z
1/2-x,1/2-y,-z
1/2+x,1/2-y,1/2+z
loop_
_atom_site_type_symbol
_atom_site_label
_atom_site_fract_x
_atom_site_fract_y
_atom_site_fract_z
Si Si1 0.179757 0.106540 0.089825
Si Si2 0.424384 0.940536 0.440168
Si Si3 0.683451 0.338822 0.053499
Si Si4 0.658159 0.244583 0.784159
Si Si5 0.839956 0.653798 0.282299
Si Si6 0.079212 0.723185 0.350431
O O1 0.164050 0.147377 0.202311
O O2 0.260655 0.137258 0.144635
O O3 0.162587 0.970626 0.059929
O O4 0.130511 0.172736 0.944547
O O5 0.406221 0.842210 0.323493
O O6 0.422233 0.883765 0.562752
O O7 0.500000 0.000000 0.500000
O O8 0.362277 0.037258 0.374981
O O9 0.768561 0.329024 0.133101
O O10 0.654715 0.262564 0.126413
O O11 0.643048 0.298025 0.892668
O O12 0.895523 0.671670 0.241975
O O13 0.000000 0.775926 0.250000
#
# Coordination Sequence:
#
# PCOD8142181 Si02
#       6
#     8   8   8   8   8   8
#     4  10  22  40  64  90 124 164 205 258 302 374
#     4  11  22  40  63  89 126 160 198 262 305 360
#     4  10  21  38  63  91 121 162 205 257 299 368
#     4   9  21  39  60  93 126 157 207 253 310 360
#     4  11  23  38  64  94 120 161 213 247 317 363
#     4  11  24  41  61  92 127 163 202 254 312 367
#
# _framework density 19.293987000000001
#
# number of rings (size 3 to 8) (size 9 to 14) (size 15 to 20)
#    0.000    1.667    3.333    0.500    4.667    1.333 
#    0.000    2.500    0.000    0.000    0.000    0.000 
#    0.000    0.000    0.000    0.000    0.000    0.000 
#
# Total GULP energy -297708.640718 kJ/mol
# GULP energy per Si atom -12404.526697 kJ/mol
# Density = 1.925007 g / cm^3
# Si number density = 19.293987 Si / 1000 Ang^3
#
#
#
# Elastic Constant Matrix: (Units=GPa)
#
#
# Indices 1 2 3 4 5 6 
#
# 1 98.6965 53.1230 56.0907 0.0000 3.2925 0.0000
# 2 53.1230 144.8549 50.0515 0.0000 0.0930 0.0000
# 3 56.0907 50.0515 104.5166 0.0000 3.4475 0.0000
# 4 0.0000 0.0000 0.0000 28.6902 0.0000 6.2668
# 5 3.2925 0.0930 3.4475 0.0000 35.2643 0.0000
# 6 0.0000 0.0000 0.0000 6.2668 0.0000 25.8497
#
#
#
# Elastic Compliance Matrix: (Units=1/GPa)
#
#
# Indices 1 2 3 4 5 6 
#
# 1 0.015924 -0.003470 -0.006858 0.000000 -0.000807 0.000000
# 2 -0.003470 0.009033 -0.002482 0.000000 0.000543 0.000000
# 3 -0.006858 -0.002482 0.014462 0.000000 -0.000767 0.000000
# 4 0.000000 0.000000 0.000000 0.036804 0.000000 -0.008923
# 5 -0.000807 0.000543 -0.000767 0.000000 0.028506 0.000000
# 6 0.000000 0.000000 0.000000 -0.008923 0.000000 0.040848
#
#
# Mechanical properties :
#
#
# Convention : Reuss Voigt Hill
#
# Bulk Modulus (GPa) = 72.45944 74.06651 73.26297
# Shear Modulus (GPa) = 28.44216 30.54770 29.49493
#
# Velocity S-wave (km/s) = 3.84363 3.98336 3.91412
# Velocity P-wave (km/s) = 7.57198 7.72191 7.64731
#
# Compressibility (1/GPa) = 0.01380082
#
# Stress axis : x y z
#
# Youngs Moduli (GPa) = 62.79886 110.70462 69.14776
#
# Poissons Ratio (x) = 0.38412 0.47419
# Poissons Ratio (y) = 0.21790 0.17160
# Poissons Ratio (z) = 0.43065 0.27472
#
# Static dielectric constant tensor:
#      x y z
#    x 3.322560 0.000000 0.038610 
#    y 0.000000 3.529780 0.000000 
#    z 0.038610 0.000000 3.740730 
# 
# 
# High freq. dielectric constant tensor:
#      x y z
#    x 1.734740 0.000000 -0.001110 
#    y 0.000000 1.756450 0.000000 
#    z -0.001110 0.000000 1.764780 
# 
# From -- ./inp_files/110859.got.cif
#   From: 2010.06.25/outbox.cif.g09.slc.cpg/sg15_56_cif.got.tgz:110859.got - 2010.06.28 07:06:18.
