data_PCOD8142139
_publ_section_title
;
Structure prediction by ZEFSAII (Michael W. Deem and Ramdas Pophale) SiO2 
 PCOD8142139
Probable space group: C 2/C
;
_chemical_formula_sum "Si O2"
_cell_formula_units_Z 48
_cell_length_a 8.723731
_cell_length_b 21.089326
_cell_length_c 20.058030
_cell_angle_alpha 90.000000
_cell_angle_beta 141.750054
_cell_angle_gamma 90.000000
_cell_volume 2284.595318
_symmetry_space_group_name_H-M "C 2/C"
_symmetry_group_IT_number 15
_symmetry_cell_setting 'monoclinic'
loop_
_space_group_symop_operation_xyz
x,y,z
-x,y,1/2-z
-x,-y,-z
x,-y,1/2+z
1/2+x,1/2+y,z
1/2-x,1/2+y,1/2-z
1/2-x,1/2-y,-z
1/2+x,1/2-y,1/2+z
loop_
_atom_site_type_symbol
_atom_site_label
_atom_site_fract_x
_atom_site_fract_y
_atom_site_fract_z
Si Si1 0.580200 0.811196 0.949344
Si Si2 0.883463 0.165864 0.136571
Si Si3 0.350412 0.875492 0.262675
Si Si4 0.918354 0.070986 0.541232
Si Si5 0.694621 0.756261 0.758373
Si Si6 0.796357 0.929599 0.494236
O O1 0.402401 0.809774 0.953824
O O2 0.397439 0.808686 0.825027
O O3 0.750000 0.750000 0.000000
O O4 0.733330 0.875292 0.002455
O O5 0.000000 0.153317 0.250000
O O6 0.021671 0.219397 0.137699
O O7 0.880964 0.101622 0.092393
O O8 0.500000 0.849081 0.250000
O O9 0.191501 0.816760 0.235726
O O10 0.526874 0.904602 0.379383
O O11 0.159517 0.929215 0.171770
O O12 0.999330 0.084541 0.492774
O O13 0.777137 0.004675 0.499675
O O14 0.500000 0.763220 0.750000
#
# Coordination Sequence:
#
# PCOD8142139 Si02
#       6
#     8   8   8   8   8   8
#     4  11  22  39  64  90 128 168 208 264 320 375
#     4  10  24  42  63  95 130 170 212 267 325 377
#     4  10  21  38  62  92 129 166 213 268 319 386
#     4  10  22  42  65  95 130 171 217 262 320 388
#     4  11  23  39  63  95 126 167 217 267 324 385
#     4  10  23  41  66  95 128 176 216 262 321 386
#
# _framework density 21.010286000000001
#
# number of rings (size 3 to 8) (size 9 to 14) (size 15 to 20)
#    0.000    1.667    1.667    2.500    4.667    4.000 
#    0.000    5.833    0.000    0.000    0.000    0.000 
#    0.000    0.000    0.000    0.000    0.000    0.000 
#
# Total GULP energy -297430.316280 kJ/mol
# GULP energy per Si atom -12392.929845 kJ/mol
# Density = 2.096247 g / cm^3
# Si number density = 21.010286 Si / 1000 Ang^3
#
#
#
# Elastic Constant Matrix: (Units=GPa)
#
#
# Indices 1 2 3 4 5 6 
#
# 1 154.7394 72.9391 47.2587 0.0007 18.6077 0.0007
# 2 72.9391 115.5206 48.3697 0.0001 4.9641 0.0003
# 3 47.2587 48.3697 80.2589 0.0012 -0.0681 0.0007
# 4 0.0007 0.0001 0.0012 31.9083 0.0009 -0.5670
# 5 18.6077 4.9641 -0.0681 0.0009 30.8303 0.0007
# 6 0.0007 0.0003 0.0007 -0.5670 0.0007 30.6419
#
#
#
# Elastic Compliance Matrix: (Units=1/GPa)
#
#
# Indices 1 2 3 4 5 6 
#
# 1 0.010463 -0.005067 -0.003112 0.000000 -0.005506 0.000000
# 2 -0.005067 0.014142 -0.005539 0.000000 0.000769 0.000000
# 3 -0.003112 -0.005539 0.017633 -0.000001 0.002809 0.000000
# 4 0.000000 0.000000 -0.000001 0.031350 -0.000001 0.000580
# 5 -0.005506 0.000769 0.002809 -0.000001 0.035641 -0.000001
# 6 0.000000 0.000000 0.000000 0.000580 -0.000001 0.032646
#
#
# Mechanical properties :
#
#
# Convention : Reuss Voigt Hill
#
# Bulk Modulus (GPa) = 67.55678 76.40600 71.98139
# Shear Modulus (GPa) = 28.69532 30.80620 29.75076
#
# Velocity S-wave (km/s) = 3.69965 3.83331 3.76707
# Velocity P-wave (km/s) = 7.10449 7.48581 7.29764
#
# Compressibility (1/GPa) = 0.01480236
#
# Stress axis : x y z
#
# Youngs Moduli (GPa) = 95.57074 70.71291 56.71315
#
# Poissons Ratio (x) = 0.35829 0.17650
# Poissons Ratio (y) = 0.48424 0.31411
# Poissons Ratio (z) = 0.29744 0.39165
#
# Static dielectric constant tensor:
#      x y z
#    x 4.703240 0.000000 0.286390 
#    y 0.000000 3.730160 0.000000 
#    z 0.286390 0.000000 4.189400 
# 
# 
# High freq. dielectric constant tensor:
#      x y z
#    x 1.832670 0.000000 0.014110 
#    y 0.000000 1.812510 0.000000 
#    z 0.014110 0.000000 1.823890 
# 
# From -- ./inp_files/233973.got.cif
#   From: 2010.06.25/outbox.cif.g09.slc.cpg/sg15_117_cif.got.tgz:233973.got - 2010.06.28 07:06:18.
