data_PCOD8142889
_publ_section_title
;
Structure prediction by ZEFSAII (Michael W. Deem and Ramdas Pophale) SiO2 
 PCOD8142889
Probable space group: C 2/C
;
_chemical_formula_sum "Si O2"
_cell_formula_units_Z 48
_cell_length_a 14.121448
_cell_length_b 11.205515
_cell_length_c 14.858369
_cell_angle_alpha 90.000000
_cell_angle_beta 88.292727
_cell_angle_gamma 90.000000
_cell_volume 2350.116329
_symmetry_space_group_name_H-M "C 2/C"
_symmetry_group_IT_number 15
_symmetry_cell_setting 'monoclinic'
loop_
_space_group_symop_operation_xyz
x,y,z
-x,y,1/2-z
-x,-y,-z
x,-y,1/2+z
1/2+x,1/2+y,z
1/2-x,1/2+y,1/2-z
1/2-x,1/2-y,-z
1/2+x,1/2-y,1/2+z
loop_
_atom_site_type_symbol
_atom_site_label
_atom_site_fract_x
_atom_site_fract_y
_atom_site_fract_z
Si Si1 0.194583 0.578383 0.665607
Si Si2 0.894711 0.957278 0.070796
Si Si3 0.186041 0.188017 0.075241
Si Si4 0.916826 0.150348 0.935121
Si Si5 0.411441 0.078055 0.471264
Si Si6 0.733245 0.048909 0.865477
O O1 0.306038 0.567424 0.637671
O O2 0.150249 0.707824 0.642213
O O3 0.135264 0.477985 0.616363
O O4 0.181885 0.568197 0.772275
O O5 0.993047 0.917061 0.114294
O O6 0.895738 0.879264 0.977549
O O7 0.894319 0.093887 0.035055
O O8 0.244842 0.091585 0.130355
O O9 0.250000 0.250000 0.000000
O O10 0.942712 0.288970 0.944557
O O11 0.827208 0.130525 0.871825
O O12 0.336115 0.085675 0.552863
O O13 0.500000 0.000000 0.500000
#
# Coordination Sequence:
#
# PCOD8142889 Si02
#       6
#     8   8   8   8   8   8
#     4  11  23  38  65  92 129 163 208 264 318 375
#     4   9  19  39  65  92 117 171 206 252 316 375
#     4   9  17  38  62  84 125 166 208 243 313 380
#     4  10  21  39  67  90 127 158 215 256 312 377
#     4  12  25  42  63  92 130 168 209 267 318 370
#     4  11  24  39  63  97 122 169 212 261 321 371
#
# _framework density 20.424520000000001
#
# number of rings (size 3 to 8) (size 9 to 14) (size 15 to 20)
#    0.000    1.667    5.000    1.500    4.667    1.333 
#    0.000    1.667    0.000    6.000    0.000    0.000 
#    0.000    0.000    0.000    0.000    0.000    0.000 
#
# Total GULP energy -297494.119909 kJ/mol
# GULP energy per Si atom -12395.588330 kJ/mol
# Density = 2.037803 g / cm^3
# Si number density = 20.424520 Si / 1000 Ang^3
#
#
#
# Elastic Constant Matrix: (Units=GPa)
#
#
# Indices 1 2 3 4 5 6 
#
# 1 80.2001 11.0807 9.7295 0.0000 23.7055 0.0000
# 2 11.0807 137.2068 28.0689 0.0000 12.0741 0.0000
# 3 9.7295 28.0689 100.6080 0.0000 26.0289 0.0000
# 4 0.0000 0.0000 0.0000 25.5284 0.0000 3.9390
# 5 23.7055 12.0741 26.0289 0.0000 16.8282 0.0000
# 6 0.0000 0.0000 0.0000 3.9390 0.0000 29.2273
#
#
#
# Elastic Compliance Matrix: (Units=1/GPa)
#
#
# Indices 1 2 3 4 5 6 
#
# 1 0.028769 0.000393 0.012780 0.000000 -0.060576 0.000000
# 2 0.000393 0.007874 -0.001050 0.000000 -0.004578 0.000000
# 3 0.012780 -0.001050 0.022439 0.000000 -0.051956 0.000000
# 4 0.000000 0.000000 0.000000 0.040004 0.000000 -0.005391
# 5 -0.060576 -0.004578 -0.051956 0.000000 0.228404 0.000000
# 6 0.000000 0.000000 0.000000 -0.005391 0.000000 0.034941
#
#
# Mechanical properties :
#
#
# Convention : Reuss Voigt Hill
#
# Bulk Modulus (GPa) = 12.00086 46.19700 29.09893
# Shear Modulus (GPa) = 13.66261 32.25916 22.96089
#
# Velocity S-wave (km/s) = 2.58918 3.97852 3.35652
# Velocity P-wave (km/s) = 3.85057 6.61607 5.41291
#
# Compressibility (1/GPa) = 0.08332739
#
# Stress axis : x y z
#
# Youngs Moduli (GPa) = 34.75938 126.99514 44.56608
#
# Poissons Ratio (x) = -0.04988 -0.56957
# Poissons Ratio (y) = -0.01365 0.04681
# Poissons Ratio (z) = -0.44423 0.13339
#
# Static dielectric constant tensor:
#      x y z
#    x 3.706270 0.000000 0.271770 
#    y 0.000000 4.340600 0.000000 
#    z 0.271770 0.000000 3.552460 
# 
# 
# High freq. dielectric constant tensor:
#      x y z
#    x 1.794780 0.000000 0.016310 
#    y 0.000000 1.813440 0.000000 
#    z 0.016310 0.000000 1.769980 
# 
# From -- ./inp_files/152107.got.cif
#   From: 2010.06.25/outbox.cif.g09.slc.cpg/sg15_77_cif.got.tgz:152107.got - 2010.06.28 07:06:18.
