data_PCOD8142292
_publ_section_title
;
Structure prediction by ZEFSAII (Michael W. Deem and Ramdas Pophale) SiO2 
 PCOD8142292
Probable space group: C 2/C
;
_chemical_formula_sum "Si O2"
_cell_formula_units_Z 32
_cell_length_a 10.692486
_cell_length_b 9.743702
_cell_length_c 14.748674
_cell_angle_alpha 90.000000
_cell_angle_beta 105.125465
_cell_angle_gamma 90.000000
_cell_volume 1483.349534
_symmetry_space_group_name_H-M "C 2/C"
_symmetry_group_IT_number 15
_symmetry_cell_setting 'monoclinic'
loop_
_space_group_symop_operation_xyz
x,y,z
-x,y,1/2-z
-x,-y,-z
x,-y,1/2+z
1/2+x,1/2+y,z
1/2-x,1/2+y,1/2-z
1/2-x,1/2-y,-z
1/2+x,1/2-y,1/2+z
loop_
_atom_site_type_symbol
_atom_site_label
_atom_site_fract_x
_atom_site_fract_y
_atom_site_fract_z
Si Si1 0.416974 0.147960 0.542802
Si Si2 0.848979 0.004370 0.729168
Si Si3 0.307348 0.876307 0.456828
Si Si4 0.272724 0.257338 0.348462
O O1 0.571469 0.162246 0.585281
O O2 0.386482 0.215937 0.439290
O O3 0.356609 0.224773 0.616476
O O4 0.362620 0.992199 0.535675
O O5 0.809443 0.068021 0.625482
O O6 0.818100 0.107577 0.805046
O O7 0.000000 0.971922 0.750000
O O8 0.763873 0.865500 0.728320
O O9 0.250000 0.750000 0.500000
#
# Coordination Sequence:
#
# PCOD8142292 Si02
#       4
#     8   8   8   8
#     4   9  21  41  62  89 126 165 208 252 311 370
#     4  11  25  40  61  96 125 162 210 256 316 365
#     4  10  21  38  65  93 120 167 208 252 312 371
#     4  10  23  42  62  91 128 163 208 262 306 374
#
# _framework density 21.572797999999999
#
# number of rings (size 3 to 8) (size 9 to 14) (size 15 to 20)
#    0.000    2.000    0.000    1.500    7.000    0.000 
#    0.000    7.500    0.000    0.000    0.000    0.000 
#    0.000    0.000    0.000    0.000    0.000    0.000 
#
# Total GULP energy -198386.635274 kJ/mol
# GULP energy per Si atom -12399.164705 kJ/mol
# Density = 2.152370 g / cm^3
# Si number density = 21.572798 Si / 1000 Ang^3
#
#
#
# Elastic Constant Matrix: (Units=GPa)
#
#
# Indices 1 2 3 4 5 6 
#
# 1 79.7418 20.6239 23.0899 0.0000 13.7081 0.0000
# 2 20.6239 99.5688 27.0519 0.0000 -13.9761 0.0000
# 3 23.0899 27.0519 48.0087 0.0000 0.4319 0.0000
# 4 0.0000 0.0000 0.0000 35.5414 0.0000 -9.8776
# 5 13.7081 -13.9761 0.4319 0.0000 23.6629 0.0000
# 6 0.0000 0.0000 0.0000 -9.8776 0.0000 39.6257
#
#
#
# Elastic Compliance Matrix: (Units=1/GPa)
#
#
# Indices 1 2 3 4 5 6 
#
# 1 0.017340 -0.003599 -0.006204 0.000000 -0.012058 0.000000
# 2 -0.003599 0.013943 -0.006220 0.000000 0.010434 0.000000
# 3 -0.006204 -0.006220 0.027323 0.000000 -0.000578 0.000000
# 4 0.000000 0.000000 0.000000 0.030230 0.000000 0.007536
# 5 -0.012058 0.010434 -0.000578 0.000000 0.055418 0.000000
# 6 0.000000 0.000000 0.000000 0.007536 0.000000 0.027115
#
#
# Mechanical properties :
#
#
# Convention : Reuss Voigt Hill
#
# Bulk Modulus (GPa) = 37.64717 40.98342 39.31530
# Shear Modulus (GPa) = 23.55511 30.20290 26.87901
#
# Velocity S-wave (km/s) = 3.30796 3.74578 3.53366
# Velocity P-wave (km/s) = 5.66385 6.14384 5.90872
#
# Compressibility (1/GPa) = 0.02656242
#
# Stress axis : x y z
#
# Youngs Moduli (GPa) = 57.66901 71.72016 36.59914
#
# Poissons Ratio (x) = 0.25811 0.22705
# Poissons Ratio (y) = 0.20754 0.22763
# Poissons Ratio (z) = 0.35775 0.44608
#
# Static dielectric constant tensor:
#      x y z
#    x 3.823020 0.000000 0.194730 
#    y 0.000000 4.158510 0.000000 
#    z 0.194730 0.000000 3.641440 
# 
# 
# High freq. dielectric constant tensor:
#      x y z
#    x 1.847780 0.000000 0.015440 
#    y 0.000000 1.860780 0.000000 
#    z 0.015440 0.000000 1.833510 
# 
# From -- ./inp_files/140713.got.cif
#   From: 2010.06.25/outbox.cif.g09.slc.cpg/sg15_71_cif.got.tgz:140713.got - 2010.06.28 07:06:18.
