data_PCOD8142878
_publ_section_title
;
Structure prediction by ZEFSAII (Michael W. Deem and Ramdas Pophale) SiO2 
 PCOD8142878
Probable space group: C 2/C
;
_chemical_formula_sum "Si O2"
_cell_formula_units_Z 56
_cell_length_a 12.523541
_cell_length_b 13.864638
_cell_length_c 19.479307
_cell_angle_alpha 90.000000
_cell_angle_beta 130.191600
_cell_angle_gamma 90.000000
_cell_volume 2583.689814
_symmetry_space_group_name_H-M "C 2/C"
_symmetry_group_IT_number 15
_symmetry_cell_setting 'monoclinic'
loop_
_space_group_symop_operation_xyz
x,y,z
-x,y,1/2-z
-x,-y,-z
x,-y,1/2+z
1/2+x,1/2+y,z
1/2-x,1/2+y,1/2-z
1/2-x,1/2-y,-z
1/2+x,1/2-y,1/2+z
loop_
_atom_site_type_symbol
_atom_site_label
_atom_site_fract_x
_atom_site_fract_y
_atom_site_fract_z
Si Si1 0.412096 0.344554 0.778766
Si Si2 0.957091 0.773756 0.052055
Si Si3 0.253300 0.660743 0.776164
Si Si4 0.668196 0.527738 0.812713
Si Si5 0.341919 0.004276 0.165261
Si Si6 0.940459 0.090853 0.431215
Si Si7 0.709619 0.910407 0.997953
O O1 0.500000 0.311906 0.750000
O O2 0.349202 0.247928 0.783571
O O3 0.300036 0.421316 0.703510
O O4 0.497546 0.399942 0.876432
O O5 0.921008 0.660991 0.042882
O O6 0.097151 0.792423 0.150988
O O7 0.978749 0.807991 0.982584
O O8 0.839773 0.843711 0.033497
O O9 0.259803 0.600656 0.709568
O O10 0.198567 0.600079 0.819717
O O11 0.500000 0.543158 0.750000
O O12 0.751024 0.531981 0.917916
O O13 0.500000 0.034152 0.250000
O O14 0.228393 0.080620 0.147137
O O15 0.327223 0.010324 0.076035
O O16 0.000000 0.000000 0.500000
#
# Coordination Sequence:
#
# PCOD8142878 Si02
#       7
#     8   8   8   8   8   8   8
#     4  11  26  41  68 101 137 176 231 277 344 420
#     4  10  21  39  67 101 132 172 234 283 335 407
#     4  12  23  44  68 100 142 182 222 278 359 410
#     4  11  22  43  69 100 133 179 227 286 332 402
#     4  11  25  43  70  97 137 180 226 283 346 403
#     4  11  21  44  74  99 128 190 232 277 342 418
#     4  10  23  41  65 104 132 173 232 288 335 398
#
# _framework density 21.674427999999999
#
# number of rings (size 3 to 8) (size 9 to 14) (size 15 to 20)
#    0.000    1.143    4.286    1.286    8.000    0.000 
#    0.000    7.143    0.000    0.000    0.000    0.000 
#    0.000    0.000    0.000    0.000    0.000    0.000 
#
# Total GULP energy -346919.939770 kJ/mol
# GULP energy per Si atom -12389.997849 kJ/mol
# Density = 2.162510 g / cm^3
# Si number density = 21.674428 Si / 1000 Ang^3
#
#
#
# Elastic Constant Matrix: (Units=GPa)
#
#
# Indices 1 2 3 4 5 6 
#
# 1 76.6796 31.0173 50.1146 0.0000 -9.9202 0.0000
# 2 31.0173 104.5679 46.7351 0.0000 -25.3660 0.0000
# 3 50.1146 46.7351 141.8476 0.0000 -25.6873 0.0000
# 4 0.0000 0.0000 0.0000 26.8251 0.0000 -1.6424
# 5 -9.9202 -25.3660 -25.6873 0.0000 41.4219 0.0000
# 6 0.0000 0.0000 0.0000 -1.6424 0.0000 36.0701
#
#
#
# Elastic Compliance Matrix: (Units=1/GPa)
#
#
# Indices 1 2 3 4 5 6 
#
# 1 0.017697 -0.003069 -0.005423 0.000000 -0.001004 0.000000
# 2 -0.003069 0.012817 -0.002084 0.000000 0.005821 0.000000
# 3 -0.005423 -0.002084 0.010348 0.000000 0.003842 0.000000
# 4 0.000000 0.000000 0.000000 0.037383 0.000000 0.001702
# 5 -0.001004 0.005821 0.003842 0.000000 0.029849 0.000000
# 6 0.000000 0.000000 0.000000 0.001702 0.000000 0.027801
#
#
# Mechanical properties :
#
#
# Convention : Reuss Voigt Hill
#
# Bulk Modulus (GPa) = 50.73716 64.31436 57.52576
# Shear Modulus (GPa) = 30.55883 33.87863 32.21873
#
# Velocity S-wave (km/s) = 3.75894 3.95786 3.85968
# Velocity P-wave (km/s) = 6.50378 7.11502 6.81625
#
# Compressibility (1/GPa) = 0.01970942
#
# Stress axis : x y z
#
# Youngs Moduli (GPa) = 56.50632 78.01944 96.63418
#
# Poissons Ratio (x) = 0.23946 0.52405
# Poissons Ratio (y) = 0.17343 0.20142
# Poissons Ratio (z) = 0.30643 0.16262
#
# Static dielectric constant tensor:
#      x y z
#    x 4.063080 0.000000 -0.190910 
#    y 0.000000 3.930030 0.000000 
#    z -0.190910 0.000000 4.012930 
# 
# 
# High freq. dielectric constant tensor:
#      x y z
#    x 1.842380 0.000000 -0.016280 
#    y 0.000000 1.843150 0.000000 
#    z -0.016280 0.000000 1.857790 
# 
# From -- ./inp_files/205479.got.cif
#   From: 2010.06.25/outbox.cif.g09.slc.cpg/sg15_103_cif.got.tgz:205479.got - 2010.06.28 07:06:18.
