data_PCOD8142918
_publ_section_title
;
Structure prediction by ZEFSAII (Michael W. Deem and Ramdas Pophale) SiO2 
 PCOD8142918
Probable space group: C 2/C
;
_chemical_formula_sum "Si O2"
_cell_formula_units_Z 60
_cell_length_a 21.623253
_cell_length_b 8.694226
_cell_length_c 23.183521
_cell_angle_alpha 90.000000
_cell_angle_beta 143.741877
_cell_angle_gamma 90.000000
_cell_volume 2577.687560
_symmetry_space_group_name_H-M "C 2/C"
_symmetry_group_IT_number 15
_symmetry_cell_setting 'monoclinic'
loop_
_space_group_symop_operation_xyz
x,y,z
-x,y,1/2-z
-x,-y,-z
x,-y,1/2+z
1/2+x,1/2+y,z
1/2-x,1/2+y,1/2-z
1/2-x,1/2-y,-z
1/2+x,1/2-y,1/2+z
loop_
_atom_site_type_symbol
_atom_site_label
_atom_site_fract_x
_atom_site_fract_y
_atom_site_fract_z
Si Si1 0.685912 0.271498 0.099431
Si Si2 0.359039 0.475670 0.729611
Si Si3 0.364363 0.008908 0.252899
Si Si4 0.577569 0.713188 0.633319
Si Si5 0.080509 0.367653 0.414378
Si Si6 0.850866 0.731171 0.147858
Si Si7 0.500000 0.286149 0.750000
Si Si8 0.625675 0.790186 0.957045
O O1 0.756644 0.422226 0.160524
O O2 0.593573 0.288843 0.076852
O O3 0.755332 0.121367 0.164128
O O4 0.631840 0.259093 0.995795
O O5 0.395941 0.547424 0.818500
O O6 0.333912 0.614426 0.669399
O O7 0.446433 0.377797 0.761882
O O8 0.458183 0.892948 0.340309
O O9 0.350161 0.145970 0.288749
O O10 0.401463 0.093109 0.222097
O O11 0.456246 0.747619 0.555120
O O12 0.085916 0.313145 0.350944
O O13 0.145069 0.525547 0.470365
O O14 0.919276 0.755023 0.140923
O O15 0.730025 0.689364 0.042136
#
# Coordination Sequence:
#
# PCOD8142918 Si02
#       8
#     8   8   8   8   8   8   4   8
#     4  12  24  45  67 100 137 184 229 274 344 408
#     4  11  23  42  68  98 133 176 226 286 338 396
#     4  10  23  44  66  98 138 183 221 282 344 399
#     4  10  24  44  68  96 138 183 226 280 332 411
#     4  11  24  42  68 105 136 180 223 286 347 403
#     4  10  21  42  66  97 133 172 231 281 345 401
#     4  12  24  42  70 104 136 168 226 292 350 400
#     4  10  21  39  67  98 131 178 224 281 340 404
#
# _framework density 23.276676999999999
#
# number of rings (size 3 to 8) (size 9 to 14) (size 15 to 20)
#    0.000    1.333    2.667    2.400    0.000    9.600 
#    4.800    1.333    0.000    0.000    0.000    0.000 
#    0.000    0.000    0.000    0.000    0.000    0.000 
#
# Total GULP energy -371795.980107 kJ/mol
# GULP energy per Si atom -12393.199337 kJ/mol
# Density = 2.322370 g / cm^3
# Si number density = 23.276677 Si / 1000 Ang^3
#
#
#
# Elastic Constant Matrix: (Units=GPa)
#
#
# Indices 1 2 3 4 5 6 
#
# 1 107.2488 24.7352 19.2997 0.0000 0.1348 0.0000
# 2 24.7352 66.9859 22.7685 0.0000 -2.4068 0.0001
# 3 19.2997 22.7685 82.2071 0.0000 -8.4942 0.0000
# 4 0.0000 0.0000 0.0000 22.3667 0.0000 7.7640
# 5 0.1348 -2.4068 -8.4942 0.0000 33.4659 0.0000
# 6 0.0000 0.0001 0.0000 7.7640 0.0000 26.5930
#
#
#
# Elastic Compliance Matrix: (Units=1/GPa)
#
#
# Indices 1 2 3 4 5 6 
#
# 1 0.010376 -0.003316 -0.001588 0.000000 -0.000683 0.000000
# 2 -0.003316 0.017540 -0.004054 0.000000 0.000246 0.000000
# 3 -0.001588 -0.004054 0.013998 0.000000 0.003268 0.000000
# 4 0.000000 0.000000 0.000000 0.049751 0.000000 -0.014525
# 5 -0.000683 0.000246 0.003268 0.000000 0.030731 0.000000
# 6 0.000000 0.000000 0.000000 -0.014525 0.000000 0.041845
#
#
# Mechanical properties :
#
#
# Convention : Reuss Voigt Hill
#
# Bulk Modulus (GPa) = 41.67217 43.33872 42.50545
# Shear Modulus (GPa) = 26.29433 29.12767 27.71100
#
# Velocity S-wave (km/s) = 3.36466 3.54130 3.45411
# Velocity P-wave (km/s) = 5.74773 5.94815 5.84880
#
# Compressibility (1/GPa) = 0.02399683
#
# Stress axis : x y z
#
# Youngs Moduli (GPa) = 96.38049 57.01323 71.44045
#
# Poissons Ratio (x) = 0.18906 0.11345
# Poissons Ratio (y) = 0.31960 0.28962
# Poissons Ratio (z) = 0.15306 0.23113
#
# Static dielectric constant tensor:
#      x y z
#    x 3.977870 0.000000 -0.163510 
#    y 0.000000 4.471120 0.000000 
#    z -0.163510 0.000000 4.279500 
# 
# 
# High freq. dielectric constant tensor:
#      x y z
#    x 1.908610 0.000000 -0.002840 
#    y 0.000000 1.923520 0.000000 
#    z -0.002840 0.000000 1.917710 
# 
# From -- ./inp_files/279728.got.cif
#   From: 2010.06.25/outbox.cif.g09.slc.cpg/sg15_140_cif.got.tgz:279728.got - 2010.06.28 07:06:18.
