data_PCOD8142714
_publ_section_title
;
Structure prediction by ZEFSAII (Michael W. Deem and Ramdas Pophale) SiO2 
 PCOD8142714
Probable space group: C 2/C
;
_chemical_formula_sum "Si O2"
_cell_formula_units_Z 60
_cell_length_a 21.947878
_cell_length_b 24.924165
_cell_length_c 8.457640
_cell_angle_alpha 90.000000
_cell_angle_beta 40.469838
_cell_angle_gamma 90.000000
_cell_volume 3002.886652
_symmetry_space_group_name_H-M "C 2/C"
_symmetry_group_IT_number 15
_symmetry_cell_setting 'monoclinic'
loop_
_space_group_symop_operation_xyz
x,y,z
-x,y,1/2-z
-x,-y,-z
x,-y,1/2+z
1/2+x,1/2+y,z
1/2-x,1/2+y,1/2-z
1/2-x,1/2-y,-z
1/2+x,1/2-y,1/2+z
loop_
_atom_site_type_symbol
_atom_site_label
_atom_site_fract_x
_atom_site_fract_y
_atom_site_fract_z
Si Si1 0.000000 0.001343 0.750000
Si Si2 0.148290 0.260692 0.754613
Si Si3 0.904340 0.074475 0.187810
Si Si4 0.986457 0.442227 0.091872
Si Si5 0.590387 0.137174 0.177481
Si Si6 0.809090 0.387894 0.321880
Si Si7 0.342647 0.773051 0.392327
Si Si8 0.507323 0.684046 0.419348
O O1 0.935727 0.962690 0.771013
O O2 0.074714 0.038968 0.509215
O O3 0.250000 0.250000 0.500000
O O4 0.107286 0.307936 0.732540
O O5 0.149840 0.275956 0.934612
O O6 0.093752 0.205226 0.825556
O O7 0.796323 0.093886 0.423960
O O8 0.965031 0.128893 0.049411
O O9 0.000000 0.438011 0.250000
O O10 0.879620 0.430945 0.253325
O O11 0.068128 0.406799 0.852880
O O12 0.000000 0.500000 0.000000
O O13 0.500000 0.145978 0.250000
O O14 0.678842 0.118405 0.892986
O O15 0.848836 0.333084 0.318295
O O16 0.250000 0.750000 0.500000
O O17 0.424086 0.733371 0.172885
O O18 0.500000 0.670692 0.250000
#
# Coordination Sequence:
#
# PCOD8142714 Si02
#       8
#     4   8   8   8   8   8   8   8
#     4  10  26  44  64  88 128 162 220 286 326 374
#     4  11  24  37  59  96 128 169 214 257 323 397
#     4  11  23  45  66  91 122 171 221 273 335 378
#     4  11  23  42  65  94 130 170 216 268 330 390
#     4  10  22  41  62  92 133 171 206 267 325 378
#     4  11  23  40  69  95 129 174 219 268 325 398
#     4  11  21  39  63  94 127 167 209 262 321 396
#     4  10  21  39  64  88 127 168 208 260 326 385
#
# _framework density 19.980772999999999
#
# number of rings (size 3 to 8) (size 9 to 14) (size 15 to 20)
#    0.000    1.333    2.000    4.400    1.867    4.267 
#    3.600    4.000    0.000    0.000    0.000    0.000 
#    0.000    0.000    0.000    0.000    0.000    0.000 
#
# Total GULP energy -371795.133631 kJ/mol
# GULP energy per Si atom -12393.171121 kJ/mol
# Density = 1.993530 g / cm^3
# Si number density = 19.980773 Si / 1000 Ang^3
#
#
#
# Elastic Constant Matrix: (Units=GPa)
#
#
# Indices 1 2 3 4 5 6 
#
# 1 82.2828 49.6906 41.5853 0.0000 14.6118 0.0000
# 2 49.6906 160.4039 67.5045 0.0000 3.1844 0.0000
# 3 41.5853 67.5045 130.7913 0.0000 2.3544 0.0000
# 4 0.0000 0.0000 0.0000 -1.4273 0.0000 -4.6207
# 5 14.6118 3.1844 2.3544 0.0000 35.4350 0.0000
# 6 0.0000 0.0000 0.0000 -4.6207 0.0000 36.4850
#
#
#
# Elastic Compliance Matrix: (Units=1/GPa)
#
#
# Indices 1 2 3 4 5 6 
#
# 1 0.017355 -0.003798 -0.003439 0.000000 -0.006586 0.000000
# 2 -0.003798 0.008802 -0.003353 0.000000 0.000998 0.000000
# 3 -0.003439 -0.003353 0.010452 0.000000 0.001025 0.000000
# 4 0.000000 0.000000 0.000000 -0.496907 0.000000 -0.062931
# 5 -0.006586 0.000998 0.001025 0.000000 0.030779 0.000000
# 6 0.000000 0.000000 0.000000 -0.062931 0.000000 0.019438
#
#
# Mechanical properties :
#
#
# Convention : Reuss Voigt Hill
#
# Bulk Modulus (GPa) = 64.82040 76.78210 70.80125
# Shear Modulus (GPa) = -13.02906 28.41172 7.69133
#
# Velocity S-wave (km/s) = -2.55636 3.77497 1.96411
# Velocity P-wave (km/s) = 4.87837 7.58366 6.37615
#
# Compressibility (1/GPa) = 0.01542724
#
# Stress axis : x y z
#
# Youngs Moduli (GPa) = 57.62159 113.60659 95.67954
#
# Poissons Ratio (x) = 0.43149 0.32905
# Poissons Ratio (y) = 0.21885 0.32085
# Poissons Ratio (z) = 0.19816 0.38097
#
# Static dielectric constant tensor:
#      x y z
#    x 3.962360 0.000000 0.151180 
#    y 0.000000 3.500250 0.000000 
#    z 0.151180 0.000000 3.857210 
# 
# 
# High freq. dielectric constant tensor:
#      x y z
#    x 1.784910 0.000000 0.001250 
#    y 0.000000 1.796470 0.000000 
#    z 0.001250 0.000000 1.783760 
# 
# From -- ./inp_files/58734.got.cif
#   From: 2010.06.25/outbox.cif.g09.slc.cpg/sg15_30_cif.got.tgz:58734.got - 2010.06.28 07:06:18.
