data_PCOD8142974
_publ_section_title
;
Structure prediction by ZEFSAII (Michael W. Deem and Ramdas Pophale) SiO2 
 PCOD8142974
Probable space group: C 2/C
;
_chemical_formula_sum "Si O2"
_cell_formula_units_Z 40
_cell_length_a 24.989259
_cell_length_b 10.140438
_cell_length_c 11.812870
_cell_angle_alpha 90.000000
_cell_angle_beta 39.458145
_cell_angle_gamma 90.000000
_cell_volume 1902.352065
_symmetry_space_group_name_H-M "C 2/C"
_symmetry_group_IT_number 15
_symmetry_cell_setting 'monoclinic'
loop_
_space_group_symop_operation_xyz
x,y,z
-x,y,1/2-z
-x,-y,-z
x,-y,1/2+z
1/2+x,1/2+y,z
1/2-x,1/2+y,1/2-z
1/2-x,1/2-y,-z
1/2+x,1/2-y,1/2+z
loop_
_atom_site_type_symbol
_atom_site_label
_atom_site_fract_x
_atom_site_fract_y
_atom_site_fract_z
Si Si1 0.094536 0.140634 0.106930
Si Si2 0.343763 0.269169 0.232077
Si Si3 0.392694 0.121472 0.746254
Si Si4 0.730659 0.462173 0.981803
Si Si5 0.015365 0.363134 0.850663
O O1 0.100000 0.241337 0.201649
O O2 0.000000 0.086057 0.250000
O O3 0.120661 0.214729 0.950553
O O4 0.153797 0.016057 0.033017
O O5 0.302259 0.404442 0.344751
O O6 0.274278 0.154155 0.339063
O O7 0.418074 0.230270 0.196015
O O8 0.427152 0.138150 0.562066
O O9 0.295246 0.080272 0.901319
O O10 0.448892 0.011648 0.717540
O O11 0.000000 0.308188 0.750000
#
# Coordination Sequence:
#
# PCOD8142974 Si02
#       5
#     8   8   8   8   8
#     4  12  24  43  69  95 135 172 218 278 324 398
#     4  10  24  46  64  98 131 172 223 265 334 394
#     4  10  22  40  65 103 125 174 227 266 325 384
#     4  10  25  43  63  97 133 174 217 273 328 389
#     4  10  21  39  70  95 133 173 219 273 321 387
#
# _framework density 21.026600999999999
#
# number of rings (size 3 to 8) (size 9 to 14) (size 15 to 20)
#    0.000    1.600    2.000    1.200    8.400    4.800 
#    3.600    0.000    0.000    0.000    0.000    0.000 
#    0.000    0.000    0.000    0.000    0.000    0.000 
#
# Total GULP energy -248113.360717 kJ/mol
# GULP energy per Si atom -12405.668036 kJ/mol
# Density = 2.097874 g / cm^3
# Si number density = 21.026601 Si / 1000 Ang^3
#
#
#
# Elastic Constant Matrix: (Units=GPa)
#
#
# Indices 1 2 3 4 5 6 
#
# 1 124.7969 57.7949 60.7289 0.0000 -7.1645 0.0000
# 2 57.7949 75.0915 39.1923 0.0000 -13.5428 0.0000
# 3 60.7289 39.1923 115.3950 0.0000 -8.1325 0.0000
# 4 0.0000 0.0000 0.0000 16.3940 0.0000 -4.8499
# 5 -7.1645 -13.5428 -8.1325 0.0000 42.2300 0.0000
# 6 0.0000 0.0000 0.0000 -4.8499 0.0000 29.2500
#
#
#
# Elastic Compliance Matrix: (Units=1/GPa)
#
#
# Indices 1 2 3 4 5 6 
#
# 1 0.014255 -0.008802 -0.004604 0.000000 -0.001291 0.000000
# 2 -0.008802 0.022386 -0.002606 0.000000 0.005184 0.000000
# 3 -0.004604 -0.002606 0.012023 0.000000 0.000699 0.000000
# 4 0.000000 0.000000 0.000000 0.064144 0.000000 0.010636
# 5 -0.001291 0.005184 0.000699 0.000000 0.025258 0.000000
# 6 0.000000 0.000000 0.000000 0.010636 0.000000 0.035952
#
#
# Mechanical properties :
#
#
# Convention : Reuss Voigt Hill
#
# Bulk Modulus (GPa) = 60.08832 70.07950 65.08391
# Shear Modulus (GPa) = 23.63079 28.07929 25.85504
#
# Velocity S-wave (km/s) = 3.35603 3.65830 3.51042
# Velocity P-wave (km/s) = 6.60731 7.15860 6.88847
#
# Compressibility (1/GPa) = 0.01664217
#
# Stress axis : x y z
#
# Youngs Moduli (GPa) = 70.14885 44.66997 83.17413
#
# Poissons Ratio (x) = 0.39317 0.38291
# Poissons Ratio (y) = 0.61743 0.21673
# Poissons Ratio (z) = 0.32295 0.11640
#
# Static dielectric constant tensor:
#      x y z
#    x 3.635520 0.000000 -0.163520 
#    y 0.000000 3.660880 0.000000 
#    z -0.163520 0.000000 4.090130 
# 
# 
# High freq. dielectric constant tensor:
#      x y z
#    x 1.812590 0.000000 -0.008570 
#    y 0.000000 1.815040 0.000000 
#    z -0.008570 0.000000 1.843040 
# 
# From -- ./inp_files/102716.got.cif
#   From: 2010.06.25/outbox.cif.g09.slc.cpg/sg15_52_cif.got.tgz:102716.got - 2010.06.28 07:06:18.
