data_PCOD8142879
_publ_section_title
;
Structure prediction by ZEFSAII (Michael W. Deem and Ramdas Pophale) SiO2 
 PCOD8142879
Probable space group: C 2/C
;
_chemical_formula_sum "Si O2"
_cell_formula_units_Z 64
_cell_length_a 8.250065
_cell_length_b 16.949960
_cell_length_c 28.118836
_cell_angle_alpha 90.000000
_cell_angle_beta 46.186125
_cell_angle_gamma 90.000000
_cell_volume 2837.366613
_symmetry_space_group_name_H-M "C 2/C"
_symmetry_group_IT_number 15
_symmetry_cell_setting 'monoclinic'
loop_
_space_group_symop_operation_xyz
x,y,z
-x,y,1/2-z
-x,-y,-z
x,-y,1/2+z
1/2+x,1/2+y,z
1/2-x,1/2+y,1/2-z
1/2-x,1/2-y,-z
1/2+x,1/2-y,1/2+z
loop_
_atom_site_type_symbol
_atom_site_label
_atom_site_fract_x
_atom_site_fract_y
_atom_site_fract_z
Si Si1 0.003953 0.035122 0.317344
Si Si2 0.264297 0.840164 0.512649
Si Si3 0.302918 0.401032 0.623639
Si Si4 0.780709 0.379817 0.119983
Si Si5 0.238984 0.181064 0.125006
Si Si6 0.461903 0.019931 0.704284
Si Si7 0.868353 0.689676 0.700664
Si Si8 0.009986 0.742001 0.154395
O O1 0.835548 0.963826 0.363083
O O2 0.204866 0.004301 0.241802
O O3 0.865582 0.107894 0.323364
O O4 0.111212 0.074050 0.342285
O O5 0.250000 0.750000 0.500000
O O6 0.454944 0.887067 0.444661
O O7 0.328574 0.847300 0.555440
O O8 0.026665 0.882399 0.547587
O O9 0.146695 0.472834 0.634744
O O10 0.147103 0.322798 0.657040
O O11 0.737872 0.342111 0.180884
O O12 0.665325 0.316423 0.108751
O O13 0.439497 0.210964 0.117091
O O14 0.056364 0.247379 0.149533
O O15 0.500000 0.990595 0.750000
O O16 0.497265 0.113318 0.695348
O O17 0.703486 0.728251 0.772404
#
# Coordination Sequence:
#
# PCOD8142879 Si02
#       8
#     8   8   8   8   8   8   8   8
#     4  10  23  44  67 104 135 179 230 292 354 418
#     4  11  22  49  70  96 137 192 244 280 338 429
#     4  10  23  42  71  95 138 183 225 292 347 409
#     4  12  25  43  73  95 138 189 232 285 350 423
#     4  11  25  42  72 100 137 180 236 291 348 418
#     4  10  21  39  67 101 139 168 224 290 358 409
#     4  12  24  42  69 101 141 181 230 287 365 426
#     4  12  24  42  68 106 135 179 231 285 366 417
#
# _framework density 22.556127
#
# number of rings (size 3 to 8) (size 9 to 14) (size 15 to 20)
#    0.000    1.000    3.750    3.000    3.500    5.500 
#    0.000    0.625    2.750    0.000    0.000    0.000 
#    0.000    0.000    0.000    0.000    0.000    0.000 
#
# Total GULP energy -396616.669003 kJ/mol
# GULP energy per Si atom -12394.270906 kJ/mol
# Density = 2.250479 g / cm^3
# Si number density = 22.556127 Si / 1000 Ang^3
#
#
#
# Elastic Constant Matrix: (Units=GPa)
#
#
# Indices 1 2 3 4 5 6 
#
# 1 92.7204 55.2609 31.7865 -0.0029 -14.9516 0.0033
# 2 55.2609 161.1014 33.9628 0.0000 -23.6974 0.0003
# 3 31.7865 33.9628 84.5687 -0.0052 -22.4429 0.0016
# 4 -0.0029 0.0000 -0.0052 32.5631 0.0015 -15.3637
# 5 -14.9516 -23.6974 -22.4429 0.0015 38.7650 -0.0012
# 6 0.0033 0.0003 0.0016 -15.3637 -0.0012 52.4969
#
#
#
# Elastic Compliance Matrix: (Units=1/GPa)
#
#
# Indices 1 2 3 4 5 6 
#
# 1 0.014628 -0.004109 -0.003565 0.000000 0.001066 -0.000001
# 2 -0.004109 0.008252 -0.001006 -0.000001 0.002877 0.000000
# 3 -0.003565 -0.001006 0.015408 0.000002 0.006930 0.000001
# 4 0.000000 -0.000001 0.000002 0.035629 0.000000 0.010427
# 5 0.001066 0.002877 0.006930 0.000000 0.031979 0.000000
# 6 -0.000001 0.000000 0.000001 0.010427 0.000000 0.022100
#
#
# Mechanical properties :
#
#
# Convention : Reuss Voigt Hill
#
# Bulk Modulus (GPa) = 47.78380 64.49009 56.13694
# Shear Modulus (GPa) = 32.82270 39.25702 36.03986
#
# Velocity S-wave (km/s) = 3.81879 4.17635 4.00157
# Velocity P-wave (km/s) = 6.37766 7.20478 6.80380
#
# Compressibility (1/GPa) = 0.02092760
#
# Stress axis : x y z
#
# Youngs Moduli (GPa) = 68.36022 121.18000 64.90202
#
# Poissons Ratio (x) = 0.49798 0.23138
# Poissons Ratio (y) = 0.28092 0.06529
# Poissons Ratio (z) = 0.24371 0.12190
#
# Static dielectric constant tensor:
#      x y z
#    x 4.347600 -0.000010 -0.447390 
#    y -0.000010 4.395590 0.000010 
#    z -0.447390 0.000010 4.078410 
# 
# 
# High freq. dielectric constant tensor:
#      x y z
#    x 1.894910 0.000000 -0.018670 
#    y 0.000000 1.908650 0.000000 
#    z -0.018670 0.000000 1.862490 
# 
# From -- ./inp_files/308269.got.cif
#   From: 2010.06.25/outbox.cif.g09.slc.cpg/sg15_155_cif.got.tgz:308269.got - 2010.06.28 07:06:18.
