data_PCOD8142297
_publ_section_title
;
Structure prediction by ZEFSAII (Michael W. Deem and Ramdas Pophale) SiO2 
 PCOD8142297
Probable space group: C 2/C
;
_chemical_formula_sum "Si O2"
_cell_formula_units_Z 64
_cell_length_a 30.537578
_cell_length_b 10.496557
_cell_length_c 9.621529
_cell_angle_alpha 90.000000
_cell_angle_beta 95.929450
_cell_angle_gamma 90.000000
_cell_volume 3067.579117
_symmetry_space_group_name_H-M "C 2/C"
_symmetry_group_IT_number 15
_symmetry_cell_setting 'monoclinic'
loop_
_space_group_symop_operation_xyz
x,y,z
-x,y,1/2-z
-x,-y,-z
x,-y,1/2+z
1/2+x,1/2+y,z
1/2-x,1/2+y,1/2-z
1/2-x,1/2-y,-z
1/2+x,1/2-y,1/2+z
loop_
_atom_site_type_symbol
_atom_site_label
_atom_site_fract_x
_atom_site_fract_y
_atom_site_fract_z
Si Si1 0.136400 0.294694 0.084946
Si Si2 0.910612 0.527040 0.516528
Si Si3 0.252862 0.917848 0.788604
Si Si4 0.121113 0.837042 0.308330
Si Si5 0.949480 0.363537 0.767777
Si Si6 0.773599 0.618389 0.993067
Si Si7 0.665743 0.783524 0.569937
Si Si8 0.343579 0.383279 0.684938
O O1 0.096688 0.393064 0.063151
O O2 0.179879 0.377224 0.068582
O O3 0.129951 0.230567 0.232682
O O4 0.135109 0.182288 0.971187
O O5 0.928838 0.483261 0.673641
O O6 0.944929 0.604699 0.431046
O O7 0.865450 0.609308 0.511005
O O8 0.275875 0.945250 0.647441
O O9 0.284083 0.832171 0.899178
O O10 0.203277 0.868648 0.749778
O O11 0.242903 0.044093 0.874371
O O12 0.072498 0.776062 0.268901
O O13 0.152059 0.751238 0.221339
O O14 0.128233 0.987502 0.283083
O O15 0.000000 0.346397 0.750000
O O16 0.750000 0.750000 0.000000
O O17 0.663147 0.653547 0.478579
#
# Coordination Sequence:
#
# PCOD8142297 Si02
#       8
#     8   8   8   8   8   8   8   8
#     4  11  21  40  61  81 125 165 203 264 317 360
#     4  10  21  38  65  95 124 154 198 257 326 385
#     4  12  27  37  62  84 127 168 222 266 305 354
#     4  10  23  41  60  86 126 164 207 254 317 382
#     4  10  21  40  69  96 124 155 198 261 327 392
#     4  12  25  42  56  86 126 166 217 270 310 356
#     4  11  23  40  59  88 125 165 217 260 312 368
#     4  12  25  37  60  86 122 174 222 254 302 365
#
# _framework density 20.863358000000002
#
# number of rings (size 3 to 8) (size 9 to 14) (size 15 to 20)
#    0.000    1.000    3.750    3.000    3.500    0.000 
#    0.000    0.000    0.000   15.000    0.000    0.000 
#    0.000    0.000    0.000    0.000    0.000    0.000 
#
# Total GULP energy -396534.149091 kJ/mol
# GULP energy per Si atom -12391.692159 kJ/mol
# Density = 2.081587 g / cm^3
# Si number density = 20.863358 Si / 1000 Ang^3
#
#
#
# Elastic Constant Matrix: (Units=GPa)
#
#
# Indices 1 2 3 4 5 6 
#
# 1 74.0805 24.8423 5.1487 0.0000 -2.4547 0.0000
# 2 24.8423 94.1693 30.0355 0.0000 1.0760 0.0000
# 3 5.1487 30.0355 88.7481 0.0000 0.6864 0.0000
# 4 0.0000 0.0000 0.0000 37.0028 0.0000 4.1069
# 5 -2.4547 1.0760 0.6864 0.0000 20.6273 0.0000
# 6 0.0000 0.0000 0.0000 4.1069 0.0000 19.1844
#
#
#
# Elastic Compliance Matrix: (Units=1/GPa)
#
#
# Indices 1 2 3 4 5 6 
#
# 1 0.014910 -0.004120 0.000514 0.000000 0.001972 0.000000
# 2 -0.004120 0.013047 -0.004169 0.000000 -0.001032 0.000000
# 3 0.000514 -0.004169 0.012650 0.000000 -0.000142 0.000000
# 4 0.000000 0.000000 0.000000 0.027683 0.000000 -0.005926
# 5 0.001972 -0.001032 -0.000142 0.000000 0.048773 0.000000
# 6 0.000000 0.000000 0.000000 -0.005926 0.000000 0.053394
#
#
# Mechanical properties :
#
#
# Convention : Reuss Voigt Hill
#
# Bulk Modulus (GPa) = 39.90678 41.89454 40.90066
# Shear Modulus (GPa) = 25.72561 28.49434 27.10998
#
# Velocity S-wave (km/s) = 3.51529 3.69963 3.60864
# Velocity P-wave (km/s) = 5.97039 6.19465 6.08356
#
# Compressibility (1/GPa) = 0.02505840
#
# Stress axis : x y z
#
# Youngs Moduli (GPa) = 67.06911 76.64362 79.05165
#
# Poissons Ratio (x) = 0.31576 -0.04064
# Poissons Ratio (y) = 0.27631 0.32954
# Poissons Ratio (z) = -0.03448 0.31950
#
# Static dielectric constant tensor:
#      x y z
#    x 3.379270 0.000000 -0.286760 
#    y 0.000000 3.737460 0.000000 
#    z -0.286760 0.000000 3.164400 
# 
# 
# High freq. dielectric constant tensor:
#      x y z
#    x 1.781480 0.000000 -0.001600 
#    y 0.000000 1.815370 0.000000 
#    z -0.001600 0.000000 1.831700 
# 
# From -- ./inp_files/69363.got.cif
#   From: 2010.06.25/outbox.cif.g09.slc.cpg/sg15_35_cif.got.tgz:69363.got - 2010.06.28 07:06:18.
