data_PCOD8142900
_publ_section_title
;
Structure prediction by ZEFSAII (Michael W. Deem and Ramdas Pophale) SiO2 
 PCOD8142900
Probable space group: C 2/C
;
_chemical_formula_sum "Si O2"
_cell_formula_units_Z 40
_cell_length_a 8.047613
_cell_length_b 19.711039
_cell_length_c 15.864449
_cell_angle_alpha 90.000000
_cell_angle_beta 130.084605
_cell_angle_gamma 90.000000
_cell_volume 1925.380826
_symmetry_space_group_name_H-M "C 2/C"
_symmetry_group_IT_number 15
_symmetry_cell_setting 'monoclinic'
loop_
_space_group_symop_operation_xyz
x,y,z
-x,y,1/2-z
-x,-y,-z
x,-y,1/2+z
1/2+x,1/2+y,z
1/2-x,1/2+y,1/2-z
1/2-x,1/2-y,-z
1/2+x,1/2-y,1/2+z
loop_
_atom_site_type_symbol
_atom_site_label
_atom_site_fract_x
_atom_site_fract_y
_atom_site_fract_z
Si Si1 0.358257 0.489151 0.370560
Si Si2 0.670892 0.183214 0.682950
Si Si3 0.268396 0.652928 0.894537
Si Si4 0.234610 0.797413 0.576106
Si Si5 0.500000 0.901433 0.750000
Si Si6 0.000000 0.071033 0.750000
O O1 0.500000 0.500000 0.500000
O O2 0.214920 0.423384 0.346219
O O3 0.205163 0.551752 0.293850
O O4 0.508049 0.474572 0.337292
O O5 0.744678 0.198074 0.802680
O O6 0.409200 0.173334 0.593014
O O7 0.746393 0.250048 0.660725
O O8 0.785280 0.117855 0.678461
O O9 0.509891 0.661029 0.008113
O O10 0.250000 0.750000 0.500000
O O11 0.427515 0.853273 0.647279
#
# Coordination Sequence:
#
# PCOD8142900 Si02
#       6
#     8   8   8   8   4   4
#     4  11  22  44  67  95 134 168 221 277 329 395
#     4  10  21  39  67  92 127 171 215 268 327 399
#     4  10  21  42  66  91 133 171 212 273 336 383
#     4  12  23  40  64  99 130 174 219 268 330 398
#     4  12  25  42  66  94 133 172 220 274 324 398
#     4  10  21  42  66  96 125 174 224 268 334 402
#
# _framework density 20.775110999999999
#
# number of rings (size 3 to 8) (size 9 to 14) (size 15 to 20)
#    0.000    1.200    2.000    7.200    0.000    0.000 
#    3.600    4.000    0.000    0.000    0.000    0.000 
#    0.000    0.000    0.000    0.000    0.000    0.000 
#
# Total GULP energy -247884.374651 kJ/mol
# GULP energy per Si atom -12394.218733 kJ/mol
# Density = 2.072783 g / cm^3
# Si number density = 20.775111 Si / 1000 Ang^3
#
#
#
# Elastic Constant Matrix: (Units=GPa)
#
#
# Indices 1 2 3 4 5 6 
#
# 1 122.0048 55.9086 54.7798 0.0000 0.8873 0.0000
# 2 55.9086 122.5100 61.2760 0.0000 -2.1003 0.0000
# 3 54.7798 61.2760 117.2879 0.0000 8.5509 0.0000
# 4 0.0000 0.0000 0.0000 41.5139 0.0000 5.3347
# 5 0.8873 -2.1003 8.5509 0.0000 36.1816 0.0000
# 6 0.0000 0.0000 0.0000 5.3347 0.0000 33.5476
#
#
#
# Elastic Compliance Matrix: (Units=1/GPa)
#
#
# Indices 1 2 3 4 5 6 
#
# 1 0.011344 -0.003394 -0.003551 0.000000 0.000364 0.000000
# 2 -0.003394 0.012216 -0.004940 0.000000 0.001960 0.000000
# 3 -0.003551 -0.004940 0.013004 0.000000 -0.003273 0.000000
# 4 0.000000 0.000000 0.000000 0.024591 0.000000 -0.003910
# 5 0.000364 0.001960 -0.003273 0.000000 0.028517 0.000000
# 6 0.000000 0.000000 0.000000 -0.003910 0.000000 0.030430
#
#
# Mechanical properties :
#
#
# Convention : Reuss Voigt Hill
#
# Bulk Modulus (GPa) = 78.16761 78.41461 78.29111
# Shear Modulus (GPa) = 33.75271 34.90451 34.32861
#
# Velocity S-wave (km/s) = 4.03509 4.10336 4.06937
# Velocity P-wave (km/s) = 7.70822 7.76380 7.73606
#
# Compressibility (1/GPa) = 0.01279302
#
# Stress axis : x y z
#
# Youngs Moduli (GPa) = 88.15442 81.86061 76.89952
#
# Poissons Ratio (x) = 0.27786 0.27310
# Poissons Ratio (y) = 0.29922 0.37986
# Poissons Ratio (z) = 0.31307 0.40436
#
# Static dielectric constant tensor:
#      x y z
#    x 3.832390 0.000000 0.067380 
#    y 0.000000 4.043800 0.000000 
#    z 0.067380 0.000000 3.953620 
# 
# 
# High freq. dielectric constant tensor:
#      x y z
#    x 1.804370 0.000000 0.011920 
#    y 0.000000 1.819520 0.000000 
#    z 0.011920 0.000000 1.812950 
# 
# From -- ./inp_files/76950.got.cif
#   From: 2010.06.25/outbox.cif.g09.slc.cpg/sg15_39_cif.got.tgz:76950.got - 2010.06.28 07:06:18.
