data_PCOD8142008
_publ_section_title
;
Structure prediction by ZEFSAII (Michael W. Deem and Ramdas Pophale) SiO2 
 PCOD8142008
Probable space group: C 2/C
;
_chemical_formula_sum "Si O2"
_cell_formula_units_Z 64
_cell_length_a 18.878381
_cell_length_b 9.005376
_cell_length_c 26.765869
_cell_angle_alpha 90.000000
_cell_angle_beta 42.696635
_cell_angle_gamma 90.000000
_cell_volume 3085.689776
_symmetry_space_group_name_H-M "C 2/C"
_symmetry_group_IT_number 15
_symmetry_cell_setting 'monoclinic'
loop_
_space_group_symop_operation_xyz
x,y,z
-x,y,1/2-z
-x,-y,-z
x,-y,1/2+z
1/2+x,1/2+y,z
1/2-x,1/2+y,1/2-z
1/2-x,1/2-y,-z
1/2+x,1/2-y,1/2+z
loop_
_atom_site_type_symbol
_atom_site_label
_atom_site_fract_x
_atom_site_fract_y
_atom_site_fract_z
Si Si1 0.130835 0.873111 0.936089
Si Si2 0.080847 0.187463 0.997181
Si Si3 0.078320 0.816264 0.613987
Si Si4 0.746340 0.075662 0.403642
Si Si5 0.134972 0.337487 0.705133
Si Si6 0.664350 0.813996 0.507563
Si Si7 0.422473 0.496868 0.247744
Si Si8 0.958540 0.524784 0.346380
O O1 0.241025 0.833887 0.853360
O O2 0.043215 0.794706 0.947053
O O3 0.114745 0.820632 0.001909
O O4 0.120442 0.050171 0.943434
O O5 0.108561 0.174820 0.040720
O O6 0.143317 0.330369 0.945020
O O7 0.182405 0.860881 0.589097
O O8 0.978069 0.929091 0.670700
O O9 0.053888 0.651036 0.645544
O O10 0.808549 0.064432 0.318893
O O11 0.717166 0.911268 0.436699
O O12 0.081807 0.449371 0.772461
O O13 0.107135 0.393180 0.663530
O O14 0.083303 0.180826 0.747905
O O15 0.750000 0.750000 0.500000
O O16 0.576581 0.905676 0.582664
O O17 0.500000 0.555526 0.250000
#
# Coordination Sequence:
#
# PCOD8142008 Si02
#       8
#     8   8   8   8   8   8   8   8
#     4  11  25  43  65  88 128 169 208 265 315 372
#     4  11  25  44  62  91 127 168 215 258 316 373
#     4  11  24  39  63  97 124 165 210 258 314 379
#     4  11  22  39  66  92 127 160 208 268 310 367
#     4  11  22  40  60  93 129 161 202 260 314 373
#     4  12  22  39  66  97 120 164 207 261 317 372
#     4  10  21  38  60  94 126 160 203 257 318 366
#     4  11  23  37  64  96 127 157 209 261 313 379
#
# _framework density 20.740905999999999
#
# number of rings (size 3 to 8) (size 9 to 14) (size 15 to 20)
#    0.000    1.000    5.000    1.875   10.500    0.500 
#    0.000    2.500    0.000    0.000    0.000    0.000 
#    0.000    0.000    0.000    0.000    0.000    0.000 
#
# Total GULP energy -396673.987138 kJ/mol
# GULP energy per Si atom -12396.062098 kJ/mol
# Density = 2.069370 g / cm^3
# Si number density = 20.740906 Si / 1000 Ang^3
#
#
#
# Elastic Constant Matrix: (Units=GPa)
#
#
# Indices 1 2 3 4 5 6 
#
# 1 52.8336 12.9935 7.4747 0.0000 -20.4495 -0.0001
# 2 12.9935 90.7326 14.7643 0.0000 -16.1339 0.0000
# 3 7.4747 14.7643 97.4766 0.0000 -22.8197 0.0000
# 4 0.0000 0.0000 0.0000 39.8265 0.0000 0.7765
# 5 -20.4495 -16.1339 -22.8197 0.0000 29.8757 0.0000
# 6 -0.0001 0.0000 0.0000 0.7765 0.0000 22.3178
#
#
#
# Elastic Compliance Matrix: (Units=1/GPa)
#
#
# Indices 1 2 3 4 5 6 
#
# 1 0.026352 -0.000707 0.002703 0.000000 0.019720 0.000000
# 2 -0.000707 0.012222 -0.000445 0.000000 0.005777 0.000000
# 3 0.002703 -0.000445 0.012781 0.000000 0.011373 0.000000
# 4 0.000000 0.000000 0.000000 0.025126 0.000000 -0.000874
# 5 0.019720 0.005777 0.011373 0.000000 0.058777 0.000000
# 6 0.000000 0.000000 0.000000 -0.000874 0.000000 0.044838
#
#
# Mechanical properties :
#
#
# Convention : Reuss Voigt Hill
#
# Bulk Modulus (GPa) = 18.36281 34.61197 26.48739
# Shear Modulus (GPa) = 25.62192 32.12467 28.87329
#
# Velocity S-wave (km/s) = 3.51854 3.93982 3.73513
# Velocity P-wave (km/s) = 5.03781 6.11721 5.60356
#
# Compressibility (1/GPa) = 0.05445791
#
# Stress axis : x y z
#
# Youngs Moduli (GPa) = 37.94846 81.81810 78.23892
#
# Poissons Ratio (x) = 0.05784 -0.21148
# Poissons Ratio (y) = 0.02683 0.03479
# Poissons Ratio (z) = -0.10257 0.03638
#
# Static dielectric constant tensor:
#      x y z
#    x 3.432760 0.000000 -0.077030 
#    y 0.000000 3.890870 0.000000 
#    z -0.077030 0.000000 4.148080 
# 
# 
# High freq. dielectric constant tensor:
#      x y z
#    x 1.764770 0.000000 -0.006430 
#    y 0.000000 1.827330 0.000000 
#    z -0.006430 0.000000 1.828520 
# 
# From -- ./inp_files/315667.got.cif
#   From: 2010.06.25/outbox.cif.g09.slc.cpg/sg15_158_cif.got.tgz:315667.got - 2010.06.28 07:06:18.
