data_PCOD8142057
_publ_section_title
;
Structure prediction by ZEFSAII (Michael W. Deem and Ramdas Pophale) SiO2 
 PCOD8142057
Probable space group: C 2/C
;
_chemical_formula_sum "Si O2"
_cell_formula_units_Z 44
_cell_length_a 18.737174
_cell_length_b 17.553724
_cell_length_c 16.391921
_cell_angle_alpha 90.000000
_cell_angle_beta 156.917604
_cell_angle_gamma 90.000000
_cell_volume 2113.730598
_symmetry_space_group_name_H-M "C 2/C"
_symmetry_group_IT_number 15
_symmetry_cell_setting 'monoclinic'
loop_
_space_group_symop_operation_xyz
x,y,z
-x,y,1/2-z
-x,-y,-z
x,-y,1/2+z
1/2+x,1/2+y,z
1/2-x,1/2+y,1/2-z
1/2-x,1/2-y,-z
1/2+x,1/2-y,1/2+z
loop_
_atom_site_type_symbol
_atom_site_label
_atom_site_fract_x
_atom_site_fract_y
_atom_site_fract_z
Si Si1 0.648642 0.162820 0.734718
Si Si2 0.697120 0.460840 0.711721
Si Si3 0.235447 0.669201 0.104165
Si Si4 0.196934 0.929186 0.971565
Si Si5 0.013350 0.582187 0.437864
Si Si6 0.000000 0.449817 0.750000
O O1 0.733216 0.245375 0.832857
O O2 0.477537 0.153833 0.613517
O O3 0.596840 0.146549 0.585706
O O4 0.782468 0.097425 0.911864
O O5 0.500000 0.500000 0.500000
O O6 0.655025 0.385194 0.718979
O O7 0.801397 0.438352 0.736727
O O8 0.853087 0.509410 0.921047
O O9 0.289223 0.648982 0.068108
O O10 0.000000 0.965444 0.750000
O O11 0.329249 0.995259 0.082524
O O12 0.017203 0.606275 0.346673
#
# Coordination Sequence:
#
# PCOD8142057 Si02
#       6
#     8   8   8   8   8   4
#     4  11  23  40  58  90 130 164 201 247 313 375
#     4  10  21  38  61  90 116 155 204 254 309 364
#     4  11  22  38  59  92 124 164 199 245 310 378
#     4  12  23  37  60  94 127 162 194 251 314 378
#     4  10  23  39  61  86 122 162 207 258 296 362
#     4  12  22  42  60  90 126 158 218 254 306 360
#
# _framework density 20.816275000000001
#
# number of rings (size 3 to 8) (size 9 to 14) (size 15 to 20)
#    0.000    1.091    3.636    3.818    7.636    0.000 
#    0.000    0.000    0.000    4.364    0.000    0.000 
#    0.000    0.000    0.000    0.000    0.000    0.000 
#
# Total GULP energy -272607.260998 kJ/mol
# GULP energy per Si atom -12391.239136 kJ/mol
# Density = 2.076890 g / cm^3
# Si number density = 20.816275 Si / 1000 Ang^3
#
#
#
# Elastic Constant Matrix: (Units=GPa)
#
#
# Indices 1 2 3 4 5 6 
#
# 1 115.8044 9.2457 44.3452 0.0200 -26.5194 0.0060
# 2 9.2457 42.8348 19.3993 0.0180 -2.6440 0.0106
# 3 44.3452 19.3993 122.6424 0.0403 7.1310 0.0205
# 4 0.0200 0.0180 0.0403 16.9999 0.0338 -1.9481
# 5 -26.5194 -2.6440 7.1310 0.0338 31.8291 0.0126
# 6 0.0060 0.0106 0.0205 -1.9481 0.0126 21.6034
#
#
#
# Elastic Compliance Matrix: (Units=1/GPa)
#
#
# Indices 1 2 3 4 5 6 
#
# 1 0.013741 0.000441 -0.005781 -0.000029 0.012780 -0.000009
# 2 0.000441 0.025451 -0.004387 -0.000025 0.003465 -0.000013
# 3 -0.005781 -0.004387 0.011388 0.000000 -0.007733 -0.000003
# 4 -0.000029 -0.000025 0.000000 0.059438 -0.000092 0.005360
# 5 0.012780 0.003465 -0.007733 -0.000092 0.044086 -0.000032
# 6 -0.000009 -0.000013 -0.000003 0.005360 -0.000032 0.046772
#
#
# Mechanical properties :
#
#
# Convention : Reuss Voigt Hill
#
# Bulk Modulus (GPa) = 32.12787 47.47355 39.80071
# Shear Modulus (GPa) = 21.67274 27.97258 24.82266
#
# Velocity S-wave (km/s) = 3.23018 3.66974 3.45695
# Velocity P-wave (km/s) = 5.42029 6.38839 5.92415
#
# Compressibility (1/GPa) = 0.03112563
#
# Stress axis : x y z
#
# Youngs Moduli (GPa) = 72.77732 39.29149 87.81437
#
# Poissons Ratio (x) = -0.01734 0.50767
# Poissons Ratio (y) = -0.03211 0.38522
# Poissons Ratio (z) = 0.42074 0.17236
#
# Static dielectric constant tensor:
#      x y z
#    x 4.091340 -0.000230 0.074870 
#    y -0.000230 3.901210 -0.000380 
#    z 0.074870 -0.000380 3.960410 
# 
# 
# High freq. dielectric constant tensor:
#      x y z
#    x 1.820890 0.000000 0.008370 
#    y 0.000000 1.773870 0.000000 
#    z 0.008370 0.000000 1.824750 
# 
# From -- ./inp_files/156263.got.cif
#   From: 2010.06.25/outbox.cif.g09.slc.cpg/sg15_79_cif.got.tgz:156263.got - 2010.06.28 07:06:18.
