data_PCOD8142554
_publ_section_title
;
Structure prediction by ZEFSAII (Michael W. Deem and Ramdas Pophale) SiO2 
 PCOD8142554
Probable space group: C 2/C
;
_chemical_formula_sum "Si O2"
_cell_formula_units_Z 60
_cell_length_a 15.723196
_cell_length_b 11.867030
_cell_length_c 16.665777
_cell_angle_alpha 90.000000
_cell_angle_beta 77.926780
_cell_angle_gamma 90.000000
_cell_volume 3040.846443
_symmetry_space_group_name_H-M "C 2/C"
_symmetry_group_IT_number 15
_symmetry_cell_setting 'monoclinic'
loop_
_space_group_symop_operation_xyz
x,y,z
-x,y,1/2-z
-x,-y,-z
x,-y,1/2+z
1/2+x,1/2+y,z
1/2-x,1/2+y,1/2-z
1/2-x,1/2-y,-z
1/2+x,1/2-y,1/2+z
loop_
_atom_site_type_symbol
_atom_site_label
_atom_site_fract_x
_atom_site_fract_y
_atom_site_fract_z
Si Si1 0.773489 0.716664 0.407080
Si Si2 0.255420 0.320800 0.175033
Si Si3 0.116383 0.759404 0.827527
Si Si4 0.837976 0.477961 0.423269
Si Si5 0.686565 0.919208 0.886738
Si Si6 0.660830 0.425880 0.197866
Si Si7 0.500000 0.574004 0.250000
Si Si8 0.525635 0.956276 0.407010
O O1 0.750000 0.750000 0.500000
O O2 0.688667 0.685575 0.370897
O O3 0.831794 0.606665 0.398237
O O4 0.830712 0.818812 0.361454
O O5 0.167813 0.294382 0.242325
O O6 0.231895 0.402492 0.107624
O O7 0.298073 0.212458 0.125188
O O8 0.330295 0.380168 0.213094
O O9 0.045718 0.849837 0.809698
O O10 0.068603 0.667175 0.892509
O O11 0.819581 0.459815 0.520569
O O12 0.935925 0.447121 0.375784
O O13 0.763173 0.984518 0.828352
O O14 0.596385 0.953929 0.859662
O O15 0.571364 0.490855 0.197178
O O16 0.500000 0.000000 0.500000
#
# Coordination Sequence:
#
# PCOD8142554 Si02
#       8
#     8   8   8   8   8   8   4   8
#     4  11  21  42  66  90 126 179 212 256 336 403
#     4  11  23  40  67  92 125 174 214 265 333 389
#     4  11  22  40  66  90 131 177 218 262 335 401
#     4  11  23  38  67  97 123 165 223 268 321 393
#     4  11  21  43  63  91 133 165 212 273 324 390
#     4  11  24  41  64  91 131 168 211 271 323 387
#     4  12  24  42  64  98 132 166 224 280 320 386
#     4  10  21  39  61  95 127 164 209 270 318 378
#
# _framework density 19.731349000000002
#
# number of rings (size 3 to 8) (size 9 to 14) (size 15 to 20)
#    0.000    1.067    5.333    2.800    1.867    1.067 
#    0.000    0.667    0.000    0.000    0.000    0.000 
#    0.000    0.000    0.000    0.000    0.000    0.000 
#
# Total GULP energy -371862.031303 kJ/mol
# GULP energy per Si atom -12395.401043 kJ/mol
# Density = 1.968644 g / cm^3
# Si number density = 19.731349 Si / 1000 Ang^3
#
#
#
# Elastic Constant Matrix: (Units=GPa)
#
#
# Indices 1 2 3 4 5 6 
#
# 1 91.8465 42.8853 36.5633 0.0000 -12.8209 0.0000
# 2 42.8853 121.6038 35.4285 0.0000 -4.6313 0.0000
# 3 36.5633 35.4285 56.3578 0.0000 9.4005 0.0000
# 4 0.0000 0.0000 0.0000 35.9448 0.0000 3.0335
# 5 -12.8209 -4.6313 9.4005 0.0000 27.8601 0.0000
# 6 0.0000 0.0000 0.0000 3.0335 0.0000 48.2271
#
#
#
# Elastic Compliance Matrix: (Units=1/GPa)
#
#
# Indices 1 2 3 4 5 6 
#
# 1 0.018898 -0.002447 -0.012827 0.000000 0.012618 0.000000
# 2 -0.002447 0.010831 -0.005652 0.000000 0.002582 0.000000
# 3 -0.012827 -0.005652 0.032594 0.000000 -0.017840 0.000000
# 4 0.000000 0.000000 0.000000 0.027969 0.000000 -0.001759
# 5 0.012618 0.002582 -0.017840 0.000000 0.048149 0.000000
# 6 0.000000 0.000000 0.000000 -0.001759 0.000000 0.020846
#
#
# Mechanical properties :
#
#
# Convention : Reuss Voigt Hill
#
# Bulk Modulus (GPa) = 48.84762 55.50692 52.17727
# Shear Modulus (GPa) = 24.04286 32.73516 28.38901
#
# Velocity S-wave (km/s) = 3.49450 4.07755 3.79724
# Velocity P-wave (km/s) = 6.41032 7.09655 6.76214
#
# Compressibility (1/GPa) = 0.02047183
#
# Stress axis : x y z
#
# Youngs Moduli (GPa) = 52.91629 92.32405 30.68047
#
# Poissons Ratio (x) = 0.22592 0.39353
# Poissons Ratio (y) = 0.12949 0.17341
# Poissons Ratio (z) = 0.67874 0.52182
#
# Static dielectric constant tensor:
#      x y z
#    x 3.966150 0.000000 0.029090 
#    y 0.000000 1.581790 0.000000 
#    z 0.029090 0.000000 3.610040 
# 
# 
# High freq. dielectric constant tensor:
#      x y z
#    x 1.775450 0.000000 0.003480 
#    y 0.000000 1.781780 0.000000 
#    z 0.003480 0.000000 1.759670 
# 
# From -- ./inp_files/204020.got.cif
#   From: 2010.06.25/outbox.cif.g09.slc.cpg/sg15_103_cif.got.tgz:204020.got - 2010.06.28 07:06:18.
