data_PCOD8142378
_publ_section_title
;
Structure prediction by ZEFSAII (Michael W. Deem and Ramdas Pophale) SiO2 
 PCOD8142378
Probable space group: C 2/C
;
_chemical_formula_sum "Si O2"
_cell_formula_units_Z 40
_cell_length_a 8.131614
_cell_length_b 23.196316
_cell_length_c 9.432851
_cell_angle_alpha 90.000000
_cell_angle_beta 85.669352
_cell_angle_gamma 90.000000
_cell_volume 1774.177271
_symmetry_space_group_name_H-M "C 2/C"
_symmetry_group_IT_number 15
_symmetry_cell_setting 'monoclinic'
loop_
_space_group_symop_operation_xyz
x,y,z
-x,y,1/2-z
-x,-y,-z
x,-y,1/2+z
1/2+x,1/2+y,z
1/2-x,1/2+y,1/2-z
1/2-x,1/2-y,-z
1/2+x,1/2-y,1/2+z
loop_
_atom_site_type_symbol
_atom_site_label
_atom_site_fract_x
_atom_site_fract_y
_atom_site_fract_z
Si Si1 0.409147 0.660387 0.108541
Si Si2 0.330276 0.540327 0.180739
Si Si3 0.837490 0.538184 0.018758
Si Si4 0.814589 0.741015 0.226907
Si Si5 0.253891 0.164885 0.965923
O O1 0.500000 0.653311 0.250000
O O2 0.314209 0.600043 0.093393
O O3 0.281996 0.714449 0.129249
O O4 0.551910 0.665704 0.981825
O O5 0.500000 0.529287 0.250000
O O6 0.194055 0.540999 0.312243
O O7 0.305180 0.491134 0.065452
O O8 0.842771 0.602813 0.952216
O O9 0.000000 0.500000 0.000000
O O10 0.710495 0.796912 0.177559
O O11 0.000000 0.758975 0.250000
O O12 0.825518 0.694170 0.101653
#
# Coordination Sequence:
#
# PCOD8142378 Si02
#       5
#     8   8   8   8   8
#     4   9  18  39  66  86 127 178 213 264 340 402
#     4  11  22  42  67  94 131 185 225 272 341 418
#     4  12  25  41  67 101 137 178 227 290 343 399
#     4  10  21  38  68  94 125 174 222 277 330 399
#     4  10  22  42  60  96 135 168 223 277 334 408
#
# _framework density 22.545662
#
# number of rings (size 3 to 8) (size 9 to 14) (size 15 to 20)
#    0.000    1.600    6.000    1.200    2.800    1.600 
#    0.000   10.000    0.000    0.000    0.000    0.000 
#    0.000    0.000    0.000    0.000    0.000    0.000 
#
# Total GULP energy -247781.329447 kJ/mol
# GULP energy per Si atom -12389.066472 kJ/mol
# Density = 2.249435 g / cm^3
# Si number density = 22.545662 Si / 1000 Ang^3
#
#
#
# Elastic Constant Matrix: (Units=GPa)
#
#
# Indices 1 2 3 4 5 6 
#
# 1 87.3651 34.2635 10.1709 0.0000 0.4397 0.0000
# 2 34.2635 166.0113 35.9627 0.0000 6.3844 0.0000
# 3 10.1709 35.9627 36.4415 0.0000 8.9722 0.0000
# 4 0.0000 0.0000 0.0000 19.4168 0.0000 -3.2499
# 5 0.4397 6.3844 8.9722 0.0000 20.5098 0.0000
# 6 0.0000 0.0000 0.0000 -3.2499 0.0000 31.4606
#
#
#
# Elastic Compliance Matrix: (Units=1/GPa)
#
#
# Indices 1 2 3 4 5 6 
#
# 1 0.012517 -0.002303 -0.001493 0.000000 0.001101 0.000000
# 2 -0.002303 0.008105 -0.007561 0.000000 0.000834 0.000000
# 3 -0.001493 -0.007561 0.038924 0.000000 -0.014642 0.000000
# 4 0.000000 0.000000 0.000000 0.052408 0.000000 0.005414
# 5 0.001101 0.000834 -0.014642 0.000000 0.054879 0.000000
# 6 0.000000 0.000000 0.000000 0.005414 0.000000 0.032345
#
#
# Mechanical properties :
#
#
# Convention : Reuss Voigt Hill
#
# Bulk Modulus (GPa) = 27.14841 50.06802 38.60822
# Shear Modulus (GPa) = 21.35208 28.23882 24.79545
#
# Velocity S-wave (km/s) = 3.08077 3.54293 3.31990
# Velocity P-wave (km/s) = 4.97218 6.24436 5.64423
#
# Compressibility (1/GPa) = 0.03683457
#
# Stress axis : x y z
#
# Youngs Moduli (GPa) = 79.88839 123.38432 25.69081
#
# Poissons Ratio (x) = 0.28410 0.03834
# Poissons Ratio (y) = 0.18395 0.19425
# Poissons Ratio (z) = 0.11923 0.93291
#
# Static dielectric constant tensor:
#      x y z
#    x 4.137920 0.000000 -0.308430 
#    y 0.000000 4.495180 0.000000 
#    z -0.308430 0.000000 4.134580 
# 
# 
# High freq. dielectric constant tensor:
#      x y z
#    x 1.876410 0.000000 0.000060 
#    y 0.000000 1.900340 0.000000 
#    z 0.000060 0.000000 1.863980 
# 
# From -- ./inp_files/23648.got.cif
#   From: 2010.06.25/outbox.cif.g09.slc.cpg/sg15_12_cif.got.tgz:23648.got - 2010.06.28 07:06:18.
