data_PCOD8142951
_publ_section_title
;
Structure prediction by ZEFSAII (Michael W. Deem and Ramdas Pophale) SiO2 
 PCOD8142951
Probable space group: C 2/C
;
_chemical_formula_sum "Si O2"
_cell_formula_units_Z 56
_cell_length_a 10.469547
_cell_length_b 17.090489
_cell_length_c 25.784212
_cell_angle_alpha 90.000000
_cell_angle_beta 33.176728
_cell_angle_gamma 90.000000
_cell_volume 2524.647970
_symmetry_space_group_name_H-M "C 2/C"
_symmetry_group_IT_number 15
_symmetry_cell_setting 'monoclinic'
loop_
_space_group_symop_operation_xyz
x,y,z
-x,y,1/2-z
-x,-y,-z
x,-y,1/2+z
1/2+x,1/2+y,z
1/2-x,1/2+y,1/2-z
1/2-x,1/2-y,-z
1/2+x,1/2-y,1/2+z
loop_
_atom_site_type_symbol
_atom_site_label
_atom_site_fract_x
_atom_site_fract_y
_atom_site_fract_z
Si Si1 0.500000 0.501179 0.750000
Si Si2 0.909994 0.552713 0.669126
Si Si3 0.773794 0.871960 0.881018
Si Si4 0.371825 0.892010 0.932043
Si Si5 0.599337 0.363894 0.346179
Si Si6 0.500000 0.760319 0.250000
Si Si7 0.573909 0.817034 0.047731
Si Si8 0.383227 0.756354 0.842671
O O1 0.726791 0.552001 0.683775
O O2 0.443110 0.446528 0.818728
O O3 0.760004 0.562388 0.773025
O O4 0.075513 0.476283 0.612857
O O5 0.042449 0.634092 0.611843
O O6 0.572939 0.871128 0.904888
O O7 0.940260 0.795638 0.819233
O O8 0.673621 0.878843 0.972338
O O9 0.362826 0.826873 0.890533
O O10 0.120719 0.894100 0.045849
O O11 0.522019 0.315471 0.321633
O O12 0.766630 0.310614 0.323769
O O13 0.363784 0.775585 0.090211
O O14 0.750000 0.750000 0.000000
O O15 0.500000 0.786996 0.750000
#
# Coordination Sequence:
#
# PCOD8142951 Si02
#       8
#     4   8   8   8   8   4   8   8
#     4   9  22  36  64  96 133 176 222 288 349 402
#     4  11  25  43  64 107 142 182 235 293 360 411
#     4  10  21  39  68  98 136 171 232 282 348 414
#     4  11  25  45  72 102 139 188 231 291 365 424
#     4  12  23  45  72  98 137 189 233 288 354 428
#     4  11  22  40  68 100 131 174 238 286 331 420
#     4  12  25  41  67 103 137 181 231 293 341 418
#     4  12  24  46  72 100 139 181 238 289 357 422
#
# _framework density 22.181308999999999
#
# number of rings (size 3 to 8) (size 9 to 14) (size 15 to 20)
#    0.000    0.857    4.286    3.000    2.000    1.143 
#    1.286    1.429    0.000    0.000    0.000    0.000 
#    0.000    0.000    0.000    0.000    0.000    0.000 
#
# Total GULP energy -347025.541156 kJ/mol
# GULP energy per Si atom -12393.769327 kJ/mol
# Density = 2.213082 g / cm^3
# Si number density = 22.181309 Si / 1000 Ang^3
#
#
#
# Elastic Constant Matrix: (Units=GPa)
#
#
# Indices 1 2 3 4 5 6 
#
# 1 43.1404 9.3927 17.3904 -0.0237 1.5708 0.0285
# 2 9.3927 104.9550 50.7073 -0.0135 2.0247 -0.0082
# 3 17.3904 50.7073 153.4370 0.0724 16.7219 0.0408
# 4 -0.0237 -0.0135 0.0724 51.0224 -0.0246 -18.9411
# 5 1.5708 2.0247 16.7219 -0.0246 40.3077 -0.0151
# 6 0.0285 -0.0082 0.0408 -18.9411 -0.0151 27.7305
#
#
#
# Elastic Compliance Matrix: (Units=1/GPa)
#
#
# Indices 1 2 3 4 5 6 
#
# 1 0.024380 -0.001003 -0.002444 0.000009 0.000114 -0.000016
# 2 -0.001003 0.011421 -0.003773 0.000016 0.001031 0.000022
# 3 -0.002444 -0.003773 0.008389 -0.000027 -0.003196 -0.000031
# 4 0.000009 0.000016 -0.000027 0.026257 0.000033 0.017935
# 5 0.000114 0.001031 -0.003196 0.000033 0.026079 0.000042
# 6 -0.000016 0.000022 -0.000031 0.017935 0.000042 0.048312
#
#
# Mechanical properties :
#
#
# Convention : Reuss Voigt Hill
#
# Bulk Modulus (GPa) = 33.61411 50.72371 42.16891
# Shear Modulus (GPa) = 29.55185 38.74825 34.15005
#
# Velocity S-wave (km/s) = 3.65401 4.18411 3.92801
# Velocity P-wave (km/s) = 5.74365 6.80146 6.29481
#
# Compressibility (1/GPa) = 0.02974941
#
# Stress axis : x y z
#
# Youngs Moduli (GPa) = 41.01786 87.56112 119.19683
#
# Poissons Ratio (x) = 0.08784 0.29133
# Poissons Ratio (y) = 0.04115 0.44971
# Poissons Ratio (z) = 0.10025 0.33036
#
# Static dielectric constant tensor:
#      x y z
#    x 3.779980 0.000030 -0.082590 
#    y 0.000030 4.073000 0.000090 
#    z -0.082590 0.000090 4.565970 
# 
# 
# High freq. dielectric constant tensor:
#      x y z
#    x 1.849050 0.000000 -0.003720 
#    y 0.000000 1.875870 0.000000 
#    z -0.003720 0.000000 1.897240 
# 
# From -- ./inp_files/311348.got.cif
#   From: 2010.06.25/outbox.cif.g09.slc.cpg/sg15_156_cif.got.tgz:311348.got - 2010.06.28 07:06:18.
