data_PCOD8142444
_publ_section_title
;
Structure prediction by ZEFSAII (Michael W. Deem and Ramdas Pophale) SiO2 
 PCOD8142444
Probable space group: C 2/C
;
_chemical_formula_sum "Si O2"
_cell_formula_units_Z 40
_cell_length_a 15.078543
_cell_length_b 11.570742
_cell_length_c 12.703688
_cell_angle_alpha 90.000000
_cell_angle_beta 64.752830
_cell_angle_gamma 90.000000
_cell_volume 2004.691542
_symmetry_space_group_name_H-M "C 2/C"
_symmetry_group_IT_number 15
_symmetry_cell_setting 'monoclinic'
loop_
_space_group_symop_operation_xyz
x,y,z
-x,y,1/2-z
-x,-y,-z
x,-y,1/2+z
1/2+x,1/2+y,z
1/2-x,1/2+y,1/2-z
1/2-x,1/2-y,-z
1/2+x,1/2-y,1/2+z
loop_
_atom_site_type_symbol
_atom_site_label
_atom_site_fract_x
_atom_site_fract_y
_atom_site_fract_z
Si Si1 0.381682 0.179820 0.410118
Si Si2 0.618547 0.415493 0.360860
Si Si3 0.764372 0.475752 0.126583
Si Si4 0.089506 0.050868 0.586778
Si Si5 0.100485 0.341538 0.838409
O O1 0.305544 0.120466 0.527102
O O2 0.377724 0.315869 0.431291
O O3 0.352239 0.158700 0.302628
O O4 0.487074 0.123567 0.383155
O O5 0.727068 0.423596 0.255964
O O6 0.609914 0.498595 0.462950
O O7 0.527846 0.451781 0.327452
O O8 0.605175 0.281193 0.395548
O O9 0.661383 0.521649 0.127967
O O10 0.844078 0.572988 0.110135
#
# Coordination Sequence:
#
# PCOD8142444 Si02
#       5
#     8   8   8   8   8
#     4  10  21  40  61  82 118 159 196 234 299 353
#     4  10  22  37  59  87 117 153 197 244 293 348
#     4  12  21  33  62  88 115 151 199 242 288 349
#     4  10  21  39  59  84 117 155 198 244 292 348
#     4  10  22  39  58  87 119 154 194 246 290 351
#
# _framework density 19.953194
#
# number of rings (size 3 to 8) (size 9 to 14) (size 15 to 20)
#    0.000    1.600    2.000    3.000    2.800    0.800 
#    0.000    0.000    0.000    0.000    0.000    0.000 
#    0.000    0.000    0.000    0.000    0.000    0.000 
#
# Total GULP energy -247781.238361 kJ/mol
# GULP energy per Si atom -12389.061918 kJ/mol
# Density = 1.990778 g / cm^3
# Si number density = 19.953194 Si / 1000 Ang^3
#
#
#
# Elastic Constant Matrix: (Units=GPa)
#
#
# Indices 1 2 3 4 5 6 
#
# 1 111.1380 43.3141 23.0764 0.0000 3.9793 0.0000
# 2 43.3141 52.4989 24.1673 0.0000 8.8284 0.0000
# 3 23.0764 24.1673 60.7100 0.0000 -18.0146 0.0000
# 4 0.0000 0.0000 0.0000 29.8335 0.0000 0.8945
# 5 3.9793 8.8284 -18.0146 0.0000 35.4848 0.0000
# 6 0.0000 0.0000 0.0000 0.8945 0.0000 25.9651
#
#
#
# Elastic Compliance Matrix: (Units=1/GPa)
#
#
# Indices 1 2 3 4 5 6 
#
# 1 0.013324 -0.010997 -0.000375 0.000000 0.001052 0.000000
# 2 -0.010997 0.038159 -0.015849 0.000000 -0.016307 0.000000
# 3 -0.000375 -0.015849 0.028381 0.000000 0.018393 0.000000
# 4 0.000000 0.000000 0.000000 0.033554 0.000000 -0.001156
# 5 0.001052 -0.016307 0.018393 0.000000 0.041458 0.000000
# 6 0.000000 0.000000 0.000000 -0.001156 0.000000 0.038553
#
#
# Mechanical properties :
#
#
# Convention : Reuss Voigt Hill
#
# Bulk Modulus (GPa) = 39.33491 45.05139 42.19315
# Shear Modulus (GPa) = 19.50492 27.17595 23.34043
#
# Velocity S-wave (km/s) = 3.12995 3.69451 3.42388
# Velocity P-wave (km/s) = 5.72874 6.38958 6.06816
#
# Compressibility (1/GPa) = 0.02542271
#
# Stress axis : x y z
#
# Youngs Moduli (GPa) = 75.05270 26.20591 35.23456
#
# Poissons Ratio (x) = 0.28819 0.01320
# Poissons Ratio (y) = 0.82537 0.55843
# Poissons Ratio (z) = 0.02813 0.41534
#
# Static dielectric constant tensor:
#      x y z
#    x 3.998970 0.000000 -0.126260 
#    y 0.000000 3.297590 0.000000 
#    z -0.126260 0.000000 3.642510 
# 
# 
# High freq. dielectric constant tensor:
#      x y z
#    x 1.797710 0.000000 -0.012500 
#    y 0.000000 1.748230 0.000000 
#    z -0.012500 0.000000 1.784310 
# 
# From -- ./inp_files/94479.got.cif
#   From: 2010.06.25/outbox.cif.g09.slc.cpg/sg15_48_cif.got.tgz:94479.got - 2010.06.28 07:06:18.
