data_PCOD8142587
_publ_section_title
;
Structure prediction by ZEFSAII (Michael W. Deem and Ramdas Pophale) SiO2 
 PCOD8142587
Probable space group: C 2/C
;
_chemical_formula_sum "Si O2"
_cell_formula_units_Z 60
_cell_length_a 16.813078
_cell_length_b 16.197964
_cell_length_c 22.494642
_cell_angle_alpha 90.000000
_cell_angle_beta 150.046637
_cell_angle_gamma 90.000000
_cell_volume 3058.749331
_symmetry_space_group_name_H-M "C 2/C"
_symmetry_group_IT_number 15
_symmetry_cell_setting 'monoclinic'
loop_
_space_group_symop_operation_xyz
x,y,z
-x,y,1/2-z
-x,-y,-z
x,-y,1/2+z
1/2+x,1/2+y,z
1/2-x,1/2+y,1/2-z
1/2-x,1/2-y,-z
1/2+x,1/2-y,1/2+z
loop_
_atom_site_type_symbol
_atom_site_label
_atom_site_fract_x
_atom_site_fract_y
_atom_site_fract_z
Si Si1 0.000000 0.038493 0.250000
Si Si2 0.574451 0.310526 0.016096
Si Si3 0.484498 0.036193 0.806404
Si Si4 0.129768 0.955289 0.123438
Si Si5 0.154625 0.478167 0.021755
Si Si6 0.638526 0.205868 0.878436
Si Si7 0.111047 0.910999 0.700336
Si Si8 0.946577 0.374751 0.965387
O O1 0.844843 0.980978 0.148798
O O2 0.992431 0.093799 0.305569
O O3 0.584091 0.357983 0.086346
O O4 0.747402 0.324679 0.099963
O O5 0.522667 0.216442 0.990196
O O6 0.452502 0.350420 0.890872
O O7 0.500000 0.002382 0.750000
O O8 0.305674 0.027640 0.713455
O O9 0.552825 0.129452 0.855014
O O10 0.596650 0.973979 0.916493
O O11 0.116456 0.992855 0.181476
O O12 0.000000 0.000000 0.000000
O O13 0.070843 0.562149 0.991348
O O14 0.097103 0.399498 0.022273
O O15 0.500000 0.256037 0.750000
O O16 0.750000 0.250000 0.000000
O O17 0.287280 0.877435 0.823898
#
# Coordination Sequence:
#
# PCOD8142587 Si02
#       8
#     4   8   8   8   8   8   8   8
#     4  10  22  40  66  88 122 172 208 260 310 382
#     4  11  22  38  60  92 123 168 205 255 319 372
#     4  11  20  38  62  88 126 166 207 253 310 378
#     4  10  21  39  62  90 125 162 215 257 309 376
#     4  10  21  40  60  90 125 165 208 253 315 376
#     4  11  23  36  54  90 134 169 199 253 321 397
#     4  10  22  41  61  91 124 161 212 258 312 382
#     4  10  22  39  61  91 127 163 206 254 316 381
#
# _framework density 19.615860000000001
#
# number of rings (size 3 to 8) (size 9 to 14) (size 15 to 20)
#    0.000    1.600    4.000    1.600    3.733    2.133 
#    2.400    0.000    0.000    0.800    8.667    0.000 
#    0.000    0.000    0.000    0.000    0.000    0.000 
#
# Total GULP energy -371676.409662 kJ/mol
# GULP energy per Si atom -12389.213655 kJ/mol
# Density = 1.957121 g / cm^3
# Si number density = 19.615860 Si / 1000 Ang^3
#
#
#
# Elastic Constant Matrix: (Units=GPa)
#
#
# Indices 1 2 3 4 5 6 
#
# 1 100.7360 51.5695 47.0673 0.0005 -5.9857 -0.0009
# 2 51.5695 88.5200 23.6529 0.0010 -4.2078 -0.0003
# 3 47.0673 23.6529 127.4476 -0.0080 -1.1623 -0.0059
# 4 0.0005 0.0010 -0.0080 21.5266 0.0001 -0.4406
# 5 -5.9857 -4.2078 -1.1623 0.0001 37.5403 -0.0001
# 6 -0.0009 -0.0003 -0.0059 -0.4406 -0.0001 21.9264
#
#
#
# Elastic Compliance Matrix: (Units=1/GPa)
#
#
# Indices 1 2 3 4 5 6 
#
# 1 0.016337 -0.008244 -0.004489 -0.000002 0.001542 -0.000001
# 2 -0.008244 0.016107 0.000060 -0.000001 0.000493 0.000000
# 3 -0.004489 0.000060 0.009489 0.000004 -0.000415 0.000002
# 4 -0.000002 -0.000001 0.000004 0.046473 0.000000 0.000934
# 5 0.001542 0.000493 -0.000415 0.000000 0.026926 0.000000
# 6 -0.000001 0.000000 0.000002 0.000934 0.000000 0.045626
#
#
# Mechanical properties :
#
#
# Convention : Reuss Voigt Hill
#
# Bulk Modulus (GPa) = 60.29222 62.36478 61.32850
# Shear Modulus (GPa) = 26.06410 29.15957 27.61184
#
# Velocity S-wave (km/s) = 3.64912 3.85974 3.75591
# Velocity P-wave (km/s) = 6.96836 7.19204 7.08108
#
# Compressibility (1/GPa) = 0.01658589
#
# Stress axis : x y z
#
# Youngs Moduli (GPa) = 61.21234 62.08349 105.38190
#
# Poissons Ratio (x) = 0.51185 0.47306
# Poissons Ratio (y) = 0.50466 -0.00631
# Poissons Ratio (z) = 0.27479 -0.00372
#
# Static dielectric constant tensor:
#      x y z
#    x 3.795950 0.000000 -0.129410 
#    y 0.000000 3.522740 -0.000010 
#    z -0.129410 -0.000010 3.936150 
# 
# 
# High freq. dielectric constant tensor:
#      x y z
#    x 1.754160 0.000000 -0.006750 
#    y 0.000000 1.726640 0.000000 
#    z -0.006750 0.000000 1.795650 
# 
# From -- ./inp_files/277585.got.cif
#   From: 2010.06.25/outbox.cif.g09.slc.cpg/sg15_139_cif.got.tgz:277585.got - 2010.06.28 07:06:18.
