data_PCOD8142678
_publ_section_title
;
Structure prediction by ZEFSAII (Michael W. Deem and Ramdas Pophale) SiO2 
 PCOD8142678
Probable space group: C 2/C
;
_chemical_formula_sum "Si O2"
_cell_formula_units_Z 64
_cell_length_a 17.622715
_cell_length_b 8.141498
_cell_length_c 31.276870
_cell_angle_alpha 90.000000
_cell_angle_beta 41.952869
_cell_angle_gamma 90.000000
_cell_volume 2999.951457
_symmetry_space_group_name_H-M "C 2/C"
_symmetry_group_IT_number 15
_symmetry_cell_setting 'monoclinic'
loop_
_space_group_symop_operation_xyz
x,y,z
-x,y,1/2-z
-x,-y,-z
x,-y,1/2+z
1/2+x,1/2+y,z
1/2-x,1/2+y,1/2-z
1/2-x,1/2-y,-z
1/2+x,1/2-y,1/2+z
loop_
_atom_site_type_symbol
_atom_site_label
_atom_site_fract_x
_atom_site_fract_y
_atom_site_fract_z
Si Si1 0.192057 0.276694 0.978338
Si Si2 0.367566 0.796463 0.805354
Si Si3 0.426226 0.695631 0.935912
Si Si4 0.037756 0.134734 0.414426
Si Si5 0.227951 0.324823 0.290185
Si Si6 0.170007 0.306962 0.833753
Si Si7 0.244815 0.143561 0.566598
Si Si8 0.216323 0.072279 0.888123
O O1 0.235031 0.449414 0.942657
O O2 0.226340 0.124335 0.933348
O O3 0.250000 0.250000 0.000000
O O4 0.053759 0.275130 0.034774
O O5 0.500000 0.766481 0.750000
O O6 0.332462 0.748006 0.772585
O O7 0.296677 0.686178 0.868580
O O8 0.336184 0.987031 0.826772
O O9 0.463134 0.508018 0.924982
O O10 0.535593 0.808645 0.881910
O O11 0.349734 0.709053 0.926193
O O12 0.360630 0.760832 0.005616
O O13 0.116971 0.215200 0.345268
O O14 0.113763 0.059719 0.421550
O O15 0.213144 0.510648 0.310540
O O16 0.262680 0.315410 0.226198
O O17 0.196631 0.238001 0.869591
#
# Coordination Sequence:
#
# PCOD8142678 Si02
#       8
#     8   8   8   8   8   8   8   8
#     4  12  23  41  63  99 136 167 219 274 330 391
#     4  11  24  44  66  93 132 169 218 267 332 391
#     4  10  21  39  63  93 125 177 208 270 321 385
#     4  10  21  42  65  93 130 170 218 272 322 391
#     4  11  23  41  66  95 126 173 221 269 322 396
#     4  11  22  43  66  91 130 167 227 264 327 387
#     4  11  23  38  63  95 134 168 215 263 336 390
#     4  10  24  43  66  94 126 175 220 270 331 397
#
# _framework density 21.333677999999999
#
# number of rings (size 3 to 8) (size 9 to 14) (size 15 to 20)
#    0.000    1.250    1.250    5.625    1.750    3.000 
#    4.500    7.500    0.000    0.000    0.000    0.000 
#    0.000    0.000    0.000    0.000    0.000    0.000 
#
# Total GULP energy -396770.657134 kJ/mol
# GULP energy per Si atom -12399.083035 kJ/mol
# Density = 2.128512 g / cm^3
# Si number density = 21.333678 Si / 1000 Ang^3
#
#
#
# Elastic Constant Matrix: (Units=GPa)
#
#
# Indices 1 2 3 4 5 6 
#
# 1 71.6600 31.5940 40.7038 0.0047 6.8639 0.0222
# 2 31.5940 92.9891 35.3574 -0.0032 -9.9212 0.0098
# 3 40.7038 35.3574 112.3757 0.0013 -12.3047 0.0047
# 4 0.0047 -0.0032 0.0013 36.4840 -0.0020 2.2468
# 5 6.8639 -9.9212 -12.3047 -0.0020 35.1867 0.0010
# 6 0.0222 0.0098 0.0047 2.2468 0.0010 26.4804
#
#
#
# Elastic Compliance Matrix: (Units=1/GPa)
#
#
# Indices 1 2 3 4 5 6 
#
# 1 0.020935 -0.005393 -0.006758 -0.000003 -0.007968 -0.000014
# 2 -0.005393 0.013768 -0.001911 0.000002 0.004266 -0.000001
# 3 -0.006758 -0.001911 0.012513 0.000000 0.005155 0.000004
# 4 -0.000003 0.000002 0.000000 0.027553 0.000003 -0.002338
# 5 -0.007968 0.004266 0.005155 0.000003 0.032980 0.000003
# 6 -0.000014 -0.000001 0.000004 -0.002338 0.000003 0.037962
#
#
# Mechanical properties :
#
#
# Convention : Reuss Voigt Hill
#
# Bulk Modulus (GPa) = 52.38463 54.70390 53.54426
# Shear Modulus (GPa) = 27.74709 30.92153 29.33431
#
# Velocity S-wave (km/s) = 3.61033 3.81126 3.71215
# Velocity P-wave (km/s) = 6.47978 6.71307 6.59745
#
# Compressibility (1/GPa) = 0.01908957
#
# Stress axis : x y z
#
# Youngs Moduli (GPa) = 47.76801 72.63101 79.92005
#
# Poissons Ratio (x) = 0.39171 0.54012
# Poissons Ratio (y) = 0.25762 0.15276
# Poissons Ratio (z) = 0.32283 0.13883
#
# Static dielectric constant tensor:
#      x y z
#    x 3.863560 -0.000020 -0.110560 
#    y -0.000020 3.877990 0.000020 
#    z -0.110560 0.000020 4.036730 
# 
# 
# High freq. dielectric constant tensor:
#      x y z
#    x 1.834590 0.000000 -0.002140 
#    y 0.000000 1.843770 0.000000 
#    z -0.002140 0.000000 1.842900 
# 
# From -- ./inp_files/315656.got.cif
#   From: 2010.06.25/outbox.cif.g09.slc.cpg/sg15_158_cif.got.tgz:315656.got - 2010.06.28 07:06:18.
