data_PCOD8142621
_publ_section_title
;
Structure prediction by ZEFSAII (Michael W. Deem and Ramdas Pophale) SiO2 
 PCOD8142621
Probable space group: C 2/C
;
_chemical_formula_sum "Si O2"
_cell_formula_units_Z 44
_cell_length_a 10.189754
_cell_length_b 22.303934
_cell_length_c 15.102984
_cell_angle_alpha 90.000000
_cell_angle_beta 37.791009
_cell_angle_gamma 90.000000
_cell_volume 2103.365175
_symmetry_space_group_name_H-M "C 2/C"
_symmetry_group_IT_number 15
_symmetry_cell_setting 'monoclinic'
loop_
_space_group_symop_operation_xyz
x,y,z
-x,y,1/2-z
-x,-y,-z
x,-y,1/2+z
1/2+x,1/2+y,z
1/2-x,1/2+y,1/2-z
1/2-x,1/2-y,-z
1/2+x,1/2-y,1/2+z
loop_
_atom_site_type_symbol
_atom_site_label
_atom_site_fract_x
_atom_site_fract_y
_atom_site_fract_z
Si Si1 0.500000 0.343783 0.750000
Si Si2 0.582241 0.562810 0.354437
Si Si3 0.970305 0.386267 0.862656
Si Si4 0.643451 0.690849 0.758995
Si Si5 0.993665 0.069107 0.904165
Si Si6 0.441485 0.216505 0.052289
O O1 0.517815 0.386111 0.654668
O O2 0.292293 0.300967 0.859576
O O3 0.837780 0.568029 0.221938
O O4 0.469003 0.570966 0.509978
O O5 0.547991 0.495983 0.335502
O O6 0.962836 0.333086 0.934752
O O7 0.000000 0.357144 0.750000
O O8 0.752639 0.422103 0.988799
O O9 0.500000 0.707208 0.750000
O O10 0.641138 0.619320 0.778270
O O11 0.555076 0.721076 0.896244
O O12 0.883952 0.717903 0.619771
#
# Coordination Sequence:
#
# PCOD8142621 Si02
#       6
#     4   8   8   8   8   8
#     4  10  24  44  66  86 130 176 212 254 326 398
#     4   9  21  39  64  92 127 170 210 264 319 394
#     4   9  18  36  62  86 122 163 208 266 314 371
#     4  12  25  40  66  96 127 165 218 277 316 376
#     4  10  21  39  62  96 127 161 218 267 325 371
#     4  11  25  41  62  95 125 170 214 262 322 375
#
# _framework density 20.918858
#
# number of rings (size 3 to 8) (size 9 to 14) (size 15 to 20)
#    0.000    1.818    1.818    1.091    8.909    2.182 
#    0.000    5.455    0.000    0.000    0.000    0.000 
#    0.000    0.000    0.000    0.000    0.000    0.000 
#
# Total GULP energy -272813.545408 kJ/mol
# GULP energy per Si atom -12400.615700 kJ/mol
# Density = 2.087125 g / cm^3
# Si number density = 20.918858 Si / 1000 Ang^3
#
#
#
# Elastic Constant Matrix: (Units=GPa)
#
#
# Indices 1 2 3 4 5 6 
#
# 1 84.2533 18.4282 17.3135 -0.0006 -12.1574 0.0004
# 2 18.4282 82.9188 24.9749 -0.0015 -6.8239 0.0094
# 3 17.3135 24.9749 88.7758 -0.0192 -3.6981 0.0300
# 4 -0.0006 -0.0015 -0.0192 33.5300 0.0058 7.8251
# 5 -12.1574 -6.8239 -3.6981 0.0058 22.2206 -0.0087
# 6 0.0004 0.0094 0.0300 7.8251 -0.0087 16.8158
#
#
#
# Elastic Compliance Matrix: (Units=1/GPa)
#
#
# Indices 1 2 3 4 5 6 
#
# 1 0.013615 -0.001933 -0.001839 -0.000004 0.006549 0.000009
# 2 -0.001933 0.013719 -0.003375 -0.000002 0.002594 0.000001
# 3 -0.001839 -0.003375 0.012574 0.000013 0.000050 -0.000027
# 4 -0.000004 -0.000002 0.000013 0.033458 -0.000015 -0.015569
# 5 0.006549 0.002594 0.000050 -0.000015 0.049392 0.000031
# 6 0.000009 0.000001 -0.000027 -0.015569 0.000031 0.066713
#
#
# Mechanical properties :
#
#
# Convention : Reuss Voigt Hill
#
# Bulk Modulus (GPa) = 39.03793 41.93123 40.48458
# Shear Modulus (GPa) = 23.55138 27.52868 25.54003
#
# Velocity S-wave (km/s) = 3.35900 3.63157 3.49794
# Velocity P-wave (km/s) = 5.80913 6.13780 5.97573
#
# Compressibility (1/GPa) = 0.02561611
#
# Stress axis : x y z
#
# Youngs Moduli (GPa) = 73.45046 72.88902 79.52687
#
# Poissons Ratio (x) = 0.14090 0.14621
# Poissons Ratio (y) = 0.14198 0.26837
# Poissons Ratio (z) = 0.13504 0.24597
#
# Static dielectric constant tensor:
#      x y z
#    x 3.848510 0.000000 0.053350 
#    y 0.000000 3.787720 0.000000 
#    z 0.053350 0.000000 3.846080 
# 
# 
# High freq. dielectric constant tensor:
#      x y z
#    x 1.816420 0.000000 0.002090 
#    y 0.000000 1.819750 0.000000 
#    z 0.002090 0.000000 1.818690 
# 
# From -- ./inp_files/200727.got.cif
#   From: 2010.06.25/outbox.cif.g09.slc.cpg/sg15_101_cif.got.tgz:200727.got - 2010.06.28 07:06:18.
