data_PCOD8142280
_publ_section_title
;
Structure prediction by ZEFSAII (Michael W. Deem and Ramdas Pophale) SiO2 
 PCOD8142280
Probable space group: C 2/C
;
_chemical_formula_sum "Si O2"
_cell_formula_units_Z 48
_cell_length_a 13.631784
_cell_length_b 9.514256
_cell_length_c 27.804528
_cell_angle_alpha 90.000000
_cell_angle_beta 140.597479
_cell_angle_gamma 90.000000
_cell_volume 2289.052191
_symmetry_space_group_name_H-M "C 2/C"
_symmetry_group_IT_number 15
_symmetry_cell_setting 'monoclinic'
loop_
_space_group_symop_operation_xyz
x,y,z
-x,y,1/2-z
-x,-y,-z
x,-y,1/2+z
1/2+x,1/2+y,z
1/2-x,1/2+y,1/2-z
1/2-x,1/2-y,-z
1/2+x,1/2-y,1/2+z
loop_
_atom_site_type_symbol
_atom_site_label
_atom_site_fract_x
_atom_site_fract_y
_atom_site_fract_z
Si Si1 0.179396 0.658524 0.070173
Si Si2 0.771095 0.153062 0.299872
Si Si3 0.843960 0.031405 0.913514
Si Si4 0.988300 0.197064 0.299967
Si Si5 0.071220 0.581227 0.598451
Si Si6 0.025723 0.491571 0.837826
O O1 0.172549 0.801101 0.098927
O O2 0.351613 0.653336 0.112697
O O3 0.157749 0.527517 0.097129
O O4 0.057240 0.664417 0.980840
O O5 0.805384 0.307917 0.333761
O O6 0.847071 0.129106 0.275925
O O7 0.848365 0.035270 0.362586
O O8 0.586616 0.131325 0.224834
O O9 0.701841 0.960997 0.889396
O O10 0.000000 0.000000 0.000000
O O11 0.965869 0.364794 0.291072
O O12 0.000000 0.139575 0.250000
O O13 0.983642 0.499959 0.607947
#
# Coordination Sequence:
#
# PCOD8142280 Si02
#       6
#     8   8   8   8   8   8
#     4  10  21  41  65  91 132 164 218 255 323 390
#     4  11  22  39  64  95 123 165 215 266 320 371
#     4  11  22  39  66  95 126 173 216 260 317 385
#     4  10  21  38  65  90 122 170 209 259 320 386
#     4  10  22  40  65  93 127 171 204 275 320 377
#     4  10  22  38  63  90 130 161 218 262 315 379
#
# _framework density 20.969377999999999
#
# number of rings (size 3 to 8) (size 9 to 14) (size 15 to 20)
#    0.000    1.667    1.667    3.500    2.333    3.333 
#    0.000   10.833    0.000    0.000    0.000    0.000 
#    0.000    0.000    0.000    0.000    0.000    0.000 
#
# Total GULP energy -297609.545321 kJ/mol
# GULP energy per Si atom -12400.397722 kJ/mol
# Density = 2.092165 g / cm^3
# Si number density = 20.969378 Si / 1000 Ang^3
#
#
#
# Elastic Constant Matrix: (Units=GPa)
#
#
# Indices 1 2 3 4 5 6 
#
# 1 115.4002 37.6709 66.8205 0.0000 10.8414 0.0000
# 2 37.6709 69.8345 41.9571 0.0000 8.9503 0.0000
# 3 66.8205 41.9571 109.8444 0.0000 13.9105 0.0000
# 4 0.0000 0.0000 0.0000 36.6005 0.0000 0.4331
# 5 10.8414 8.9503 13.9105 0.0000 44.8419 0.0000
# 6 0.0000 0.0000 0.0000 0.4331 0.0000 29.7771
#
#
#
# Elastic Compliance Matrix: (Units=1/GPa)
#
#
# Indices 1 2 3 4 5 6 
#
# 1 0.013898 -0.003103 -0.007205 0.000000 -0.000506 0.000000
# 2 -0.003103 0.019384 -0.005331 0.000000 -0.001465 0.000000
# 3 -0.007205 -0.005331 0.015788 0.000000 -0.002092 0.000000
# 4 0.000000 0.000000 0.000000 0.027327 0.000000 -0.000397
# 5 -0.000506 -0.001465 -0.002092 0.000000 0.023364 0.000000
# 6 0.000000 0.000000 0.000000 -0.000397 0.000000 0.033589
#
#
# Mechanical properties :
#
#
# Convention : Reuss Voigt Hill
#
# Bulk Modulus (GPa) = 56.20616 65.33070 60.76843
# Shear Modulus (GPa) = 29.31551 32.15260 30.73406
#
# Velocity S-wave (km/s) = 3.74306 3.92000 3.83255
# Velocity P-wave (km/s) = 6.74854 7.19107 6.97332
#
# Compressibility (1/GPa) = 0.01779165
#
# Stress axis : x y z
#
# Youngs Moduli (GPa) = 71.95288 51.58854 63.34006
#
# Poissons Ratio (x) = 0.16010 0.45636
# Poissons Ratio (y) = 0.22330 0.33765
# Poissons Ratio (z) = 0.51842 0.27501
#
# Static dielectric constant tensor:
#      x y z
#    x 3.926690 0.000000 0.029170 
#    y 0.000000 3.664950 0.000000 
#    z 0.029170 0.000000 3.949840 
# 
# 
# High freq. dielectric constant tensor:
#      x y z
#    x 1.822650 0.000000 0.000230 
#    y 0.000000 1.804100 0.000000 
#    z 0.000230 0.000000 1.833190 
# 
# From -- ./inp_files/312986.got.cif
#   From: 2010.06.25/outbox.cif.g09.slc.cpg/sg15_157_cif.got.tgz:312986.got - 2010.06.28 07:06:18.
