data_PCOD8142296
_publ_section_title
;
Structure prediction by ZEFSAII (Michael W. Deem and Ramdas Pophale) SiO2 
 PCOD8142296
Probable space group: C 2/C
;
_chemical_formula_sum "Si O2"
_cell_formula_units_Z 40
_cell_length_a 8.919119
_cell_length_b 22.762453
_cell_length_c 8.540578
_cell_angle_alpha 90.000000
_cell_angle_beta 90.100475
_cell_angle_gamma 90.000000
_cell_volume 1733.914251
_symmetry_space_group_name_H-M "C 2/C"
_symmetry_group_IT_number 15
_symmetry_cell_setting 'monoclinic'
loop_
_space_group_symop_operation_xyz
x,y,z
-x,y,1/2-z
-x,-y,-z
x,-y,1/2+z
1/2+x,1/2+y,z
1/2-x,1/2+y,1/2-z
1/2-x,1/2-y,-z
1/2+x,1/2-y,1/2+z
loop_
_atom_site_type_symbol
_atom_site_label
_atom_site_fract_x
_atom_site_fract_y
_atom_site_fract_z
Si Si1 0.468345 0.276602 0.073120
Si Si2 0.188871 0.660719 0.424028
Si Si3 0.395724 0.539013 0.894037
Si Si4 0.132368 0.142091 0.368553
Si Si5 0.105143 0.536295 0.391325
O O1 0.500000 0.294469 0.250000
O O2 0.446489 0.206715 0.054169
O O3 0.325847 0.315251 0.024412
O O4 0.599833 0.296085 0.955458
O O5 0.222481 0.654186 0.237555
O O6 0.150829 0.595581 0.485425
O O7 0.500000 0.560620 0.750000
O O8 0.251809 0.500739 0.836536
O O9 0.500000 0.500000 0.000000
O O10 0.337750 0.593501 0.998235
O O11 0.000000 0.121469 0.250000
O O12 0.000000 0.556080 0.250000
O O13 0.000000 0.500000 0.500000
#
# Coordination Sequence:
#
# PCOD8142296 Si02
#       5
#     8   8   8   8   8
#     4  10  21  38  65  95 121 163 224 276 323 390
#     4  10  22  43  63  88 132 173 209 268 341 399
#     4  12  23  40  68  98 130 174 228 274 320 393
#     4  10  21  39  63  92 127 168 219 277 331 386
#     4  12  26  44  65  96 135 175 214 267 339 398
#
# _framework density 23.069191
#
# number of rings (size 3 to 8) (size 9 to 14) (size 15 to 20)
#    0.000    1.200    0.000    7.800    0.000    2.400 
#    0.000    8.000    0.000    0.000    0.000    0.000 
#    0.000    0.000    0.000    0.000    0.000    0.000 
#
# Total GULP energy -247950.341562 kJ/mol
# GULP energy per Si atom -12397.517078 kJ/mol
# Density = 2.301668 g / cm^3
# Si number density = 23.069191 Si / 1000 Ang^3
#
#
#
# Elastic Constant Matrix: (Units=GPa)
#
#
# Indices 1 2 3 4 5 6 
#
# 1 75.4694 53.3249 19.3592 0.0000 -10.8320 0.0000
# 2 53.3249 184.5524 48.1527 0.0000 -17.5163 0.0000
# 3 19.3592 48.1527 99.6505 0.0000 -3.0971 0.0000
# 4 0.0000 0.0000 0.0000 39.5948 0.0000 -8.1506
# 5 -10.8320 -17.5163 -3.0971 0.0000 33.2907 0.0000
# 6 0.0000 0.0000 0.0000 -8.1506 0.0000 33.5222
#
#
#
# Elastic Compliance Matrix: (Units=1/GPa)
#
#
# Indices 1 2 3 4 5 6 
#
# 1 0.017055 -0.004335 -0.001120 0.000000 0.003164 0.000000
# 2 -0.004335 0.007614 -0.002765 0.000000 0.002339 0.000000
# 3 -0.001120 -0.002765 0.011565 0.000000 -0.000743 0.000000
# 4 0.000000 0.000000 0.000000 0.026587 0.000000 0.006464
# 5 0.003164 0.002339 -0.000743 0.000000 0.032229 0.000000
# 6 0.000000 0.000000 0.000000 0.006464 0.000000 0.031403
#
#
# Mechanical properties :
#
#
# Convention : Reuss Voigt Hill
#
# Bulk Modulus (GPa) = 50.51749 66.81621 58.66685
# Shear Modulus (GPa) = 33.44665 37.20389 35.32527
#
# Velocity S-wave (km/s) = 3.81181 4.02021 3.91740
# Velocity P-wave (km/s) = 6.42798 7.11166 6.77845
#
# Compressibility (1/GPa) = 0.01979512
#
# Stress axis : x y z
#
# Youngs Moduli (GPa) = 58.63339 131.32907 86.46460
#
# Poissons Ratio (x) = 0.56936 0.09684
# Poissons Ratio (y) = 0.25420 0.23903
# Poissons Ratio (z) = 0.06567 0.36306
#
# Static dielectric constant tensor:
#      x y z
#    x 4.443260 0.000000 -0.224280 
#    y 0.000000 4.533500 0.000000 
#    z -0.224280 0.000000 4.525560 
# 
# 
# High freq. dielectric constant tensor:
#      x y z
#    x 1.906430 0.000000 0.004300 
#    y 0.000000 1.921600 0.000000 
#    z 0.004300 0.000000 1.909130 
# 
# From -- ./inp_files/23613.got.cif
#   From: 2010.06.25/outbox.cif.g09.slc.cpg/sg15_12_cif.got.tgz:23613.got - 2010.06.28 07:06:18.
