data_PCOD8142133
_publ_section_title
;
Structure prediction by ZEFSAII (Michael W. Deem and Ramdas Pophale) SiO2 
 PCOD8142133
Probable space group: C 2/C
;
_chemical_formula_sum "Si O2"
_cell_formula_units_Z 60
_cell_length_a 9.046308
_cell_length_b 10.613289
_cell_length_c 28.134066
_cell_angle_alpha 90.000000
_cell_angle_beta 83.369094
_cell_angle_gamma 90.000000
_cell_volume 2683.112869
_symmetry_space_group_name_H-M "C 2/C"
_symmetry_group_IT_number 15
_symmetry_cell_setting 'monoclinic'
loop_
_space_group_symop_operation_xyz
x,y,z
-x,y,1/2-z
-x,-y,-z
x,-y,1/2+z
1/2+x,1/2+y,z
1/2-x,1/2+y,1/2-z
1/2-x,1/2-y,-z
1/2+x,1/2-y,1/2+z
loop_
_atom_site_type_symbol
_atom_site_label
_atom_site_fract_x
_atom_site_fract_y
_atom_site_fract_z
Si Si1 0.559769 0.782171 0.055299
Si Si2 0.495134 0.133078 0.099128
Si Si3 0.000000 0.797460 0.250000
Si Si4 0.713325 0.218142 0.318949
Si Si5 0.720335 0.433587 0.172500
Si Si6 0.272606 0.322740 0.432683
Si Si7 0.948658 0.391851 0.345655
Si Si8 0.781274 0.434454 0.524429
O O1 0.386887 0.760134 0.052756
O O2 0.649427 0.665263 0.031721
O O3 0.580799 0.794153 0.110615
O O4 0.619154 0.908513 0.026000
O O5 0.402314 0.234837 0.133290
O O6 0.612066 0.210019 0.063395
O O7 0.573835 0.033606 0.132611
O O8 0.385443 0.060490 0.067645
O O9 0.120408 0.712461 0.273179
O O10 0.088536 0.882339 0.209454
O O11 0.795529 0.084628 0.323134
O O12 0.826255 0.339660 0.312534
O O13 0.700860 0.385395 0.119685
O O14 0.885391 0.386478 0.183009
O O15 0.295021 0.427982 0.473056
#
# Coordination Sequence:
#
# PCOD8142133 Si02
#       8
#     8   8   4   8   8   8   8   8
#     4  10  21  38  62  91 127 168 207 253 301 361
#     4  11  22  38  65  91 122 168 204 250 307 362
#     4  12  26  42  66  96 120 152 202 264 306 366
#     4  11  23  45  65  90 127 157 201 256 309 369
#     4  10  23  42  64  94 119 161 202 245 315 367
#     4  11  21  40  62  90 127 164 205 253 307 364
#     4  10  21  42  64  88 126 168 200 247 310 365
#     4  11  21  40  61  91 130 164 209 256 298 361
#
# _framework density 22.362083999999999
#
# number of rings (size 3 to 8) (size 9 to 14) (size 15 to 20)
#    0.000    1.333    6.667    0.400    0.000    5.333 
#    4.800    1.333    0.000    0.000    0.000    0.000 
#    0.000    0.000    0.000    0.000    0.000    0.000 
#
# Total GULP energy -371837.803295 kJ/mol
# GULP energy per Si atom -12394.593443 kJ/mol
# Density = 2.231119 g / cm^3
# Si number density = 22.362084 Si / 1000 Ang^3
#
#
#
# Elastic Constant Matrix: (Units=GPa)
#
#
# Indices 1 2 3 4 5 6 
#
# 1 60.1821 34.1136 17.5749 0.0000 -19.7691 0.0000
# 2 34.1136 71.9416 6.0899 0.0000 -7.4128 0.0000
# 3 17.5749 6.0899 69.3757 0.0000 -20.0027 0.0000
# 4 0.0000 0.0000 0.0000 26.3839 0.0000 -5.7264
# 5 -19.7691 -7.4128 -20.0027 0.0000 36.3728 0.0000
# 6 0.0000 0.0000 0.0000 -5.7264 0.0000 27.9889
#
#
#
# Elastic Compliance Matrix: (Units=1/GPa)
#
#
# Indices 1 2 3 4 5 6 
#
# 1 0.027777 -0.011785 -0.002783 0.000000 0.011165 0.000000
# 2 -0.011785 0.019213 0.000691 0.000000 -0.002110 0.000000
# 3 -0.002783 0.000691 0.017426 0.000000 0.008211 0.000000
# 4 0.000000 0.000000 0.000000 0.039663 0.000000 0.008115
# 5 0.011165 -0.002110 0.008211 0.000000 0.037647 0.000000
# 6 0.000000 0.000000 0.000000 0.008115 0.000000 0.037389
#
#
# Mechanical properties :
#
#
# Convention : Reuss Voigt Hill
#
# Bulk Modulus (GPa) = 27.27752 35.22847 31.25299
# Shear Modulus (GPa) = 22.82165 27.73053 25.27609
#
# Velocity S-wave (km/s) = 3.19807 3.52528 3.36566
# Velocity P-wave (km/s) = 5.08542 5.68841 5.39534
#
# Compressibility (1/GPa) = 0.03666023
#
# Stress axis : x y z
#
# Youngs Moduli (GPa) = 36.00118 52.04895 57.38470
#
# Poissons Ratio (x) = 0.61341 0.15971
# Poissons Ratio (y) = 0.42429 -0.03963
# Poissons Ratio (z) = 0.10019 -0.03595
#
# Static dielectric constant tensor:
#      x y z
#    x 3.970540 0.000000 -0.183410 
#    y 0.000000 3.867500 0.000000 
#    z -0.183410 0.000000 4.099020 
# 
# 
# High freq. dielectric constant tensor:
#      x y z
#    x 1.873160 0.000000 -0.018700 
#    y 0.000000 1.875020 0.000000 
#    z -0.018700 0.000000 1.880880 
# 
# From -- ./inp_files/307458.got.cif
#   From: 2010.06.25/outbox.cif.g09.slc.cpg/sg15_154_cif.got.tgz:307458.got - 2010.06.28 07:06:18.
