data_PCOD8142299
_publ_section_title
;
Structure prediction by ZEFSAII (Michael W. Deem and Ramdas Pophale) SiO2 
 PCOD8142299
Probable space group: C 2/C
;
_chemical_formula_sum "Si O2"
_cell_formula_units_Z 40
_cell_length_a 5.344177
_cell_length_b 22.351029
_cell_length_c 15.415720
_cell_angle_alpha 90.000000
_cell_angle_beta 90.000055
_cell_angle_gamma 90.000000
_cell_volume 1841.374689
_symmetry_space_group_name_H-M "C 2/C"
_symmetry_group_IT_number 15
_symmetry_cell_setting 'monoclinic'
loop_
_space_group_symop_operation_xyz
x,y,z
-x,y,1/2-z
-x,-y,-z
x,-y,1/2+z
1/2+x,1/2+y,z
1/2-x,1/2+y,1/2-z
1/2-x,1/2-y,-z
1/2+x,1/2-y,1/2+z
loop_
_atom_site_type_symbol
_atom_site_label
_atom_site_fract_x
_atom_site_fract_y
_atom_site_fract_z
Si Si1 0.500000 0.836186 0.250000
Si Si2 0.000000 0.990438 0.604044
Si Si3 0.000000 0.312142 0.565512
Si Si4 1.000000 0.761165 0.894056
Si Si5 0.500000 0.946527 0.930220
Si Si6 0.500000 0.413066 0.250000
O O1 0.499999 0.796126 0.165639
O O2 0.749678 0.874861 0.250000
O O3 0.250725 0.953535 0.628530
O O4 0.749276 0.953535 0.628530
O O5 1.000000 0.050389 0.660266
O O6 0.000000 0.000000 0.500000
O O7 0.748591 0.301326 0.622488
O O8 0.999999 0.380109 0.528192
O O9 1.000000 0.262672 0.491489
O O10 0.251410 0.301326 0.622488
O O11 0.500000 0.000000 0.000000
#
# Coordination Sequence:
#
# PCOD8142299 Si02
#       6
#     4   8   8   8   8   4
#     4  12  26  42  69  96 133 170 228 286 328 386
#     4  10  23  39  61  94 132 174 217 264 344 396
#     4  10  21  41  65  92 130 168 222 263 323 402
#     4  10  23  40  63  96 125 171 217 273 331 379
#     4  10  21  38  65  95 126 177 211 267 324 406
#     4  12  26  42  65 100 137 174 226 290 324 400
#
# _framework density 21.722901
#
# number of rings (size 3 to 8) (size 9 to 14) (size 15 to 20)
#    0.000    1.600    0.000    3.600   11.200    0.000 
#    0.000    6.000    0.000    0.000    0.000    0.000 
#    0.000    0.000    0.000    0.000    0.000    0.000 
#
# Total GULP energy -247826.499122 kJ/mol
# GULP energy per Si atom -12391.324956 kJ/mol
# Density = 2.167346 g / cm^3
# Si number density = 21.722901 Si / 1000 Ang^3
#
#
#
# Elastic Constant Matrix: (Units=GPa)
#
#
# Indices 1 2 3 4 5 6 
#
# 1 274.6940 80.7211 31.7813 0.0000 -0.0004 0.0000
# 2 80.7211 144.4170 24.6744 0.0000 -0.0002 0.0000
# 3 31.7813 24.6744 70.3183 0.0000 -0.0001 0.0000
# 4 0.0000 0.0000 0.0000 50.3803 0.0000 0.0000
# 5 -0.0004 -0.0002 -0.0001 0.0000 12.7631 0.0000
# 6 0.0000 0.0000 0.0000 0.0000 0.0000 46.8631
#
#
#
# Elastic Compliance Matrix: (Units=1/GPa)
#
#
# Indices 1 2 3 4 5 6 
#
# 1 0.004451 -0.002281 -0.001211 0.000000 0.000000 0.000000
# 2 -0.002281 0.008535 -0.001964 0.000000 0.000000 0.000000
# 3 -0.001211 -0.001964 0.015458 0.000000 0.000000 0.000000
# 4 0.000000 0.000000 0.000000 0.019849 0.000000 0.000000
# 5 0.000000 0.000000 0.000000 0.000000 0.078351 0.000000
# 6 0.000000 0.000000 0.000000 0.000000 0.000000 0.021339
#
#
# Mechanical properties :
#
#
# Convention : Reuss Voigt Hill
#
# Bulk Modulus (GPa) = 57.04141 84.86477 70.95309
# Shear Modulus (GPa) = 30.35130 45.48480 37.91805
#
# Velocity S-wave (km/s) = 3.74197 4.58084 4.18249
# Velocity P-wave (km/s) = 6.70712 8.19332 7.48719
#
# Compressibility (1/GPa) = 0.01753112
#
# Stress axis : x y z
#
# Youngs Moduli (GPa) = 224.67948 117.16758 64.69289
#
# Poissons Ratio (x) = 0.26723 0.07836
# Poissons Ratio (y) = 0.51245 0.12706
# Poissons Ratio (z) = 0.27215 0.23012
#
# Static dielectric constant tensor:
#      x y z
#    x 5.824030 0.000000 -0.006950 
#    y 0.000000 3.787690 0.000000 
#    z -0.006950 0.000000 177.343990 
# 
# 
# High freq. dielectric constant tensor:
#      x y z
#    x 1.902010 0.000000 0.000000 
#    y 0.000000 1.851180 0.000000 
#    z 0.000000 0.000000 1.806780 
# 
# From -- ./inp_files/129152.got.cif
#   From: 2010.06.25/outbox.cif.g09.slc.cpg/sg15_65_cif.got.tgz:129152.got - 2010.06.28 07:06:18.
