data_PCOD8142003
_publ_section_title
;
Structure prediction by ZEFSAII (Michael W. Deem and Ramdas Pophale) SiO2 
 PCOD8142003
Probable space group: C 2/C
;
_chemical_formula_sum "Si O2"
_cell_formula_units_Z 64
_cell_length_a 11.403004
_cell_length_b 26.011202
_cell_length_c 13.274670
_cell_angle_alpha 90.000000
_cell_angle_beta 51.398230
_cell_angle_gamma 90.000000
_cell_volume 3077.039566
_symmetry_space_group_name_H-M "C 2/C"
_symmetry_group_IT_number 15
_symmetry_cell_setting 'monoclinic'
loop_
_space_group_symop_operation_xyz
x,y,z
-x,y,1/2-z
-x,-y,-z
x,-y,1/2+z
1/2+x,1/2+y,z
1/2-x,1/2+y,1/2-z
1/2-x,1/2-y,-z
1/2+x,1/2-y,1/2+z
loop_
_atom_site_type_symbol
_atom_site_label
_atom_site_fract_x
_atom_site_fract_y
_atom_site_fract_z
Si Si1 0.043765 0.424801 0.941071
Si Si2 0.060987 0.323800 0.445380
Si Si3 0.353116 0.344305 0.170090
Si Si4 0.622518 0.455565 0.425872
Si Si5 0.073737 0.519955 0.809823
Si Si6 0.283072 0.809266 0.464260
Si Si7 0.841252 0.906559 0.881616
Si Si8 0.929446 0.756988 0.396135
O O1 0.003689 0.464057 0.873310
O O2 0.220992 0.428002 0.867022
O O3 0.987960 0.367910 0.948365
O O4 0.952499 0.438981 0.090057
O O5 0.236568 0.333505 0.324839
O O6 0.017137 0.274673 0.535220
O O7 0.956844 0.322075 0.400312
O O8 0.409651 0.403172 0.121855
O O9 0.256545 0.323059 0.128615
O O10 0.506718 0.314006 0.113980
O O11 0.500000 0.500000 0.500000
O O12 0.750733 0.486238 0.299629
O O13 0.677095 0.438385 0.506260
O O14 0.000000 0.542982 0.750000
O O15 0.250000 0.750000 0.500000
O O16 0.179073 0.845366 0.590595
O O17 0.000000 0.918174 0.750000
O O18 0.750000 0.750000 0.500000
O O19 0.000000 0.738603 0.250000
#
# Coordination Sequence:
#
# PCOD8142003 Si02
#       8
#     8   8   8   8   8   8   8   8
#     4  10  22  39  65  93 126 173 216 269 333 399
#     4  11  22  43  70  97 136 173 221 281 343 406
#     4  11  23  44  69  98 134 175 225 281 343 407
#     4  11  23  42  66  95 131 173 222 280 336 394
#     4  11  21  40  65  92 127 168 220 271 330 396
#     4  10  21  38  65 103 127 165 210 270 339 397
#     4  10  21  38  60  91 135 163 208 273 330 385
#     4  12  26  48  70  95 140 187 230 280 336 411
#
# _framework density 20.799213999999999
#
# number of rings (size 3 to 8) (size 9 to 14) (size 15 to 20)
#    0.000    1.250    5.000    1.125    0.000    1.500 
#   13.500    1.875    0.000    0.000    0.000    0.000 
#    0.000    0.000    0.000    0.000    0.000    0.000 
#
# Total GULP energy -396443.842694 kJ/mol
# GULP energy per Si atom -12388.870084 kJ/mol
# Density = 2.075187 g / cm^3
# Si number density = 20.799214 Si / 1000 Ang^3
#
#
#
# Elastic Constant Matrix: (Units=GPa)
#
#
# Indices 1 2 3 4 5 6 
#
# 1 66.6658 20.6141 32.2557 0.0000 -7.7682 0.0000
# 2 20.6141 120.1092 30.9761 0.0000 -4.3918 0.0000
# 3 32.2557 30.9761 122.8368 0.0000 -16.9329 0.0000
# 4 0.0000 0.0000 0.0000 25.1676 0.0000 -13.0951
# 5 -7.7682 -4.3918 -16.9329 0.0000 38.2286 0.0000
# 6 0.0000 0.0000 0.0000 -13.0951 0.0000 2.4933
#
#
#
# Elastic Compliance Matrix: (Units=1/GPa)
#
#
# Indices 1 2 3 4 5 6 
#
# 1 0.017698 -0.001965 -0.003927 0.000000 0.001631 0.000000
# 2 -0.001965 0.009123 -0.001805 0.000000 -0.000151 0.000000
# 3 -0.003927 -0.001805 0.010106 0.000000 0.003471 0.000000
# 4 0.000000 0.000000 0.000000 -0.022932 0.000000 -0.120437
# 5 0.001631 -0.000151 0.003471 0.000000 0.028010 0.000000
# 6 0.000000 0.000000 0.000000 -0.120437 0.000000 -0.231470
#
#
# Mechanical properties :
#
#
# Convention : Reuss Voigt Hill
#
# Bulk Modulus (GPa) = 46.44240 53.03374 49.73807
# Shear Modulus (GPa) = -29.95943 28.22895 -0.86524
#
# Velocity S-wave (km/s) = -3.79939 3.68803 -0.64568
# Velocity P-wave (km/s) = 1.76924 6.60975 4.83834
#
# Compressibility (1/GPa) = 0.02153205
#
# Stress axis : x y z
#
# Youngs Moduli (GPa) = 56.50388 109.61171 98.95328
#
# Poissons Ratio (x) = 0.21539 0.38858
# Poissons Ratio (y) = 0.11103 0.17865
# Poissons Ratio (z) = 0.22189 0.19789
#
# Static dielectric constant tensor:
#      x y z
#    x 3.644080 0.000000 0.007930 
#    y 0.000000 3.934530 0.000000 
#    z 0.007930 0.000000 3.708560 
# 
# 
# High freq. dielectric constant tensor:
#      x y z
#    x 1.802610 0.000000 -0.002980 
#    y 0.000000 1.822450 0.000000 
#    z -0.002980 0.000000 1.817620 
# 
# From -- ./inp_files/148755.got.cif
#   From: 2010.06.25/outbox.cif.g09.slc.cpg/sg15_75_cif.got.tgz:148755.got - 2010.06.28 07:06:18.
