data_PCOD8142882
_publ_section_title
;
Structure prediction by ZEFSAII (Michael W. Deem and Ramdas Pophale) SiO2 
 PCOD8142882
Probable space group: C 2/C
;
_chemical_formula_sum "Si O2"
_cell_formula_units_Z 44
_cell_length_a 13.706978
_cell_length_b 30.891930
_cell_length_c 4.955944
_cell_angle_alpha 90.000000
_cell_angle_beta 110.988447
_cell_angle_gamma 90.000000
_cell_volume 1959.288957
_symmetry_space_group_name_H-M "C 2/C"
_symmetry_group_IT_number 15
_symmetry_cell_setting 'monoclinic'
loop_
_space_group_symop_operation_xyz
x,y,z
-x,y,1/2-z
-x,-y,-z
x,-y,1/2+z
1/2+x,1/2+y,z
1/2-x,1/2+y,1/2-z
1/2-x,1/2-y,-z
1/2+x,1/2-y,1/2+z
loop_
_atom_site_type_symbol
_atom_site_label
_atom_site_fract_x
_atom_site_fract_y
_atom_site_fract_z
Si Si1 0.773095 0.148550 0.016755
Si Si2 0.595162 0.092595 0.993232
Si Si3 0.741570 0.028902 0.403499
Si Si4 0.782910 0.700735 0.028671
Si Si5 0.932702 0.912977 0.925408
Si Si6 0.500000 0.834112 0.750000
O O1 0.689892 0.109027 0.894031
O O2 0.730577 0.183538 0.184167
O O3 0.881183 0.129145 0.234695
O O4 0.789058 0.172274 0.745939
O O5 0.643326 0.060890 0.265320
O O6 0.541908 0.135466 0.056526
O O7 0.500000 0.067462 0.750000
O O8 0.849894 0.052848 0.455548
O O9 0.734474 0.013036 0.703650
O O10 0.750000 0.750000 0.000000
O O11 0.904160 0.696205 0.055185
O O12 0.000000 0.935071 0.750000
O O13 0.000000 0.897947 0.250000
#
# Coordination Sequence:
#
# PCOD8142882 Si02
#       6
#     8   8   8   8   8   4
#     4  10  22  41  63  93 125 161 215 264 305 388
#     4  10  21  39  67  86 125 171 212 253 320 389
#     4  11  26  41  60  96 132 161 214 279 322 369
#     4  11  22  40  64  94 131 161 204 266 324 372
#     4  11  23  42  68  90 123 176 222 259 326 388
#     4  10  22  40  66  92 124 174 218 238 320 406
#
# _framework density 22.457128000000001
#
# number of rings (size 3 to 8) (size 9 to 14) (size 15 to 20)
#    0.000    1.455    1.818    2.727    2.545    5.818 
#    4.909    0.000    0.000    0.000    0.000    0.000 
#    0.000    0.000    0.000    0.000    0.000    0.000 
#
# Total GULP energy -272785.477739 kJ/mol
# GULP energy per Si atom -12399.339897 kJ/mol
# Density = 2.240601 g / cm^3
# Si number density = 22.457128 Si / 1000 Ang^3
#
#
#
# Elastic Constant Matrix: (Units=GPa)
#
#
# Indices 1 2 3 4 5 6 
#
# 1 70.1814 16.7663 23.8113 0.0000 24.9720 0.0000
# 2 16.7663 86.8388 21.1782 0.0000 24.6183 0.0000
# 3 23.8113 21.1782 111.3012 0.0000 25.0535 0.0000
# 4 0.0000 0.0000 0.0000 34.1941 0.0000 0.6095
# 5 24.9720 24.6183 25.0535 0.0000 43.4377 0.0000
# 6 0.0000 0.0000 0.0000 0.6095 0.0000 22.3448
#
#
#
# Elastic Compliance Matrix: (Units=1/GPa)
#
#
# Indices 1 2 3 4 5 6 
#
# 1 0.018228 -0.000487 -0.001736 0.000000 -0.009202 0.000000
# 2 -0.000487 0.013828 -0.000949 0.000000 -0.007010 0.000000
# 3 -0.001736 -0.000949 0.010562 0.000000 -0.004556 0.000000
# 4 0.000000 0.000000 0.000000 0.029259 0.000000 -0.000798
# 5 -0.009202 -0.007010 -0.004556 0.000000 0.034912 0.000000
# 6 0.000000 0.000000 0.000000 -0.000798 0.000000 0.044775
#
#
# Mechanical properties :
#
#
# Convention : Reuss Voigt Hill
#
# Bulk Modulus (GPa) = 27.56755 43.53699 35.55227
# Shear Modulus (GPa) = 29.41162 33.76635 31.58898
#
# Velocity S-wave (km/s) = 3.62287 3.88182 3.75458
# Velocity P-wave (km/s) = 5.45917 6.28651 5.88739
#
# Compressibility (1/GPa) = 0.03627453
#
# Stress axis : x y z
#
# Youngs Moduli (GPa) = 54.85955 72.31531 94.67796
#
# Poissons Ratio (x) = 0.03525 0.16432
# Poissons Ratio (y) = 0.02674 0.08986
# Poissons Ratio (z) = 0.09521 0.06864
#
# Static dielectric constant tensor:
#      x y z
#    x 4.352240 0.000000 0.325200 
#    y 0.000000 3.822700 0.000000 
#    z 0.325200 0.000000 4.228510 
# 
# 
# High freq. dielectric constant tensor:
#      x y z
#    x 1.886360 0.000000 0.008150 
#    y 0.000000 1.863760 0.000000 
#    z 0.008150 0.000000 1.898280 
# 
# From -- ./inp_files/8879.got.cif
#   From: 2010.06.25/outbox.cif.g09.slc.cpg/sg15_5_cif.got.tgz:8879.got - 2010.06.28 07:06:18.
