data_PCOD8142410
_publ_section_title
;
Structure prediction by ZEFSAII (Michael W. Deem and Ramdas Pophale) SiO2 
 PCOD8142410
Probable space group: C 2/C
;
_chemical_formula_sum "Si O2"
_cell_formula_units_Z 60
_cell_length_a 25.644887
_cell_length_b 10.761652
_cell_length_c 11.985702
_cell_angle_alpha 90.000000
_cell_angle_beta 118.862286
_cell_angle_gamma 90.000000
_cell_volume 2896.939647
_symmetry_space_group_name_H-M "C 2/C"
_symmetry_group_IT_number 15
_symmetry_cell_setting 'monoclinic'
loop_
_space_group_symop_operation_xyz
x,y,z
-x,y,1/2-z
-x,-y,-z
x,-y,1/2+z
1/2+x,1/2+y,z
1/2-x,1/2+y,1/2-z
1/2-x,1/2-y,-z
1/2+x,1/2-y,1/2+z
loop_
_atom_site_type_symbol
_atom_site_label
_atom_site_fract_x
_atom_site_fract_y
_atom_site_fract_z
Si Si1 0.368640 0.304300 0.324694
Si Si2 0.000000 0.970611 0.250000
Si Si3 0.836711 0.209518 0.027471
Si Si4 0.143227 0.262628 0.099952
Si Si5 0.935466 0.267043 0.681461
Si Si6 0.596441 0.427042 0.713167
Si Si7 0.709059 0.100847 0.853514
Si Si8 0.241345 0.321512 0.878198
O O1 0.382158 0.274172 0.469290
O O2 0.409134 0.225889 0.279610
O O3 0.375782 0.450381 0.312248
O O4 0.300651 0.263816 0.240073
O O5 0.946020 0.878447 0.155706
O O6 0.972891 0.054435 0.321635
O O7 0.774287 0.159559 0.916284
O O8 0.863532 0.107951 0.139007
O O9 0.827421 0.341097 0.079975
O O10 0.096215 0.185040 0.124797
O O11 0.173013 0.373134 0.201742
O O12 0.194858 0.166211 0.116239
O O13 0.109523 0.322387 0.957543
O O14 0.000000 0.336892 0.750000
O O15 0.712101 0.954128 0.871843
O O16 0.250000 0.250000 0.000000
#
# Coordination Sequence:
#
# PCOD8142410 Si02
#       8
#     8   4   8   8   8   8   8   8
#     4  11  21  35  58  90 118 162 203 251 311 380
#     4   8  20  36  56  94 118 164 204 258 324 366
#     4  10  21  39  55  85 127 166 196 249 320 371
#     4  11  22  38  60  93 127 165 201 260 323 382
#     4   9  21  38  56  90 120 158 210 264 316 360
#     4  10  22  36  62  90 130 161 204 261 322 379
#     4  10  23  38  56  87 128 161 204 255 309 383
#     4  12  23  37  62  94 126 164 210 253 311 383
#
# _framework density 20.711511999999999
#
# number of rings (size 3 to 8) (size 9 to 14) (size 15 to 20)
#    0.400    1.333    2.667    1.600    5.600    2.667 
#    0.000    0.000    0.000    0.800    6.933    0.000 
#    0.000    0.000    0.000    0.000    0.000    0.000 
#
# Total GULP energy -371806.231258 kJ/mol
# GULP energy per Si atom -12393.541042 kJ/mol
# Density = 2.066437 g / cm^3
# Si number density = 20.711512 Si / 1000 Ang^3
#
#
#
# Elastic Constant Matrix: (Units=GPa)
#
#
# Indices 1 2 3 4 5 6 
#
# 1 114.4546 24.2909 42.7186 0.0000 -19.4744 0.0000
# 2 24.2909 88.3083 31.3799 0.0000 -12.6207 0.0000
# 3 42.7186 31.3799 118.1398 0.0000 -24.0984 0.0000
# 4 0.0000 0.0000 0.0000 18.5828 0.0000 3.2270
# 5 -19.4744 -12.6207 -24.0984 0.0000 35.0130 0.0000
# 6 0.0000 0.0000 0.0000 3.2270 0.0000 18.2002
#
#
#
# Elastic Compliance Matrix: (Units=1/GPa)
#
#
# Indices 1 2 3 4 5 6 
#
# 1 0.010672 -0.001454 -0.002756 0.000000 0.003515 0.000000
# 2 -0.001454 0.012907 -0.002464 0.000000 0.002147 0.000000
# 3 -0.002756 -0.002464 0.011193 0.000000 0.005283 0.000000
# 4 0.000000 0.000000 0.000000 0.055523 0.000000 -0.009845
# 5 0.003515 0.002147 0.005283 0.000000 0.034926 0.000000
# 6 0.000000 0.000000 0.000000 -0.009845 0.000000 0.056690
#
#
# Mechanical properties :
#
#
# Convention : Reuss Voigt Hill
#
# Bulk Modulus (GPa) = 46.67740 57.52018 52.09879
# Shear Modulus (GPa) = 24.70349 29.19342 26.94846
#
# Velocity S-wave (km/s) = 3.45736 3.75844 3.61104
# Velocity P-wave (km/s) = 6.20674 6.83131 6.52650
#
# Compressibility (1/GPa) = 0.02142364
#
# Stress axis : x y z
#
# Youngs Moduli (GPa) = 93.70012 77.48021 89.33978
#
# Poissons Ratio (x) = 0.11266 0.24620
# Poissons Ratio (y) = 0.13624 0.22017
# Poissons Ratio (z) = 0.25822 0.19094
#
# Static dielectric constant tensor:
#      x y z
#    x 4.018420 0.000000 -0.256080 
#    y 0.000000 3.359680 0.000000 
#    z -0.256080 0.000000 3.710000 
# 
# 
# High freq. dielectric constant tensor:
#      x y z
#    x 1.815920 0.000000 -0.017280 
#    y 0.000000 1.769990 0.000000 
#    z -0.017280 0.000000 1.812170 
# 
# From -- ./inp_files/117644.got.cif
#   From: 2010.06.25/outbox.cif.g09.slc.cpg/sg15_59_cif.got.tgz:117644.got - 2010.06.28 07:06:18.
