data_PCOD8142633
_publ_section_title
;
Structure prediction by ZEFSAII (Michael W. Deem and Ramdas Pophale) SiO2 
 PCOD8142633
Probable space group: C 2/C
;
_chemical_formula_sum "Si O2"
_cell_formula_units_Z 52
_cell_length_a 13.616927
_cell_length_b 5.550946
_cell_length_c 28.084897
_cell_angle_alpha 90.000000
_cell_angle_beta 70.961235
_cell_angle_gamma 90.000000
_cell_volume 2006.724377
_symmetry_space_group_name_H-M "C 2/C"
_symmetry_group_IT_number 15
_symmetry_cell_setting 'monoclinic'
loop_
_space_group_symop_operation_xyz
x,y,z
-x,y,1/2-z
-x,-y,-z
x,-y,1/2+z
1/2+x,1/2+y,z
1/2-x,1/2+y,1/2-z
1/2-x,1/2-y,-z
1/2+x,1/2-y,1/2+z
loop_
_atom_site_type_symbol
_atom_site_label
_atom_site_fract_x
_atom_site_fract_y
_atom_site_fract_z
Si Si1 0.773802 0.092686 0.273989
Si Si2 0.000000 0.937034 0.250000
Si Si3 0.952860 0.235379 0.853612
Si Si4 0.254106 0.965791 0.617717
Si Si5 0.516770 0.491005 0.059844
Si Si6 0.855686 0.403770 0.427931
Si Si7 0.158999 0.803042 0.968809
O O1 0.750679 0.843808 0.249057
O O2 0.706421 0.086963 0.334201
O O3 0.896701 0.101464 0.268825
O O4 0.987767 0.761765 0.205974
O O5 0.832509 0.172784 0.863710
O O6 0.006137 0.040158 0.880456
O O7 0.952040 0.483991 0.882677
O O8 0.338483 0.072933 0.566892
O O9 0.211169 0.723801 0.602370
O O10 0.593335 0.724473 0.041499
O O11 0.408909 0.497645 0.049238
O O12 0.586836 0.265001 0.027923
O O13 0.772079 0.587837 0.466351
#
# Coordination Sequence:
#
# PCOD8142633 Si02
#       7
#     8   4   8   8   8   8   8
#     4  11  27  45  72 104 138 184 238 286 355 420
#     4  10  24  46  68 100 136 186 222 302 338 422
#     4   9  21  41  63  90 128 163 223 265 340 399
#     4   9  22  41  63  92 127 167 217 275 330 405
#     4  10  22  38  59  96 121 166 215 265 327 408
#     4  10  21  39  63  85 126 170 207 269 331 399
#     4  10  22  38  62  89 130 161 214 270 327 398
#
# _framework density 25.912873999999999
#
# number of rings (size 3 to 8) (size 9 to 14) (size 15 to 20)
#    0.000    2.154    0.000    0.462    8.615    9.846 
#    2.769    3.077    0.000    0.000    0.000    0.000 
#    0.000    0.000    0.000    0.000    0.000    0.000 
#
# Total GULP energy -322104.328647 kJ/mol
# GULP energy per Si atom -12388.628025 kJ/mol
# Density = 2.585390 g / cm^3
# Si number density = 25.912874 Si / 1000 Ang^3
#
#
#
# Elastic Constant Matrix: (Units=GPa)
#
#
# Indices 1 2 3 4 5 6 
#
# 1 90.5467 2.1524 -3.9808 -0.0003 6.3540 0.0009
# 2 2.1524 61.8922 -10.9106 -0.0012 -10.7985 0.0003
# 3 -3.9808 -10.9106 107.3419 0.0001 -3.1676 0.0003
# 4 -0.0003 -0.0012 0.0001 24.2948 0.0000 -4.1203
# 5 6.3540 -10.7985 -3.1676 0.0000 33.0844 -0.0002
# 6 0.0009 0.0003 0.0003 -4.1203 -0.0002 17.7573
#
#
#
# Elastic Compliance Matrix: (Units=1/GPa)
#
#
# Indices 1 2 3 4 5 6 
#
# 1 0.011241 -0.000759 0.000269 0.000000 -0.002381 -0.000001
# 2 -0.000759 0.017584 0.001938 0.000001 0.006071 0.000000
# 3 0.000269 0.001938 0.009567 0.000000 0.001497 0.000000
# 4 0.000000 0.000001 0.000000 0.042847 0.000000 0.009942
# 5 -0.002381 0.006071 0.001497 0.000000 0.032808 0.000000
# 6 -0.000001 0.000000 0.000000 0.009942 0.000000 0.058622
#
#
# Mechanical properties :
#
#
# Convention : Reuss Voigt Hill
#
# Bulk Modulus (GPa) = 24.21855 26.03365 25.12610
# Shear Modulus (GPa) = 27.24281 33.19528 30.21905
#
# Velocity S-wave (km/s) = 3.24593 3.58304 3.41864
# Velocity P-wave (km/s) = 4.83885 5.21402 5.02993
#
# Compressibility (1/GPa) = 0.04129066
#
# Stress axis : x y z
#
# Youngs Moduli (GPa) = 88.96026 56.86858 104.52369
#
# Poissons Ratio (x) = 0.04315 -0.02817
# Poissons Ratio (y) = 0.06750 -0.20260
# Poissons Ratio (z) = -0.02397 -0.11023
#
# Static dielectric constant tensor:
#      x y z
#    x 4.538330 -0.000010 0.104960 
#    y -0.000010 4.467120 -0.000010 
#    z 0.104960 -0.000010 5.131860 
# 
# 
# High freq. dielectric constant tensor:
#      x y z
#    x 2.036840 0.000000 0.015510 
#    y 0.000000 2.019840 0.000000 
#    z 0.015510 0.000000 2.049210 
# 
# From -- ./inp_files/312307.got.cif
#   From: 2010.06.25/outbox.cif.g09.slc.cpg/sg15_157_cif.got.tgz:312307.got - 2010.06.28 07:06:18.
