data_PCOD8142268
_publ_section_title
;
Structure prediction by ZEFSAII (Michael W. Deem and Ramdas Pophale) SiO2 
 PCOD8142268
Probable space group: C 2/C
;
_chemical_formula_sum "Si O2"
_cell_formula_units_Z 56
_cell_length_a 18.044748
_cell_length_b 17.524060
_cell_length_c 7.432100
_cell_angle_alpha 90.000000
_cell_angle_beta 71.936467
_cell_angle_gamma 90.000000
_cell_volume 2234.326598
_symmetry_space_group_name_H-M "C 2/C"
_symmetry_group_IT_number 15
_symmetry_cell_setting 'monoclinic'
loop_
_space_group_symop_operation_xyz
x,y,z
-x,y,1/2-z
-x,-y,-z
x,-y,1/2+z
1/2+x,1/2+y,z
1/2-x,1/2+y,1/2-z
1/2-x,1/2-y,-z
1/2+x,1/2-y,1/2+z
loop_
_atom_site_type_symbol
_atom_site_label
_atom_site_fract_x
_atom_site_fract_y
_atom_site_fract_z
Si Si1 0.000000 0.808934 0.250000
Si Si2 0.120724 0.212871 0.380993
Si Si3 0.659291 0.446927 0.949399
Si Si4 0.385743 0.396847 0.131278
Si Si5 0.172643 0.553980 0.072430
Si Si6 0.118712 0.397116 0.979385
Si Si7 0.275383 0.840563 0.293401
Si Si8 0.000000 0.699847 0.750000
O O1 0.925403 0.766847 0.394455
O O2 0.969665 0.856830 0.095479
O O3 0.138852 0.122830 0.328909
O O4 0.202707 0.258133 0.309164
O O5 0.067586 0.244410 0.262657
O O6 0.603868 0.520414 0.968152
O O7 0.749080 0.475305 0.878868
O O8 0.646482 0.408695 0.147027
O O9 0.317683 0.344658 0.094982
O O10 0.118169 0.483817 0.054524
O O11 0.130390 0.605723 0.254990
O O12 0.192629 0.598901 0.876049
O O13 0.184645 0.352198 0.042764
O O14 0.035182 0.356055 0.070606
#
# Coordination Sequence:
#
# PCOD8142268 Si02
#       8
#     4   8   8   8   8   8   8   4
#     4  10  24  39  63  94 124 172 220 248 344 381
#     4  10  24  45  59  91 134 173 211 265 328 394
#     4  10  21  38  66  92 125 164 218 266 325 371
#     4  10  21  38  64  96 123 163 218 274 310 394
#     4  11  20  37  67  95 120 167 217 278 316 379
#     4  11  21  40  62  97 126 166 223 264 330 381
#     4  10  22  42  65  92 135 165 218 272 317 391
#     4  10  26  43  55  90 138 166 212 272 322 405
#
# _framework density 25.063479000000001
#
# number of rings (size 3 to 8) (size 9 to 14) (size 15 to 20)
#    0.000    1.714    2.857    0.857    2.000    9.714 
#    0.000    1.429    0.000    0.000    0.000    0.000 
#    0.000    0.000    0.000    0.000    0.000    0.000 
#
# Total GULP energy -346878.802308 kJ/mol
# GULP energy per Si atom -12388.528654 kJ/mol
# Density = 2.500643 g / cm^3
# Si number density = 25.063479 Si / 1000 Ang^3
#
#
#
# Elastic Constant Matrix: (Units=GPa)
#
#
# Indices 1 2 3 4 5 6 
#
# 1 73.3621 27.7304 -13.7749 0.0000 1.9826 0.0000
# 2 27.7304 79.5990 -1.9485 0.0000 3.7185 0.0000
# 3 -13.7749 -1.9485 47.1801 0.0000 0.8470 0.0000
# 4 0.0000 0.0000 0.0000 34.0568 0.0000 -5.3493
# 5 1.9826 3.7185 0.8470 0.0000 20.5996 0.0000
# 6 0.0000 0.0000 0.0000 -5.3493 0.0000 25.2746
#
#
#
# Elastic Compliance Matrix: (Units=1/GPa)
#
#
# Indices 1 2 3 4 5 6 
#
# 1 0.016661 -0.005655 0.004645 0.000000 -0.000774 0.000000
# 2 -0.005655 0.014604 -0.001011 0.000000 -0.002050 0.000000
# 3 0.004645 -0.001011 0.022531 0.000000 -0.001191 0.000000
# 4 0.000000 0.000000 0.000000 0.030372 0.000000 0.006428
# 5 -0.000774 -0.002050 -0.001191 0.000000 0.049038 0.000000
# 6 0.000000 0.000000 0.000000 0.006428 0.000000 0.040926
#
#
# Mechanical properties :
#
#
# Convention : Reuss Voigt Hill
#
# Bulk Modulus (GPa) = 20.09841 24.90615 22.50228
# Shear Modulus (GPa) = 25.67267 28.52847 27.10057
#
# Velocity S-wave (km/s) = 3.20395 3.37745 3.29185
# Velocity P-wave (km/s) = 4.66084 5.01681 4.84210
#
# Compressibility (1/GPa) = 0.04975519
#
# Stress axis : x y z
#
# Youngs Moduli (GPa) = 60.01871 68.47473 44.38295
#
# Poissons Ratio (x) = 0.38720 -0.20615
# Poissons Ratio (y) = 0.33938 0.04487
# Poissons Ratio (z) = -0.27878 0.06923
#
# Static dielectric constant tensor:
#      x y z
#    x 6.004060 0.000000 -0.022000 
#    y 0.000000 7.238370 0.000000 
#    z -0.022000 0.000000 4.353770 
# 
# 
# High freq. dielectric constant tensor:
#      x y z
#    x 1.987650 0.000000 0.002100 
#    y 0.000000 1.993040 0.000000 
#    z 0.002100 0.000000 1.996110 
# 
# From -- ./inp_files/49046.got.cif
#   From: 2010.06.25/outbox.cif.g09.slc.cpg/sg15_25_cif.got.tgz:49046.got - 2010.06.28 07:06:18.
