data_PCOD8142067
_publ_section_title
;
Structure prediction by ZEFSAII (Michael W. Deem and Ramdas Pophale) SiO2 
 PCOD8142067
Probable space group: C 2/C
;
_chemical_formula_sum "Si O2"
_cell_formula_units_Z 64
_cell_length_a 30.789083
_cell_length_b 10.997710
_cell_length_c 19.620358
_cell_angle_alpha 90.000000
_cell_angle_beta 151.315833
_cell_angle_gamma 90.000000
_cell_volume 3188.820499
_symmetry_space_group_name_H-M "C 2/C"
_symmetry_group_IT_number 15
_symmetry_cell_setting 'monoclinic'
loop_
_space_group_symop_operation_xyz
x,y,z
-x,y,1/2-z
-x,-y,-z
x,-y,1/2+z
1/2+x,1/2+y,z
1/2-x,1/2+y,1/2-z
1/2-x,1/2-y,-z
1/2+x,1/2-y,1/2+z
loop_
_atom_site_type_symbol
_atom_site_label
_atom_site_fract_x
_atom_site_fract_y
_atom_site_fract_z
Si Si1 0.978186 0.442656 0.080551
Si Si2 0.764075 0.883970 0.331901
Si Si3 0.722974 0.710107 0.036597
Si Si4 0.890406 0.245205 0.191710
Si Si5 0.745503 0.339898 0.893866
Si Si6 0.810660 0.428597 0.417182
Si Si7 0.599440 0.489801 0.886042
Si Si8 0.377061 0.936040 0.805660
O O1 0.018254 0.324067 0.173560
O O2 0.057798 0.536047 0.168894
O O3 0.907432 0.510960 0.032522
O O4 0.931811 0.395750 0.947678
O O5 0.771309 0.744106 0.364879
O O6 0.857874 0.952653 0.481433
O O7 0.745702 0.888939 0.226704
O O8 0.681559 0.943368 0.260428
O O9 0.814440 0.677902 0.202570
O O10 0.671231 0.812815 0.009467
O O11 0.750000 0.750000 0.000000
O O12 0.661768 0.592542 0.939428
O O13 0.852901 0.198328 0.213037
O O14 0.909559 0.128303 0.172979
O O15 0.816649 0.330456 0.053651
O O16 0.746556 0.477683 0.869157
O O17 0.500000 0.547597 0.750000
#
# Coordination Sequence:
#
# PCOD8142067 Si02
#       8
#     8   8   8   8   8   8   8   8
#     4  10  21  38  65 101 121 154 217 270 309 360
#     4   9  20  39  62  88 125 163 206 255 313 368
#     4  11  25  44  61  83 129 174 204 246 321 397
#     4  10  21  38  65  90 126 158 209 261 309 371
#     4  10  21  38  61  92 122 167 206 251 313 372
#     4  11  25  37  66  96 122 164 218 260 308 380
#     4  10  23  40  61  90 124 164 201 258 319 362
#     4   9  20  41  61  90 126 169 195 254 328 371
#
# _framework density 20.070117
#
# number of rings (size 3 to 8) (size 9 to 14) (size 15 to 20)
#    0.000    2.000    1.250    0.750   12.250    1.000 
#    0.000    1.250    0.000    3.000    0.000    0.000 
#    0.000    0.000    0.000    0.000    0.000    0.000 
#
# Total GULP energy -396802.114794 kJ/mol
# GULP energy per Si atom -12400.066087 kJ/mol
# Density = 2.002444 g / cm^3
# Si number density = 20.070117 Si / 1000 Ang^3
#
#
#
# Elastic Constant Matrix: (Units=GPa)
#
#
# Indices 1 2 3 4 5 6 
#
# 1 100.7611 43.6980 43.3452 0.0000 -5.8133 0.0000
# 2 43.6980 106.8163 49.9924 0.0000 -7.8238 0.0000
# 3 43.3452 49.9924 110.8291 0.0000 6.0460 0.0000
# 4 0.0000 0.0000 0.0000 33.8902 0.0000 1.6655
# 5 -5.8133 -7.8238 6.0460 0.0000 26.5972 0.0000
# 6 0.0000 0.0000 0.0000 1.6655 0.0000 28.6852
#
#
#
# Elastic Compliance Matrix: (Units=1/GPa)
#
#
# Indices 1 2 3 4 5 6 
#
# 1 0.013188 -0.003438 -0.003756 0.000000 0.002725 0.000000
# 2 -0.003438 0.013392 -0.004931 0.000000 0.004309 0.000000
# 3 -0.003756 -0.004931 0.013001 0.000000 -0.005227 0.000000
# 4 0.000000 0.000000 0.000000 0.029591 0.000000 -0.001718
# 5 0.002725 0.004309 -0.005227 0.000000 0.040649 0.000000
# 6 0.000000 0.000000 0.000000 -0.001718 0.000000 0.034961
#
#
# Mechanical properties :
#
#
# Convention : Reuss Voigt Hill
#
# Bulk Modulus (GPa) = 65.22510 65.83087 65.52798
# Shear Modulus (GPa) = 28.71197 29.92594 29.31896
#
# Velocity S-wave (km/s) = 3.78641 3.86563 3.82622
# Velocity P-wave (km/s) = 7.18923 7.26607 7.22775
#
# Compressibility (1/GPa) = 0.01533152
#
# Stress axis : x y z
#
# Youngs Moduli (GPa) = 75.82483 74.67252 76.91522
#
# Poissons Ratio (x) = 0.25671 0.28888
# Poissons Ratio (y) = 0.26067 0.37929
# Poissons Ratio (z) = 0.28479 0.36823
#
# Static dielectric constant tensor:
#      x y z
#    x 3.587120 0.000000 0.040150 
#    y 0.000000 3.632990 0.000000 
#    z 0.040150 0.000000 3.879140 
# 
# 
# High freq. dielectric constant tensor:
#      x y z
#    x 1.778370 0.000000 -0.002010 
#    y 0.000000 1.779550 0.000000 
#    z -0.002010 0.000000 1.783440 
# 
# From -- ./inp_files/225192.got.cif
#   From: 2010.06.25/outbox.cif.g09.slc.cpg/sg15_113_cif.got.tgz:225192.got - 2010.06.28 07:06:18.
