data_PCOD8142046
_publ_section_title
;
Structure prediction by ZEFSAII (Michael W. Deem and Ramdas Pophale) SiO2 
 PCOD8142046
Probable space group: C 2/C
;
_chemical_formula_sum "Si O2"
_cell_formula_units_Z 48
_cell_length_a 11.843438
_cell_length_b 22.525084
_cell_length_c 8.698299
_cell_angle_alpha 90.000000
_cell_angle_beta 102.044078
_cell_angle_gamma 90.000000
_cell_volume 2269.403842
_symmetry_space_group_name_H-M "C 2/C"
_symmetry_group_IT_number 15
_symmetry_cell_setting 'monoclinic'
loop_
_space_group_symop_operation_xyz
x,y,z
-x,y,1/2-z
-x,-y,-z
x,-y,1/2+z
1/2+x,1/2+y,z
1/2-x,1/2+y,1/2-z
1/2-x,1/2-y,-z
1/2+x,1/2-y,1/2+z
loop_
_atom_site_type_symbol
_atom_site_label
_atom_site_fract_x
_atom_site_fract_y
_atom_site_fract_z
Si Si1 0.736707 0.047209 0.253512
Si Si2 0.038129 0.380150 0.584141
Si Si3 0.117930 0.833079 0.337137
Si Si4 0.611784 0.346994 0.683071
Si Si5 0.183085 0.726889 0.128528
Si Si6 0.309888 0.071988 0.914993
O O1 0.647554 0.075934 0.106595
O O2 0.860717 0.082031 0.288937
O O3 0.693311 0.048743 0.413999
O O4 0.739696 0.978063 0.212291
O O5 0.074453 0.313423 0.543176
O O6 0.000000 0.376367 0.750000
O O7 0.942341 0.405069 0.436210
O O8 0.090402 0.821352 0.507725
O O9 0.138485 0.775336 0.237782
O O10 0.230184 0.872663 0.353076
O O11 0.000000 0.865485 0.250000
O O12 0.500000 0.329665 0.750000
O O13 0.729653 0.316020 0.761386
O O14 0.250000 0.750000 0.000000
#
# Coordination Sequence:
#
# PCOD8142046 Si02
#       6
#     8   8   8   8   8   8
#     4   9  20  37  60  88 119 153 196 246 299 362
#     4   9  19  38  60  85 117 154 194 246 305 358
#     4  11  24  40  58  85 121 162 204 250 299 356
#     4  10  22  40  62  88 120 161 203 246 302 362
#     4  11  23  39  61  90 120 155 203 255 305 362
#     4  10  21  38  61  88 119 159 198 243 305 360
#
# _framework density 21.150926999999999
#
# number of rings (size 3 to 8) (size 9 to 14) (size 15 to 20)
#    0.000    2.000    0.000    3.500    0.000    7.333 
#    0.000    5.000    0.000    0.000    0.000    0.000 
#    0.000    0.000    0.000    0.000    0.000    0.000 
#
# Total GULP energy -297333.337856 kJ/mol
# GULP energy per Si atom -12388.889077 kJ/mol
# Density = 2.110279 g / cm^3
# Si number density = 21.150927 Si / 1000 Ang^3
#
#
#
# Elastic Constant Matrix: (Units=GPa)
#
#
# Indices 1 2 3 4 5 6 
#
# 1 84.3674 23.9289 31.9397 0.0000 0.7841 0.0000
# 2 23.9289 99.1476 41.8895 0.0000 -6.8528 0.0000
# 3 31.9397 41.8895 85.8077 0.0000 3.8423 0.0000
# 4 0.0000 0.0000 0.0000 30.4991 0.0000 5.4347
# 5 0.7841 -6.8528 3.8423 0.0000 32.4669 0.0000
# 6 0.0000 0.0000 0.0000 5.4347 0.0000 21.8583
#
#
#
# Elastic Compliance Matrix: (Units=1/GPa)
#
#
# Indices 1 2 3 4 5 6 
#
# 1 0.013968 -0.001493 -0.004465 0.000000 -0.000124 0.000000
# 2 -0.001493 0.013259 -0.006076 0.000000 0.003554 0.000000
# 3 -0.004465 -0.006076 0.016422 0.000000 -0.003118 0.000000
# 4 0.000000 0.000000 0.000000 0.034308 0.000000 -0.008530
# 5 -0.000124 0.003554 -0.003118 0.000000 0.031923 0.000000
# 6 0.000000 0.000000 0.000000 -0.008530 0.000000 0.047870
#
#
# Mechanical properties :
#
#
# Convention : Reuss Voigt Hill
#
# Bulk Modulus (GPa) = 51.07120 51.64877 51.35998
# Shear Modulus (GPa) = 26.54714 28.40250 27.47482
#
# Velocity S-wave (km/s) = 3.54662 3.66847 3.60806
# Velocity P-wave (km/s) = 6.40077 6.51273 6.45699
#
# Compressibility (1/GPa) = 0.01958051
#
# Stress axis : x y z
#
# Youngs Moduli (GPa) = 71.59306 75.41961 60.89531
#
# Poissons Ratio (x) = 0.11263 0.27187
# Poissons Ratio (y) = 0.10692 0.37001
# Poissons Ratio (z) = 0.31963 0.45826
#
# Static dielectric constant tensor:
#      x y z
#    x 3.968210 0.000000 0.200880 
#    y 0.000000 3.947380 0.000000 
#    z 0.200880 0.000000 3.786500 
# 
# 
# High freq. dielectric constant tensor:
#      x y z
#    x 1.833810 0.000000 0.010840 
#    y 0.000000 1.827070 0.000000 
#    z 0.010840 0.000000 1.823530 
# 
# From -- ./inp_files/32631.got.cif
#   From: 2010.06.25/outbox.cif.g09.slc.cpg/sg15_17_cif.got.tgz:32631.got - 2010.06.28 07:06:18.
