data_PCOD8142652
_publ_section_title
;
Structure prediction by ZEFSAII (Michael W. Deem and Ramdas Pophale) SiO2 
 PCOD8142652
Probable space group: C 2/C
;
_chemical_formula_sum "Si O2"
_cell_formula_units_Z 60
_cell_length_a 15.374098
_cell_length_b 13.980514
_cell_length_c 22.981202
_cell_angle_alpha 90.000000
_cell_angle_beta 35.897809
_cell_angle_gamma 90.000000
_cell_volume 2896.250147
_symmetry_space_group_name_H-M "C 2/C"
_symmetry_group_IT_number 15
_symmetry_cell_setting 'monoclinic'
loop_
_space_group_symop_operation_xyz
x,y,z
-x,y,1/2-z
-x,-y,-z
x,-y,1/2+z
1/2+x,1/2+y,z
1/2-x,1/2+y,1/2-z
1/2-x,1/2-y,-z
1/2+x,1/2-y,1/2+z
loop_
_atom_site_type_symbol
_atom_site_label
_atom_site_fract_x
_atom_site_fract_y
_atom_site_fract_z
Si Si1 0.615509 0.116433 0.972988
Si Si2 0.853802 0.510284 0.661392
Si Si3 0.500000 0.718404 0.250000
Si Si4 0.482568 0.691037 0.937973
Si Si5 0.567751 0.354513 0.156101
Si Si6 0.468537 0.559169 0.174422
Si Si7 0.798596 0.380015 0.305324
Si Si8 0.873466 0.999407 0.021668
O O1 0.541907 0.220666 0.005974
O O2 0.502338 0.048710 0.068513
O O3 0.664125 0.082563 0.882933
O O4 0.757104 0.128723 0.936978
O O5 0.710017 0.439179 0.742677
O O6 0.883428 0.570070 0.705067
O O7 0.531570 0.646824 0.179096
O O8 0.371202 0.787015 0.295522
O O9 0.475403 0.716816 0.873305
O O10 0.641093 0.647181 0.864875
O O11 0.353024 0.610188 0.014492
O O12 0.500000 0.304284 0.250000
O O13 0.490977 0.457850 0.192831
O O14 0.568258 0.566604 0.062703
O O15 0.777737 0.456098 0.369434
O O16 0.000000 0.000000 0.000000
#
# Coordination Sequence:
#
# PCOD8142652 Si02
#       8
#     8   8   4   8   8   8   8   8
#     4  11  23  37  66 100 125 163 234 285 321 398
#     4  11  22  43  66  92 137 180 206 283 351 389
#     4  12  26  36  66 104 138 166 240 280 326 414
#     4  10  21  39  63  89 124 171 225 268 334 407
#     4  11  19  39  65  89 128 165 220 273 334 397
#     4  11  20  42  68  89 124 188 215 266 342 409
#     4  11  23  43  58  96 134 178 217 276 342 409
#     4   9  19  39  66  84 124 175 216 257 337 400
#
# _framework density 20.716442000000001
#
# number of rings (size 3 to 8) (size 9 to 14) (size 15 to 20)
#    0.000    1.333    6.000    1.200    0.000    5.867 
#    4.800    0.000    0.000    0.000    0.000    0.000 
#    0.000    0.000    0.000    0.000    0.000    0.000 
#
# Total GULP energy -371708.740107 kJ/mol
# GULP energy per Si atom -12390.291337 kJ/mol
# Density = 2.066929 g / cm^3
# Si number density = 20.716442 Si / 1000 Ang^3
#
#
#
# Elastic Constant Matrix: (Units=GPa)
#
#
# Indices 1 2 3 4 5 6 
#
# 1 76.9900 24.3197 31.6723 0.0000 22.6210 0.0000
# 2 24.3197 96.2677 44.0953 0.0000 22.6669 0.0000
# 3 31.6723 44.0953 112.1706 0.0000 26.3577 0.0000
# 4 0.0000 0.0000 0.0000 27.8455 0.0000 -1.7046
# 5 22.6210 22.6669 26.3577 0.0000 31.7940 -0.0001
# 6 0.0000 0.0000 0.0000 -1.7046 -0.0001 32.8163
#
#
#
# Elastic Compliance Matrix: (Units=1/GPa)
#
#
# Indices 1 2 3 4 5 6 
#
# 1 0.017018 -0.001066 -0.002136 0.000000 -0.009578 0.000000
# 2 -0.001066 0.013762 -0.003703 0.000000 -0.005983 0.000000
# 3 -0.002136 -0.003703 0.012415 0.000000 -0.006132 0.000000
# 4 0.000000 0.000000 0.000000 0.036027 0.000000 0.001871
# 5 -0.009578 -0.005983 -0.006132 0.000000 0.047616 0.000000
# 6 0.000000 0.000000 0.000000 0.001871 0.000000 0.030570
#
#
# Mechanical properties :
#
#
# Convention : Reuss Voigt Hill
#
# Bulk Modulus (GPa) = 34.03035 53.95589 43.99312
# Shear Modulus (GPa) = 27.62247 30.84723 29.23485
#
# Velocity S-wave (km/s) = 3.65548 3.86297 3.76066
# Velocity P-wave (km/s) = 5.85484 6.78220 6.33551
#
# Compressibility (1/GPa) = 0.02938553
#
# Stress axis : x y z
#
# Youngs Moduli (GPa) = 58.76117 72.66437 80.54951
#
# Poissons Ratio (x) = 0.07745 0.17202
# Poissons Ratio (y) = 0.06263 0.29828
# Poissons Ratio (z) = 0.12549 0.26908
#
# Static dielectric constant tensor:
#      x y z
#    x 3.902380 0.000000 0.298130 
#    y 0.000000 3.713480 0.000000 
#    z 0.298130 0.000000 4.161110 
# 
# 
# High freq. dielectric constant tensor:
#      x y z
#    x 1.815150 0.000000 0.014180 
#    y 0.000000 1.797140 0.000000 
#    z 0.014180 0.000000 1.810300 
# 
# From -- ./inp_files/277537.got.cif
#   From: 2010.06.25/outbox.cif.g09.slc.cpg/sg15_139_cif.got.tgz:277537.got - 2010.06.28 07:06:18.
