data_PCOD8142401
_publ_section_title
;
Structure prediction by ZEFSAII (Michael W. Deem and Ramdas Pophale) SiO2 
 PCOD8142401
Probable space group: C 2/C
;
_chemical_formula_sum "Si O2"
_cell_formula_units_Z 40
_cell_length_a 21.416465
_cell_length_b 8.592153
_cell_length_c 8.345805
_cell_angle_alpha 90.000000
_cell_angle_beta 87.406520
_cell_angle_gamma 90.000000
_cell_volume 1534.168135
_symmetry_space_group_name_H-M "C 2/C"
_symmetry_group_IT_number 15
_symmetry_cell_setting 'monoclinic'
loop_
_space_group_symop_operation_xyz
x,y,z
-x,y,1/2-z
-x,-y,-z
x,-y,1/2+z
1/2+x,1/2+y,z
1/2-x,1/2+y,1/2-z
1/2-x,1/2-y,-z
1/2+x,1/2-y,1/2+z
loop_
_atom_site_type_symbol
_atom_site_label
_atom_site_fract_x
_atom_site_fract_y
_atom_site_fract_z
Si Si1 0.776521 0.120489 0.117856
Si Si2 0.920360 0.396826 0.924459
Si Si3 0.163915 0.429316 0.838909
Si Si4 0.337597 0.339568 0.936044
Si Si5 0.472050 0.238861 0.913709
O O1 0.720976 0.025410 0.215225
O O2 0.823323 0.186567 0.248888
O O3 0.750000 0.250000 0.000000
O O4 0.812260 0.003230 0.998434
O O5 0.888960 0.342454 0.762075
O O6 0.951080 0.562390 0.883966
O O7 0.866622 0.420377 0.068668
O O8 0.972065 0.266721 0.961458
O O9 0.191689 0.306167 0.963190
O O10 0.411984 0.340719 0.966349
O O11 0.500000 0.312139 0.750000
#
# Coordination Sequence:
#
# PCOD8142401 Si02
#       5
#     8   8   8   8   8
#     4  12  27  50  75 103 151 190 241 313 378 444
#     4  10  21  38  71 111 148 200 243 299 363 418
#     4  11  23  41  74 110 149 192 254 301 360 440
#     4  11  27  47  75 112 137 195 249 301 375 438
#     4  10  21  41  70 107 154 191 250 299 351 438
#
# _framework density 26.072761
#
# number of rings (size 3 to 8) (size 9 to 14) (size 15 to 20)
#    0.000    1.200    2.000    3.000    2.800    4.800 
#    0.000    1.000    0.000    0.000    0.000    0.000 
#    0.000    0.000    0.000    0.000    0.000    0.000 
#
# Total GULP energy -247892.841176 kJ/mol
# GULP energy per Si atom -12394.642059 kJ/mol
# Density = 2.601342 g / cm^3
# Si number density = 26.072761 Si / 1000 Ang^3
#
#
#
# Elastic Constant Matrix: (Units=GPa)
#
#
# Indices 1 2 3 4 5 6 
#
# 1 131.0370 52.1697 67.6911 0.0000 13.9352 0.0000
# 2 52.1697 84.4067 55.2436 0.0000 3.1407 0.0000
# 3 67.6911 55.2436 167.5633 0.0000 33.8578 0.0000
# 4 0.0000 0.0000 0.0000 29.8495 0.0000 -7.2896
# 5 13.9352 3.1407 33.8578 0.0000 71.9799 0.0000
# 6 0.0000 0.0000 0.0000 -7.2896 0.0000 38.4983
#
#
#
# Elastic Compliance Matrix: (Units=1/GPa)
#
#
# Indices 1 2 3 4 5 6 
#
# 1 0.011112 -0.005093 -0.002674 0.000000 -0.000671 0.000000
# 2 -0.005093 0.017670 -0.004212 0.000000 0.002196 0.000000
# 3 -0.002674 -0.004212 0.009166 0.000000 -0.003610 0.000000
# 4 0.000000 0.000000 0.000000 0.035126 0.000000 0.006651
# 5 -0.000671 0.002196 -0.003610 0.000000 0.015625 0.000000
# 6 0.000000 0.000000 0.000000 0.006651 0.000000 0.027235
#
#
# Mechanical properties :
#
#
# Convention : Reuss Voigt Hill
#
# Bulk Modulus (GPa) = 71.47848 81.46842 76.47345
# Shear Modulus (GPa) = 34.58891 41.92571 38.25731
#
# Velocity S-wave (km/s) = 3.64624 4.01437 3.83473
# Velocity P-wave (km/s) = 6.72319 7.26645 7.00009
#
# Compressibility (1/GPa) = 0.01399023
#
# Stress axis : x y z
#
# Youngs Moduli (GPa) = 89.99414 56.59267 109.09438
#
# Poissons Ratio (x) = 0.28821 0.29175
# Poissons Ratio (y) = 0.45831 0.45952
# Poissons Ratio (z) = 0.24067 0.23837
#
# Static dielectric constant tensor:
#      x y z
#    x 5.467550 0.000000 0.263830 
#    y 0.000000 3.964890 0.000000 
#    z 0.263830 0.000000 5.186940 
# 
# 
# High freq. dielectric constant tensor:
#      x y z
#    x 2.069310 0.000000 0.008140 
#    y 0.000000 1.983580 0.000000 
#    z 0.008140 0.000000 2.066830 
# 
# From -- ./inp_files/60031.got.cif
#   From: 2010.06.25/outbox.cif.g09.slc.cpg/sg15_31_cif.got.tgz:60031.got - 2010.06.28 07:06:18.
