data_PCOD8142479
_publ_section_title
;
Structure prediction by ZEFSAII (Michael W. Deem and Ramdas Pophale) SiO2 
 PCOD8142479
Probable space group: C 2/C
;
_chemical_formula_sum "Si O2"
_cell_formula_units_Z 48
_cell_length_a 17.916514
_cell_length_b 8.759608
_cell_length_c 31.020183
_cell_angle_alpha 90.000000
_cell_angle_beta 29.129962
_cell_angle_gamma 90.000000
_cell_volume 2369.879080
_symmetry_space_group_name_H-M "C 2/C"
_symmetry_group_IT_number 15
_symmetry_cell_setting 'monoclinic'
loop_
_space_group_symop_operation_xyz
x,y,z
-x,y,1/2-z
-x,-y,-z
x,-y,1/2+z
1/2+x,1/2+y,z
1/2-x,1/2+y,1/2-z
1/2-x,1/2-y,-z
1/2+x,1/2-y,1/2+z
loop_
_atom_site_type_symbol
_atom_site_label
_atom_site_fract_x
_atom_site_fract_y
_atom_site_fract_z
Si Si1 0.912941 0.941352 0.003091
Si Si2 0.932081 0.486702 0.827170
Si Si3 0.412237 0.342035 0.253328
Si Si4 0.589996 0.117477 0.824429
Si Si5 0.053101 0.620564 0.937480
Si Si6 0.900052 0.973973 0.672722
O O1 0.930314 0.758278 0.997932
O O2 0.972399 0.005882 0.927495
O O3 0.747264 0.015034 0.089898
O O4 0.000000 0.000000 0.000000
O O5 0.000000 0.565832 0.750000
O O6 0.009199 0.321334 0.794705
O O7 0.958340 0.588133 0.856188
O O8 0.500000 0.417678 0.250000
O O9 0.230061 0.325278 0.355548
O O10 0.442560 0.446398 0.196378
O O11 0.543988 0.046835 0.894261
O O12 0.623007 0.295452 0.809763
O O13 0.744192 0.036937 0.730738
O O14 0.000000 0.500000 0.000000
#
# Coordination Sequence:
#
# PCOD8142479 Si02
#       6
#     8   8   8   8   8   8
#     4  11  23  39  61  88 119 158 204 250 300 361
#     4  11  23  39  60  86 120 157 200 253 302 359
#     4  10  22  41  61  87 124 159 198 250 302 357
#     4  10  21  39  60  87 121 156 197 246 301 357
#     4  10  23  40  61  89 123 160 200 251 303 362
#     4  10  22  39  61  87 120 157 197 246 299 360
#
# _framework density 20.254197999999999
#
# number of rings (size 3 to 8) (size 9 to 14) (size 15 to 20)
#    0.000    1.667    0.000    6.000    0.000   13.333 
#    0.000    0.000    0.000    0.000    0.000    0.000 
#    0.000    0.000    0.000    0.000    0.000    0.000 
#
# Total GULP energy -297469.523271 kJ/mol
# GULP energy per Si atom -12394.563470 kJ/mol
# Density = 2.020810 g / cm^3
# Si number density = 20.254198 Si / 1000 Ang^3
#
#
#
# Elastic Constant Matrix: (Units=GPa)
#
#
# Indices 1 2 3 4 5 6 
#
# 1 155.3554 38.1561 62.9579 0.0008 3.3620 0.0013
# 2 38.1561 79.6866 62.2986 0.0011 4.1139 -0.0026
# 3 62.9579 62.2986 146.8136 0.0002 0.6068 -0.0004
# 4 0.0008 0.0011 0.0002 30.2780 -0.0003 2.0580
# 5 3.3620 4.1139 0.6068 -0.0003 37.4716 -0.0011
# 6 0.0013 -0.0026 -0.0004 2.0580 -0.0011 34.9347
#
#
#
# Elastic Compliance Matrix: (Units=1/GPa)
#
#
# Indices 1 2 3 4 5 6 
#
# 1 0.007952 -0.001673 -0.002698 0.000000 -0.000486 0.000000
# 2 -0.001673 0.019272 -0.007453 -0.000001 -0.001845 0.000001
# 3 -0.002698 -0.007453 0.011127 0.000000 0.000880 0.000000
# 4 0.000000 -0.000001 0.000000 0.033160 0.000000 -0.001953
# 5 -0.000486 -0.001845 0.000880 0.000000 0.026919 0.000001
# 6 0.000000 0.000001 0.000000 -0.001953 0.000001 0.028740
#
#
# Mechanical properties :
#
#
# Convention : Reuss Voigt Hill
#
# Bulk Modulus (GPa) = 68.01219 78.74232 73.37725
# Shear Modulus (GPa) = 32.10925 35.09972 33.60449
#
# Velocity S-wave (km/s) = 3.98592 4.16740 4.07767
# Velocity P-wave (km/s) = 7.40511 7.88148 7.64700
#
# Compressibility (1/GPa) = 0.01470325
#
# Stress axis : x y z
#
# Youngs Moduli (GPa) = 125.76032 51.88847 89.87036
#
# Poissons Ratio (x) = 0.08682 0.24246
# Poissons Ratio (y) = 0.21042 0.66978
# Poissons Ratio (z) = 0.33929 0.38671
#
# Static dielectric constant tensor:
#      x y z
#    x 4.085790 -0.000100 0.176700 
#    y -0.000100 3.938940 -0.000010 
#    z 0.176700 -0.000010 3.870280 
# 
# 
# High freq. dielectric constant tensor:
#      x y z
#    x 1.814530 0.000000 0.009010 
#    y 0.000000 1.780430 0.000000 
#    z 0.009010 0.000000 1.793590 
# 
# From -- ./inp_files/247636.got.cif
#   From: 2010.06.25/outbox.cif.g09.slc.cpg/sg15_124_cif.got.tgz:247636.got - 2010.06.28 07:06:18.
