data_PCOD8142561
_publ_section_title
;
Structure prediction by ZEFSAII (Michael W. Deem and Ramdas Pophale) SiO2 
 PCOD8142561
Probable space group: C 2/C
;
_chemical_formula_sum "Si O2"
_cell_formula_units_Z 56
_cell_length_a 19.469481
_cell_length_b 8.828586
_cell_length_c 29.402239
_cell_angle_alpha 90.000000
_cell_angle_beta 34.865714
_cell_angle_gamma 90.000000
_cell_volume 2889.082397
_symmetry_space_group_name_H-M "C 2/C"
_symmetry_group_IT_number 15
_symmetry_cell_setting 'monoclinic'
loop_
_space_group_symop_operation_xyz
x,y,z
-x,y,1/2-z
-x,-y,-z
x,-y,1/2+z
1/2+x,1/2+y,z
1/2-x,1/2+y,1/2-z
1/2-x,1/2-y,-z
1/2+x,1/2-y,1/2+z
loop_
_atom_site_type_symbol
_atom_site_label
_atom_site_fract_x
_atom_site_fract_y
_atom_site_fract_z
Si Si1 0.721794 0.789588 0.937048
Si Si2 0.193932 0.014200 0.186674
Si Si3 0.229604 0.222021 0.319392
Si Si4 0.875082 0.070300 0.582489
Si Si5 0.012854 0.627528 0.887519
Si Si6 0.132605 0.666716 0.342800
Si Si7 0.988194 0.757539 0.806051
O O1 0.729327 0.927498 0.897631
O O2 0.692813 0.637378 0.924437
O O3 0.848779 0.779453 0.893939
O O4 0.622359 0.821349 0.028876
O O5 0.255614 0.070266 0.199506
O O6 0.058310 0.081162 0.261702
O O7 0.208187 0.832302 0.176897
O O8 0.098939 0.278033 0.374092
O O9 0.325768 0.234849 0.227155
O O10 0.214677 0.054165 0.347584
O O11 0.906554 0.199753 0.602160
O O12 0.000000 0.000000 0.500000
O O13 0.022839 0.448780 0.892752
O O14 0.044872 0.661207 0.816877
O O15 0.000000 0.674104 0.750000
#
# Coordination Sequence:
#
# PCOD8142561 Si02
#       7
#     8   8   8   8   8   8   8
#     4  10  22  37  61  85 122 165 201 241 307 371
#     4   9  20  36  60  85 116 154 198 246 299 359
#     4  11  21  35  63  89 125 149 199 258 309 361
#     4  11  22  37  59  97 125 156 196 259 311 357
#     4  11  21  37  61  90 118 156 203 254 299 361
#     4  10  22  34  60  91 119 154 198 251 311 353
#     4  10  21  39  62  82 116 161 211 242 299 372
#
# _framework density 19.383317000000002
#
# number of rings (size 3 to 8) (size 9 to 14) (size 15 to 20)
#    0.000    1.714    2.857    2.143    6.000    1.714 
#    0.000    0.000    9.429    1.714    0.000    0.000 
#    0.000    0.000    0.000    0.000    0.000    0.000 
#
# Total GULP energy -347064.738566 kJ/mol
# GULP energy per Si atom -12395.169235 kJ/mol
# Density = 1.933920 g / cm^3
# Si number density = 19.383317 Si / 1000 Ang^3
#
#
#
# Elastic Constant Matrix: (Units=GPa)
#
#
# Indices 1 2 3 4 5 6 
#
# 1 73.3474 39.0468 24.3893 0.0003 -0.8202 0.1096
# 2 39.0468 118.9270 35.1177 0.0031 4.3099 0.0485
# 3 24.3893 35.1177 100.7408 0.0060 -7.4358 -0.0065
# 4 0.0003 0.0031 0.0060 28.6734 -0.0067 0.1251
# 5 -0.8202 4.3099 -7.4358 -0.0067 29.3973 -0.0167
# 6 0.1096 0.0485 -0.0065 0.1251 -0.0167 17.9575
#
#
#
# Elastic Compliance Matrix: (Units=1/GPa)
#
#
# Indices 1 2 3 4 5 6 
#
# 1 0.017047 -0.004919 -0.002368 0.000001 0.000598 -0.000091
# 2 -0.004919 0.010940 -0.002804 -0.000001 -0.002450 -0.000003
# 3 -0.002368 -0.002804 0.011721 -0.000001 0.003310 0.000029
# 4 0.000001 -0.000001 -0.000001 0.034877 0.000008 -0.000243
# 5 0.000598 -0.002450 0.003310 0.000008 0.035230 0.000037
# 6 -0.000091 -0.000003 0.000029 -0.000243 0.000037 0.055689
#
#
# Mechanical properties :
#
#
# Convention : Reuss Voigt Hill
#
# Bulk Modulus (GPa) = 51.21230 54.45809 52.83519
# Shear Modulus (GPa) = 26.01522 28.16974 27.09248
#
# Velocity S-wave (km/s) = 3.66750 3.81635 3.74267
# Velocity P-wave (km/s) = 6.66425 6.89751 6.78189
#
# Compressibility (1/GPa) = 0.01952656
#
# Stress axis : x y z
#
# Youngs Moduli (GPa) = 58.66209 91.40497 85.31397
#
# Poissons Ratio (x) = 0.44964 0.20203
# Poissons Ratio (y) = 0.28857 0.23919
# Poissons Ratio (z) = 0.13892 0.25627
#
# Static dielectric constant tensor:
#      x y z
#    x 3.584080 -0.000010 0.017940 
#    y -0.000010 3.603200 -0.000010 
#    z 0.017940 -0.000010 3.455390 
# 
# 
# High freq. dielectric constant tensor:
#      x y z
#    x 1.744180 0.000000 0.006870 
#    y 0.000000 1.741030 0.000000 
#    z 0.006870 0.000000 1.760150 
# 
# From -- ./inp_files/213460.got.cif
#   From: 2010.06.25/outbox.cif.g09.slc.cpg/sg15_107_cif.got.tgz:213460.got - 2010.06.28 07:06:18.
