data_PCOD8142665
_publ_section_title
;
Structure prediction by ZEFSAII (Michael W. Deem and Ramdas Pophale) SiO2 
 PCOD8142665
Probable space group: C 2/C
;
_chemical_formula_sum "Si O2"
_cell_formula_units_Z 40
_cell_length_a 16.671470
_cell_length_b 13.825953
_cell_length_c 8.268757
_cell_angle_alpha 90.000000
_cell_angle_beta 77.949004
_cell_angle_gamma 90.000000
_cell_volume 1863.937100
_symmetry_space_group_name_H-M "C 2/C"
_symmetry_group_IT_number 15
_symmetry_cell_setting 'monoclinic'
loop_
_space_group_symop_operation_xyz
x,y,z
-x,y,1/2-z
-x,-y,-z
x,-y,1/2+z
1/2+x,1/2+y,z
1/2-x,1/2+y,1/2-z
1/2-x,1/2-y,-z
1/2+x,1/2-y,1/2+z
loop_
_atom_site_type_symbol
_atom_site_label
_atom_site_fract_x
_atom_site_fract_y
_atom_site_fract_z
Si Si1 0.329248 0.612069 0.917451
Si Si2 0.910718 0.047046 0.566343
Si Si3 0.335528 0.195109 0.615807
Si Si4 0.583634 0.255396 0.616290
Si Si5 0.000077 0.607571 0.058926
O O1 0.397973 0.582215 0.756173
O O2 0.239228 0.619808 0.876395
O O3 0.339527 0.531245 0.053013
O O4 0.342084 0.717368 0.986792
O O5 0.897818 0.140303 0.462761
O O6 0.000000 0.000000 0.500000
O O7 0.338635 0.231341 0.800829
O O8 0.415741 0.136021 0.554674
O O9 0.500000 0.263309 0.750000
O O10 0.574194 0.173129 0.481469
O O11 0.000000 0.618071 0.250000
O O12 0.000000 0.500000 0.000000
#
# Coordination Sequence:
#
# PCOD8142665 Si02
#       5
#     8   8   8   8   8
#     4  11  24  40  63  90 128 168 204 267 326 387
#     4  12  23  39  65  96 125 166 219 270 333 391
#     4  10  23  43  60  90 128 165 214 257 323 395
#     4  10  21  39  63  91 125 163 212 269 321 387
#     4  11  22  39  64  90 120 164 211 261 314 377
#
# _framework density 21.459952000000001
#
# number of rings (size 3 to 8) (size 9 to 14) (size 15 to 20)
#    0.000    1.200    0.000    8.400    0.000    4.000 
#    0.000    0.000    0.000    0.000    0.000    0.000 
#    0.000    0.000    0.000    0.000    0.000    0.000 
#
# Total GULP energy -247878.729392 kJ/mol
# GULP energy per Si atom -12393.936470 kJ/mol
# Density = 2.141111 g / cm^3
# Si number density = 21.459952 Si / 1000 Ang^3
#
#
#
# Elastic Constant Matrix: (Units=GPa)
#
#
# Indices 1 2 3 4 5 6 
#
# 1 96.8582 40.9005 16.2885 0.0000 21.1287 0.0000
# 2 40.9005 128.3353 19.4553 0.0000 6.7576 0.0000
# 3 16.2885 19.4553 100.5839 0.0000 12.1567 0.0000
# 4 0.0000 0.0000 0.0000 41.8824 0.0000 -6.3961
# 5 21.1287 6.7576 12.1567 0.0000 30.8641 0.0000
# 6 0.0000 0.0000 0.0000 -6.3961 0.0000 18.8853
#
#
#
# Elastic Compliance Matrix: (Units=1/GPa)
#
#
# Indices 1 2 3 4 5 6 
#
# 1 0.013905 -0.003914 -0.000470 0.000000 -0.008477 0.000000
# 2 -0.003914 0.009172 -0.001282 0.000000 0.001176 0.000000
# 3 -0.000470 -0.001282 0.010703 0.000000 -0.003613 0.000000
# 4 0.000000 0.000000 0.000000 0.025179 0.000000 0.008528
# 5 -0.008477 0.001176 -0.003613 0.000000 0.039369 0.000000
# 6 0.000000 0.000000 0.000000 0.008528 0.000000 0.055839
#
#
# Mechanical properties :
#
#
# Convention : Reuss Voigt Hill
#
# Bulk Modulus (GPa) = 44.54957 53.22955 48.88956
# Shear Modulus (GPa) = 28.90465 34.93523 31.91994
#
# Velocity S-wave (km/s) = 3.67401 4.03913 3.86089
# Velocity P-wave (km/s) = 6.22915 6.82721 6.53502
#
# Compressibility (1/GPa) = 0.02244690
#
# Stress axis : x y z
#
# Youngs Moduli (GPa) = 71.91441 109.02813 93.43338
#
# Poissons Ratio (x) = 0.42674 0.04393
# Poissons Ratio (y) = 0.28147 0.11982
# Poissons Ratio (z) = 0.03382 0.13982
#
# Static dielectric constant tensor:
#      x y z
#    x 4.262890 0.000000 0.520660 
#    y 0.000000 5.082510 0.000000 
#    z 0.520660 0.000000 4.437490 
# 
# 
# High freq. dielectric constant tensor:
#      x y z
#    x 1.831460 0.000000 0.023680 
#    y 0.000000 1.860760 0.000000 
#    z 0.023680 0.000000 1.850750 
# 
# From -- ./inp_files/46053.got.cif
#   From: 2010.06.25/outbox.cif.g09.slc.cpg/sg15_24_cif.got.tgz:46053.got - 2010.06.28 07:06:18.
