data_PCOD8142931
_publ_section_title
;
Structure prediction by ZEFSAII (Michael W. Deem and Ramdas Pophale) SiO2 
 PCOD8142931
Probable space group: C 2/C
;
_chemical_formula_sum "Si O2"
_cell_formula_units_Z 64
_cell_length_a 29.245147
_cell_length_b 9.283008
_cell_length_c 16.823650
_cell_angle_alpha 90.000000
_cell_angle_beta 39.798194
_cell_angle_gamma 90.000000
_cell_volume 2923.484094
_symmetry_space_group_name_H-M "C 2/C"
_symmetry_group_IT_number 15
_symmetry_cell_setting 'monoclinic'
loop_
_space_group_symop_operation_xyz
x,y,z
-x,y,1/2-z
-x,-y,-z
x,-y,1/2+z
1/2+x,1/2+y,z
1/2-x,1/2+y,1/2-z
1/2-x,1/2-y,-z
1/2+x,1/2-y,1/2+z
loop_
_atom_site_type_symbol
_atom_site_label
_atom_site_fract_x
_atom_site_fract_y
_atom_site_fract_z
Si Si1 0.175470 0.629015 0.562092
Si Si2 0.173335 0.902302 0.662376
Si Si3 0.819016 0.216604 0.614306
Si Si4 0.468442 0.728752 0.485388
Si Si5 0.531767 0.247660 0.072434
Si Si6 0.472197 0.954161 0.206157
Si Si7 0.470518 0.486082 0.709966
Si Si8 0.322423 0.608982 0.162008
O O1 0.179122 0.732524 0.634482
O O2 0.247527 0.532893 0.459913
O O3 0.166538 0.728624 0.494777
O O4 0.111737 0.515965 0.664514
O O5 0.114645 0.974058 0.684046
O O6 0.152969 0.928398 0.781128
O O7 0.885610 0.265654 0.580352
O O8 0.749558 0.295795 0.743108
O O9 0.811273 0.041374 0.628622
O O10 0.486292 0.736016 0.553106
O O11 0.487288 0.572996 0.423647
O O12 0.522373 0.838503 0.370663
O O13 0.522199 0.087974 0.118085
O O14 0.491911 0.347976 0.188925
O O15 0.615153 0.290390 0.957366
O O16 0.500000 0.882580 0.250000
O O17 0.500000 0.406533 0.750000
#
# Coordination Sequence:
#
# PCOD8142931 Si02
#       8
#     8   8   8   8   8   8   8   8
#     4  10  21  42  66  94 124 174 222 265 323 394
#     4  10  21  39  68  91 127 167 219 267 321 388
#     4  11  24  41  69  96 129 173 221 268 327 396
#     4  12  22  42  68  93 124 177 225 263 318 401
#     4  12  26  41  62  97 139 165 213 279 338 374
#     4  12  24  42  64  95 128 172 223 275 324 388
#     4  12  22  40  66  98 125 170 221 267 323 392
#     4  11  24  43  65  98 133 170 212 274 331 393
#
# _framework density 21.891687000000001
#
# number of rings (size 3 to 8) (size 9 to 14) (size 15 to 20)
#    0.000    0.750    5.000    3.000    1.750    0.000 
#    4.500    0.625    0.000    0.000    0.000    0.000 
#    0.000    0.000    0.000    0.000    0.000    0.000 
#
# Total GULP energy -396634.836807 kJ/mol
# GULP energy per Si atom -12394.838650 kJ/mol
# Density = 2.184186 g / cm^3
# Si number density = 21.891687 Si / 1000 Ang^3
#
#
#
# Elastic Constant Matrix: (Units=GPa)
#
#
# Indices 1 2 3 4 5 6 
#
# 1 108.0050 21.0624 54.7996 0.0031 -24.8663 -0.0017
# 2 21.0624 69.3017 37.3624 -0.0039 3.2537 0.0025
# 3 54.7996 37.3624 127.2097 -0.0012 -31.7831 0.0014
# 4 0.0031 -0.0039 -0.0012 43.3745 0.0024 -10.7310
# 5 -24.8663 3.2537 -31.7831 0.0024 46.5321 -0.0019
# 6 -0.0017 0.0025 0.0014 -10.7310 -0.0019 20.2440
#
#
#
# Elastic Compliance Matrix: (Units=1/GPa)
#
#
# Indices 1 2 3 4 5 6 
#
# 1 0.012532 -0.001991 -0.003745 -0.000001 0.004278 0.000001
# 2 -0.001991 0.018759 -0.006325 0.000002 -0.006696 -0.000002
# 3 -0.003745 -0.006325 0.013194 0.000000 0.007453 0.000000
# 4 -0.000001 0.000002 0.000000 0.026535 -0.000002 0.014066
# 5 0.004278 -0.006696 0.007453 -0.000002 0.029336 0.000003
# 6 0.000001 -0.000002 0.000000 0.014066 0.000003 0.056853
#
#
# Mechanical properties :
#
#
# Convention : Reuss Voigt Hill
#
# Bulk Modulus (GPa) = 49.10643 58.99614 54.05128
# Shear Modulus (GPa) = 26.57895 34.78291 30.68093
#
# Velocity S-wave (km/s) = 3.48819 3.99038 3.74771
# Velocity P-wave (km/s) = 6.22122 6.94539 6.59325
#
# Compressibility (1/GPa) = 0.02036393
#
# Stress axis : x y z
#
# Youngs Moduli (GPa) = 79.79452 53.30766 75.79098
#
# Poissons Ratio (x) = 0.10612 0.28384
# Poissons Ratio (y) = 0.15884 0.47938
# Poissons Ratio (z) = 0.29883 0.33717
#
# Static dielectric constant tensor:
#      x y z
#    x 4.094850 0.000000 -0.193560 
#    y 0.000000 3.678580 0.000000 
#    z -0.193560 0.000000 4.158120 
# 
# 
# High freq. dielectric constant tensor:
#      x y z
#    x 1.870970 0.000000 -0.009710 
#    y 0.000000 1.831730 0.000000 
#    z -0.009710 0.000000 1.876100 
# 
# From -- ./inp_files/224598.got.cif
#   From: 2010.06.25/outbox.cif.g09.slc.cpg/sg15_113_cif.got.tgz:224598.got - 2010.06.28 07:06:18.
