data_PCOD8142233
_publ_section_title
;
Structure prediction by ZEFSAII (Michael W. Deem and Ramdas Pophale) SiO2 
 PCOD8142233
Probable space group: C 2/C
;
_chemical_formula_sum "Si O2"
_cell_formula_units_Z 64
_cell_length_a 16.498516
_cell_length_b 15.572067
_cell_length_c 22.869602
_cell_angle_alpha 90.000000
_cell_angle_beta 33.593292
_cell_angle_gamma 90.000000
_cell_volume 3250.915915
_symmetry_space_group_name_H-M "C 2/C"
_symmetry_group_IT_number 15
_symmetry_cell_setting 'monoclinic'
loop_
_space_group_symop_operation_xyz
x,y,z
-x,y,1/2-z
-x,-y,-z
x,-y,1/2+z
1/2+x,1/2+y,z
1/2-x,1/2+y,1/2-z
1/2-x,1/2-y,-z
1/2+x,1/2-y,1/2+z
loop_
_atom_site_type_symbol
_atom_site_label
_atom_site_fract_x
_atom_site_fract_y
_atom_site_fract_z
Si Si1 0.208586 0.044886 0.466014
Si Si2 0.938374 0.269409 0.505269
Si Si3 0.121955 0.212511 0.223904
Si Si4 0.672529 0.853719 0.287818
Si Si5 0.521788 0.848869 0.668841
Si Si6 0.493896 0.602685 0.398706
Si Si7 0.992675 0.797109 0.099597
Si Si8 0.266964 0.032306 0.299771
O O1 0.351573 0.079097 0.414198
O O2 0.253478 0.008608 0.375765
O O3 0.095877 0.122335 0.527919
O O4 0.134982 0.963429 0.542665
O O5 0.776531 0.311038 0.600780
O O6 0.929238 0.182569 0.473102
O O7 0.987558 0.253459 0.541878
O O8 0.053324 0.336416 0.409460
O O9 0.138278 0.298918 0.251071
O O10 0.000000 0.232374 0.250000
O O11 0.074585 0.131850 0.291527
O O12 0.832536 0.828690 0.215995
O O13 0.664035 0.953208 0.276601
O O14 0.500000 0.824392 0.750000
O O15 0.560564 0.763379 0.609352
O O16 0.373315 0.885753 0.729299
O O17 0.607375 0.553537 0.371727
#
# Coordination Sequence:
#
# PCOD8142233 Si02
#       8
#     8   8   8   8   8   8   8   8
#     4  11  21  36  63  90 114 160 201 249 302 341
#     4  10  21  38  64  89 113 162 199 246 304 356
#     4  10  23  39  56  85 122 156 193 245 304 362
#     4  10  22  36  65  90 115 156 202 252 293 357
#     4  10  24  37  58  91 127 155 194 255 303 354
#     4  11  21  39  63  86 117 156 204 247 292 357
#     4  11  20  40  61  88 121 156 208 240 300 365
#     4  11  20  39  61  90 118 149 202 250 294 355
#
# _framework density 19.686758999999999
#
# number of rings (size 3 to 8) (size 9 to 14) (size 15 to 20)
#    0.000    1.500    2.500    4.500    1.750    5.500 
#    0.000    4.375    0.000    0.000    0.000    0.000 
#    0.000    0.000    0.000    0.000    0.000    0.000 
#
# Total GULP energy -396908.712768 kJ/mol
# GULP energy per Si atom -12403.397274 kJ/mol
# Density = 1.964195 g / cm^3
# Si number density = 19.686759 Si / 1000 Ang^3
#
#
#
# Elastic Constant Matrix: (Units=GPa)
#
#
# Indices 1 2 3 4 5 6 
#
# 1 63.1647 22.1303 29.4124 -0.0007 -3.1980 0.0005
# 2 22.1303 92.9664 40.0838 -0.0012 9.6143 0.0007
# 3 29.4124 40.0838 131.2548 -0.0035 -0.1650 0.0025
# 4 -0.0007 -0.0012 -0.0035 28.5698 0.0014 -4.3362
# 5 -3.1980 9.6143 -0.1650 0.0014 20.3171 -0.0009
# 6 0.0005 0.0007 0.0025 -4.3362 -0.0009 21.1099
#
#
#
# Elastic Compliance Matrix: (Units=1/GPa)
#
#
# Indices 1 2 3 4 5 6 
#
# 1 0.018775 -0.003613 -0.003098 0.000000 0.004640 0.000000
# 2 -0.003613 0.013831 -0.003423 0.000000 -0.007142 0.000000
# 3 -0.003098 -0.003423 0.009360 0.000001 0.001208 -0.000001
# 4 0.000000 0.000000 0.000001 0.036128 -0.000002 0.007421
# 5 0.004640 -0.007142 0.001208 -0.000002 0.053339 0.000002
# 6 0.000000 0.000000 -0.000001 0.007421 0.000002 0.048895
#
#
# Mechanical properties :
#
#
# Convention : Reuss Voigt Hill
#
# Bulk Modulus (GPa) = 46.08898 52.29318 49.19108
# Shear Modulus (GPa) = 24.05804 27.05000 25.55402
#
# Velocity S-wave (km/s) = 3.49956 3.71080 3.60673
# Velocity P-wave (km/s) = 6.30803 6.70674 6.51044
#
# Compressibility (1/GPa) = 0.02169716
#
# Stress axis : x y z
#
# Youngs Moduli (GPa) = 53.26203 72.29997 106.83901
#
# Poissons Ratio (x) = 0.26126 0.33098
# Poissons Ratio (y) = 0.19246 0.36573
# Poissons Ratio (z) = 0.16500 0.24749
#
# Static dielectric constant tensor:
#      x y z
#    x 3.460790 0.000000 -0.163580 
#    y 0.000000 3.512450 0.000010 
#    z -0.163580 0.000010 3.894440 
# 
# 
# High freq. dielectric constant tensor:
#      x y z
#    x 1.754740 0.000000 -0.012620 
#    y 0.000000 1.761330 0.000000 
#    z -0.012620 0.000000 1.779640 
# 
# From -- ./inp_files/123541.got.cif
#   From: 2010.06.25/outbox.cif.g09.slc.cpg/sg15_62_cif.got.tgz:123541.got - 2010.06.28 07:06:18.
