data_PCOD8142484
_publ_section_title
;
Structure prediction by ZEFSAII (Michael W. Deem and Ramdas Pophale) SiO2 
 PCOD8142484
Probable space group: C 2/C
;
_chemical_formula_sum "Si O2"
_cell_formula_units_Z 56
_cell_length_a 8.065147
_cell_length_b 12.541536
_cell_length_c 33.021102
_cell_angle_alpha 90.000000
_cell_angle_beta 111.286905
_cell_angle_gamma 90.000000
_cell_volume 3112.184045
_symmetry_space_group_name_H-M "C 2/C"
_symmetry_group_IT_number 15
_symmetry_cell_setting 'monoclinic'
loop_
_space_group_symop_operation_xyz
x,y,z
-x,y,1/2-z
-x,-y,-z
x,-y,1/2+z
1/2+x,1/2+y,z
1/2-x,1/2+y,1/2-z
1/2-x,1/2-y,-z
1/2+x,1/2-y,1/2+z
loop_
_atom_site_type_symbol
_atom_site_label
_atom_site_fract_x
_atom_site_fract_y
_atom_site_fract_z
Si Si1 0.169904 0.261314 0.693674
Si Si2 0.614066 0.872688 0.956483
Si Si3 0.597119 0.301938 0.097034
Si Si4 0.662389 0.985961 0.192630
Si Si5 0.500000 0.136849 0.750000
Si Si6 0.500000 0.362525 0.250000
Si Si7 0.048801 0.414741 0.404437
Si Si8 0.707976 0.829436 0.051286
O O1 0.107873 0.216452 0.645530
O O2 0.166772 0.387732 0.693292
O O3 0.363534 0.219278 0.719596
O O4 0.048648 0.216345 0.718359
O O5 0.429970 0.811284 0.928645
O O6 0.781143 0.798239 0.956955
O O7 0.624043 0.983825 0.934616
O O8 0.624274 0.891724 0.005603
O O9 0.775475 0.353441 0.095017
O O10 0.413232 0.371483 0.075740
O O11 0.547128 0.943978 0.219073
O O12 0.857103 0.939688 0.217015
O O13 0.576443 0.946317 0.143573
O O14 0.922833 0.344491 0.422327
#
# Coordination Sequence:
#
# PCOD8142484 Si02
#       8
#     8   8   8   8   4   4   8   8
#     4  11  20  40  56  81 119 143 189 243 284 341
#     4   9  21  43  57  86 126 150 195 250 282 345
#     4  10  21  39  60  88 119 153 195 243 285 351
#     4  11  21  37  58  83 111 149 189 232 295 342
#     4  10  22  36  58  82 110 146 188 234 284 350
#     4  10  24  36  60  82 108 156 188 236 292 348
#     4  12  21  37  65  86 115 161 191 237 302 343
#     4   9  21  42  57  88 124 151 197 244 283 350
#
# _framework density 17.993794999999999
#
# number of rings (size 3 to 8) (size 9 to 14) (size 15 to 20)
#    0.857    0.857    2.857    2.143    0.000    1.143 
#    2.571    0.000    0.000    0.000    0.000    0.000 
#    0.000    0.000    0.000    0.000    0.000    0.000 
#
# Total GULP energy -346897.778423 kJ/mol
# GULP energy per Si atom -12389.206372 kJ/mol
# Density = 1.795284 g / cm^3
# Si number density = 17.993795 Si / 1000 Ang^3
#
#
#
# Elastic Constant Matrix: (Units=GPa)
#
#
# Indices 1 2 3 4 5 6 
#
# 1 133.2067 55.4821 68.0716 0.0000 -11.8679 0.0000
# 2 55.4821 90.9293 53.7525 0.0000 -14.8210 0.0000
# 3 68.0716 53.7525 165.1556 0.0000 -4.8572 0.0000
# 4 0.0000 0.0000 0.0000 27.5100 0.0000 -2.8804
# 5 -11.8679 -14.8210 -4.8572 0.0000 35.3773 0.0000
# 6 0.0000 0.0000 0.0000 -2.8804 0.0000 48.7161
#
#
#
# Elastic Compliance Matrix: (Units=1/GPa)
#
#
# Indices 1 2 3 4 5 6 
#
# 1 0.011164 -0.004830 -0.002991 0.000000 0.001311 0.000000
# 2 -0.004830 0.016697 -0.003299 0.000000 0.004922 0.000000
# 3 -0.002991 -0.003299 0.008325 0.000000 -0.001242 0.000000
# 4 0.000000 0.000000 0.000000 0.036577 0.000000 0.002163
# 5 0.001311 0.004922 -0.001242 0.000000 0.030598 0.000000
# 6 0.000000 0.000000 0.000000 0.002163 0.000000 0.020655
#
#
# Mechanical properties :
#
#
# Convention : Reuss Voigt Hill
#
# Bulk Modulus (GPa) = 71.70374 82.65599 77.17986
# Shear Modulus (GPa) = 33.13361 36.45304 34.79333
#
# Velocity S-wave (km/s) = 4.29580 4.50585 4.40208
# Velocity P-wave (km/s) = 8.03373 8.55019 8.29598
#
# Compressibility (1/GPa) = 0.01394627
#
# Stress axis : x y z
#
# Youngs Moduli (GPa) = 89.57201 59.89067 120.12453
#
# Poissons Ratio (x) = 0.28929 0.35927
# Poissons Ratio (y) = 0.43266 0.39625
# Poissons Ratio (z) = 0.26790 0.19756
#
# Static dielectric constant tensor:
#      x y z
#    x 3.303420 0.000000 0.072440 
#    y 0.000000 3.169460 0.000000 
#    z 0.072440 0.000000 3.573300 
# 
# 
# High freq. dielectric constant tensor:
#      x y z
#    x 1.691010 0.000000 0.003210 
#    y 0.000000 1.688580 0.000000 
#    z 0.003210 0.000000 1.725470 
# 
# From -- ./inp_files/307262.got.cif
#   From: 2010.06.25/outbox.cif.g09.slc.cpg/sg15_154_cif.got.tgz:307262.got - 2010.06.28 07:06:18.
