data_PCOD8142230
_publ_section_title
;
Structure prediction by ZEFSAII (Michael W. Deem and Ramdas Pophale) SiO2 
 PCOD8142230
Probable space group: C 2/C
;
_chemical_formula_sum "Si O2"
_cell_formula_units_Z 60
_cell_length_a 9.209033
_cell_length_b 19.929292
_cell_length_c 25.978801
_cell_angle_alpha 90.000000
_cell_angle_beta 39.340893
_cell_angle_gamma 90.000000
_cell_volume 3022.514359
_symmetry_space_group_name_H-M "C 2/C"
_symmetry_group_IT_number 15
_symmetry_cell_setting 'monoclinic'
loop_
_space_group_symop_operation_xyz
x,y,z
-x,y,1/2-z
-x,-y,-z
x,-y,1/2+z
1/2+x,1/2+y,z
1/2-x,1/2+y,1/2-z
1/2-x,1/2-y,-z
1/2+x,1/2-y,1/2+z
loop_
_atom_site_type_symbol
_atom_site_label
_atom_site_fract_x
_atom_site_fract_y
_atom_site_fract_z
Si Si1 0.500000 0.554438 0.250000
Si Si2 0.791516 0.944740 0.496830
Si Si3 0.179368 0.267504 0.741691
Si Si4 0.040508 0.024657 0.834337
Si Si5 0.802125 0.922008 0.041846
Si Si6 0.681600 0.396796 0.859158
Si Si7 0.914713 0.363294 0.215147
Si Si8 0.964904 0.626252 0.152745
O O1 0.584128 0.507340 0.180587
O O2 0.713085 0.598004 0.211033
O O3 0.626328 0.883486 0.558489
O O4 0.833951 0.942088 0.424019
O O5 0.043690 0.943859 0.452264
O O6 0.679614 0.014139 0.548033
O O7 0.307752 0.332107 0.681181
O O8 0.341169 0.209625 0.716577
O O9 0.054663 0.295009 0.827876
O O10 0.000000 0.237159 0.750000
O O11 0.218531 0.080670 0.766549
O O12 0.162588 0.965796 0.833200
O O13 0.606836 0.876824 0.119856
O O14 0.960405 0.883975 0.956361
O O15 0.911638 0.407029 0.830740
O O16 0.000000 0.358521 0.250000
#
# Coordination Sequence:
#
# PCOD8142230 Si02
#       8
#     4   8   8   8   8   8   8   8
#     4  12  24  32  62  94 126 152 206 258 298 362
#     4   9  18  37  61  90 125 152 204 245 315 361
#     4  10  23  42  61  85 122 168 207 247 303 366
#     4  11  23  37  62  95 123 158 202 257 310 360
#     4   9  18  34  63  98 115 150 203 263 295 362
#     4   9  20  41  70  85 115 162 212 246 307 370
#     4  12  25  37  62  91 129 160 202 255 303 356
#     4  10  21  38  64  88 118 162 203 256 295 366
#
# _framework density 19.851022
#
# number of rings (size 3 to 8) (size 9 to 14) (size 15 to 20)
#    0.000    1.867    2.667    1.600    3.733    1.067 
#    0.000    0.667    0.000    0.000    0.000    0.000 
#    0.000    0.000    0.000    0.000    0.000    0.000 
#
# Total GULP energy -371757.804568 kJ/mol
# GULP energy per Si atom -12391.926819 kJ/mol
# Density = 1.980584 g / cm^3
# Si number density = 19.851022 Si / 1000 Ang^3
#
#
#
# Elastic Constant Matrix: (Units=GPa)
#
#
# Indices 1 2 3 4 5 6 
#
# 1 76.3685 30.0253 38.7073 0.0249 3.4236 -0.0409
# 2 30.0253 91.2060 52.0140 -0.0258 -3.7696 0.0043
# 3 38.7073 52.0140 120.3993 -0.0729 3.5982 -0.0726
# 4 0.0249 -0.0258 -0.0729 29.8016 0.0162 -7.4574
# 5 3.4236 -3.7696 3.5982 0.0162 21.3151 0.0997
# 6 -0.0409 0.0043 -0.0726 -7.4574 0.0997 24.4420
#
#
#
# Elastic Compliance Matrix: (Units=1/GPa)
#
#
# Indices 1 2 3 4 5 6 
#
# 1 0.016440 -0.003384 -0.003746 -0.000019 -0.002607 0.000022
# 2 -0.003384 0.015534 -0.005750 -0.000012 0.004262 -0.000046
# 3 -0.003746 -0.005750 0.012067 0.000042 -0.002453 0.000054
# 4 -0.000019 -0.000012 0.000042 0.036329 -0.000086 0.011085
# 5 -0.002607 0.004262 -0.002453 -0.000086 0.048503 -0.000236
# 6 0.000022 -0.000046 0.000054 0.011085 -0.000236 0.044296
#
#
# Mechanical properties :
#
#
# Convention : Reuss Voigt Hill
#
# Bulk Modulus (GPa) = 54.69910 58.82967 56.76438
# Shear Modulus (GPa) = 24.38757 26.26023 25.32390
#
# Velocity S-wave (km/s) = 3.50884 3.64107 3.57557
# Velocity P-wave (km/s) = 6.63555 6.88305 6.76044
#
# Compressibility (1/GPa) = 0.01828184
#
# Stress axis : x y z
#
# Youngs Moduli (GPa) = 60.82681 64.37661 82.86797
#
# Poissons Ratio (x) = 0.21784 0.31039
# Poissons Ratio (y) = 0.20583 0.47651
# Poissons Ratio (z) = 0.22783 0.37018
#
# Static dielectric constant tensor:
#      x y z
#    x 3.583520 -0.000010 0.264740 
#    y -0.000010 3.437440 0.000040 
#    z 0.264740 0.000040 3.878840 
# 
# 
# High freq. dielectric constant tensor:
#      x y z
#    x 1.765400 0.000000 0.014990 
#    y 0.000000 1.751050 0.000000 
#    z 0.014990 0.000000 1.785320 
# 
# From -- ./inp_files/290110.got.cif
#   From: 2010.06.25/outbox.cif.g09.slc.cpg/sg15_146_cif.got.tgz:290110.got - 2010.06.28 07:06:18.
