data_PCOD8142598
_publ_section_title
;
Structure prediction by ZEFSAII (Michael W. Deem and Ramdas Pophale) SiO2 
 PCOD8142598
Probable space group: C 2/C
;
_chemical_formula_sum "Si O2"
_cell_formula_units_Z 52
_cell_length_a 7.018903
_cell_length_b 13.674197
_cell_length_c 27.789479
_cell_angle_alpha 90.000000
_cell_angle_beta 66.848318
_cell_angle_gamma 90.000000
_cell_volume 2452.379808
_symmetry_space_group_name_H-M "C 2/C"
_symmetry_group_IT_number 15
_symmetry_cell_setting 'monoclinic'
loop_
_space_group_symop_operation_xyz
x,y,z
-x,y,1/2-z
-x,-y,-z
x,-y,1/2+z
1/2+x,1/2+y,z
1/2-x,1/2+y,1/2-z
1/2-x,1/2-y,-z
1/2+x,1/2-y,1/2+z
loop_
_atom_site_type_symbol
_atom_site_label
_atom_site_fract_x
_atom_site_fract_y
_atom_site_fract_z
Si Si1 0.477625 0.387060 0.509177
Si Si2 0.281566 0.888248 0.821380
Si Si3 0.639994 0.345765 0.592382
Si Si4 0.727746 0.133505 0.599293
Si Si5 0.939205 0.427458 0.906416
Si Si6 0.718319 0.906742 0.210577
Si Si7 0.500000 0.716822 0.750000
O O1 0.500000 0.500000 0.500000
O O2 0.634824 0.352333 0.535253
O O3 0.556783 0.341175 0.450802
O O4 0.238448 0.365820 0.547097
O O5 0.443592 0.898160 0.849630
O O6 0.323861 0.785521 0.790932
O O7 0.053493 0.901719 0.865798
O O8 0.297271 0.975590 0.780426
O O9 0.602130 0.233839 0.611333
O O10 0.844370 0.398525 0.591740
O O11 0.773203 0.107901 0.649490
O O12 0.601070 0.044997 0.586216
O O13 0.500000 0.860746 0.250000
O O14 0.901333 0.855546 0.221125
#
# Coordination Sequence:
#
# PCOD8142598 Si02
#       7
#     8   8   8   8   8   8   4
#     4   9  20  39  59  89 129 163 205 265 310 369
#     4  10  23  42  62  92 131 155 208 273 308 379
#     4  11  21  38  64  94 119 171 209 244 327 386
#     4  10  21  39  62  91 128 159 212 267 306 383
#     4   9  21  40  63  88 128 165 202 262 319 369
#     4  11  24  44  64  93 125 163 214 264 322 383
#     4  12  24  44  70  90 124 174 210 264 334 376
#
# _framework density 21.203893000000001
#
# number of rings (size 3 to 8) (size 9 to 14) (size 15 to 20)
#    0.000    1.846    0.769    3.231    0.000    6.769 
#    4.154   10.769    0.000    0.000    0.000    0.000 
#    0.000    0.000    0.000    0.000    0.000    0.000 
#
# Total GULP energy -322254.594189 kJ/mol
# GULP energy per Si atom -12394.407469 kJ/mol
# Density = 2.115563 g / cm^3
# Si number density = 21.203893 Si / 1000 Ang^3
#
#
#
# Elastic Constant Matrix: (Units=GPa)
#
#
# Indices 1 2 3 4 5 6 
#
# 1 134.7511 45.3197 53.0793 -0.0001 5.1552 0.0001
# 2 45.3197 103.3827 32.9429 0.0000 11.9240 0.0000
# 3 53.0793 32.9429 120.0285 -0.0001 1.5494 0.0000
# 4 -0.0001 0.0000 -0.0001 19.4813 0.0001 -3.5581
# 5 5.1552 11.9240 1.5494 0.0001 20.5050 0.0000
# 6 0.0001 0.0000 0.0000 -3.5581 0.0000 23.6718
#
#
#
# Elastic Compliance Matrix: (Units=1/GPa)
#
#
# Indices 1 2 3 4 5 6 
#
# 1 0.009879 -0.003175 -0.003493 0.000000 -0.000374 0.000000
# 2 -0.003175 0.012398 -0.001918 0.000000 -0.006267 0.000000
# 3 -0.003493 -0.001918 0.010387 0.000000 0.001209 0.000000
# 4 0.000000 0.000000 0.000000 0.052780 0.000000 0.007933
# 5 -0.000374 -0.006267 0.001209 0.000000 0.052416 0.000000
# 6 0.000000 0.000000 0.000000 0.007933 0.000000 0.043437
#
#
# Mechanical properties :
#
#
# Convention : Reuss Voigt Hill
#
# Bulk Modulus (GPa) = 64.54305 68.98291 66.76298
# Shear Modulus (GPa) = 24.55418 27.85298 26.20358
#
# Velocity S-wave (km/s) = 3.40664 3.62826 3.51920
# Velocity P-wave (km/s) = 6.78077 7.08210 6.93307
#
# Compressibility (1/GPa) = 0.01549353
#
# Stress axis : x y z
#
# Youngs Moduli (GPa) = 101.22709 80.65530 96.27736
#
# Poissons Ratio (x) = 0.25604 0.33625
# Poissons Ratio (y) = 0.32135 0.18467
# Poissons Ratio (z) = 0.35354 0.15471
#
# Static dielectric constant tensor:
#      x y z
#    x 3.623290 0.000000 -0.190540 
#    y 0.000000 4.104380 0.000000 
#    z -0.190540 0.000000 4.284670 
# 
# 
# High freq. dielectric constant tensor:
#      x y z
#    x 1.806690 0.000000 -0.007490 
#    y 0.000000 1.836100 0.000000 
#    z -0.007490 0.000000 1.849540 
# 
# From -- ./inp_files/305354.got.cif
#   From: 2010.06.25/outbox.cif.g09.slc.cpg/sg15_153_cif.got.tgz:305354.got - 2010.06.28 07:06:18.
