data_PCOD8142606
_publ_section_title
;
Structure prediction by ZEFSAII (Michael W. Deem and Ramdas Pophale) SiO2 
 PCOD8142606
Probable space group: C 2/C
;
_chemical_formula_sum "Si O2"
_cell_formula_units_Z 44
_cell_length_a 13.885487
_cell_length_b 13.071276
_cell_length_c 14.364163
_cell_angle_alpha 90.000000
_cell_angle_beta 131.081145
_cell_angle_gamma 90.000000
_cell_volume 1965.186864
_symmetry_space_group_name_H-M "C 2/C"
_symmetry_group_IT_number 15
_symmetry_cell_setting 'monoclinic'
loop_
_space_group_symop_operation_xyz
x,y,z
-x,y,1/2-z
-x,-y,-z
x,-y,1/2+z
1/2+x,1/2+y,z
1/2-x,1/2+y,1/2-z
1/2-x,1/2-y,-z
1/2+x,1/2-y,1/2+z
loop_
_atom_site_type_symbol
_atom_site_label
_atom_site_fract_x
_atom_site_fract_y
_atom_site_fract_z
Si Si1 0.029066 0.210157 0.628674
Si Si2 0.780093 0.588551 0.807031
Si Si3 0.185865 0.607964 0.287396
Si Si4 0.422848 0.724996 0.370491
Si Si5 0.000000 0.915266 0.750000
Si Si6 0.199928 0.922773 0.450539
O O1 0.130439 0.117303 0.701539
O O2 0.062934 0.317519 0.701306
O O3 0.031528 0.228278 0.518508
O O4 0.896804 0.172292 0.592110
O O5 0.811704 0.475751 0.792171
O O6 0.879383 0.660649 0.813997
O O7 0.801302 0.599535 0.932268
O O8 0.302972 0.682427 0.349122
O O9 0.208997 0.554376 0.402679
O O10 0.454471 0.658719 0.302158
O O11 0.116875 0.979129 0.866659
#
# Coordination Sequence:
#
# PCOD8142606 Si02
#       6
#     8   8   8   8   4   8
#     4  10  21  39  62  93 124 158 207 256 299 363
#     4  11  21  40  61  94 123 159 203 254 311 358
#     4  10  22  40  61  95 127 159 203 261 301 365
#     4  10  23  38  65  88 126 161 207 252 304 364
#     4  12  20  42  64  92 118 168 208 252 300 370
#     4  11  21  38  69  91 117 164 210 249 303 363
#
# _framework density 22.389728000000002
#
# number of rings (size 3 to 8) (size 9 to 14) (size 15 to 20)
#    0.000    1.455    3.636    1.091    0.000   11.636 
#    3.273    2.727    8.000    0.000    0.000    0.000 
#    0.000    0.000    0.000    0.000    0.000    0.000 
#
# Total GULP energy -272635.480250 kJ/mol
# GULP energy per Si atom -12392.521830 kJ/mol
# Density = 2.233877 g / cm^3
# Si number density = 22.389728 Si / 1000 Ang^3
#
#
#
# Elastic Constant Matrix: (Units=GPa)
#
#
# Indices 1 2 3 4 5 6 
#
# 1 62.8604 48.3021 45.3135 0.0000 -22.3840 0.0000
# 2 48.3021 110.0521 32.2186 0.0000 -9.5949 0.0000
# 3 45.3135 32.2186 114.6588 0.0000 -28.9749 0.0000
# 4 0.0000 0.0000 0.0000 25.7536 0.0000 -11.3598
# 5 -22.3840 -9.5949 -28.9749 0.0000 20.0251 0.0000
# 6 0.0000 0.0000 0.0000 -11.3598 0.0000 30.8639
#
#
#
# Elastic Compliance Matrix: (Units=1/GPa)
#
#
# Indices 1 2 3 4 5 6 
#
# 1 0.041907 -0.014263 -0.003852 0.000000 0.034437 0.000000
# 2 -0.014263 0.014772 -0.001189 0.000000 -0.010586 0.000000
# 3 -0.003852 -0.001189 0.014733 0.000000 0.016442 0.000000
# 4 0.000000 0.000000 0.000000 0.046355 0.000000 0.017062
# 5 0.034437 -0.010586 0.016442 0.000000 0.107149 0.000000
# 6 0.000000 0.000000 0.000000 0.017062 0.000000 0.038680
#
#
# Mechanical properties :
#
#
# Convention : Reuss Voigt Hill
#
# Bulk Modulus (GPa) = 30.48403 59.91552 45.19977
# Shear Modulus (GPa) = 15.96733 26.11099 21.03916
#
# Velocity S-wave (km/s) = 2.67339 3.41868 3.06874
# Velocity P-wave (km/s) = 4.81395 6.51164 5.72606
#
# Compressibility (1/GPa) = 0.03280406
#
# Stress axis : x y z
#
# Youngs Moduli (GPa) = 23.86221 67.69591 67.87512
#
# Poissons Ratio (x) = 0.96556 0.26143
# Poissons Ratio (y) = 0.34035 0.08071
# Poissons Ratio (z) = 0.09191 0.08050
#
# Static dielectric constant tensor:
#      x y z
#    x 3.881510 0.000000 0.021550 
#    y 0.000000 4.218160 0.000000 
#    z 0.021550 0.000000 4.563500 
# 
# 
# High freq. dielectric constant tensor:
#      x y z
#    x 1.860520 0.000000 -0.012210 
#    y 0.000000 1.880240 0.000000 
#    z -0.012210 0.000000 1.892750 
# 
# From -- ./inp_files/96129.got.cif
#   From: 2010.06.25/outbox.cif.g09.slc.cpg/sg15_49_cif.got.tgz:96129.got - 2010.06.28 07:06:18.
