data_PCOD8142789
_publ_section_title
;
Structure prediction by ZEFSAII (Michael W. Deem and Ramdas Pophale) SiO2 
 PCOD8142789
Probable space group: C 2/C
;
_chemical_formula_sum "Si O2"
_cell_formula_units_Z 64
_cell_length_a 18.353954
_cell_length_b 17.430798
_cell_length_c 14.958276
_cell_angle_alpha 90.000000
_cell_angle_beta 39.455053
_cell_angle_gamma 90.000000
_cell_volume 3041.062551
_symmetry_space_group_name_H-M "C 2/C"
_symmetry_group_IT_number 15
_symmetry_cell_setting 'monoclinic'
loop_
_space_group_symop_operation_xyz
x,y,z
-x,y,1/2-z
-x,-y,-z
x,-y,1/2+z
1/2+x,1/2+y,z
1/2-x,1/2+y,1/2-z
1/2-x,1/2-y,-z
1/2+x,1/2-y,1/2+z
loop_
_atom_site_type_symbol
_atom_site_label
_atom_site_fract_x
_atom_site_fract_y
_atom_site_fract_z
Si Si1 0.556699 0.669617 0.983772
Si Si2 0.087201 0.422827 0.748263
Si Si3 0.929277 0.054989 0.682198
Si Si4 0.305066 0.379210 0.984333
Si Si5 0.833248 0.883331 0.758618
Si Si6 0.167888 0.056980 0.540750
Si Si7 0.409156 0.158811 0.078531
Si Si8 0.568857 0.901114 0.275087
O O1 0.606558 0.605714 0.868833
O O2 0.591702 0.649400 0.052222
O O3 0.608199 0.750020 0.903156
O O4 0.418000 0.670318 0.119740
O O5 0.217260 0.398828 0.598182
O O6 0.046296 0.368474 0.867345
O O7 0.085369 0.510005 0.784888
O O8 0.000000 0.408917 0.750000
O O9 0.872277 0.090376 0.825455
O O10 0.067446 0.061039 0.562060
O O11 0.889468 0.968021 0.704080
O O12 0.187642 0.355969 0.145477
O O13 0.318919 0.345804 0.871163
O O14 0.300620 0.469403 0.972523
O O15 0.708937 0.885373 0.830861
O O16 0.505371 0.140363 0.915254
O O17 0.500000 0.893957 0.250000
#
# Coordination Sequence:
#
# PCOD8142789 Si02
#       8
#     8   8   8   8   8   8   8   8
#     4  12  26  39  61  99 132 163 210 262 323 380
#     4  10  23  43  67  92 126 171 219 265 308 373
#     4  10  21  40  70  95 119 162 215 271 310 371
#     4  10  21  39  65  93 123 162 207 264 318 373
#     4  11  23  43  66  90 128 169 215 261 317 380
#     4   9  19  41  69  96 116 156 223 268 312 357
#     4  12  27  42  61  97 134 171 210 257 325 388
#     4  10  21  42  66  92 123 166 217 259 308 378
#
# _framework density 21.045276000000001
#
# number of rings (size 3 to 8) (size 9 to 14) (size 15 to 20)
#    0.000    1.500    2.500    1.875    7.000    2.500 
#    2.250    0.625    0.000    0.000    0.000    0.000 
#    0.000    0.000    0.000    0.000    0.000    0.000 
#
# Total GULP energy -396838.659705 kJ/mol
# GULP energy per Si atom -12401.208116 kJ/mol
# Density = 2.099738 g / cm^3
# Si number density = 21.045276 Si / 1000 Ang^3
#
#
#
# Elastic Constant Matrix: (Units=GPa)
#
#
# Indices 1 2 3 4 5 6 
#
# 1 83.9396 37.6662 31.2962 0.0000 -0.9771 0.0000
# 2 37.6662 66.9907 40.2809 0.0000 8.0835 0.0000
# 3 31.2962 40.2809 115.5871 0.0000 -12.5045 0.0000
# 4 0.0000 0.0000 0.0000 29.8042 0.0000 -5.1804
# 5 -0.9771 8.0835 -12.5045 0.0000 33.0868 0.0000
# 6 0.0000 0.0000 0.0000 -5.1804 0.0000 12.6098
#
#
#
# Elastic Compliance Matrix: (Units=1/GPa)
#
#
# Indices 1 2 3 4 5 6 
#
# 1 0.016281 -0.008743 -0.001124 0.000000 0.002192 0.000000
# 2 -0.008743 0.025495 -0.007527 0.000000 -0.009332 0.000000
# 3 -0.001124 -0.007527 0.012276 0.000000 0.006445 0.000000
# 4 0.000000 0.000000 0.000000 0.036132 0.000000 0.014844
# 5 0.002192 -0.009332 0.006445 0.000000 0.035004 0.000000
# 6 0.000000 0.000000 0.000000 0.014844 0.000000 0.085402
#
#
# Mechanical properties :
#
#
# Convention : Reuss Voigt Hill
#
# Bulk Modulus (GPa) = 51.90983 53.88935 52.89959
# Shear Modulus (GPa) = 19.85699 25.58510 22.72105
#
# Velocity S-wave (km/s) = 3.07504 3.49050 3.28933
# Velocity P-wave (km/s) = 6.10959 6.47354 6.29420
#
# Compressibility (1/GPa) = 0.01926418
#
# Stress axis : x y z
#
# Youngs Moduli (GPa) = 61.42066 39.22322 81.45743
#
# Poissons Ratio (x) = 0.34291 0.09160
# Poissons Ratio (y) = 0.53698 0.61314
# Poissons Ratio (z) = 0.06906 0.29524
#
# Static dielectric constant tensor:
#      x y z
#    x 3.805080 0.000000 -0.270860 
#    y 0.000000 3.421720 0.000000 
#    z -0.270860 0.000000 4.876570 
# 
# 
# High freq. dielectric constant tensor:
#      x y z
#    x 1.825950 0.000000 0.001550 
#    y 0.000000 1.786490 0.000000 
#    z 0.001550 0.000000 1.843350 
# 
# From -- ./inp_files/163275.got.cif
#   From: 2010.06.25/outbox.cif.g09.slc.cpg/sg15_82_cif.got.tgz:163275.got - 2010.06.28 07:06:18.
