data_PCOD8142995
_publ_section_title
;
Structure prediction by ZEFSAII (Michael W. Deem and Ramdas Pophale) SiO2 
 PCOD8142995
Probable space group: C 2/C
;
_chemical_formula_sum "Si O2"
_cell_formula_units_Z 64
_cell_length_a 24.443760
_cell_length_b 9.246614
_cell_length_c 13.718961
_cell_angle_alpha 90.000000
_cell_angle_beta 86.479477
_cell_angle_gamma 90.000000
_cell_volume 3094.935590
_symmetry_space_group_name_H-M "C 2/C"
_symmetry_group_IT_number 15
_symmetry_cell_setting 'monoclinic'
loop_
_space_group_symop_operation_xyz
x,y,z
-x,y,1/2-z
-x,-y,-z
x,-y,1/2+z
1/2+x,1/2+y,z
1/2-x,1/2+y,1/2-z
1/2-x,1/2-y,-z
1/2+x,1/2-y,1/2+z
loop_
_atom_site_type_symbol
_atom_site_label
_atom_site_fract_x
_atom_site_fract_y
_atom_site_fract_z
Si Si1 0.385410 0.294659 0.628364
Si Si2 0.655308 0.608468 0.857777
Si Si3 0.883728 0.697834 0.313638
Si Si4 0.570147 0.665078 0.022454
Si Si5 0.272109 0.863628 0.421172
Si Si6 0.113887 0.357339 0.178767
Si Si7 0.039373 0.149138 0.561569
Si Si8 0.694635 0.833495 0.507153
O O1 0.365300 0.450088 0.668954
O O2 0.408210 0.214705 0.720501
O O3 0.433008 0.306100 0.543602
O O4 0.336355 0.197177 0.590406
O O5 0.636075 0.730274 0.784001
O O6 0.721294 0.598918 0.856105
O O7 0.629676 0.648347 0.965774
O O8 0.891911 0.527307 0.304107
O O9 0.940702 0.764434 0.345766
O O10 0.838788 0.734772 0.399835
O O11 0.574840 0.800124 0.095768
O O12 0.551589 0.519812 0.081514
O O13 0.524736 0.689495 0.942909
O O14 0.250000 0.750000 0.500000
O O15 0.322860 0.809884 0.349118
O O16 0.294826 0.997138 0.481866
O O17 0.750000 0.750000 0.500000
#
# Coordination Sequence:
#
# PCOD8142995 Si02
#       8
#     8   8   8   8   8   8   8   8
#     4  10  22  39  62  87 118 156 202 246 294 348
#     4  11  22  38  61  90 119 160 198 242 295 354
#     4  10  24  38  57  90 125 151 198 244 296 358
#     4  10  21  41  66  86 114 154 204 248 300 348
#     4  11  23  37  59  88 122 159 193 242 291 349
#     4  11  24  38  58  92 122 157 196 242 297 360
#     4   9  21  43  65  86 113 154 200 258 294 345
#     4  10  21  40  57  84 118 161 202 237 289 346
#
# _framework density 20.678944000000001
#
# number of rings (size 3 to 8) (size 9 to 14) (size 15 to 20)
#    0.000    1.750    2.500    0.750    3.500    3.500 
#    0.000    5.000    0.000    0.000    0.000    0.000 
#    0.000    0.000    0.000    0.000    0.000    0.000 
#
# Total GULP energy -396802.189461 kJ/mol
# GULP energy per Si atom -12400.068421 kJ/mol
# Density = 2.063188 g / cm^3
# Si number density = 20.678944 Si / 1000 Ang^3
#
#
#
# Elastic Constant Matrix: (Units=GPa)
#
#
# Indices 1 2 3 4 5 6 
#
# 1 69.2729 17.5646 3.5652 0.0000 17.5916 0.0000
# 2 17.5646 111.8863 47.5629 0.0000 15.1700 0.0000
# 3 3.5652 47.5629 72.3748 0.0000 18.8489 0.0000
# 4 0.0000 0.0000 0.0000 41.7334 0.0000 5.0026
# 5 17.5916 15.1700 18.8489 0.0000 26.2330 0.0000
# 6 0.0000 0.0000 0.0000 5.0026 0.0000 29.7267
#
#
#
# Elastic Compliance Matrix: (Units=1/GPa)
#
#
# Indices 1 2 3 4 5 6 
#
# 1 0.018534 -0.003013 0.004736 0.000000 -0.014089 0.000000
# 2 -0.003013 0.012948 -0.008534 0.000000 0.000664 0.000000
# 3 0.004736 -0.008534 0.023046 0.000000 -0.014800 0.000000
# 4 0.000000 0.000000 0.000000 0.024455 0.000000 -0.004115
# 5 -0.014089 0.000664 -0.014800 0.000000 0.057818 0.000000
# 6 0.000000 0.000000 0.000000 -0.004115 0.000000 0.034332
#
#
# Mechanical properties :
#
#
# Convention : Reuss Voigt Hill
#
# Bulk Modulus (GPa) = 24.44518 43.43550 33.94034
# Shear Modulus (GPa) = 25.20281 31.86137 28.53209
#
# Velocity S-wave (km/s) = 3.49487 3.92951 3.71855
# Velocity P-wave (km/s) = 5.30400 6.45278 5.90639
#
# Compressibility (1/GPa) = 0.04090787
#
# Stress axis : x y z
#
# Youngs Moduli (GPa) = 53.95571 77.23039 43.39069
#
# Poissons Ratio (x) = 0.23266 -0.20551
# Poissons Ratio (y) = 0.16255 0.37029
# Poissons Ratio (z) = -0.25554 0.65907
#
# Static dielectric constant tensor:
#      x y z
#    x 4.234920 0.000000 -0.390870 
#    y 0.000000 3.620460 0.000000 
#    z -0.390870 0.000000 4.428440 
# 
# 
# High freq. dielectric constant tensor:
#      x y z
#    x 1.812870 0.000000 0.005720 
#    y 0.000000 1.812110 0.000000 
#    z 0.005720 0.000000 1.799180 
# 
# From -- ./inp_files/176610.got.cif
#   From: 2010.06.25/outbox.cif.g09.slc.cpg/sg15_89_cif.got.tgz:176610.got - 2010.06.28 07:06:18.
