data_PCOD8143371
_publ_section_title
;
Structure prediction by ZEFSAII (Michael W. Deem and Ramdas Pophale) SiO2 
 PCOD8143371
Probable space group: C 2/C
;
_chemical_formula_sum "Si O2"
_cell_formula_units_Z 40
_cell_length_a 29.586452
_cell_length_b 10.269726
_cell_length_c 19.004146
_cell_angle_alpha 90.000000
_cell_angle_beta 159.918426
_cell_angle_gamma 90.000000
_cell_volume 1982.653656
_symmetry_space_group_name_H-M "C 2/C"
_symmetry_group_IT_number 15
_symmetry_cell_setting 'monoclinic'
loop_
_space_group_symop_operation_xyz
x,y,z
-x,y,1/2-z
-x,-y,-z
x,-y,1/2+z
1/2+x,1/2+y,z
1/2-x,1/2+y,1/2-z
1/2-x,1/2-y,-z
1/2+x,1/2-y,1/2+z
loop_
_atom_site_type_symbol
_atom_site_label
_atom_site_fract_x
_atom_site_fract_y
_atom_site_fract_z
Si Si1 0.445854 0.298339 0.741024
Si Si2 0.320878 0.308359 0.319317
Si Si3 0.375020 0.614167 0.397308
Si Si4 0.262775 0.600546 0.087466
Si Si5 0.827534 0.172082 0.672328
O O1 0.500000 0.373007 0.750000
O O2 0.333084 0.379941 0.614886
O O3 0.377718 0.168116 0.611859
O O4 0.558907 0.253808 0.959337
O O5 0.318098 0.466944 0.327702
O O6 0.192735 0.230695 0.158401
O O7 0.341514 0.259870 0.268976
O O8 0.360071 0.645865 0.292568
O O9 0.529037 0.620915 0.643432
O O10 0.232146 0.448850 0.048625
O O11 0.750000 0.250000 0.500000
#
# Coordination Sequence:
#
# PCOD8143371 Si02
#       5
#     8   8   8   8   8
#     4  11  20  36  67  96 117 158 217 255 302 368
#     4  11  23  42  67  93 125 166 211 258 312 375
#     4  11  22  44  65  91 129 169 204 258 318 371
#     4  10  21  40  66  88 127 168 203 252 320 374
#     4  11  24  44  61  87 131 170 202 259 321 367
#
# _framework density 20.174982
#
# number of rings (size 3 to 8) (size 9 to 14) (size 15 to 20)
#    0.000    1.200    6.000    1.200    0.000    4.000 
#    0.000    2.000    0.000    0.000    0.000    0.000 
#    0.000    0.000    0.000    0.000    0.000    0.000 
#
# Total GULP energy -247792.920694 kJ/mol
# GULP energy per Si atom -12389.646035 kJ/mol
# Density = 2.012906 g / cm^3
# Si number density = 20.174982 Si / 1000 Ang^3
#
#
#
# Elastic Constant Matrix: (Units=GPa)
#
#
# Indices 1 2 3 4 5 6 
#
# 1 115.7819 36.6660 35.5217 0.0000 -16.2472 0.0000
# 2 36.6660 87.8808 53.9657 0.0000 -0.4434 0.0000
# 3 35.5217 53.9657 118.3539 0.0000 -25.1438 0.0000
# 4 0.0000 0.0000 0.0000 30.9413 0.0000 -0.9942
# 5 -16.2472 -0.4434 -25.1438 0.0000 35.6851 0.0000
# 6 0.0000 0.0000 0.0000 -0.9942 0.0000 28.7112
#
#
#
# Elastic Compliance Matrix: (Units=1/GPa)
#
#
# Indices 1 2 3 4 5 6 
#
# 1 0.010729 -0.004277 -0.000286 0.000000 0.004630 0.000000
# 2 -0.004277 0.018577 -0.008881 0.000000 -0.007974 0.000000
# 3 -0.000286 -0.008881 0.014740 0.000000 0.010145 0.000000
# 4 0.000000 0.000000 0.000000 0.032355 0.000000 0.001120
# 5 0.004630 -0.007974 0.010145 0.000000 0.037180 0.000000
# 6 0.000000 0.000000 0.000000 0.001120 0.000000 0.034868
#
#
# Mechanical properties :
#
#
# Convention : Reuss Voigt Hill
#
# Bulk Modulus (GPa) = 58.28473 63.81372 61.04922
# Shear Modulus (GPa) = 27.61560 32.12505 29.87033
#
# Velocity S-wave (km/s) = 3.70375 3.99472 3.85198
# Velocity P-wave (km/s) = 6.87333 7.27845 7.07879
#
# Compressibility (1/GPa) = 0.01715715
#
# Stress axis : x y z
#
# Youngs Moduli (GPa) = 93.20552 53.83021 67.84369
#
# Poissons Ratio (x) = 0.23025 0.01941
# Poissons Ratio (y) = 0.39867 0.60251
# Poissons Ratio (z) = 0.02667 0.47806
#
# Static dielectric constant tensor:
#      x y z
#    x 3.831440 0.000000 -0.163800 
#    y 0.000000 3.589230 0.000000 
#    z -0.163800 0.000000 3.740180 
# 
# 
# High freq. dielectric constant tensor:
#      x y z
#    x 1.796240 0.000000 -0.010440 
#    y 0.000000 1.765370 0.000000 
#    z -0.010440 0.000000 1.792670 
# 
# From -- ./inp_files/126526.got.cif
#   From: 2010.06.25/outbox.cif.g09.slc.cpg/sg15_64_cif.got.tgz:126526.got - 2010.06.28 07:06:18.
