data_PCOD8143310
_publ_section_title
;
Structure prediction by ZEFSAII (Michael W. Deem and Ramdas Pophale) SiO2 
 PCOD8143310
Probable space group: C 2/C
;
_chemical_formula_sum "Si O2"
_cell_formula_units_Z 56
_cell_length_a 28.222979
_cell_length_b 8.657981
_cell_length_c 18.943457
_cell_angle_alpha 90.000000
_cell_angle_beta 34.638438
_cell_angle_gamma 90.000000
_cell_volume 2631.053045
_symmetry_space_group_name_H-M "C 2/C"
_symmetry_group_IT_number 15
_symmetry_cell_setting 'monoclinic'
loop_
_space_group_symop_operation_xyz
x,y,z
-x,y,1/2-z
-x,-y,-z
x,-y,1/2+z
1/2+x,1/2+y,z
1/2-x,1/2+y,1/2-z
1/2-x,1/2-y,-z
1/2+x,1/2-y,1/2+z
loop_
_atom_site_type_symbol
_atom_site_label
_atom_site_fract_x
_atom_site_fract_y
_atom_site_fract_z
Si Si1 0.779378 0.931664 0.253833
Si Si2 0.665199 0.843147 0.715679
Si Si3 0.049940 0.170853 0.753486
Si Si4 0.555274 0.406734 0.986549
Si Si5 0.861730 0.355862 0.180305
Si Si6 0.692219 0.534101 0.026924
Si Si7 0.252349 0.834433 0.595026
O O1 0.822290 0.804753 0.250784
O O2 0.718810 0.855660 0.272035
O O3 0.852170 0.021854 0.122716
O O4 0.724907 0.049919 0.368851
O O5 0.609611 0.796725 0.716521
O O6 0.615005 0.972785 0.822106
O O7 0.754516 0.909234 0.582531
O O8 0.000000 0.251327 0.750000
O O9 0.102201 0.031810 0.654982
O O10 0.985790 0.092782 0.886496
O O11 0.561335 0.227169 0.953365
O O12 0.500000 0.500000 0.000000
O O13 0.836236 0.248966 0.278596
O O14 0.743830 0.565836 0.034952
O O15 0.680603 0.695582 0.998055
#
# Coordination Sequence:
#
# PCOD8143310 Si02
#       7
#     8   8   8   8   8   8   8
#     4  11  21  40  68 103 121 170 227 285 328 400
#     4  11  22  41  67  98 131 170 224 284 332 392
#     4  12  26  39  62  97 139 179 216 265 347 404
#     4  11  23  46  68  91 136 177 223 279 345 399
#     4  10  23  38  70  97 126 168 231 279 332 398
#     4  10  21  40  65  90 126 174 219 269 326 403
#     4   9  19  37  64  91 122 162 220 266 325 385
#
# _framework density 21.284251999999999
#
# number of rings (size 3 to 8) (size 9 to 14) (size 15 to 20)
#    0.000    1.429    2.857    3.000    6.000    0.571 
#    0.000    0.000    0.000    6.000    0.000    0.000 
#    0.000    0.000    0.000    0.000    0.000    0.000 
#
# Total GULP energy -347155.567282 kJ/mol
# GULP energy per Si atom -12398.413117 kJ/mol
# Density = 2.123581 g / cm^3
# Si number density = 21.284252 Si / 1000 Ang^3
#
#
#
# Elastic Constant Matrix: (Units=GPa)
#
#
# Indices 1 2 3 4 5 6 
#
# 1 101.5000 37.2310 26.8289 0.0082 1.0538 0.0015
# 2 37.2310 118.9984 50.4321 0.0344 2.2300 0.0043
# 3 26.8289 50.4321 115.6982 0.0449 14.9846 0.0184
# 4 0.0082 0.0344 0.0449 31.1633 0.0156 5.7978
# 5 1.0538 2.2300 14.9846 0.0156 24.4595 -0.0054
# 6 0.0015 0.0043 0.0184 5.7978 -0.0054 26.1644
#
#
#
# Elastic Compliance Matrix: (Units=1/GPa)
#
#
# Indices 1 2 3 4 5 6 
#
# 1 0.011302 -0.002946 -0.001421 0.000002 0.000652 0.000001
# 2 -0.002946 0.011164 -0.004418 -0.000007 0.001816 0.000003
# 3 -0.001421 -0.004418 0.011773 -0.000007 -0.006748 -0.000007
# 4 0.000002 -0.000007 -0.000007 0.033469 -0.000018 -0.007416
# 5 0.000652 0.001816 -0.006748 -0.000018 0.044824 0.000018
# 6 0.000001 0.000003 -0.000007 -0.007416 0.000018 0.039863
#
#
# Mechanical properties :
#
#
# Convention : Reuss Voigt Hill
#
# Bulk Modulus (GPa) = 59.99721 62.79782 61.39751
# Shear Modulus (GPa) = 28.48669 31.13776 29.81222
#
# Velocity S-wave (km/s) = 3.66237 3.82900 3.74661
# Velocity P-wave (km/s) = 6.79218 7.00833 6.90110
#
# Compressibility (1/GPa) = 0.01666744
#
# Stress axis : x y z
#
# Youngs Moduli (GPa) = 88.48266 89.57700 84.94325
#
# Poissons Ratio (x) = 0.26389 0.12071
# Poissons Ratio (y) = 0.26066 0.37530
# Poissons Ratio (z) = 0.12574 0.39577
#
# Static dielectric constant tensor:
#      x y z
#    x 3.729550 -0.000090 0.372720 
#    y -0.000090 4.106260 -0.000070 
#    z 0.372720 -0.000070 3.959150 
# 
# 
# High freq. dielectric constant tensor:
#      x y z
#    x 1.822490 0.000000 0.031060 
#    y 0.000000 1.845250 0.000000 
#    z 0.031060 0.000000 1.827140 
# 
# From -- ./inp_files/258981.got.cif
#   From: 2010.06.25/outbox.cif.g09.slc.cpg/sg15_130_cif.got.tgz:258981.got - 2010.06.28 07:06:18.
