data_PCOD8143555
_publ_section_title
;
Structure prediction by ZEFSAII (Michael W. Deem and Ramdas Pophale) SiO2 
 PCOD8143555
Probable space group: C 2/C
;
_chemical_formula_sum "Si O2"
_cell_formula_units_Z 64
_cell_length_a 24.540771
_cell_length_b 8.577278
_cell_length_c 13.959776
_cell_angle_alpha 90.000000
_cell_angle_beta 88.584450
_cell_angle_gamma 90.000000
_cell_volume 2937.538596
_symmetry_space_group_name_H-M "C 2/C"
_symmetry_group_IT_number 15
_symmetry_cell_setting 'monoclinic'
loop_
_space_group_symop_operation_xyz
x,y,z
-x,y,1/2-z
-x,-y,-z
x,-y,1/2+z
1/2+x,1/2+y,z
1/2-x,1/2+y,1/2-z
1/2-x,1/2-y,-z
1/2+x,1/2-y,1/2+z
loop_
_atom_site_type_symbol
_atom_site_label
_atom_site_fract_x
_atom_site_fract_y
_atom_site_fract_z
Si Si1 0.328309 0.071504 0.753148
Si Si2 0.558312 0.559924 0.362816
Si Si3 0.393629 0.860790 0.064453
Si Si4 0.111235 0.639720 0.557684
Si Si5 0.776664 0.240803 0.756768
Si Si6 0.335997 0.366277 0.439447
Si Si7 0.160328 0.873584 0.425497
Si Si8 0.064135 0.942935 0.641492
O O1 0.370705 0.071579 0.664644
O O2 0.360815 0.065650 0.850579
O O3 0.288624 0.222053 0.750670
O O4 0.289894 0.921362 0.747379
O O5 0.562101 0.727447 0.415315
O O6 0.598748 0.434727 0.407783
O O7 0.496930 0.495466 0.376190
O O8 0.574858 0.586003 0.252491
O O9 0.344806 0.787676 0.002958
O O10 0.419327 0.002228 0.000430
O O11 0.156906 0.711784 0.484091
O O12 0.070165 0.776202 0.589526
O O13 0.794462 0.169925 0.857157
O O14 0.806348 0.143677 0.672526
O O15 0.309472 0.499412 0.508349
O O16 0.394253 0.426828 0.396967
#
# Coordination Sequence:
#
# PCOD8143555 Si02
#       8
#     8   8   8   8   8   8   8   8
#     4  12  28  42  66  93 129 169 221 266 332 369
#     4  10  21  40  70  99 129 168 213 261 320 384
#     4  11  23  43  63  93 132 169 210 266 316 387
#     4  11  23  43  63  93 132 169 210 266 316 387
#     4  12  26  44  64  93 129 169 217 274 318 385
#     4  10  23  40  67  92 131 165 211 259 324 378
#     4  10  23  40  67  92 131 165 211 259 324 378
#     4  10  21  40  70  99 129 168 213 261 320 384
#
# _framework density 21.786947999999999
#
# number of rings (size 3 to 8) (size 9 to 14) (size 15 to 20)
#    0.000    1.250    5.000    0.000    7.000    7.000 
#    0.000    0.000    0.000    4.500    0.000    0.000 
#    0.000    0.000    0.000    0.000    0.000    0.000 
#
# Total GULP energy -396814.668316 kJ/mol
# GULP energy per Si atom -12400.458385 kJ/mol
# Density = 2.173736 g / cm^3
# Si number density = 21.786948 Si / 1000 Ang^3
#
#
#
# Elastic Constant Matrix: (Units=GPa)
#
#
# Indices 1 2 3 4 5 6 
#
# 1 51.0478 -6.0228 10.7140 0.0000 3.3878 0.0000
# 2 -6.0228 69.6263 24.4300 0.0000 -0.7492 0.0000
# 3 10.7140 24.4300 118.1217 0.0000 21.2662 0.0000
# 4 0.0000 0.0000 0.0000 38.8009 0.0000 1.2960
# 5 3.3878 -0.7492 21.2662 0.0000 10.7692 0.0000
# 6 0.0000 0.0000 0.0000 1.2960 0.0000 23.7497
#
#
#
# Elastic Compliance Matrix: (Units=1/GPa)
#
#
# Indices 1 2 3 4 5 6 
#
# 1 0.020439 0.002408 -0.001900 0.000000 -0.002511 0.000000
# 2 0.002408 0.016743 -0.005826 0.000000 0.011912 0.000000
# 3 -0.001900 -0.005826 0.015219 0.000000 -0.029861 0.000000
# 4 0.000000 0.000000 0.000000 0.025820 0.000000 -0.001409
# 5 -0.002511 0.011912 -0.029861 0.000000 0.153444 0.000000
# 6 0.000000 0.000000 0.000000 -0.001409 0.000000 0.042183
#
#
# Mechanical properties :
#
#
# Convention : Reuss Voigt Hill
#
# Bulk Modulus (GPa) = 23.94341 33.00425 28.47383
# Shear Modulus (GPa) = 16.75574 28.64226 22.69900
#
# Velocity S-wave (km/s) = 2.77622 3.62975 3.23129
# Velocity P-wave (km/s) = 4.61413 5.72261 5.19800
#
# Compressibility (1/GPa) = 0.04176514
#
# Stress axis : x y z
#
# Youngs Moduli (GPa) = 48.92637 59.72690 65.70660
#
# Poissons Ratio (x) = -0.14380 0.12483
# Poissons Ratio (y) = -0.11779 0.38278
# Poissons Ratio (z) = 0.09295 0.34795
#
# Static dielectric constant tensor:
#      x y z
#    x 3.454760 0.000000 0.023800 
#    y 0.000000 3.939640 0.000000 
#    z 0.023800 0.000000 4.357250 
# 
# 
# High freq. dielectric constant tensor:
#      x y z
#    x 1.820000 0.000000 0.002500 
#    y 0.000000 1.857240 0.000000 
#    z 0.002500 0.000000 1.890180 
# 
# From -- ./inp_files/172404.got.cif
#   From: 2010.06.25/outbox.cif.g09.slc.cpg/sg15_87_cif.got.tgz:172404.got - 2010.06.28 07:06:18.
