data_PCOD8143586
_publ_section_title
;
Structure prediction by ZEFSAII (Michael W. Deem and Ramdas Pophale) SiO2 
 PCOD8143586
Probable space group: C 2/C
;
_chemical_formula_sum "Si O2"
_cell_formula_units_Z 48
_cell_length_a 18.730223
_cell_length_b 12.780543
_cell_length_c 14.553434
_cell_angle_alpha 90.000000
_cell_angle_beta 43.000563
_cell_angle_gamma 90.000000
_cell_volume 2375.995650
_symmetry_space_group_name_H-M "C 2/C"
_symmetry_group_IT_number 15
_symmetry_cell_setting 'monoclinic'
loop_
_space_group_symop_operation_xyz
x,y,z
-x,y,1/2-z
-x,-y,-z
x,-y,1/2+z
1/2+x,1/2+y,z
1/2-x,1/2+y,1/2-z
1/2-x,1/2-y,-z
1/2+x,1/2-y,1/2+z
loop_
_atom_site_type_symbol
_atom_site_label
_atom_site_fract_x
_atom_site_fract_y
_atom_site_fract_z
Si Si1 0.203048 0.317121 0.624773
Si Si2 0.805792 0.388706 0.603318
Si Si3 0.631119 0.683495 0.385361
Si Si4 0.896281 0.199913 0.619784
Si Si5 0.309255 0.091481 0.713080
Si Si6 0.879406 0.464420 0.345457
O O1 0.250000 0.250000 0.500000
O O2 0.297943 0.362589 0.598295
O O3 0.124299 0.246699 0.759434
O O4 0.139696 0.411893 0.639886
O O5 0.685122 0.358487 0.740744
O O6 0.881387 0.292079 0.558791
O O7 0.845221 0.488460 0.624980
O O8 0.811229 0.412660 0.490674
O O9 0.511149 0.648822 0.505812
O O10 0.636095 0.809495 0.386947
O O11 0.816613 0.104970 0.674050
O O12 0.345741 0.089966 0.783393
O O13 0.000000 0.441258 0.250000
#
# Coordination Sequence:
#
# PCOD8143586 Si02
#       6
#     8   8   8   8   8   8
#     4  10  22  37  56  96 123 153 211 263 302 363
#     4  10  22  41  58  93 124 156 207 256 300 363
#     4  10  22  40  62  85 125 165 201 252 310 362
#     4  10  22  39  65  85 120 173 198 249 314 365
#     4  10  21  41  59  89 125 154 208 255 294 369
#     4  12  23  36  65  91 118 163 204 254 308 366
#
# _framework density 20.202057
#
# number of rings (size 3 to 8) (size 9 to 14) (size 15 to 20)
#    0.000    2.000    3.333    3.000    4.667    4.667 
#    0.000    2.500    0.000    0.000    0.000    0.000 
#    0.000    0.000    0.000    0.000    0.000    0.000 
#
# Total GULP energy -297625.648206 kJ/mol
# GULP energy per Si atom -12401.068675 kJ/mol
# Density = 2.015608 g / cm^3
# Si number density = 20.202057 Si / 1000 Ang^3
#
#
#
# Elastic Constant Matrix: (Units=GPa)
#
#
# Indices 1 2 3 4 5 6 
#
# 1 69.2010 -4.9885 41.3066 0.0000 -11.4692 0.0000
# 2 -4.9885 40.7311 -4.0889 0.0000 5.3783 0.0000
# 3 41.3066 -4.0889 87.3795 0.0000 -9.5947 0.0000
# 4 0.0000 0.0000 0.0000 25.7351 0.0000 5.0599
# 5 -11.4692 5.3783 -9.5947 0.0000 46.0320 0.0000
# 6 0.0000 0.0000 0.0000 5.0599 0.0000 34.6394
#
#
#
# Elastic Compliance Matrix: (Units=1/GPa)
#
#
# Indices 1 2 3 4 5 6 
#
# 1 0.020630 0.001184 -0.009362 0.000000 0.003050 0.000000
# 2 0.001184 0.025068 0.000332 0.000000 -0.002565 0.000000
# 3 -0.009362 0.000332 0.015991 0.000000 0.000962 0.000000
# 4 0.000000 0.000000 0.000000 0.040006 0.000000 -0.005844
# 5 0.003050 -0.002565 0.000962 0.000000 0.022984 0.000000
# 6 0.000000 0.000000 0.000000 -0.005844 0.000000 0.029723
#
#
# Mechanical properties :
#
#
# Convention : Reuss Voigt Hill
#
# Bulk Modulus (GPa) = 21.74066 29.08556 25.41311
# Shear Modulus (GPa) = 26.96482 32.28677 29.62579
#
# Velocity S-wave (km/s) = 3.65739 4.00208 3.83361
# Velocity P-wave (km/s) = 5.34980 5.98198 5.67470
#
# Compressibility (1/GPa) = 0.04599676
#
# Stress axis : x y z
#
# Youngs Moduli (GPa) = 48.47371 39.89106 62.53497
#
# Poissons Ratio (x) = -0.04723 0.58544
# Poissons Ratio (y) = -0.05739 -0.02074
# Poissons Ratio (z) = 0.45380 -0.01323
#
# Static dielectric constant tensor:
#      x y z
#    x 3.620320 0.000000 0.079090 
#    y 0.000000 3.679560 0.000000 
#    z 0.079090 0.000000 3.682490 
# 
# 
# High freq. dielectric constant tensor:
#      x y z
#    x 1.779350 0.000000 0.003620 
#    y 0.000000 1.788440 0.000000 
#    z 0.003620 0.000000 1.787030 
# 
# From -- ./inp_files/167840.got.cif
#   From: 2010.06.25/outbox.cif.g09.slc.cpg/sg15_84_cif.got.tgz:167840.got - 2010.06.28 07:06:18.
