data_PCOD8143954
_publ_section_title
;
Structure prediction by ZEFSAII (Michael W. Deem and Ramdas Pophale) SiO2 
 PCOD8143954
Probable space group: C 2/C
;
_chemical_formula_sum "Si O2"
_cell_formula_units_Z 52
_cell_length_a 15.088212
_cell_length_b 12.846927
_cell_length_c 18.446868
_cell_angle_alpha 90.000000
_cell_angle_beta 134.296688
_cell_angle_gamma 90.000000
_cell_volume 2559.238609
_symmetry_space_group_name_H-M "C 2/C"
_symmetry_group_IT_number 15
_symmetry_cell_setting 'monoclinic'
loop_
_space_group_symop_operation_xyz
x,y,z
-x,y,1/2-z
-x,-y,-z
x,-y,1/2+z
1/2+x,1/2+y,z
1/2-x,1/2+y,1/2-z
1/2-x,1/2-y,-z
1/2+x,1/2-y,1/2+z
loop_
_atom_site_type_symbol
_atom_site_label
_atom_site_fract_x
_atom_site_fract_y
_atom_site_fract_z
Si Si1 0.409187 0.573852 0.494191
Si Si2 0.859604 0.536975 0.402775
Si Si3 0.619610 0.492456 0.860918
Si Si4 0.500000 0.889055 0.250000
Si Si5 0.599999 0.280192 0.069739
Si Si6 0.721549 0.030264 0.800176
Si Si7 0.892245 0.224352 0.087865
O O1 0.500000 0.500000 0.500000
O O2 0.372870 0.537368 0.553871
O O3 0.473348 0.687634 0.539837
O O4 0.290442 0.570210 0.373863
O O5 0.755356 0.495673 0.400385
O O6 0.858100 0.661972 0.394529
O O7 0.816458 0.488874 0.303224
O O8 0.000000 0.500000 0.500000
O O9 0.500000 0.542290 0.750000
O O10 0.588301 0.370926 0.847076
O O11 0.393061 0.965382 0.212096
O O12 0.465916 0.821986 0.160319
O O13 0.708952 0.358208 0.156115
O O14 0.558921 0.301228 0.963780
O O15 0.750000 0.250000 0.000000
#
# Coordination Sequence:
#
# PCOD8143954 Si02
#       7
#     8   8   8   4   8   8   8
#     4  10  21  41  67  95 132 175 220 274 342 417
#     4  12  28  43  65 101 141 180 231 289 337 408
#     4  12  22  40  68 100 137 175 228 278 344 414
#     4  12  22  36  66 100 130 166 214 294 346 394
#     4  11  23  43  66  99 135 172 224 280 349 406
#     4  11  24  40  67  94 133 175 224 275 352 404
#     4  12  20  35  63 102 129 158 213 290 350 395
#
# _framework density 20.318542999999998
#
# number of rings (size 3 to 8) (size 9 to 14) (size 15 to 20)
#    0.000    0.615    6.923    2.769    2.154    1.231 
#    0.000    0.769    5.077    0.000    0.000    0.000 
#    0.000    0.000    0.000    0.000    0.000    0.000 
#
# Total GULP energy -322107.607916 kJ/mol
# GULP energy per Si atom -12388.754151 kJ/mol
# Density = 2.027230 g / cm^3
# Si number density = 20.318543 Si / 1000 Ang^3
#
#
#
# Elastic Constant Matrix: (Units=GPa)
#
#
# Indices 1 2 3 4 5 6 
#
# 1 151.0405 48.9685 72.7190 0.0000 4.7328 0.0000
# 2 48.9685 62.3697 28.7647 0.0000 3.2969 0.0000
# 3 72.7190 28.7647 137.9109 0.0000 -6.2465 0.0000
# 4 0.0000 0.0000 0.0000 27.3444 0.0000 3.5346
# 5 4.7328 3.2969 -6.2465 0.0000 41.1991 0.0000
# 6 0.0000 0.0000 0.0000 3.5346 0.0000 29.6271
#
#
#
# Elastic Compliance Matrix: (Units=1/GPa)
#
#
# Indices 1 2 3 4 5 6 
#
# 1 0.010900 -0.006420 -0.004472 0.000000 -0.001416 0.000000
# 2 -0.006420 0.021686 -0.001191 0.000000 -0.001178 0.000000
# 3 -0.004472 -0.001191 0.009954 0.000000 0.002118 0.000000
# 4 0.000000 0.000000 0.000000 0.037143 0.000000 -0.004431
# 5 -0.001416 -0.001178 0.002118 0.000000 0.024851 0.000000
# 6 0.000000 0.000000 0.000000 -0.004431 0.000000 0.034282
#
#
# Mechanical properties :
#
#
# Convention : Reuss Voigt Hill
#
# Bulk Modulus (GPa) = 54.43153 72.46947 63.45050
# Shear Modulus (GPa) = 29.56712 33.02538 31.29625
#
# Velocity S-wave (km/s) = 3.81882 4.03598 3.92890
# Velocity P-wave (km/s) = 6.80380 7.58043 7.20259
#
# Compressibility (1/GPa) = 0.01837170
#
# Stress axis : x y z
#
# Youngs Moduli (GPa) = 91.74373 46.11298 100.46493
#
# Poissons Ratio (x) = 0.29606 0.44933
# Poissons Ratio (y) = 0.58902 0.11967
# Poissons Ratio (z) = 0.41032 0.05493
#
# Static dielectric constant tensor:
#      x y z
#    x 4.062840 0.000000 0.182460 
#    y 0.000000 3.920860 0.000000 
#    z 0.182460 0.000000 3.822450 
# 
# 
# High freq. dielectric constant tensor:
#      x y z
#    x 1.802260 0.000000 0.001420 
#    y 0.000000 1.764150 0.000000 
#    z 0.001420 0.000000 1.812850 
# 
# From -- ./inp_files/205760.got.cif
#   From: 2010.06.25/outbox.cif.g09.slc.cpg/sg15_103_cif.got.tgz:205760.got - 2010.06.28 07:06:18.
