data_PCOD8143270
_publ_section_title
;
Structure prediction by ZEFSAII (Michael W. Deem and Ramdas Pophale) SiO2 
 PCOD8143270
Probable space group: C 2/C
;
_chemical_formula_sum "Si O2"
_cell_formula_units_Z 48
_cell_length_a 19.743335
_cell_length_b 17.375710
_cell_length_c 9.904736
_cell_angle_alpha 90.000000
_cell_angle_beta 140.662537
_cell_angle_gamma 90.000000
_cell_volume 2153.860780
_symmetry_space_group_name_H-M "C 2/C"
_symmetry_group_IT_number 15
_symmetry_cell_setting 'monoclinic'
loop_
_space_group_symop_operation_xyz
x,y,z
-x,y,1/2-z
-x,-y,-z
x,-y,1/2+z
1/2+x,1/2+y,z
1/2-x,1/2+y,1/2-z
1/2-x,1/2-y,-z
1/2+x,1/2-y,1/2+z
loop_
_atom_site_type_symbol
_atom_site_label
_atom_site_fract_x
_atom_site_fract_y
_atom_site_fract_z
Si Si1 0.616044 0.538476 0.471468
Si Si2 0.743790 0.491272 0.906881
Si Si3 0.116931 0.653051 0.896542
Si Si4 0.627007 0.702884 0.603734
Si Si5 0.027703 0.295323 0.993263
Si Si6 0.338247 0.153997 0.048657
O O1 0.500000 0.509215 0.250000
O O2 0.641202 0.498857 0.652766
O O3 0.704679 0.511415 0.500453
O O4 0.618904 0.630302 0.492780
O O5 0.798964 0.413096 0.946577
O O6 0.824913 0.562552 0.005681
O O7 0.000000 0.621596 0.750000
O O8 0.111799 0.669989 0.728776
O O9 0.148488 0.726242 0.035539
O O10 0.514033 0.712859 0.511749
O O11 0.720955 0.693221 0.861529
O O12 0.908983 0.336905 0.794558
O O13 0.091861 0.299427 0.954071
#
# Coordination Sequence:
#
# PCOD8143270 Si02
#       6
#     8   8   8   8   8   8
#     4  11  24  45  68  93 136 177 230 276 336 399
#     4  11  25  41  68 102 133 184 217 286 336 401
#     4  10  22  37  65  98 129 174 225 271 337 395
#     4  10  22  42  67  92 133 177 224 280 321 401
#     4  10  21  40  64  97 129 179 216 273 333 390
#     4  10  23  40  65  96 139 168 222 274 342 394
#
# _framework density 22.285564000000001
#
# number of rings (size 3 to 8) (size 9 to 14) (size 15 to 20)
#    0.000    1.667    0.000    4.500    7.000    4.667 
#    0.000    0.000    0.000    0.000    0.000    0.000 
#    0.000    0.000    0.000    0.000    0.000    0.000 
#
# Total GULP energy -297359.400585 kJ/mol
# GULP energy per Si atom -12389.975024 kJ/mol
# Density = 2.223484 g / cm^3
# Si number density = 22.285564 Si / 1000 Ang^3
#
#
#
# Elastic Constant Matrix: (Units=GPa)
#
#
# Indices 1 2 3 4 5 6 
#
# 1 81.4466 37.1290 -4.1415 0.0000 -2.4974 0.0000
# 2 37.1290 99.8860 51.3967 0.0000 -1.7153 0.0000
# 3 -4.1415 51.3967 111.4721 0.0000 -6.2191 0.0000
# 4 0.0000 0.0000 0.0000 26.7838 0.0000 1.6650
# 5 -2.4974 -1.7153 -6.2191 0.0000 34.1769 0.0000
# 6 0.0000 0.0000 0.0000 1.6650 0.0000 26.9303
#
#
#
# Elastic Compliance Matrix: (Units=1/GPa)
#
#
# Indices 1 2 3 4 5 6 
#
# 1 0.016403 -0.008429 0.004586 0.000000 0.001610 0.000000
# 2 -0.008429 0.017464 -0.008436 0.000000 -0.001275 0.000000
# 3 0.004586 -0.008436 0.013160 0.000000 0.002306 0.000000
# 4 0.000000 0.000000 0.000000 0.037480 0.000000 -0.002317
# 5 0.001610 -0.001275 0.002306 0.000000 0.029733 0.000000
# 6 0.000000 0.000000 0.000000 -0.002317 0.000000 0.037276
#
#
# Mechanical properties :
#
#
# Convention : Reuss Voigt Hill
#
# Bulk Modulus (GPa) = 44.50992 51.28589 47.89790
# Shear Modulus (GPa) = 27.23841 31.47291 29.35566
#
# Velocity S-wave (km/s) = 3.49985 3.76208 3.63333
# Velocity P-wave (km/s) = 6.02892 6.47564 6.25627
#
# Compressibility (1/GPa) = 0.02246690
#
# Stress axis : x y z
#
# Youngs Moduli (GPa) = 60.96383 57.26148 75.98976
#
# Poissons Ratio (x) = 0.48267 -0.34847
# Poissons Ratio (y) = 0.51388 0.64108
# Poissons Ratio (z) = -0.27956 0.48308
#
# Static dielectric constant tensor:
#      x y z
#    x 3.929960 0.000000 -0.132350 
#    y 0.000000 3.828990 0.000000 
#    z -0.132350 0.000000 4.625220 
# 
# 
# High freq. dielectric constant tensor:
#      x y z
#    x 1.869160 0.000000 -0.009360 
#    y 0.000000 1.858780 0.000000 
#    z -0.009360 0.000000 1.905270 
# 
# From -- ./inp_files/112993.got.cif
#   From: 2010.06.25/outbox.cif.g09.slc.cpg/sg15_57_cif.got.tgz:112993.got - 2010.06.28 07:06:18.
