data_PCOD8143781
_publ_section_title
;
Structure prediction by ZEFSAII (Michael W. Deem and Ramdas Pophale) SiO2 
 PCOD8143781
Probable space group: C 2/C
;
_chemical_formula_sum "Si O2"
_cell_formula_units_Z 56
_cell_length_a 13.895461
_cell_length_b 12.466713
_cell_length_c 28.691373
_cell_angle_alpha 90.000000
_cell_angle_beta 29.488769
_cell_angle_gamma 90.000000
_cell_volume 2446.609040
_symmetry_space_group_name_H-M "C 2/C"
_symmetry_group_IT_number 15
_symmetry_cell_setting 'monoclinic'
loop_
_space_group_symop_operation_xyz
x,y,z
-x,y,1/2-z
-x,-y,-z
x,-y,1/2+z
1/2+x,1/2+y,z
1/2-x,1/2+y,1/2-z
1/2-x,1/2-y,-z
1/2+x,1/2-y,1/2+z
loop_
_atom_site_type_symbol
_atom_site_label
_atom_site_fract_x
_atom_site_fract_y
_atom_site_fract_z
Si Si1 0.167292 0.673748 0.216150
Si Si2 0.644010 0.864625 0.123677
Si Si3 0.923638 0.867915 0.186362
Si Si4 0.461951 0.963209 0.112763
Si Si5 0.015573 0.281787 0.021115
Si Si6 0.260170 0.931906 0.322142
Si Si7 0.661942 0.169120 0.998773
O O1 0.129983 0.744482 0.278250
O O2 0.381721 0.699633 0.106458
O O3 0.163082 0.547489 0.229135
O O4 0.000000 0.706447 0.250000
O O5 0.618390 0.921887 0.084900
O O6 0.430945 0.847178 0.235957
O O7 0.771844 0.933630 0.108404
O O8 0.758922 0.753739 0.067795
O O9 0.766104 0.947699 0.276558
O O10 0.922947 0.888591 0.130349
O O11 0.149565 0.891007 0.104653
O O12 0.495548 0.901327 0.049865
O O13 0.508418 0.087575 0.086356
O O14 0.955812 0.271956 0.992378
O O15 0.750000 0.250000 0.000000
#
# Coordination Sequence:
#
# PCOD8143781 Si02
#       7
#     8   8   8   8   8   8   8
#     4  11  21  41  68  91 128 177 215 277 336 401
#     4  10  21  41  64  95 128 171 220 277 326 397
#     4  10  24  43  64  97 136 174 219 274 343 398
#     4  10  25  45  67  96 136 181 222 272 343 409
#     4  11  24  42  67  96 137 170 225 274 341 403
#     4  10  22  41  65  95 134 169 223 278 335 395
#     4  12  26  42  70 103 135 175 232 282 331 404
#
# _framework density 22.888822999999999
#
# number of rings (size 3 to 8) (size 9 to 14) (size 15 to 20)
#    0.000    1.429    2.857    1.714    8.000    0.571 
#    0.000    1.429    0.000    0.000    0.000    0.000 
#    0.000    0.000    0.000    0.000    0.000    0.000 
#
# Total GULP energy -346971.360706 kJ/mol
# GULP energy per Si atom -12391.834311 kJ/mol
# Density = 2.283673 g / cm^3
# Si number density = 22.888823 Si / 1000 Ang^3
#
#
#
# Elastic Constant Matrix: (Units=GPa)
#
#
# Indices 1 2 3 4 5 6 
#
# 1 99.2912 20.2422 8.4275 0.0020 11.4204 -0.0001
# 2 20.2422 57.3633 31.0711 0.0030 -2.6496 -0.0003
# 3 8.4275 31.0711 84.0271 -0.0034 -15.5122 -0.0002
# 4 0.0020 0.0030 -0.0034 24.5418 0.0014 -0.6139
# 5 11.4204 -2.6496 -15.5122 0.0014 36.1231 0.0004
# 6 -0.0001 -0.0003 -0.0002 -0.6139 0.0004 36.6385
#
#
#
# Elastic Compliance Matrix: (Units=1/GPa)
#
#
# Indices 1 2 3 4 5 6 
#
# 1 0.011387 -0.003977 -0.000423 0.000000 -0.004073 0.000000
# 2 -0.003977 0.023325 -0.008339 -0.000004 -0.000613 0.000000
# 3 -0.000423 -0.008339 0.016225 0.000003 0.006490 0.000000
# 4 0.000000 -0.000004 0.000003 0.040764 -0.000001 0.000683
# 5 -0.004073 -0.000613 0.006490 -0.000001 0.031713 0.000000
# 6 0.000000 0.000000 0.000000 0.000683 0.000000 0.027305
#
#
# Mechanical properties :
#
#
# Convention : Reuss Voigt Hill
#
# Bulk Modulus (GPa) = 39.28133 40.01812 39.64973
# Shear Modulus (GPa) = 27.07341 31.52341 29.29841
#
# Velocity S-wave (km/s) = 3.44295 3.71515 3.58163
# Velocity P-wave (km/s) = 5.74493 5.99372 5.87065
#
# Compressibility (1/GPa) = 0.02545739
#
# Stress axis : x y z
#
# Youngs Moduli (GPa) = 87.82253 42.87296 61.63300
#
# Poissons Ratio (x) = 0.17050 0.02610
# Poissons Ratio (y) = 0.34926 0.51397
# Poissons Ratio (z) = 0.03719 0.35753
#
# Static dielectric constant tensor:
#      x y z
#    x 4.470850 -0.000010 0.001020 
#    y -0.000010 3.756720 0.000020 
#    z 0.001020 0.000020 4.223230 
# 
# 
# High freq. dielectric constant tensor:
#      x y z
#    x 1.917780 0.000000 0.002080 
#    y 0.000000 1.873300 0.000000 
#    z 0.002080 0.000000 1.902990 
# 
# From -- ./inp_files/313728.got.cif
#   From: 2010.06.25/outbox.cif.g09.slc.cpg/sg15_157_cif.got.tgz:313728.got - 2010.06.28 07:06:18.
