data_PCOD8143158
_publ_section_title
;
Structure prediction by ZEFSAII (Michael W. Deem and Ramdas Pophale) SiO2 
 PCOD8143158
Probable space group: C 2/C
;
_chemical_formula_sum "Si O2"
_cell_formula_units_Z 48
_cell_length_a 17.224935
_cell_length_b 12.479113
_cell_length_c 11.806708
_cell_angle_alpha 90.000000
_cell_angle_beta 63.580280
_cell_angle_gamma 90.000000
_cell_volume 2272.815465
_symmetry_space_group_name_H-M "C 2/C"
_symmetry_group_IT_number 15
_symmetry_cell_setting 'monoclinic'
loop_
_space_group_symop_operation_xyz
x,y,z
-x,y,1/2-z
-x,-y,-z
x,-y,1/2+z
1/2+x,1/2+y,z
1/2-x,1/2+y,1/2-z
1/2-x,1/2-y,-z
1/2+x,1/2-y,1/2+z
loop_
_atom_site_type_symbol
_atom_site_label
_atom_site_fract_x
_atom_site_fract_y
_atom_site_fract_z
Si Si1 0.612042 0.315356 0.070150
Si Si2 0.194146 0.262835 0.887386
Si Si3 0.000000 0.018519 0.750000
Si Si4 0.989064 0.164725 0.438792
Si Si5 0.699345 0.857821 0.641272
Si Si6 0.816452 0.601876 0.893398
Si Si7 0.500000 0.170886 0.750000
O O1 0.586343 0.405622 0.181628
O O2 0.619859 0.198063 0.123972
O O3 0.536342 0.328424 0.027840
O O4 0.705350 0.321540 0.953712
O O5 0.179333 0.327311 0.782905
O O6 0.275160 0.180511 0.824904
O O7 0.217504 0.354461 0.963988
O O8 0.112562 0.189376 0.977967
O O9 0.005539 0.947793 0.861968
O O10 0.030227 0.256693 0.335169
O O11 0.709286 0.982450 0.615123
O O12 0.919801 0.596669 0.830370
#
# Coordination Sequence:
#
# PCOD8143158 Si02
#       7
#     8   8   4   8   8   8   4
#     4  11  24  39  58  91 126 161 208 262 320 377
#     4  10  22  42  66  90 123 166 216 260 309 381
#     4  11  22  39  66  92 122 165 216 269 320 368
#     4  10  21  40  63  90 122 163 213 268 314 362
#     4  11  25  40  60  91 130 165 202 260 319 376
#     4  10  22  41  63  90 121 165 210 255 314 375
#     4   9  20  37  62  88 118 159 208 253 306 380
#
# _framework density 21.119178999999999
#
# number of rings (size 3 to 8) (size 9 to 14) (size 15 to 20)
#    0.000    1.667    0.000    3.500    0.000   11.333 
#    0.000    3.333    0.000    0.000    0.000    0.000 
#    0.000    0.000    0.000    0.000    0.000    0.000 
#
# Total GULP energy -297381.763352 kJ/mol
# GULP energy per Si atom -12390.906806 kJ/mol
# Density = 2.107111 g / cm^3
# Si number density = 21.119179 Si / 1000 Ang^3
#
#
#
# Elastic Constant Matrix: (Units=GPa)
#
#
# Indices 1 2 3 4 5 6 
#
# 1 83.6031 37.3937 27.5707 0.0000 17.2965 0.0000
# 2 37.3937 117.6869 45.7322 0.0000 25.1508 0.0000
# 3 27.5707 45.7322 92.3117 0.0000 10.1882 0.0000
# 4 0.0000 0.0000 0.0000 76.6246 0.0000 0.7093
# 5 17.2965 25.1508 10.1882 0.0000 31.1418 0.0000
# 6 0.0000 0.0000 0.0000 0.7093 0.0000 14.6883
#
#
#
# Elastic Compliance Matrix: (Units=1/GPa)
#
#
# Indices 1 2 3 4 5 6 
#
# 1 0.015121 -0.002630 -0.002615 0.000000 -0.005419 0.000000
# 2 -0.002630 0.012717 -0.004713 0.000000 -0.007268 0.000000
# 3 -0.002615 -0.004713 0.013869 0.000000 0.000721 0.000000
# 4 0.000000 0.000000 0.000000 0.013056 0.000000 -0.000630
# 5 -0.005419 -0.007268 0.000721 0.000000 0.040755 0.000000
# 6 0.000000 0.000000 0.000000 -0.000630 0.000000 0.068112
#
#
# Mechanical properties :
#
#
# Convention : Reuss Voigt Hill
#
# Bulk Modulus (GPa) = 45.88928 57.22164 51.55546
# Shear Modulus (GPa) = 26.20400 36.68463 31.44432
#
# Velocity S-wave (km/s) = 3.52628 4.17229 3.86281
# Velocity P-wave (km/s) = 6.19317 7.09677 6.66031
#
# Compressibility (1/GPa) = 0.02179158
#
# Stress axis : x y z
#
# Youngs Moduli (GPa) = 66.13209 78.63213 72.10343
#
# Poissons Ratio (x) = 0.20683 0.18856
# Poissons Ratio (y) = 0.17395 0.33979
# Poissons Ratio (z) = 0.17294 0.37056
#
# Static dielectric constant tensor:
#      x y z
#    x 3.819430 0.000000 -0.064150 
#    y 0.000000 3.911130 0.000000 
#    z -0.064150 0.000000 4.096570 
# 
# 
# High freq. dielectric constant tensor:
#      x y z
#    x 1.825230 0.000000 -0.005030 
#    y 0.000000 1.826800 0.000000 
#    z -0.005030 0.000000 1.836040 
# 
# From -- ./inp_files/104236.got.cif
#   From: 2010.06.25/outbox.cif.g09.slc.cpg/sg15_53_cif.got.tgz:104236.got - 2010.06.28 07:06:18.
