data_PCOD8143698
_publ_section_title
;
Structure prediction by ZEFSAII (Michael W. Deem and Ramdas Pophale) SiO2 
 PCOD8143698
Probable space group: C 2/C
;
_chemical_formula_sum "Si O2"
_cell_formula_units_Z 32
_cell_length_a 18.517724
_cell_length_b 10.584836
_cell_length_c 9.147162
_cell_angle_alpha 90.000000
_cell_angle_beta 131.012806
_cell_angle_gamma 90.000000
_cell_volume 1352.862240
_symmetry_space_group_name_H-M "C 2/C"
_symmetry_group_IT_number 15
_symmetry_cell_setting 'monoclinic'
loop_
_space_group_symop_operation_xyz
x,y,z
-x,y,1/2-z
-x,-y,-z
x,-y,1/2+z
1/2+x,1/2+y,z
1/2-x,1/2+y,1/2-z
1/2-x,1/2-y,-z
1/2+x,1/2-y,1/2+z
loop_
_atom_site_type_symbol
_atom_site_label
_atom_site_fract_x
_atom_site_fract_y
_atom_site_fract_z
Si Si1 0.640412 0.215948 0.004920
Si Si2 0.540993 0.135725 0.596224
Si Si3 0.343227 0.656923 0.389263
Si Si4 0.603987 0.466351 0.823927
O O1 0.608141 0.122986 0.829048
O O2 0.550470 0.225637 0.995524
O O3 0.668586 0.351725 0.974659
O O4 0.730811 0.162291 0.210287
O O5 0.603052 0.207423 0.552985
O O6 0.500000 0.000000 0.500000
O O7 0.355752 0.602505 0.570392
O O8 0.109090 0.949013 0.655474
O O9 0.500000 0.445583 0.750000
#
# Coordination Sequence:
#
# PCOD8143698 Si02
#       4
#     8   8   8   8
#     4  10  22  40  63  90 125 175 207 259 324 372
#     4  10  21  41  63  90 130 168 213 260 321 380
#     4  11  24  40  68  96 125 168 215 264 317 378
#     4  11  21  43  64  90 128 165 210 264 318 375
#
# _framework density 23.653554
#
# number of rings (size 3 to 8) (size 9 to 14) (size 15 to 20)
#    0.000    1.500    5.000    3.750    7.000    0.000 
#    4.500    1.250    0.000    0.000    0.000    0.000 
#    0.000    0.000    0.000    0.000    0.000    0.000 
#
# Total GULP energy -198303.342254 kJ/mol
# GULP energy per Si atom -12393.958891 kJ/mol
# Density = 2.359972 g / cm^3
# Si number density = 23.653554 Si / 1000 Ang^3
#
#
#
# Elastic Constant Matrix: (Units=GPa)
#
#
# Indices 1 2 3 4 5 6 
#
# 1 31.0333 -4.4800 16.5750 0.0000 15.5625 0.0000
# 2 -4.4800 119.2348 51.9715 0.0000 -0.9664 0.0000
# 3 16.5750 51.9715 61.0217 0.0000 20.1657 0.0000
# 4 0.0000 0.0000 0.0000 47.3815 0.0000 -6.2760
# 5 15.5625 -0.9664 20.1657 0.0000 28.9064 0.0000
# 6 0.0000 0.0000 0.0000 -6.2760 0.0000 24.5442
#
#
#
# Elastic Compliance Matrix: (Units=1/GPa)
#
#
# Indices 1 2 3 4 5 6 
#
# 1 0.049576 0.008544 -0.015618 0.000000 -0.015510 0.000000
# 2 0.008544 0.018091 -0.021324 0.000000 0.010881 0.000000
# 3 -0.015618 -0.021324 0.047109 0.000000 -0.025169 0.000000
# 4 0.000000 0.000000 0.000000 0.021845 0.000000 0.005586
# 5 -0.015510 0.010881 -0.025169 0.000000 0.060867 0.000000
# 6 0.000000 0.000000 0.000000 0.005586 0.000000 0.042171
#
#
# Mechanical properties :
#
#
# Convention : Reuss Voigt Hill
#
# Bulk Modulus (GPa) = 17.24719 37.71365 27.48042
# Shear Modulus (GPa) = 15.83372 29.98131 22.90752
#
# Velocity S-wave (km/s) = 2.59009 3.56408 3.11538
# Velocity P-wave (km/s) = 4.03139 5.73722 4.95822
#
# Compressibility (1/GPa) = 0.05798047
#
# Stress axis : x y z
#
# Youngs Moduli (GPa) = 20.17088 55.27662 21.22734
#
# Poissons Ratio (x) = -0.47231 0.33153
# Poissons Ratio (y) = -0.17235 0.45266
# Poissons Ratio (z) = 0.31503 1.17874
#
# Static dielectric constant tensor:
#      x y z
#    x 4.266660 0.000000 0.005840 
#    y 0.000000 4.310090 0.000000 
#    z 0.005840 0.000000 4.109200 
# 
# 
# High freq. dielectric constant tensor:
#      x y z
#    x 1.928390 0.000000 0.018990 
#    y 0.000000 1.918170 0.000000 
#    z 0.018990 0.000000 1.930890 
# 
# From -- ./inp_files/116608.got.cif
#   From: 2010.06.25/outbox.cif.g09.slc.cpg/sg15_59_cif.got.tgz:116608.got - 2010.06.28 07:06:18.
