data_PCOD8143764
_publ_section_title
;
Structure prediction by ZEFSAII (Michael W. Deem and Ramdas Pophale) SiO2 
 PCOD8143764
Probable space group: C 2/C
;
_chemical_formula_sum "Si O2"
_cell_formula_units_Z 36
_cell_length_a 25.093929
_cell_length_b 17.704561
_cell_length_c 11.431762
_cell_angle_alpha 90.000000
_cell_angle_beta 160.618716
_cell_angle_gamma 90.000000
_cell_volume 1685.437903
_symmetry_space_group_name_H-M "C 2/C"
_symmetry_group_IT_number 15
_symmetry_cell_setting 'monoclinic'
loop_
_space_group_symop_operation_xyz
x,y,z
-x,y,1/2-z
-x,-y,-z
x,-y,1/2+z
1/2+x,1/2+y,z
1/2-x,1/2+y,1/2-z
1/2-x,1/2-y,-z
1/2+x,1/2-y,1/2+z
loop_
_atom_site_type_symbol
_atom_site_label
_atom_site_fract_x
_atom_site_fract_y
_atom_site_fract_z
Si Si1 0.760612 0.660331 0.914734
Si Si2 0.932065 0.191393 0.772672
Si Si3 0.500000 0.244737 0.750000
Si Si4 0.909027 0.502854 0.185243
Si Si5 0.252820 0.350872 0.666661
O O1 0.658328 0.641324 0.817760
O O2 0.643510 0.701738 0.583336
O O3 0.905189 0.719094 0.239847
O O4 0.829359 0.584303 0.002713
O O5 0.850939 0.161692 0.487839
O O6 0.124725 0.179248 0.179563
O O7 0.421062 0.191576 0.688102
O O8 0.000000 0.487208 0.250000
O O9 0.000000 0.500000 0.500000
O O10 0.773632 0.438957 0.913014
#
# Coordination Sequence:
#
# PCOD8143764 Si02
#       5
#     8   8   4   8   8
#     4  10  23  40  64  98 127 167 229 273 323 394
#     4   9  21  41  68  90 129 174 219 272 328 400
#     4  10  22  38  64  96 124 170 216 278 324 396
#     4  12  27  43  66  99 137 177 220 279 335 393
#     4  10  21  41  64  91 130 174 210 264 346 385
#
# _framework density 21.359435000000001
#
# number of rings (size 3 to 8) (size 9 to 14) (size 15 to 20)
#    0.000    1.778    1.111    1.333   12.444    5.333 
#    0.000    0.000    0.000    0.000    0.000    0.000 
#    0.000    0.000    0.000    0.000    0.000    0.000 
#
# Total GULP energy -222984.871392 kJ/mol
# GULP energy per Si atom -12388.048411 kJ/mol
# Density = 2.131082 g / cm^3
# Si number density = 21.359435 Si / 1000 Ang^3
#
#
#
# Elastic Constant Matrix: (Units=GPa)
#
#
# Indices 1 2 3 4 5 6 
#
# 1 115.8612 34.8014 41.2435 0.0000 21.6786 0.0000
# 2 34.8014 131.9479 53.7445 0.0000 22.4752 0.0000
# 3 41.2435 53.7445 79.5560 0.0000 27.8232 0.0000
# 4 0.0000 0.0000 0.0000 39.6377 0.0000 10.1410
# 5 21.6786 22.4752 27.8232 0.0000 42.3002 0.0000
# 6 0.0000 0.0000 0.0000 10.1410 0.0000 20.2840
#
#
#
# Elastic Compliance Matrix: (Units=1/GPa)
#
#
# Indices 1 2 3 4 5 6 
#
# 1 0.010814 -0.000695 -0.004322 0.000000 -0.002330 0.000000
# 2 -0.000695 0.010546 -0.006402 0.000000 -0.001036 0.000000
# 3 -0.004322 -0.006402 0.022301 0.000000 -0.009052 0.000000
# 4 0.000000 0.000000 0.000000 0.028929 0.000000 -0.014463
# 5 -0.002330 -0.001036 -0.009052 0.000000 0.031340 0.000000
# 6 0.000000 0.000000 0.000000 -0.014463 0.000000 0.056531
#
#
# Mechanical properties :
#
#
# Convention : Reuss Voigt Hill
#
# Bulk Modulus (GPa) = 48.02130 65.21600 56.61865
# Shear Modulus (GPa) = 26.28278 33.61611 29.94945
#
# Velocity S-wave (km/s) = 3.51165 3.97146 3.74861
# Velocity P-wave (km/s) = 6.24288 7.18532 6.73062
#
# Compressibility (1/GPa) = 0.02082409
#
# Stress axis : x y z
#
# Youngs Moduli (GPa) = 92.47064 94.82159 44.84134
#
# Poissons Ratio (x) = 0.06590 0.19380
# Poissons Ratio (y) = 0.06427 0.28706
# Poissons Ratio (z) = 0.39965 0.60702
#
# Static dielectric constant tensor:
#      x y z
#    x 4.445770 0.000000 0.612120 
#    y 0.000000 3.839980 0.000000 
#    z 0.612120 0.000000 4.282040 
# 
# 
# High freq. dielectric constant tensor:
#      x y z
#    x 1.847760 0.000000 0.012510 
#    y 0.000000 1.833250 0.000000 
#    z 0.012510 0.000000 1.834680 
# 
# From -- ./inp_files/123953.got.cif
#   From: 2010.06.25/outbox.cif.g09.slc.cpg/sg15_62_cif.got.tgz:123953.got - 2010.06.28 07:06:18.
