data_PCOD8143741
_publ_section_title
;
Structure prediction by ZEFSAII (Michael W. Deem and Ramdas Pophale) SiO2 
 PCOD8143741
Probable space group: C 2/C
;
_chemical_formula_sum "Si O2"
_cell_formula_units_Z 60
_cell_length_a 24.414633
_cell_length_b 20.198919
_cell_length_c 13.032517
_cell_angle_alpha 90.000000
_cell_angle_beta 26.093346
_cell_angle_gamma 90.000000
_cell_volume 2826.807861
_symmetry_space_group_name_H-M "C 2/C"
_symmetry_group_IT_number 15
_symmetry_cell_setting 'monoclinic'
loop_
_space_group_symop_operation_xyz
x,y,z
-x,y,1/2-z
-x,-y,-z
x,-y,1/2+z
1/2+x,1/2+y,z
1/2-x,1/2+y,1/2-z
1/2-x,1/2-y,-z
1/2+x,1/2-y,1/2+z
loop_
_atom_site_type_symbol
_atom_site_label
_atom_site_fract_x
_atom_site_fract_y
_atom_site_fract_z
Si Si1 0.386285 0.524880 0.260759
Si Si2 0.057055 0.725684 0.848641
Si Si3 0.280303 0.343816 0.866587
Si Si4 0.728332 0.899011 0.542334
Si Si5 0.275555 0.346395 0.248827
Si Si6 0.213856 0.699905 0.254895
Si Si7 0.000000 0.894558 0.750000
Si Si8 0.027442 0.354748 0.590636
O O1 0.308104 0.578828 0.329069
O O2 0.290223 0.469054 0.462676
O O3 0.436887 0.556591 0.277675
O O4 0.500000 0.500000 0.000000
O O5 0.155855 0.674510 0.636595
O O6 0.108242 0.800980 0.767736
O O7 0.027107 0.707492 0.016034
O O8 0.933162 0.716701 0.990470
O O9 0.262339 0.333548 0.776382
O O10 0.801323 0.876179 0.317284
O O11 0.750349 0.846876 0.597604
O O12 0.579570 0.906277 0.767847
O O13 0.223450 0.272130 0.356658
O O14 0.167514 0.385701 0.365364
O O15 0.400135 0.346761 0.972004
O O16 0.000000 0.327580 0.750000
#
# Coordination Sequence:
#
# PCOD8143741 Si02
#       8
#     8   8   8   8   8   8   4   8
#     4  12  27  48  65  99 141 186 238 273 341 427
#     4  10  21  41  64 105 135 167 230 286 350 400
#     4  11  24  42  68  99 139 179 226 287 339 417
#     4  10  24  44  64  98 141 183 231 280 340 421
#     4  11  21  42  68 104 134 182 233 288 356 406
#     4  11  23  39  72 100 138 174 226 296 354 402
#     4  12  26  42  76  96 140 194 226 290 344 412
#     4   9  19  39  65  95 135 173 220 281 342 406
#
# _framework density 21.225355
#
# number of rings (size 3 to 8) (size 9 to 14) (size 15 to 20)
#    0.000    1.333    2.667    2.400    5.600    0.000 
#    0.000   10.000    0.000    0.000    0.000    0.000 
#    0.000    0.000    0.000    0.000    0.000    0.000 
#
# Total GULP energy -371795.565158 kJ/mol
# GULP energy per Si atom -12393.185505 kJ/mol
# Density = 2.117705 g / cm^3
# Si number density = 21.225355 Si / 1000 Ang^3
#
#
#
# Elastic Constant Matrix: (Units=GPa)
#
#
# Indices 1 2 3 4 5 6 
#
# 1 102.6503 40.4657 24.2702 0.0006 1.1439 -0.0004
# 2 40.4657 118.6817 41.5743 0.0003 -1.7357 -0.0002
# 3 24.2702 41.5743 106.9065 0.0004 -9.2573 -0.0003
# 4 0.0006 0.0003 0.0004 34.9074 -0.0003 0.9090
# 5 1.1439 -1.7357 -9.2573 -0.0003 32.1084 0.0002
# 6 -0.0004 -0.0002 -0.0003 0.9090 0.0002 28.6933
#
#
#
# Elastic Compliance Matrix: (Units=1/GPa)
#
#
# Indices 1 2 3 4 5 6 
#
# 1 0.011426 -0.003440 -0.001341 0.000000 -0.000980 0.000000
# 2 -0.003440 0.010801 -0.003444 0.000000 -0.000287 0.000000
# 3 -0.001341 -0.003444 0.011267 0.000000 0.003110 0.000000
# 4 0.000000 0.000000 0.000000 0.028671 0.000000 -0.000908
# 5 -0.000980 -0.000287 0.003110 0.000000 0.032061 0.000000
# 6 0.000000 0.000000 0.000000 -0.000908 0.000000 0.034880
#
#
# Mechanical properties :
#
#
# Convention : Reuss Voigt Hill
#
# Bulk Modulus (GPa) = 58.67386 60.09542 59.38464
# Shear Modulus (GPa) = 33.06046 33.93703 33.49874
#
# Velocity S-wave (km/s) = 3.95092 4.00295 3.97702
# Velocity P-wave (km/s) = 6.96536 7.05261 7.00912
#
# Compressibility (1/GPa) = 0.01704336
#
# Stress axis : x y z
#
# Youngs Moduli (GPa) = 87.51961 92.58178 88.75412
#
# Poissons Ratio (x) = 0.31852 0.11901
# Poissons Ratio (y) = 0.30110 0.30569
# Poissons Ratio (z) = 0.11735 0.31887
#
# Static dielectric constant tensor:
#      x y z
#    x 4.432000 0.000010 0.023470 
#    y 0.000010 3.506930 0.000010 
#    z 0.023470 0.000010 4.266650 
# 
# 
# High freq. dielectric constant tensor:
#      x y z
#    x 1.855800 0.000000 -0.003040 
#    y 0.000000 1.804090 0.000000 
#    z -0.003040 0.000000 1.844730 
# 
# From -- ./inp_files/119939.got.cif
#   From: 2010.06.25/outbox.cif.g09.slc.cpg/sg15_60_cif.got.tgz:119939.got - 2010.06.28 07:06:18.
