data_PCOD8143552
_publ_section_title
;
Structure prediction by ZEFSAII (Michael W. Deem and Ramdas Pophale) SiO2 
 PCOD8143552
Probable space group: C 2/C
;
_chemical_formula_sum "Si O2"
_cell_formula_units_Z 28
_cell_length_a 12.327632
_cell_length_b 9.008057
_cell_length_c 11.876433
_cell_angle_alpha 90.000000
_cell_angle_beta 107.303549
_cell_angle_gamma 90.000000
_cell_volume 1259.166063
_symmetry_space_group_name_H-M "C 2/C"
_symmetry_group_IT_number 15
_symmetry_cell_setting 'monoclinic'
loop_
_space_group_symop_operation_xyz
x,y,z
-x,y,1/2-z
-x,-y,-z
x,-y,1/2+z
1/2+x,1/2+y,z
1/2-x,1/2+y,1/2-z
1/2-x,1/2-y,-z
1/2+x,1/2-y,1/2+z
loop_
_atom_site_type_symbol
_atom_site_label
_atom_site_fract_x
_atom_site_fract_y
_atom_site_fract_z
Si Si1 0.612168 0.605142 0.714884
Si Si2 0.328731 0.074825 0.289602
Si Si3 0.500000 0.151432 0.750000
Si Si4 0.120383 0.747052 0.997734
O O1 0.500000 0.568037 0.750000
O O2 0.697930 0.470761 0.767057
O O3 0.591125 0.615051 0.572621
O O4 0.665036 0.764711 0.771935
O O5 0.389979 0.949358 0.235980
O O6 0.389741 0.094992 0.430641
O O7 0.530721 0.251842 0.867567
O O8 0.250000 0.750000 0.000000
#
# Coordination Sequence:
#
# PCOD8143552 Si02
#       4
#     8   8   4   8
#     4  10  22  44  68 102 137 172 229 279 337 399
#     4  10  21  40  70  97 134 177 223 279 334 399
#     4  12  18  42  72  94 130 188 218 272 344 398
#     4  10  22  41  68  97 135 175 228 276 334 406
#
# _framework density 22.236939
#
# number of rings (size 3 to 8) (size 9 to 14) (size 15 to 20)
#    1.714    0.000    4.286    0.857    0.000    0.000 
#   10.286   10.000    0.000    0.000    0.000    0.000 
#    0.000    0.000    0.000    0.000    0.000    0.000 
#
# Total GULP energy -173453.115255 kJ/mol
# GULP energy per Si atom -12389.508232 kJ/mol
# Density = 2.218633 g / cm^3
# Si number density = 22.236939 Si / 1000 Ang^3
#
#
#
# Elastic Constant Matrix: (Units=GPa)
#
#
# Indices 1 2 3 4 5 6 
#
# 1 134.2908 9.1139 17.4193 0.0000 -9.9825 0.0000
# 2 9.1139 30.5510 10.5708 0.0000 14.1151 0.0000
# 3 17.4193 10.5708 136.8578 0.0000 10.1592 0.0000
# 4 0.0000 0.0000 0.0000 14.9690 0.0000 1.6992
# 5 -9.9825 14.1151 10.1592 0.0000 37.9432 0.0000
# 6 0.0000 0.0000 0.0000 1.6992 0.0000 32.6972
#
#
#
# Elastic Compliance Matrix: (Units=1/GPa)
#
#
# Indices 1 2 3 4 5 6 
#
# 1 0.008126 -0.003845 -0.001022 0.000000 0.003842 0.000000
# 2 -0.003845 0.041890 -0.001545 0.000000 -0.016181 0.000000
# 3 -0.001022 -0.001545 0.007686 0.000000 -0.001752 0.000000
# 4 0.000000 0.000000 0.000000 0.067201 0.000000 -0.003492
# 5 0.003842 -0.016181 -0.001752 0.000000 0.033855 0.000000
# 6 0.000000 0.000000 0.000000 -0.003492 0.000000 0.030765
#
#
# Mechanical properties :
#
#
# Convention : Reuss Voigt Hill
#
# Bulk Modulus (GPa) = 22.28332 41.76749 32.02541
# Shear Modulus (GPa) = 23.00885 34.76158 28.88522
#
# Velocity S-wave (km/s) = 3.22019 3.95807 3.60804
# Velocity P-wave (km/s) = 4.88556 6.30175 5.63830
#
# Compressibility (1/GPa) = 0.04487661
#
# Stress axis : x y z
#
# Youngs Moduli (GPa) = 123.06597 23.87206 130.09997
#
# Poissons Ratio (x) = 0.09180 0.13302
# Poissons Ratio (y) = 0.47324 0.20100
# Poissons Ratio (z) = 0.12583 0.03688
#
# Static dielectric constant tensor:
#      x y z
#    x 3.830170 0.000000 -0.196640 
#    y 0.000000 3.737770 0.000000 
#    z -0.196640 0.000000 4.023980 
# 
# 
# High freq. dielectric constant tensor:
#      x y z
#    x 1.880050 0.000000 -0.018010 
#    y 0.000000 1.861670 0.000000 
#    z -0.018010 0.000000 1.859150 
# 
# From -- ./inp_files/83467.got.cif
#   From: 2010.06.25/outbox.cif.g09.slc.cpg/sg15_42_cif.got.tgz:83467.got - 2010.06.28 07:06:18.
