data_PCOD8143875
_publ_section_title
;
Structure prediction by ZEFSAII (Michael W. Deem and Ramdas Pophale) SiO2 
 PCOD8143875
Probable space group: C 2/C
;
_chemical_formula_sum "Si O2"
_cell_formula_units_Z 48
_cell_length_a 8.553971
_cell_length_b 15.183077
_cell_length_c 27.176483
_cell_angle_alpha 90.000000
_cell_angle_beta 43.244907
_cell_angle_gamma 90.000000
_cell_volume 2418.167347
_symmetry_space_group_name_H-M "C 2/C"
_symmetry_group_IT_number 15
_symmetry_cell_setting 'monoclinic'
loop_
_space_group_symop_operation_xyz
x,y,z
-x,y,1/2-z
-x,-y,-z
x,-y,1/2+z
1/2+x,1/2+y,z
1/2-x,1/2+y,1/2-z
1/2-x,1/2-y,-z
1/2+x,1/2-y,1/2+z
loop_
_atom_site_type_symbol
_atom_site_label
_atom_site_fract_x
_atom_site_fract_y
_atom_site_fract_z
Si Si1 0.730907 0.007307 0.557812
Si Si2 0.758181 0.720629 0.698633
Si Si3 0.456694 0.080891 0.045239
Si Si4 0.096465 0.545343 0.780804
Si Si5 0.537005 0.608131 0.298845
Si Si6 0.939090 0.678132 0.957879
O O1 0.626398 0.922028 0.553330
O O2 0.617729 0.013757 0.637393
O O3 0.671316 0.091002 0.539023
O O4 0.000000 0.000000 0.500000
O O5 0.500000 0.748764 0.750000
O O6 0.780807 0.630382 0.724071
O O7 0.890162 0.798901 0.695154
O O8 0.845822 0.707800 0.623089
O O9 0.196772 0.077045 0.122926
O O10 0.509195 0.166135 0.999285
O O11 0.500000 0.000000 0.000000
O O12 0.276847 0.466896 0.733984
O O13 0.000000 0.572026 0.750000
O O14 0.500000 0.622734 0.250000
O O15 0.750000 0.750000 0.000000
#
# Coordination Sequence:
#
# PCOD8143875 Si02
#       6
#     8   8   8   8   8   8
#     4  10  23  40  62  94 127 163 214 263 319 385
#     4  11  25  42  65  98 133 170 218 269 329 393
#     4  10  22  40  66  93 127 170 214 263 326 385
#     4  11  25  40  65  95 131 173 215 270 322 387
#     4  12  23  43  68  94 133 173 220 271 332 385
#     4  10  21  41  66  91 127 166 210 263 322 388
#
# _framework density 19.849743
#
# number of rings (size 3 to 8) (size 9 to 14) (size 15 to 20)
#    0.000    1.333    3.333    1.500    9.333    1.333 
#    0.000    0.833    0.000    0.000    0.000    0.000 
#    0.000    0.000    0.000    0.000    0.000    0.000 
#
# Total GULP energy -297567.536319 kJ/mol
# GULP energy per Si atom -12398.647347 kJ/mol
# Density = 1.980456 g / cm^3
# Si number density = 19.849743 Si / 1000 Ang^3
#
#
#
# Elastic Constant Matrix: (Units=GPa)
#
#
# Indices 1 2 3 4 5 6 
#
# 1 106.6033 22.2064 68.4411 0.0004 -0.4897 -0.0009
# 2 22.2064 78.0654 41.5085 0.0012 0.1691 -0.0014
# 3 68.4411 41.5085 161.4577 0.0027 -2.1694 -0.0022
# 4 0.0004 0.0012 0.0027 17.8854 -0.0015 7.0329
# 5 -0.4897 0.1691 -2.1694 -0.0015 42.8065 0.0009
# 6 -0.0009 -0.0014 -0.0022 7.0329 0.0009 33.5078
#
#
#
# Elastic Compliance Matrix: (Units=1/GPa)
#
#
# Indices 1 2 3 4 5 6 
#
# 1 0.012941 -0.000884 -0.005260 0.000001 -0.000115 0.000000
# 2 -0.000884 0.014901 -0.003459 -0.000001 -0.000244 0.000001
# 3 -0.005260 -0.003459 0.009318 -0.000001 0.000426 0.000001
# 4 0.000001 -0.000001 -0.000001 0.060941 0.000002 -0.012791
# 5 -0.000115 -0.000244 0.000426 0.000002 0.023382 -0.000001
# 6 0.000000 0.000001 0.000001 -0.012791 -0.000001 0.032528
#
#
# Mechanical properties :
#
#
# Convention : Reuss Voigt Hill
#
# Bulk Modulus (GPa) = 55.69879 67.82647 61.76263
# Shear Modulus (GPa) = 27.90119 33.10465 30.50292
#
# Velocity S-wave (km/s) = 3.75323 4.08825 3.92432
# Velocity P-wave (km/s) = 6.84861 7.51859 7.19141
#
# Compressibility (1/GPa) = 0.01795371
#
# Stress axis : x y z
#
# Youngs Moduli (GPa) = 77.27257 67.10867 107.31563
#
# Poissons Ratio (x) = 0.05934 0.56447
# Poissons Ratio (y) = 0.06832 0.37124
# Poissons Ratio (z) = 0.40645 0.23215
#
# Static dielectric constant tensor:
#      x y z
#    x 3.876130 0.000000 0.362630 
#    y 0.000000 3.782030 0.000000 
#    z 0.362630 0.000000 5.197590 
# 
# 
# High freq. dielectric constant tensor:
#      x y z
#    x 1.775460 0.000000 0.008720 
#    y 0.000000 1.772630 0.000000 
#    z 0.008720 0.000000 1.797670 
# 
# From -- ./inp_files/288994.got.cif
#   From: 2010.06.25/outbox.cif.g09.slc.cpg/sg15_145_cif.got.tgz:288994.got - 2010.06.28 07:06:18.
