data_PCOD8143183
_publ_section_title
;
Structure prediction by ZEFSAII (Michael W. Deem and Ramdas Pophale) SiO2 
 PCOD8143183
Probable space group: C 2/C
;
_chemical_formula_sum "Si O2"
_cell_formula_units_Z 52
_cell_length_a 7.543972
_cell_length_b 15.848365
_cell_length_c 22.012802
_cell_angle_alpha 90.000000
_cell_angle_beta 61.912979
_cell_angle_gamma 90.000000
_cell_volume 2321.899533
_symmetry_space_group_name_H-M "C 2/C"
_symmetry_group_IT_number 15
_symmetry_cell_setting 'monoclinic'
loop_
_space_group_symop_operation_xyz
x,y,z
-x,y,1/2-z
-x,-y,-z
x,-y,1/2+z
1/2+x,1/2+y,z
1/2-x,1/2+y,1/2-z
1/2-x,1/2-y,-z
1/2+x,1/2-y,1/2+z
loop_
_atom_site_type_symbol
_atom_site_label
_atom_site_fract_x
_atom_site_fract_y
_atom_site_fract_z
Si Si1 0.000000 0.984500 0.750000
Si Si2 0.490553 0.860168 0.981370
Si Si3 0.288747 0.127303 0.750669
Si Si4 0.922946 0.094094 0.381743
Si Si5 0.040593 0.272160 0.385380
Si Si6 0.401254 0.550390 0.962703
Si Si7 0.114990 0.210406 0.892876
O O1 0.823607 0.040856 0.748737
O O2 0.903362 0.916865 0.812590
O O3 0.713951 0.896530 0.952275
O O4 0.497343 0.798994 0.920506
O O5 0.426012 0.808792 0.052696
O O6 0.340739 0.938677 0.993862
O O7 0.500000 0.105743 0.750000
O O8 0.312282 0.179621 0.684590
O O9 0.154401 0.186613 0.816488
O O10 0.074470 0.170100 0.376371
O O11 0.990243 0.000148 0.390608
O O12 0.815282 0.285510 0.399809
O O13 0.477439 0.644593 0.949243
O O14 0.500000 0.500000 0.000000
#
# Coordination Sequence:
#
# PCOD8143183 Si02
#       7
#     4   8   8   8   8   8   8
#     4  12  24  44  68  98 136 174 222 278 342 402
#     4  11  23  41  66  94 130 175 223 268 334 408
#     4  10  23  43  70  92 133 180 222 271 339 413
#     4  11  24  40  67  98 128 167 221 278 335 392
#     4  10  22  42  70  92 124 175 223 269 336 405
#     4  12  23  39  62  96 136 168 215 280 333 382
#     4  10  21  40  63  93 125 173 219 272 332 407
#
# _framework density 22.395458000000001
#
# number of rings (size 3 to 8) (size 9 to 14) (size 15 to 20)
#    0.000    1.231    1.538    5.538    5.385    2.462 
#    0.000    0.000    1.692    0.000    0.000    0.000 
#    0.000    0.000    0.000    0.000    0.000    0.000 
#
# Total GULP energy -322161.237912 kJ/mol
# GULP energy per Si atom -12390.816843 kJ/mol
# Density = 2.234449 g / cm^3
# Si number density = 22.395458 Si / 1000 Ang^3
#
#
#
# Elastic Constant Matrix: (Units=GPa)
#
#
# Indices 1 2 3 4 5 6 
#
# 1 56.5420 30.4211 28.0921 0.0000 7.3319 -0.0001
# 2 30.4211 91.3376 38.0783 0.0000 9.0923 0.0000
# 3 28.0921 38.0783 140.7116 0.0000 12.5871 0.0000
# 4 0.0000 0.0000 0.0000 47.4431 0.0000 8.3982
# 5 7.3319 9.0923 12.5871 0.0000 21.5015 0.0000
# 6 -0.0001 0.0000 0.0000 8.3982 0.0000 37.0012
#
#
#
# Elastic Compliance Matrix: (Units=1/GPa)
#
#
# Indices 1 2 3 4 5 6 
#
# 1 0.022733 -0.006145 -0.002548 0.000000 -0.003662 0.000000
# 2 -0.006145 0.014248 -0.002403 0.000000 -0.002523 0.000000
# 3 -0.002548 -0.002403 0.008545 0.000000 -0.003117 0.000000
# 4 0.000000 0.000000 0.000000 0.021960 0.000000 -0.004984
# 5 -0.003662 -0.002523 -0.003117 0.000000 0.050649 0.000000
# 6 0.000000 0.000000 0.000000 -0.004984 0.000000 0.028157
#
#
# Mechanical properties :
#
#
# Convention : Reuss Voigt Hill
#
# Bulk Modulus (GPa) = 42.85703 53.53047 48.19375
# Shear Modulus (GPa) = 28.36698 33.98915 31.17807
#
# Velocity S-wave (km/s) = 3.56285 3.89997 3.73521
# Velocity P-wave (km/s) = 6.00860 6.65086 6.33787
#
# Compressibility (1/GPa) = 0.02333340
#
# Stress axis : x y z
#
# Youngs Moduli (GPa) = 43.98945 70.18534 117.03286
#
# Poissons Ratio (x) = 0.43126 0.29821
# Poissons Ratio (y) = 0.27030 0.28126
# Poissons Ratio (z) = 0.11209 0.16867
#
# Static dielectric constant tensor:
#      x y z
#    x 3.824710 0.000000 -0.055340 
#    y 0.000000 4.120770 0.000000 
#    z -0.055340 0.000000 4.367330 
# 
# 
# High freq. dielectric constant tensor:
#      x y z
#    x 1.861500 0.000000 -0.000210 
#    y 0.000000 1.896670 0.000000 
#    z -0.000210 0.000000 1.894030 
# 
# From -- ./inp_files/264160.got.cif
#   From: 2010.06.25/outbox.cif.g09.slc.cpg/sg15_133_cif.got.tgz:264160.got - 2010.06.28 07:06:18.
