data_PCOD8143244
_publ_section_title
;
Structure prediction by ZEFSAII (Michael W. Deem and Ramdas Pophale) SiO2 
 PCOD8143244
Probable space group: C 2/C
;
_chemical_formula_sum "Si O2"
_cell_formula_units_Z 48
_cell_length_a 30.627293
_cell_length_b 8.448984
_cell_length_c 18.500557
_cell_angle_alpha 90.000000
_cell_angle_beta 152.221878
_cell_angle_gamma 90.000000
_cell_volume 2231.152892
_symmetry_space_group_name_H-M "C 2/C"
_symmetry_group_IT_number 15
_symmetry_cell_setting 'monoclinic'
loop_
_space_group_symop_operation_xyz
x,y,z
-x,y,1/2-z
-x,-y,-z
x,-y,1/2+z
1/2+x,1/2+y,z
1/2-x,1/2+y,1/2-z
1/2-x,1/2-y,-z
1/2+x,1/2-y,1/2+z
loop_
_atom_site_type_symbol
_atom_site_label
_atom_site_fract_x
_atom_site_fract_y
_atom_site_fract_z
Si Si1 0.381979 0.392046 0.803602
Si Si2 0.779393 0.185272 0.868640
Si Si3 0.646133 0.751947 0.379929
Si Si4 0.971845 0.564017 0.287834
Si Si5 0.861374 0.416681 0.878945
Si Si6 0.434744 0.725219 0.859336
O O1 0.287239 0.318614 0.694816
O O2 0.415130 0.332387 0.772268
O O3 0.363830 0.580260 0.769917
O O4 0.461566 0.344235 0.976904
O O5 0.829324 0.256433 0.871557
O O6 0.728195 0.024522 0.771489
O O7 0.854893 0.157524 0.044535
O O8 0.750000 0.750000 0.500000
O O9 0.604734 0.926152 0.331674
O O10 0.926467 0.709724 0.265556
O O11 0.000000 0.625575 0.250000
O O12 0.066150 0.512466 0.466581
O O13 0.911643 0.371242 0.878001
#
# Coordination Sequence:
#
# PCOD8143244 Si02
#       6
#     8   8   8   8   8   8
#     4  10  21  40  64  95 128 165 218 264 329 384
#     4  11  23  41  63  95 132 171 215 274 326 392
#     4  10  21  40  64  92 127 167 214 265 324 389
#     4  12  23  43  66  95 128 171 223 266 327 393
#     4  12  23  42  67  95 129 174 222 266 332 391
#     4  11  22  40  67  93 125 171 213 272 321 388
#
# _framework density 21.513542000000001
#
# number of rings (size 3 to 8) (size 9 to 14) (size 15 to 20)
#    0.000    1.000    5.000    3.500    0.000    0.000 
#    3.000    5.000    0.000    0.000    0.000    0.000 
#    0.000    0.000    0.000    0.000    0.000    0.000 
#
# Total GULP energy -297579.466387 kJ/mol
# GULP energy per Si atom -12399.144433 kJ/mol
# Density = 2.146458 g / cm^3
# Si number density = 21.513542 Si / 1000 Ang^3
#
#
#
# Elastic Constant Matrix: (Units=GPa)
#
#
# Indices 1 2 3 4 5 6 
#
# 1 120.5102 28.7134 13.3994 0.0000 -26.8942 0.0000
# 2 28.7134 62.4424 6.9117 0.0000 -11.2069 0.0000
# 3 13.3994 6.9117 43.7359 0.0000 -15.5255 0.0000
# 4 0.0000 0.0000 0.0000 36.5187 0.0000 -0.3458
# 5 -26.8942 -11.2069 -15.5255 0.0000 33.6160 0.0000
# 6 0.0000 0.0000 0.0000 -0.3458 0.0000 33.8097
#
#
#
# Elastic Compliance Matrix: (Units=1/GPa)
#
#
# Indices 1 2 3 4 5 6 
#
# 1 0.010829 -0.003639 -0.000117 0.000000 0.007396 0.000000
# 2 -0.003639 0.018281 -0.000770 0.000000 0.002827 0.000000
# 3 -0.000117 -0.000770 0.027388 0.000000 0.012299 0.000000
# 4 0.000000 0.000000 0.000000 0.027386 0.000000 0.000280
# 5 0.007396 0.002827 0.012299 0.000000 0.042288 0.000000
# 6 0.000000 0.000000 0.000000 0.000280 0.000000 0.029580
#
#
# Mechanical properties :
#
#
# Convention : Reuss Voigt Hill
#
# Bulk Modulus (GPa) = 21.07725 36.08194 28.57959
# Shear Modulus (GPa) = 27.68256 32.63314 30.15785
#
# Velocity S-wave (km/s) = 3.59102 3.89892 3.74813
# Velocity P-wave (km/s) = 5.19734 6.08908 5.66080
#
# Compressibility (1/GPa) = 0.04744453
#
# Stress axis : x y z
#
# Youngs Moduli (GPa) = 92.34691 54.70207 36.51238
#
# Poissons Ratio (x) = 0.19907 0.00427
# Poissons Ratio (y) = 0.33606 0.02813
# Poissons Ratio (z) = 0.01080 0.04214
#
# Static dielectric constant tensor:
#      x y z
#    x 4.196940 0.000000 -0.486950 
#    y 0.000000 3.832920 0.000000 
#    z -0.486950 0.000000 4.188560 
# 
# 
# High freq. dielectric constant tensor:
#      x y z
#    x 1.853140 0.000000 -0.015750 
#    y 0.000000 1.830790 0.000000 
#    z -0.015750 0.000000 1.842910 
# 
# From -- ./inp_files/208910.got.cif
#   From: 2010.06.25/outbox.cif.g09.slc.cpg/sg15_105_cif.got.tgz:208910.got - 2010.06.28 07:06:18.
