data_PCOD8143301
_publ_section_title
;
Structure prediction by ZEFSAII (Michael W. Deem and Ramdas Pophale) SiO2 
 PCOD8143301
Probable space group: C 2/C
;
_chemical_formula_sum "Si O2"
_cell_formula_units_Z 52
_cell_length_a 17.003605
_cell_length_b 12.057084
_cell_length_c 14.637721
_cell_angle_alpha 90.000000
_cell_angle_beta 125.085824
_cell_angle_gamma 90.000000
_cell_volume 2455.641944
_symmetry_space_group_name_H-M "C 2/C"
_symmetry_group_IT_number 15
_symmetry_cell_setting 'monoclinic'
loop_
_space_group_symop_operation_xyz
x,y,z
-x,y,1/2-z
-x,-y,-z
x,-y,1/2+z
1/2+x,1/2+y,z
1/2-x,1/2+y,1/2-z
1/2-x,1/2-y,-z
1/2+x,1/2-y,1/2+z
loop_
_atom_site_type_symbol
_atom_site_label
_atom_site_fract_x
_atom_site_fract_y
_atom_site_fract_z
Si Si1 0.105715 0.312668 0.371632
Si Si2 0.868260 0.259116 0.808644
Si Si3 0.158554 0.106300 0.974196
Si Si4 0.298540 0.180695 0.926131
Si Si5 0.311987 0.634136 0.944089
Si Si6 0.500000 0.671711 0.750000
Si Si7 0.395836 0.961268 0.951041
O O1 0.196417 0.340167 0.365242
O O2 0.132295 0.193915 0.434421
O O3 0.107919 0.406609 0.451309
O O4 0.000000 0.309566 0.250000
O O5 0.779311 0.244462 0.684290
O O6 0.864057 0.168382 0.885785
O O7 0.860122 0.379792 0.848281
O O8 0.963243 0.247702 0.809630
O O9 0.261920 0.136095 0.999733
O O10 0.082694 0.089098 0.841419
O O11 0.125198 0.218030 0.007687
O O12 0.168179 0.996616 0.039684
O O13 0.335385 0.073184 0.898647
O O14 0.500000 0.000000 0.000000
#
# Coordination Sequence:
#
# PCOD8143301 Si02
#       7
#     8   8   8   8   8   4   8
#     4  10  23  42  66  98 134 176 222 273 335 392
#     4  10  24  41  66  93 130 174 219 274 335 393
#     4  10  21  40  65  89 129 172 212 268 329 394
#     4  10  22  40  61  94 129 170 214 268 331 386
#     4  10  22  43  65  99 135 169 223 275 329 398
#     4  10  22  44  60  94 130 172 220 268 332 404
#     4  11  23  42  63  98 130 166 225 278 321 399
#
# _framework density 21.175725
#
# number of rings (size 3 to 8) (size 9 to 14) (size 15 to 20)
#    0.000    1.846    1.538    0.923    5.385    0.615 
#    5.538    0.000    0.000    0.000    0.000    1.077 
#    0.000    0.000    0.000    0.000    0.000    0.000 
#
# Total GULP energy -322105.754202 kJ/mol
# GULP energy per Si atom -12388.682854 kJ/mol
# Density = 2.112753 g / cm^3
# Si number density = 21.175725 Si / 1000 Ang^3
#
#
#
# Elastic Constant Matrix: (Units=GPa)
#
#
# Indices 1 2 3 4 5 6 
#
# 1 112.9688 57.6288 43.0171 0.0000 -10.0580 0.0000
# 2 57.6288 177.1612 48.1032 0.0000 -5.5514 0.0000
# 3 43.0171 48.1032 94.9278 0.0000 6.0718 0.0000
# 4 0.0000 0.0000 0.0000 20.4010 0.0000 0.5939
# 5 -10.0580 -5.5514 6.0718 0.0000 40.3123 0.0000
# 6 0.0000 0.0000 0.0000 0.5939 0.0000 23.5348
#
#
#
# Elastic Compliance Matrix: (Units=1/GPa)
#
#
# Indices 1 2 3 4 5 6 
#
# 1 0.012177 -0.002668 -0.004379 0.000000 0.003330 0.000000
# 2 -0.002668 0.007210 -0.002490 0.000000 0.000702 0.000000
# 3 -0.004379 -0.002490 0.014007 0.000000 -0.003545 0.000000
# 4 0.000000 0.000000 0.000000 0.049053 0.000000 -0.001238
# 5 0.003330 0.000702 -0.003545 0.000000 0.026268 0.000000
# 6 0.000000 0.000000 0.000000 -0.001238 0.000000 0.042521
#
#
# Mechanical properties :
#
#
# Convention : Reuss Voigt Hill
#
# Bulk Modulus (GPa) = 69.82701 75.83957 72.83329
# Shear Modulus (GPa) = 28.55765 32.60354 30.58060
#
# Velocity S-wave (km/s) = 3.67632 3.92811 3.80430
# Velocity P-wave (km/s) = 7.14612 7.51436 7.33255
#
# Compressibility (1/GPa) = 0.01432111
#
# Stress axis : x y z
#
# Youngs Moduli (GPa) = 82.12255 138.68895 71.39147
#
# Poissons Ratio (x) = 0.36997 0.31264
# Poissons Ratio (y) = 0.21907 0.17775
# Poissons Ratio (z) = 0.35964 0.34531
#
# Static dielectric constant tensor:
#      x y z
#    x 3.872510 0.000000 0.090410 
#    y 0.000000 3.592840 0.000000 
#    z 0.090410 0.000000 3.773270 
# 
# 
# High freq. dielectric constant tensor:
#      x y z
#    x 1.826740 0.000000 0.002600 
#    y 0.000000 1.834860 0.000000 
#    z 0.002600 0.000000 1.831540 
# 
# From -- ./inp_files/161069.got.cif
#   From: 2010.06.25/outbox.cif.g09.slc.cpg/sg15_81_cif.got.tgz:161069.got - 2010.06.28 07:06:18.
