data_PCOD8143695
_publ_section_title
;
Structure prediction by ZEFSAII (Michael W. Deem and Ramdas Pophale) SiO2 
 PCOD8143695
Probable space group: C 2/C
;
_chemical_formula_sum "Si O2"
_cell_formula_units_Z 40
_cell_length_a 15.821756
_cell_length_b 7.937166
_cell_length_c 30.974066
_cell_angle_alpha 90.000000
_cell_angle_beta 150.683428
_cell_angle_gamma 90.000000
_cell_volume 1904.541861
_symmetry_space_group_name_H-M "C 2/C"
_symmetry_group_IT_number 15
_symmetry_cell_setting 'monoclinic'
loop_
_space_group_symop_operation_xyz
x,y,z
-x,y,1/2-z
-x,-y,-z
x,-y,1/2+z
1/2+x,1/2+y,z
1/2-x,1/2+y,1/2-z
1/2-x,1/2-y,-z
1/2+x,1/2-y,1/2+z
loop_
_atom_site_type_symbol
_atom_site_label
_atom_site_fract_x
_atom_site_fract_y
_atom_site_fract_z
Si Si1 0.571474 0.825347 0.549574
Si Si2 0.127623 0.382218 0.746338
Si Si3 0.764877 0.243435 0.220243
Si Si4 0.905117 0.103293 0.163297
Si Si5 0.788784 0.270515 0.623725
O O1 0.646068 0.846735 0.631226
O O2 0.731162 0.779455 0.588350
O O3 0.411685 0.693161 0.478015
O O4 0.500000 0.000000 0.500000
O O5 0.218253 0.561801 0.784745
O O6 0.169179 0.271569 0.723022
O O7 0.197667 0.277262 0.818439
O O8 0.918979 0.404238 0.659166
O O9 0.956792 0.161222 0.311283
O O10 0.000000 0.136964 0.250000
O O11 0.851161 0.909968 0.133444
#
# Coordination Sequence:
#
# PCOD8143695 Si02
#       5
#     8   8   8   8   8
#     4   9  21  38  69  90 120 162 211 252 317 358
#     4  11  24  38  63  91 128 164 209 250 312 367
#     4  11  24  40  64  94 123 166 209 255 303 373
#     4   9  17  37  65  85 118 162 204 243 310 363
#     4  10  21  41  63  90 123 164 201 261 307 368
#
# _framework density 21.002424999999999
#
# number of rings (size 3 to 8) (size 9 to 14) (size 15 to 20)
#    0.000    2.000    2.000    1.200   14.000    1.600 
#    0.000    1.000    0.000    0.000    0.000    0.000 
#    0.000    0.000    0.000    0.000    0.000    0.000 
#
# Total GULP energy -247788.868056 kJ/mol
# GULP energy per Si atom -12389.443403 kJ/mol
# Density = 2.095462 g / cm^3
# Si number density = 21.002425 Si / 1000 Ang^3
#
#
#
# Elastic Constant Matrix: (Units=GPa)
#
#
# Indices 1 2 3 4 5 6 
#
# 1 143.6955 21.7288 64.3867 -0.0001 9.9096 0.0003
# 2 21.7288 54.0459 17.0967 -0.0001 3.7865 0.0007
# 3 64.3867 17.0967 130.6460 0.0001 35.4234 0.0001
# 4 -0.0001 -0.0001 0.0001 22.6091 0.0000 8.6267
# 5 9.9096 3.7865 35.4234 0.0000 27.2915 0.0000
# 6 0.0003 0.0007 0.0001 8.6267 0.0000 31.3721
#
#
#
# Elastic Compliance Matrix: (Units=1/GPa)
#
#
# Indices 1 2 3 4 5 6 
#
# 1 0.009478 -0.002369 -0.005427 0.000000 0.003931 0.000000
# 2 -0.002369 0.019909 -0.001423 0.000000 -0.000055 -0.000001
# 3 -0.005427 -0.001423 0.015318 0.000000 -0.017714 0.000000
# 4 0.000000 0.000000 0.000000 0.049415 0.000000 -0.013588
# 5 0.003931 -0.000055 -0.017714 0.000000 0.058214 0.000000
# 6 0.000000 -0.000001 0.000000 -0.013588 0.000000 0.035612
#
#
# Mechanical properties :
#
#
# Convention : Reuss Voigt Hill
#
# Bulk Modulus (GPa) = 38.06974 59.42354 48.74664
# Shear Modulus (GPa) = 23.24065 31.26620 27.25342
#
# Velocity S-wave (km/s) = 3.33012 3.86255 3.60617
# Velocity P-wave (km/s) = 5.74038 6.94604 6.37179
#
# Compressibility (1/GPa) = 0.02626758
#
# Stress axis : x y z
#
# Youngs Moduli (GPa) = 105.50731 50.22781 65.28207
#
# Poissons Ratio (x) = 0.11900 0.35428
# Poissons Ratio (y) = 0.24997 0.09288
# Poissons Ratio (z) = 0.57258 0.07146
#
# Static dielectric constant tensor:
#      x y z
#    x 4.136530 0.000000 0.778240 
#    y 0.000000 3.587400 0.000000 
#    z 0.778240 0.000000 4.523180 
# 
# 
# High freq. dielectric constant tensor:
#      x y z
#    x 1.820040 0.000000 0.036490 
#    y 0.000000 1.804140 0.000000 
#    z 0.036490 0.000000 1.819340 
# 
# From -- ./inp_files/242668.got.cif
#   From: 2010.06.25/outbox.cif.g09.slc.cpg/sg15_122_cif.got.tgz:242668.got - 2010.06.28 07:06:18.
