data_PCOD8143460
_publ_section_title
;
Structure prediction by ZEFSAII (Michael W. Deem and Ramdas Pophale) SiO2 
 PCOD8143460
Probable space group: C 2/C
;
_chemical_formula_sum "Si O2"
_cell_formula_units_Z 40
_cell_length_a 17.349224
_cell_length_b 6.669085
_cell_length_c 16.245550
_cell_angle_alpha 90.000000
_cell_angle_beta 88.865803
_cell_angle_gamma 90.000000
_cell_volume 1879.297903
_symmetry_space_group_name_H-M "C 2/C"
_symmetry_group_IT_number 15
_symmetry_cell_setting 'monoclinic'
loop_
_space_group_symop_operation_xyz
x,y,z
-x,y,1/2-z
-x,-y,-z
x,-y,1/2+z
1/2+x,1/2+y,z
1/2-x,1/2+y,1/2-z
1/2-x,1/2-y,-z
1/2+x,1/2-y,1/2+z
loop_
_atom_site_type_symbol
_atom_site_label
_atom_site_fract_x
_atom_site_fract_y
_atom_site_fract_z
Si Si1 0.184238 0.011806 0.192311
Si Si2 0.354466 0.135782 0.700323
Si Si3 0.397503 0.111205 0.346383
Si Si4 0.166962 0.284636 0.039539
Si Si5 0.548843 0.915357 0.926131
O O1 0.161619 0.130723 0.277074
O O2 0.154229 0.124442 0.111589
O O3 0.275889 0.988739 0.190658
O O4 0.145669 0.796981 0.192949
O O5 0.404050 0.051754 0.774822
O O6 0.404432 0.100034 0.617149
O O7 0.484817 0.180588 0.366909
O O8 0.348404 0.009719 0.423067
O O9 0.250000 0.250000 0.000000
O O10 0.107500 0.251719 0.964251
O O11 0.500000 0.000000 0.000000
#
# Coordination Sequence:
#
# PCOD8143460 Si02
#       5
#     8   8   8   8   8
#     4  11  22  39  69  99 123 174 225 270 322 390
#     4  11  21  41  68  93 129 172 225 268 326 392
#     4  10  23  41  64  98 133 167 216 272 328 381
#     4  10  21  40  67  96 131 170 219 264 325 395
#     4  10  22  44  64  91 136 171 205 275 333 383
#
# _framework density 21.284545000000001
#
# number of rings (size 3 to 8) (size 9 to 14) (size 15 to 20)
#    0.000    1.600    4.000    0.600    0.000    1.600 
#    0.000   12.000    0.000    0.000    0.000    0.000 
#    0.000    0.000    0.000    0.000    0.000    0.000 
#
# Total GULP energy -247800.822598 kJ/mol
# GULP energy per Si atom -12390.041130 kJ/mol
# Density = 2.123610 g / cm^3
# Si number density = 21.284545 Si / 1000 Ang^3
#
#
#
# Elastic Constant Matrix: (Units=GPa)
#
#
# Indices 1 2 3 4 5 6 
#
# 1 143.4650 30.2739 50.3197 0.0000 11.2226 0.0000
# 2 30.2739 82.3754 31.9911 0.0000 -4.4100 0.0000
# 3 50.3197 31.9911 91.6716 0.0000 -9.4123 0.0000
# 4 0.0000 0.0000 0.0000 29.6413 0.0000 7.8551
# 5 11.2226 -4.4100 -9.4123 0.0000 49.7972 0.0000
# 6 0.0000 0.0000 0.0000 7.8551 0.0000 26.6999
#
#
#
# Elastic Compliance Matrix: (Units=1/GPa)
#
#
# Indices 1 2 3 4 5 6 
#
# 1 0.009265 -0.001704 -0.004814 0.000000 -0.003149 0.000000
# 2 -0.001704 0.014361 -0.003984 0.000000 0.000903 0.000000
# 3 -0.004814 -0.003984 0.015314 0.000000 0.003627 0.000000
# 4 0.000000 0.000000 0.000000 0.036589 0.000000 -0.010765
# 5 -0.003149 0.000903 0.003627 0.000000 0.021557 0.000000
# 6 0.000000 0.000000 0.000000 -0.010765 0.000000 0.040620
#
#
# Mechanical properties :
#
#
# Convention : Reuss Voigt Hill
#
# Bulk Modulus (GPa) = 55.75383 60.29793 58.02588
# Shear Modulus (GPa) = 30.36039 34.88948 32.62493
#
# Velocity S-wave (km/s) = 3.78088 4.05309 3.91935
# Velocity P-wave (km/s) = 6.73137 7.09185 6.91396
#
# Compressibility (1/GPa) = 0.01793599
#
# Stress axis : x y z
#
# Youngs Moduli (GPa) = 107.93557 69.63224 65.30093
#
# Poissons Ratio (x) = 0.11864 0.31438
# Poissons Ratio (y) = 0.18390 0.26014
# Poissons Ratio (z) = 0.51963 0.27740
#
# Static dielectric constant tensor:
#      x y z
#    x 3.217230 0.000000 -0.406940 
#    y 0.000000 5.121580 0.000000 
#    z -0.406940 0.000000 3.664360 
# 
# 
# High freq. dielectric constant tensor:
#      x y z
#    x 1.852200 0.000000 0.014680 
#    y 0.000000 1.798130 0.000000 
#    z 0.014680 0.000000 1.845520 
# 
# From -- ./inp_files/207981.got.cif
#   From: 2010.06.25/outbox.cif.g09.slc.cpg/sg15_104_cif.got.tgz:207981.got - 2010.06.28 07:06:18.
