data_PCOD8143225
_publ_section_title
;
Structure prediction by ZEFSAII (Michael W. Deem and Ramdas Pophale) SiO2 
 PCOD8143225
Probable space group: C 2/C
;
_chemical_formula_sum "Si O2"
_cell_formula_units_Z 32
_cell_length_a 11.698374
_cell_length_b 17.141950
_cell_length_c 10.219467
_cell_angle_alpha 90.000000
_cell_angle_beta 39.842078
_cell_angle_gamma 90.000000
_cell_volume 1312.958213
_symmetry_space_group_name_H-M "C 2/C"
_symmetry_group_IT_number 15
_symmetry_cell_setting 'monoclinic'
loop_
_space_group_symop_operation_xyz
x,y,z
-x,y,1/2-z
-x,-y,-z
x,-y,1/2+z
1/2+x,1/2+y,z
1/2-x,1/2+y,1/2-z
1/2-x,1/2-y,-z
1/2+x,1/2-y,1/2+z
loop_
_atom_site_type_symbol
_atom_site_label
_atom_site_fract_x
_atom_site_fract_y
_atom_site_fract_z
Si Si1 0.031548 0.678118 0.366617
Si Si2 0.307806 0.494823 0.431985
Si Si3 0.914338 0.149629 0.994674
Si Si4 0.727025 0.923890 0.251871
O O1 0.234992 0.665552 0.237262
O O2 0.000000 0.638537 0.250000
O O3 0.992008 0.768783 0.378179
O O4 0.907915 0.644862 0.591791
O O5 0.347550 0.403462 0.431644
O O6 0.208884 0.492479 0.378085
O O7 0.184036 0.537557 0.648973
O O8 0.500000 0.537771 0.250000
O O9 0.066985 0.104129 0.940227
#
# Coordination Sequence:
#
# PCOD8143225 Si02
#       4
#     8   8   8   8
#     4  12  21  35  61  95 126 153 208 262 311 351
#     4  10  21  40  64  90 124 164 205 248 313 362
#     4  11  21  36  61  92 125 155 204 264 309 347
#     4  11  23  41  63  94 125 164 200 257 307 369
#
# _framework density 24.372440999999998
#
# number of rings (size 3 to 8) (size 9 to 14) (size 15 to 20)
#    0.000    1.000    5.000    6.000    0.000    1.000 
#    0.000    0.000    0.000    6.000    0.000    0.000 
#    0.000    0.000    0.000    0.000    0.000    0.000 
#
# Total GULP energy -198258.852569 kJ/mol
# GULP energy per Si atom -12391.178286 kJ/mol
# Density = 2.431697 g / cm^3
# Si number density = 24.372441 Si / 1000 Ang^3
#
#
#
# Elastic Constant Matrix: (Units=GPa)
#
#
# Indices 1 2 3 4 5 6 
#
# 1 55.7311 18.0390 48.7414 0.0029 5.5084 -0.0022
# 2 18.0390 82.5892 52.6726 0.0011 16.4693 -0.0019
# 3 48.7414 52.6726 138.6923 0.0018 5.3088 -0.0061
# 4 0.0029 0.0011 0.0018 25.7498 -0.0041 1.5142
# 5 5.5084 16.4693 5.3088 -0.0041 42.3084 0.0037
# 6 -0.0022 -0.0019 -0.0061 1.5142 0.0037 5.8435
#
#
#
# Elastic Compliance Matrix: (Units=1/GPa)
#
#
# Indices 1 2 3 4 5 6 
#
# 1 0.026154 0.000782 -0.009391 -0.000003 -0.002531 0.000003
# 2 0.000782 0.017377 -0.006643 -0.000002 -0.006033 0.000003
# 3 -0.009391 -0.006643 0.012950 0.000000 0.002184 0.000006
# 4 -0.000003 -0.000002 0.000000 0.039436 0.000006 -0.010219
# 5 -0.002531 -0.006033 0.002184 0.000006 0.026040 -0.000019
# 6 0.000003 0.000003 0.000006 -0.010219 -0.000019 0.173778
#
#
# Mechanical properties :
#
#
# Convention : Reuss Voigt Hill
#
# Bulk Modulus (GPa) = 38.49810 57.32428 47.91119
# Shear Modulus (GPa) = 14.92983 25.28430 20.10707
#
# Velocity S-wave (km/s) = 2.47770 3.22438 2.87538
# Velocity P-wave (km/s) = 4.90055 6.11828 5.54296
#
# Compressibility (1/GPa) = 0.02597531
#
# Stress axis : x y z
#
# Youngs Moduli (GPa) = 38.23497 57.54640 77.21922
#
# Poissons Ratio (x) = -0.04499 0.72520
# Poissons Ratio (y) = -0.02989 0.51300
# Poissons Ratio (z) = 0.35908 0.38230
#
# Static dielectric constant tensor:
#      x y z
#    x 3.826910 0.000000 -0.359670 
#    y 0.000000 4.093670 0.000000 
#    z -0.359670 0.000000 4.727820 
# 
# 
# High freq. dielectric constant tensor:
#      x y z
#    x 1.919200 0.000000 -0.025030 
#    y 0.000000 1.947750 0.000000 
#    z -0.025030 0.000000 1.991270 
# 
# From -- ./inp_files/30617.got.cif
#   From: 2010.06.25/outbox.cif.g09.slc.cpg/sg15_16_cif.got.tgz:30617.got - 2010.06.28 07:06:18.
