data_PCOD8143376
_publ_section_title
;
Structure prediction by ZEFSAII (Michael W. Deem and Ramdas Pophale) SiO2 
 PCOD8143376
Probable space group: C 2/C
;
_chemical_formula_sum "Si O2"
_cell_formula_units_Z 56
_cell_length_a 9.839122
_cell_length_b 17.611759
_cell_length_c 16.126550
_cell_angle_alpha 90.000000
_cell_angle_beta 105.628928
_cell_angle_gamma 90.000000
_cell_volume 2691.155925
_symmetry_space_group_name_H-M "C 2/C"
_symmetry_group_IT_number 15
_symmetry_cell_setting 'monoclinic'
loop_
_space_group_symop_operation_xyz
x,y,z
-x,y,1/2-z
-x,-y,-z
x,-y,1/2+z
1/2+x,1/2+y,z
1/2-x,1/2+y,1/2-z
1/2-x,1/2-y,-z
1/2+x,1/2-y,1/2+z
loop_
_atom_site_type_symbol
_atom_site_label
_atom_site_fract_x
_atom_site_fract_y
_atom_site_fract_z
Si Si1 0.762566 0.297499 0.180360
Si Si2 0.942049 0.666029 0.324419
Si Si3 0.827080 0.021424 0.549446
Si Si4 0.828555 0.327776 0.503063
Si Si5 0.673493 0.998371 0.695492
Si Si6 0.052301 0.655627 0.649314
Si Si7 0.350897 0.451768 0.381790
O O1 0.684649 0.216711 0.157628
O O2 0.808513 0.309161 0.283540
O O3 0.653315 0.360769 0.129454
O O4 0.908184 0.304308 0.153268
O O5 0.892634 0.581945 0.295438
O O6 0.000000 0.705372 0.250000
O O7 0.076094 0.656024 0.403445
O O8 0.789658 0.108508 0.526785
O O9 0.992490 0.015346 0.593472
O O10 0.750757 0.991307 0.619323
O O11 0.781952 0.973090 0.460144
O O12 0.750000 0.250000 0.500000
O O13 0.936053 0.326591 0.444549
O O14 0.553909 0.064803 0.669760
O O15 0.775122 0.012691 0.789764
#
# Coordination Sequence:
#
# PCOD8143376 Si02
#       7
#     8   8   8   8   8   8   8
#     4  10  22  42  63  91 123 168 209 263 321 383
#     4  12  26  40  64  96 130 165 210 275 326 383
#     4  10  22  40  62  96 124 171 214 263 310 393
#     4  11  23  40  63  92 125 167 212 265 321 382
#     4  10  23  41  65  94 126 169 216 266 321 383
#     4   9  22  41  66  87 123 170 215 256 316 394
#     4  10  21  40  66  89 129 168 213 260 322 383
#
# _framework density 20.808902
#
# number of rings (size 3 to 8) (size 9 to 14) (size 15 to 20)
#    0.000    1.714    0.000    3.000    8.000    4.000 
#   10.286    0.000    0.000    0.000    0.000    0.000 
#    0.000    0.000    0.000    0.000    0.000    0.000 
#
# Total GULP energy -347141.516245 kJ/mol
# GULP energy per Si atom -12397.911294 kJ/mol
# Density = 2.076154 g / cm^3
# Si number density = 20.808902 Si / 1000 Ang^3
#
#
#
# Elastic Constant Matrix: (Units=GPa)
#
#
# Indices 1 2 3 4 5 6 
#
# 1 89.7692 36.2903 43.6630 0.0000 -8.0889 0.0000
# 2 36.2903 119.4314 29.3210 0.0000 4.3715 0.0000
# 3 43.6630 29.3210 144.2258 0.0000 -15.1708 0.0000
# 4 0.0000 0.0000 0.0000 17.0181 0.0000 -2.4658
# 5 -8.0889 4.3715 -15.1708 0.0000 31.9565 0.0000
# 6 0.0000 0.0000 0.0000 -2.4658 0.0000 27.6685
#
#
#
# Elastic Compliance Matrix: (Units=1/GPa)
#
#
# Indices 1 2 3 4 5 6 
#
# 1 0.014495 -0.003671 -0.003372 0.000000 0.002571 0.000000
# 2 -0.003671 0.009887 -0.001199 0.000000 -0.002851 0.000000
# 3 -0.003372 -0.001199 0.008553 0.000000 0.003371 0.000000
# 4 0.000000 0.000000 0.000000 0.059530 0.000000 0.005305
# 5 0.002571 -0.002851 0.003371 0.000000 0.033933 0.000000
# 6 0.000000 0.000000 0.000000 0.005305 0.000000 0.036615
#
#
# Mechanical properties :
#
#
# Convention : Reuss Voigt Hill
#
# Bulk Modulus (GPa) = 60.78026 63.55278 62.16652
# Shear Modulus (GPa) = 27.03009 31.60542 29.31776
#
# Velocity S-wave (km/s) = 3.60803 3.90146 3.75761
# Velocity P-wave (km/s) = 6.82857 7.13461 6.98327
#
# Compressibility (1/GPa) = 0.01645271
#
# Stress axis : x y z
#
# Youngs Moduli (GPa) = 68.98825 101.14262 116.92458
#
# Poissons Ratio (x) = 0.37128 0.39422
# Poissons Ratio (y) = 0.25325 0.14014
# Poissons Ratio (z) = 0.23260 0.12123
#
# Static dielectric constant tensor:
#      x y z
#    x 3.713860 0.000000 -0.134270 
#    y 0.000000 3.725000 0.000000 
#    z -0.134270 0.000000 4.071460 
# 
# 
# High freq. dielectric constant tensor:
#      x y z
#    x 1.814840 0.000000 -0.003840 
#    y 0.000000 1.807690 0.000000 
#    z -0.003840 0.000000 1.836120 
# 
# From -- ./inp_files/191022.got.cif
#   From: 2010.06.25/outbox.cif.g09.slc.cpg/sg15_96_cif.got.tgz:191022.got - 2010.06.28 07:06:18.
