data_PCOD8143156
_publ_section_title
;
Structure prediction by ZEFSAII (Michael W. Deem and Ramdas Pophale) SiO2 
 PCOD8143156
Probable space group: C 2/C
;
_chemical_formula_sum "Si O2"
_cell_formula_units_Z 64
_cell_length_a 11.939744
_cell_length_b 29.590288
_cell_length_c 14.545321
_cell_angle_alpha 90.000000
_cell_angle_beta 39.712590
_cell_angle_gamma 90.000000
_cell_volume 3283.412640
_symmetry_space_group_name_H-M "C 2/C"
_symmetry_group_IT_number 15
_symmetry_cell_setting 'monoclinic'
loop_
_space_group_symop_operation_xyz
x,y,z
-x,y,1/2-z
-x,-y,-z
x,-y,1/2+z
1/2+x,1/2+y,z
1/2-x,1/2+y,1/2-z
1/2-x,1/2-y,-z
1/2+x,1/2-y,1/2+z
loop_
_atom_site_type_symbol
_atom_site_label
_atom_site_fract_x
_atom_site_fract_y
_atom_site_fract_z
Si Si1 0.821001 0.383299 0.678531
Si Si2 0.224241 0.989621 0.928898
Si Si3 0.609211 0.795111 0.771205
Si Si4 0.227733 0.159771 0.870679
Si Si5 0.510293 0.255803 0.986623
Si Si6 0.004415 0.525493 0.400446
Si Si7 0.492934 0.425880 0.968342
Si Si8 0.092792 0.326752 0.053366
O O1 0.853583 0.348379 0.741325
O O2 0.966753 0.421953 0.595268
O O3 0.628569 0.405178 0.808955
O O4 0.830624 0.357100 0.576559
O O5 0.347910 0.994753 0.760790
O O6 0.321286 0.978843 0.962692
O O7 0.091040 0.948474 0.993439
O O8 0.122832 0.036388 0.009934
O O9 0.500000 0.785296 0.750000
O O10 0.791953 0.768606 0.662280
O O11 0.482829 0.777339 0.930906
O O12 0.272765 0.167152 0.948724
O O13 0.399433 0.156272 0.700194
O O14 0.102709 0.200249 0.918164
O O15 0.130302 0.112965 0.914571
O O16 0.420621 0.226701 0.961372
O O17 0.000000 0.500000 0.500000
#
# Coordination Sequence:
#
# PCOD8143156 Si02
#       8
#     8   8   8   8   8   8   8   8
#     4  10  23  40  61  92 124 156 213 251 310 381
#     4   9  22  42  62  89 127 162 207 263 321 375
#     4  11  23  39  66  88 122 165 208 256 310 375
#     4  11  22  38  66  84 125 166 201 253 318 366
#     4  11  21  43  58  91 124 157 207 256 307 369
#     4  10  22  39  66  89 123 169 208 262 318 380
#     4  10  21  40  63  90 120 163 203 259 317 370
#     4  10  24  39  59  91 124 163 205 253 306 382
#
# _framework density 19.491914999999999
#
# number of rings (size 3 to 8) (size 9 to 14) (size 15 to 20)
#    0.000    1.750    2.500    0.750    7.000    1.500 
#    2.250    1.875    0.000    0.000    0.000    0.000 
#    0.000    0.000    0.000    0.000    0.000    0.000 
#
# Total GULP energy -396848.944749 kJ/mol
# GULP energy per Si atom -12401.529523 kJ/mol
# Density = 1.944755 g / cm^3
# Si number density = 19.491915 Si / 1000 Ang^3
#
#
#
# Elastic Constant Matrix: (Units=GPa)
#
#
# Indices 1 2 3 4 5 6 
#
# 1 81.7692 36.2134 19.7891 0.0000 -1.8449 0.0000
# 2 36.2134 138.4732 38.5840 0.0000 -8.5616 0.0000
# 3 19.7891 38.5840 61.1507 0.0000 1.1609 0.0000
# 4 0.0000 0.0000 0.0000 42.8067 0.0000 -9.9792
# 5 -1.8449 -8.5616 1.1609 0.0000 26.7665 0.0000
# 6 0.0000 0.0000 0.0000 -9.9792 0.0000 16.7756
#
#
#
# Elastic Compliance Matrix: (Units=1/GPa)
#
#
# Indices 1 2 3 4 5 6 
#
# 1 0.014199 -0.002939 -0.002743 0.000000 0.000158 0.000000
# 2 -0.002939 0.009626 -0.005181 0.000000 0.003101 0.000000
# 3 -0.002743 -0.005181 0.020562 0.000000 -0.002738 0.000000
# 4 0.000000 0.000000 0.000000 0.027122 0.000000 0.016134
# 5 0.000158 0.003101 -0.002738 0.000000 0.038482 0.000000
# 6 0.000000 0.000000 0.000000 0.016134 0.000000 0.069208
#
#
# Mechanical properties :
#
#
# Convention : Reuss Voigt Hill
#
# Bulk Modulus (GPa) = 44.13267 52.28513 48.20890
# Shear Modulus (GPa) = 23.98331 29.72353 26.85342
#
# Velocity S-wave (km/s) = 3.51154 3.90925 3.71572
# Velocity P-wave (km/s) = 6.25555 6.87449 6.57231
#
# Compressibility (1/GPa) = 0.02265895
#
# Stress axis : x y z
#
# Youngs Moduli (GPa) = 70.42911 103.88910 48.63347
#
# Poissons Ratio (x) = 0.30534 0.13342
# Poissons Ratio (y) = 0.20700 0.25198
# Poissons Ratio (z) = 0.19322 0.53827
#
# Static dielectric constant tensor:
#      x y z
#    x 3.460050 0.000000 -0.119510 
#    y 0.000000 3.716550 0.000000 
#    z -0.119510 0.000000 3.553780 
# 
# 
# High freq. dielectric constant tensor:
#      x y z
#    x 1.753030 0.000000 -0.009090 
#    y 0.000000 1.774330 0.000000 
#    z -0.009090 0.000000 1.759120 
# 
# From -- ./inp_files/148748.got.cif
#   From: 2010.06.25/outbox.cif.g09.slc.cpg/sg15_75_cif.got.tgz:148748.got - 2010.06.28 07:06:18.
