data_PCOD8143067
_publ_section_title
;
Structure prediction by ZEFSAII (Michael W. Deem and Ramdas Pophale) SiO2 
 PCOD8143067
Probable space group: C 2/C
;
_chemical_formula_sum "Si O2"
_cell_formula_units_Z 44
_cell_length_a 8.935881
_cell_length_b 28.930269
_cell_length_c 8.594345
_cell_angle_alpha 90.000000
_cell_angle_beta 78.482399
_cell_angle_gamma 90.000000
_cell_volume 2177.048849
_symmetry_space_group_name_H-M "C 2/C"
_symmetry_group_IT_number 15
_symmetry_cell_setting 'monoclinic'
loop_
_space_group_symop_operation_xyz
x,y,z
-x,y,1/2-z
-x,-y,-z
x,-y,1/2+z
1/2+x,1/2+y,z
1/2-x,1/2+y,1/2-z
1/2-x,1/2-y,-z
1/2+x,1/2-y,1/2+z
loop_
_atom_site_type_symbol
_atom_site_label
_atom_site_fract_x
_atom_site_fract_y
_atom_site_fract_z
Si Si1 0.557949 0.095046 0.987614
Si Si2 0.500000 0.601350 0.250000
Si Si3 0.740311 0.177254 0.808302
Si Si4 0.500000 0.020564 0.750000
Si Si5 0.195585 0.565560 0.248033
Si Si6 0.000000 0.249496 0.250000
Si Si7 0.995196 0.175803 0.507046
O O1 0.611082 0.138511 0.872777
O O2 0.490984 0.053018 0.901050
O O3 0.702752 0.081745 0.065418
O O4 0.415846 0.101578 0.135925
O O5 0.357254 0.567504 0.298680
O O6 0.529919 0.631533 0.395937
O O7 0.647104 0.221834 0.773600
O O8 0.851896 0.162112 0.645316
O O9 0.849696 0.188667 0.931870
O O10 0.355229 0.987775 0.748018
O O11 0.948407 0.218700 0.407693
#
# Coordination Sequence:
#
# PCOD8143067 Si02
#       7
#     8   4   8   4   8   4   8
#     4  10  21  40  64  92 119 164 208 251 300 358
#     4  11  22  40  61  86 128 166 197 250 320 359
#     4  11  22  42  65  94 119 164 209 250 306 366
#     4  10  21  40  63  92 126 154 215 260 285 362
#     4  10  21  40  61  90 124 166 203 250 306 359
#     4  11  23  40  66  92 122 164 206 248 311 367
#     4  10  24  42  59  90 134 154 200 261 305 364
#
# _framework density 20.210847999999999
#
# number of rings (size 3 to 8) (size 9 to 14) (size 15 to 20)
#    0.000    1.818    1.818    3.818    5.091    0.000 
#    0.000    7.273    0.000    0.000    0.000    0.000 
#    0.000    0.000    0.000    0.000    0.000    0.000 
#
# Total GULP energy -272570.125754 kJ/mol
# GULP energy per Si atom -12389.551171 kJ/mol
# Density = 2.016485 g / cm^3
# Si number density = 20.210848 Si / 1000 Ang^3
#
#
#
# Elastic Constant Matrix: (Units=GPa)
#
#
# Indices 1 2 3 4 5 6 
#
# 1 144.8640 54.8715 47.7900 0.0000 13.1946 0.0000
# 2 54.8715 105.3525 46.2899 0.0000 4.3129 0.0000
# 3 47.7900 46.2899 112.7044 0.0000 6.1130 0.0000
# 4 0.0000 0.0000 0.0000 27.2554 0.0000 16.6982
# 5 13.1946 4.3129 6.1130 0.0000 28.9130 0.0000
# 6 0.0000 0.0000 0.0000 16.6982 0.0000 20.0527
#
#
#
# Elastic Compliance Matrix: (Units=1/GPa)
#
#
# Indices 1 2 3 4 5 6 
#
# 1 0.009363 -0.003754 -0.002253 0.000000 -0.003237 0.000000
# 2 -0.003754 0.013103 -0.003820 0.000000 0.000567 0.000000
# 3 -0.002253 -0.003820 0.011442 0.000000 -0.000821 0.000000
# 4 0.000000 0.000000 0.000000 0.074903 0.000000 -0.062373
# 5 -0.003237 0.000567 -0.000821 0.000000 0.036153 0.000000
# 6 0.000000 0.000000 0.000000 -0.062373 0.000000 0.101808
#
#
# Mechanical properties :
#
#
# Convention : Reuss Voigt Hill
#
# Bulk Modulus (GPa) = 70.16225 73.42486 71.79355
# Shear Modulus (GPa) = 18.43820 29.50887 23.97354
#
# Velocity S-wave (km/s) = 3.02369 3.82521 3.44782
# Velocity P-wave (km/s) = 6.85426 7.47783 7.17282
#
# Compressibility (1/GPa) = 0.01425268
#
# Stress axis : x y z
#
# Youngs Moduli (GPa) = 106.80301 76.32005 87.40041
#
# Poissons Ratio (x) = 0.28653 0.19689
# Poissons Ratio (y) = 0.40097 0.33390
# Poissons Ratio (z) = 0.24059 0.29157
#
# Static dielectric constant tensor:
#      x y z
#    x 3.615340 0.000000 0.233890 
#    y 0.000000 3.450910 0.000000 
#    z 0.233890 0.000000 3.955900 
# 
# 
# High freq. dielectric constant tensor:
#      x y z
#    x 1.788230 0.000000 0.019520 
#    y 0.000000 1.771970 0.000000 
#    z 0.019520 0.000000 1.806730 
# 
# From -- ./inp_files/25574.got.cif
#   From: 2010.06.25/outbox.cif.g09.slc.cpg/sg15_13_cif.got.tgz:25574.got - 2010.06.28 07:06:18.
