data_PCOD8143299
_publ_section_title
;
Structure prediction by ZEFSAII (Michael W. Deem and Ramdas Pophale) SiO2 
 PCOD8143299
Probable space group: C 2/C
;
_chemical_formula_sum "Si O2"
_cell_formula_units_Z 52
_cell_length_a 19.505323
_cell_length_b 24.734014
_cell_length_c 5.152579
_cell_angle_alpha 90.000000
_cell_angle_beta 68.568340
_cell_angle_gamma 90.000000
_cell_volume 2313.950168
_symmetry_space_group_name_H-M "C 2/C"
_symmetry_group_IT_number 15
_symmetry_cell_setting 'monoclinic'
loop_
_space_group_symop_operation_xyz
x,y,z
-x,y,1/2-z
-x,-y,-z
x,-y,1/2+z
1/2+x,1/2+y,z
1/2-x,1/2+y,1/2-z
1/2-x,1/2-y,-z
1/2+x,1/2-y,1/2+z
loop_
_atom_site_type_symbol
_atom_site_label
_atom_site_fract_x
_atom_site_fract_y
_atom_site_fract_z
Si Si1 0.500000 0.801365 0.250000
Si Si2 0.414934 0.466180 0.359184
Si Si3 0.711823 0.395405 0.140447
Si Si4 0.766355 0.172441 0.370306
Si Si5 0.637493 0.229919 0.806281
Si Si6 0.081617 0.355402 0.738443
Si Si7 0.845312 0.466365 0.996507
O O1 0.449307 0.762249 0.144807
O O2 0.433251 0.841152 0.440970
O O3 0.500000 0.449095 0.250000
O O4 0.395634 0.487784 0.672910
O O5 0.369121 0.412824 0.345327
O O6 0.707937 0.358193 0.402002
O O7 0.752610 0.367839 0.838293
O O8 0.759923 0.449122 0.124506
O O9 0.692139 0.206680 0.510045
O O10 0.832113 0.210551 0.169663
O O11 0.640515 0.187332 0.040311
O O12 0.103166 0.415839 0.640498
O O13 0.000000 0.342546 0.750000
O O14 0.863475 0.511431 0.756667
#
# Coordination Sequence:
#
# PCOD8143299 Si02
#       7
#     4   8   8   8   8   8   8
#     4  10  22  42  72  88 138 174 228 260 336 400
#     4  10  21  40  65  89 126 175 220 261 326 396
#     4  12  23  43  63 100 130 173 211 284 326 392
#     4  11  25  40  72  94 136 165 223 265 336 389
#     4  10  23  43  65 100 125 180 213 271 321 404
#     4  10  23  42  66  92 134 177 221 266 331 392
#     4  12  26  41  66  96 131 170 225 279 324 386
#
# _framework density 22.472396
#
# number of rings (size 3 to 8) (size 9 to 14) (size 15 to 20)
#    0.000    1.231    1.538    3.692    6.462    1.846 
#    2.769    0.000    0.000    0.000    0.000    0.000 
#    0.000    0.000    0.000    0.000    0.000    0.000 
#
# Total GULP energy -322160.110152 kJ/mol
# GULP energy per Si atom -12390.773467 kJ/mol
# Density = 2.242125 g / cm^3
# Si number density = 22.472396 Si / 1000 Ang^3
#
#
#
# Elastic Constant Matrix: (Units=GPa)
#
#
# Indices 1 2 3 4 5 6 
#
# 1 72.8078 14.8249 10.1890 0.0000 -4.2264 0.0000
# 2 14.8249 76.9984 34.5049 0.0000 -7.7368 0.0000
# 3 10.1890 34.5049 93.8331 0.0000 1.6734 0.0000
# 4 0.0000 0.0000 0.0000 27.8407 0.0000 -4.0289
# 5 -4.2264 -7.7368 1.6734 0.0000 35.9315 0.0000
# 6 0.0000 0.0000 0.0000 -4.0289 0.0000 34.6140
#
#
#
# Elastic Compliance Matrix: (Units=1/GPa)
#
#
# Indices 1 2 3 4 5 6 
#
# 1 0.014380 -0.002318 -0.000731 0.000000 0.001226 0.000000
# 2 -0.002318 0.016408 -0.005845 0.000000 0.003532 0.000000
# 3 -0.000731 -0.005845 0.012921 0.000000 -0.001946 0.000000
# 4 0.000000 0.000000 0.000000 0.036534 0.000000 0.004252
# 5 0.001226 0.003532 -0.001946 0.000000 0.028826 0.000000
# 6 0.000000 0.000000 0.000000 0.004252 0.000000 0.029385
#
#
# Mechanical properties :
#
#
# Convention : Reuss Voigt Hill
#
# Bulk Modulus (GPa) = 38.57865 40.29741 39.43803
# Shear Modulus (GPa) = 30.32478 31.95195 31.13837
#
# Velocity S-wave (km/s) = 3.67744 3.77481 3.72644
# Velocity P-wave (km/s) = 5.93597 6.08028 6.00856
#
# Compressibility (1/GPa) = 0.02592107
#
# Stress axis : x y z
#
# Youngs Moduli (GPa) = 69.53984 60.94689 77.39571
#
# Poissons Ratio (x) = 0.14127 0.05658
# Poissons Ratio (y) = 0.16118 0.45237
# Poissons Ratio (z) = 0.05084 0.35623
#
# Static dielectric constant tensor:
#      x y z
#    x 4.387390 0.000000 0.475700 
#    y 0.000000 3.849500 0.000000 
#    z 0.475700 0.000000 5.304710 
# 
# 
# High freq. dielectric constant tensor:
#      x y z
#    x 1.899100 0.000000 -0.000590 
#    y 0.000000 1.866510 0.000000 
#    z -0.000590 0.000000 1.894110 
# 
# From -- ./inp_files/13850.got.cif
#   From: 2010.06.25/outbox.cif.g09.slc.cpg/sg15_7_cif.got.tgz:13850.got - 2010.06.28 07:06:18.
