data_PCOD8143998
_publ_section_title
;
Structure prediction by ZEFSAII (Michael W. Deem and Ramdas Pophale) SiO2 
 PCOD8143998
Probable space group: C 2/C
;
_chemical_formula_sum "Si O2"
_cell_formula_units_Z 48
_cell_length_a 19.216239
_cell_length_b 25.620904
_cell_length_c 8.171454
_cell_angle_alpha 90.000000
_cell_angle_beta 149.534153
_cell_angle_gamma 90.000000
_cell_volume 2039.817310
_symmetry_space_group_name_H-M "C 2/C"
_symmetry_group_IT_number 15
_symmetry_cell_setting 'monoclinic'
loop_
_space_group_symop_operation_xyz
x,y,z
-x,y,1/2-z
-x,-y,-z
x,-y,1/2+z
1/2+x,1/2+y,z
1/2-x,1/2+y,1/2-z
1/2-x,1/2-y,-z
1/2+x,1/2-y,1/2+z
loop_
_atom_site_type_symbol
_atom_site_label
_atom_site_fract_x
_atom_site_fract_y
_atom_site_fract_z
Si Si1 0.569301 0.850767 0.185885
Si Si2 0.000000 0.851855 0.250000
Si Si3 0.759043 0.423726 0.755211
Si Si4 0.500000 0.411168 0.750000
Si Si5 0.750362 0.970775 0.109032
Si Si6 0.859712 0.821331 0.654858
Si Si7 0.500000 0.919595 0.750000
Si Si8 0.500000 0.763019 0.250000
O O1 0.616436 0.886337 0.436335
O O2 0.701349 0.822358 0.377037
O O3 0.466812 0.803601 0.034290
O O4 0.492856 0.884169 0.896276
O O5 0.125634 0.888814 0.453957
O O6 0.043898 0.814093 0.489344
O O7 0.800656 0.453817 0.673804
O O8 0.734108 0.466520 0.847791
O O9 0.400681 0.447354 0.442654
O O10 0.402236 0.376710 0.665879
O O11 0.637409 0.954150 0.016580
O O12 0.876465 0.774631 0.556671
#
# Coordination Sequence:
#
# PCOD8143998 Si02
#       8
#     8   4   8   4   8   8   4   4
#     4  11  24  46  65  99 135 177 225 284 336 399
#     4  10  21  41  69 100 138 169 223 289 334 384
#     4  11  25  41  67 100 139 181 227 275 330 401
#     4  11  21  42  70  99 135 172 226 274 332 394
#     4  12  25  41  68 101 137 185 225 267 335 400
#     4  10  22  43  69  99 131 173 224 284 337 398
#     4  12  26  44  70  95 139 184 218 282 332 402
#     4  11  24  43  71  94 136 173 227 281 346 404
#
# _framework density 23.531518999999999
#
# number of rings (size 3 to 8) (size 9 to 14) (size 15 to 20)
#    0.000    1.000    3.333    3.000    2.333    5.333 
#    0.000    4.167    0.000    0.000    0.000    0.000 
#    0.000    0.000    0.000    0.000    0.000    0.000 
#
# Total GULP energy -297519.632955 kJ/mol
# GULP energy per Si atom -12396.651373 kJ/mol
# Density = 2.347796 g / cm^3
# Si number density = 23.531519 Si / 1000 Ang^3
#
#
#
# Elastic Constant Matrix: (Units=GPa)
#
#
# Indices 1 2 3 4 5 6 
#
# 1 91.9980 43.0588 26.1907 0.0000 -0.6317 0.0000
# 2 43.0588 126.8779 35.7833 0.0000 7.8225 0.0000
# 3 26.1907 35.7833 85.7252 0.0000 -0.7895 0.0000
# 4 0.0000 0.0000 0.0000 12.7242 0.0000 -8.7890
# 5 -0.6317 7.8225 -0.7895 0.0000 26.2156 0.0000
# 6 0.0000 0.0000 0.0000 -8.7890 0.0000 50.6269
#
#
#
# Elastic Compliance Matrix: (Units=1/GPa)
#
#
# Indices 1 2 3 4 5 6 
#
# 1 0.013425 -0.003957 -0.002437 0.000000 0.001431 0.000000
# 2 -0.003957 0.010307 -0.003123 0.000000 -0.003265 0.000000
# 3 -0.002437 -0.003123 0.013725 0.000000 0.001287 0.000000
# 4 0.000000 0.000000 0.000000 0.089299 0.000000 0.015503
# 5 0.001431 -0.003265 0.001287 0.000000 0.039193 0.000000
# 6 0.000000 0.000000 0.000000 0.015503 0.000000 0.022444
#
#
# Mechanical properties :
#
#
# Convention : Reuss Voigt Hill
#
# Bulk Modulus (GPa) = 54.28018 57.18517 55.73268
# Shear Modulus (GPa) = 23.41175 31.21790 27.31483
#
# Velocity S-wave (km/s) = 3.15764 3.64626 3.41071
# Velocity P-wave (km/s) = 6.03418 6.48701 6.26469
#
# Compressibility (1/GPa) = 0.01842293
#
# Stress axis : x y z
#
# Youngs Moduli (GPa) = 74.48524 97.02427 72.85862
#
# Poissons Ratio (x) = 0.38395 0.17754
# Poissons Ratio (y) = 0.29475 0.22756
# Poissons Ratio (z) = 0.18150 0.30303
#
# Static dielectric constant tensor:
#      x y z
#    x 4.423770 0.000000 -0.102050 
#    y 0.000000 4.323530 0.000000 
#    z -0.102050 0.000000 3.959420 
# 
# 
# High freq. dielectric constant tensor:
#      x y z
#    x 1.951900 0.000000 0.003870 
#    y 0.000000 1.938280 0.000000 
#    z 0.003870 0.000000 1.905940 
# 
# From -- ./inp_files/59188.got.cif
#   From: 2010.06.25/outbox.cif.g09.slc.cpg/sg15_30_cif.got.tgz:59188.got - 2010.06.28 07:06:18.
