data_PCOD8143535
_publ_section_title
;
Structure prediction by ZEFSAII (Michael W. Deem and Ramdas Pophale) SiO2 
 PCOD8143535
Probable space group: C 2/C
;
_chemical_formula_sum "Si O2"
_cell_formula_units_Z 56
_cell_length_a 12.823850
_cell_length_b 18.744010
_cell_length_c 18.610010
_cell_angle_alpha 90.000000
_cell_angle_beta 146.612641
_cell_angle_gamma 90.000000
_cell_volume 2461.638767
_symmetry_space_group_name_H-M "C 2/C"
_symmetry_group_IT_number 15
_symmetry_cell_setting 'monoclinic'
loop_
_space_group_symop_operation_xyz
x,y,z
-x,y,1/2-z
-x,-y,-z
x,-y,1/2+z
1/2+x,1/2+y,z
1/2-x,1/2+y,1/2-z
1/2-x,1/2-y,-z
1/2+x,1/2-y,1/2+z
loop_
_atom_site_type_symbol
_atom_site_label
_atom_site_fract_x
_atom_site_fract_y
_atom_site_fract_z
Si Si1 0.210279 0.965222 0.492773
Si Si2 0.672284 0.884004 0.405585
Si Si3 0.310728 0.144382 0.172255
Si Si4 0.098653 0.546360 0.148689
Si Si5 0.448659 0.859566 0.001860
Si Si6 0.416555 0.704202 0.948147
Si Si7 0.684878 0.596048 0.735858
O O1 0.263366 0.920240 0.592650
O O2 0.372493 0.963816 0.526062
O O3 0.013305 0.934214 0.346971
O O4 0.194785 0.046156 0.512334
O O5 0.500000 0.895193 0.250000
O O6 0.597884 0.860222 0.440667
O O7 0.814020 0.822532 0.461056
O O8 0.500000 0.183275 0.250000
O O9 0.338654 0.111692 0.266318
O O10 0.143804 0.201092 0.082902
O O11 0.201796 0.473080 0.230030
O O12 0.140665 0.571835 0.090852
O O13 0.679161 0.867032 0.126845
O O14 0.373339 0.788569 0.918389
O O15 0.343442 0.656597 0.840526
#
# Coordination Sequence:
#
# PCOD8143535 Si02
#       7
#     8   8   8   8   8   8   8
#     4  10  21  40  70 103 124 182 235 273 339 402
#     4  12  22  43  71  99 141 180 226 281 340 409
#     4   9  20  40  68  98 126 177 233 281 328 398
#     4  11  22  43  68  99 143 168 229 294 330 400
#     4  12  27  42  66 103 143 179 224 284 345 398
#     4  11  24  44  68  99 137 184 232 270 339 416
#     4  11  23  45  70  95 138 183 226 281 341 398
#
# _framework density 22.749072999999999
#
# number of rings (size 3 to 8) (size 9 to 14) (size 15 to 20)
#    0.000    1.143    2.857    3.857    2.000    2.857 
#    2.571    4.286    0.000    0.000    0.000    0.000 
#    0.000    0.000    0.000    0.000    0.000    0.000 
#
# Total GULP energy -346985.960138 kJ/mol
# GULP energy per Si atom -12392.355719 kJ/mol
# Density = 2.269730 g / cm^3
# Si number density = 22.749073 Si / 1000 Ang^3
#
#
#
# Elastic Constant Matrix: (Units=GPa)
#
#
# Indices 1 2 3 4 5 6 
#
# 1 64.6425 32.6240 28.8065 -0.0021 4.2775 -0.0010
# 2 32.6240 125.3838 30.0497 -0.0015 -2.3768 -0.0011
# 3 28.8065 30.0497 74.8557 -0.0043 5.7257 -0.0032
# 4 -0.0021 -0.0015 -0.0043 30.8498 -0.0019 2.6387
# 5 4.2775 -2.3768 5.7257 -0.0019 36.6882 -0.0013
# 6 -0.0010 -0.0011 -0.0032 2.6387 -0.0013 18.8019
#
#
#
# Elastic Compliance Matrix: (Units=1/GPa)
#
#
# Indices 1 2 3 4 5 6 
#
# 1 0.020242 -0.003830 -0.006126 0.000000 -0.001652 0.000000
# 2 -0.003830 0.009596 -0.002490 0.000000 0.001457 0.000000
# 3 -0.006126 -0.002490 0.016875 0.000002 -0.002081 0.000002
# 4 0.000000 0.000000 0.000002 0.032809 0.000001 -0.004605
# 5 -0.001652 0.001457 -0.002081 0.000001 0.027868 0.000001
# 6 0.000000 0.000000 0.000002 -0.004605 0.000001 0.053832
#
#
# Mechanical properties :
#
#
# Convention : Reuss Voigt Hill
#
# Bulk Modulus (GPa) = 45.82523 49.76027 47.79275
# Shear Modulus (GPa) = 25.85475 28.82811 27.34143
#
# Velocity S-wave (km/s) = 3.37489 3.56367 3.47056
# Velocity P-wave (km/s) = 5.94760 6.23330 6.09213
#
# Compressibility (1/GPa) = 0.02182204
#
# Stress axis : x y z
#
# Youngs Moduli (GPa) = 49.40285 104.20587 59.25902
#
# Poissons Ratio (x) = 0.39911 0.36300
# Poissons Ratio (y) = 0.18921 0.14755
# Poissons Ratio (z) = 0.30263 0.25946
#
# Static dielectric constant tensor:
#      x y z
#    x 4.165900 0.000000 0.374390 
#    y 0.000000 3.999870 0.000000 
#    z 0.374390 0.000000 4.330720 
# 
# 
# High freq. dielectric constant tensor:
#      x y z
#    x 1.891680 0.000000 0.005030 
#    y 0.000000 1.894620 0.000000 
#    z 0.005030 0.000000 1.896650 
# 
# From -- ./inp_files/245180.got.cif
#   From: 2010.06.25/outbox.cif.g09.slc.cpg/sg15_123_cif.got.tgz:245180.got - 2010.06.28 07:06:18.
