data_PCOD8143425
_publ_section_title
;
Structure prediction by ZEFSAII (Michael W. Deem and Ramdas Pophale) SiO2 
 PCOD8143425
Probable space group: C 2/C
;
_chemical_formula_sum "Si O2"
_cell_formula_units_Z 48
_cell_length_a 26.743433
_cell_length_b 10.593623
_cell_length_c 22.087844
_cell_angle_alpha 90.000000
_cell_angle_beta 19.156118
_cell_angle_gamma 90.000000
_cell_volume 2053.423333
_symmetry_space_group_name_H-M "C 2/C"
_symmetry_group_IT_number 15
_symmetry_cell_setting 'monoclinic'
loop_
_space_group_symop_operation_xyz
x,y,z
-x,y,1/2-z
-x,-y,-z
x,-y,1/2+z
1/2+x,1/2+y,z
1/2-x,1/2+y,1/2-z
1/2-x,1/2-y,-z
1/2+x,1/2-y,1/2+z
loop_
_atom_site_type_symbol
_atom_site_label
_atom_site_fract_x
_atom_site_fract_y
_atom_site_fract_z
Si Si1 0.942251 0.486466 0.748160
Si Si2 0.640082 0.226714 0.740241
Si Si3 0.529081 0.350777 0.457859
Si Si4 0.038934 0.862749 0.640338
Si Si5 0.145438 0.129623 0.552429
Si Si6 0.356827 0.208523 0.552850
O O1 0.915029 0.610274 0.738598
O O2 0.000000 0.517423 0.750000
O O3 0.056111 0.409414 0.575419
O O4 0.782412 0.410199 0.940527
O O5 0.548531 0.252872 0.906367
O O6 0.818223 0.214094 0.551452
O O7 0.607327 0.348678 0.735793
O O8 0.500000 0.500000 0.500000
O O9 0.466472 0.301729 0.465185
O O10 0.711096 0.337410 0.257540
O O11 0.000000 0.804463 0.750000
O O12 0.070351 0.009211 0.606859
O O13 0.215651 0.214439 0.419966
O O14 0.000000 0.201276 0.750000
#
# Coordination Sequence:
#
# PCOD8143425 Si02
#       6
#     8   8   8   8   8   8
#     4  11  26  45  73 108 144 189 235 304 368 434
#     4  11  24  44  67 102 143 185 239 290 359 429
#     4  12  29  48  74 104 147 200 249 303 360 436
#     4  10  21  40  67 100 137 183 230 294 359 422
#     4  10  23  44  69 103 144 183 234 304 360 431
#     4  12  26  47  72 105 145 194 249 295 369 434
#
# _framework density 23.375598
#
# number of rings (size 3 to 8) (size 9 to 14) (size 15 to 20)
#    0.000    1.000    1.667    3.500    7.000    6.000 
#    0.000    0.000    0.000    0.000    0.000    0.000 
#    0.000    0.000    0.000    0.000    0.000    0.000 
#
# Total GULP energy -297427.552613 kJ/mol
# GULP energy per Si atom -12392.814692 kJ/mol
# Density = 2.332239 g / cm^3
# Si number density = 23.375598 Si / 1000 Ang^3
#
#
#
# Elastic Constant Matrix: (Units=GPa)
#
#
# Indices 1 2 3 4 5 6 
#
# 1 78.3850 27.3690 7.0131 0.0043 7.6199 -0.0009
# 2 27.3690 63.8818 31.2796 0.0035 0.0306 -0.0020
# 3 7.0131 31.2796 134.7865 0.0068 15.4835 -0.0001
# 4 0.0043 0.0035 0.0068 32.0711 -0.0039 2.8510
# 5 7.6199 0.0306 15.4835 -0.0039 32.4739 0.0002
# 6 -0.0009 -0.0020 -0.0001 2.8510 0.0002 36.0058
#
#
#
# Elastic Compliance Matrix: (Units=1/GPa)
#
#
# Indices 1 2 3 4 5 6 
#
# 1 0.015629 -0.007377 0.001396 -0.000002 -0.004326 0.000000
# 2 -0.007377 0.021273 -0.005025 0.000000 0.004107 0.000001
# 3 0.001396 -0.005025 0.009045 -0.000002 -0.004635 0.000000
# 4 -0.000002 0.000000 -0.000002 0.031402 0.000005 -0.002486
# 5 -0.004326 0.004107 -0.004635 0.000005 0.034015 0.000000
# 6 0.000000 0.000001 0.000000 -0.002486 0.000000 0.027970
#
#
# Mechanical properties :
#
#
# Convention : Reuss Voigt Hill
#
# Bulk Modulus (GPa) = 41.78055 45.37520 43.57788
# Shear Modulus (GPa) = 29.52898 34.20293 31.86595
#
# Velocity S-wave (km/s) = 3.55806 3.82932 3.69618
# Velocity P-wave (km/s) = 5.89849 6.24540 6.07442
#
# Compressibility (1/GPa) = 0.02393458
#
# Stress axis : x y z
#
# Youngs Moduli (GPa) = 63.98330 47.00801 110.55725
#
# Poissons Ratio (x) = 0.34680 -0.15431
# Poissons Ratio (y) = 0.47203 0.55552
# Poissons Ratio (z) = -0.08931 0.23620
#
# Static dielectric constant tensor:
#      x y z
#    x 4.279250 0.000000 0.018350 
#    y 0.000000 4.198350 0.000000 
#    z 0.018350 0.000000 4.537280 
# 
# 
# High freq. dielectric constant tensor:
#      x y z
#    x 1.927720 0.000000 -0.004990 
#    y 0.000000 1.929960 0.000000 
#    z -0.004990 0.000000 1.936560 
# 
# From -- ./inp_files/257584.got.cif
#   From: 2010.06.25/outbox.cif.g09.slc.cpg/sg15_129_cif.got.tgz:257584.got - 2010.06.28 07:06:18.
