data_PCOD8143779
_publ_section_title
;
Structure prediction by ZEFSAII (Michael W. Deem and Ramdas Pophale) SiO2 
 PCOD8143779
Probable space group: C 2/C
;
_chemical_formula_sum "Si O2"
_cell_formula_units_Z 64
_cell_length_a 17.185415
_cell_length_b 28.366584
_cell_length_c 8.484013
_cell_angle_alpha 90.000000
_cell_angle_beta 46.637313
_cell_angle_gamma 90.000000
_cell_volume 3006.878817
_symmetry_space_group_name_H-M "C 2/C"
_symmetry_group_IT_number 15
_symmetry_cell_setting 'monoclinic'
loop_
_space_group_symop_operation_xyz
x,y,z
-x,y,1/2-z
-x,-y,-z
x,-y,1/2+z
1/2+x,1/2+y,z
1/2-x,1/2+y,1/2-z
1/2-x,1/2-y,-z
1/2+x,1/2-y,1/2+z
loop_
_atom_site_type_symbol
_atom_site_label
_atom_site_fract_x
_atom_site_fract_y
_atom_site_fract_z
Si Si1 0.641594 0.267453 0.222605
Si Si2 0.275905 0.942641 0.887182
Si Si3 0.243238 0.794580 0.398846
Si Si4 0.997858 0.593345 0.436347
Si Si5 0.391150 0.632337 0.825043
Si Si6 0.776211 0.457980 0.251065
Si Si7 0.379522 0.618079 0.468941
Si Si8 0.985822 0.306797 0.083608
O O1 0.667853 0.283945 0.359285
O O2 0.608475 0.310711 0.153412
O O3 0.550707 0.227493 0.373903
O O4 0.750000 0.250000 0.000000
O O5 0.399110 0.937413 0.669621
O O6 0.245576 0.988449 0.830766
O O7 0.204494 0.895675 0.950475
O O8 0.258422 0.953711 0.092282
O O9 0.250000 0.750000 0.500000
O O10 0.179920 0.840635 0.551710
O O11 0.364739 0.806114 0.187371
O O12 0.894690 0.562187 0.629118
O O13 0.000000 0.608504 0.250000
O O14 0.017854 0.639280 0.515513
O O15 0.500000 0.612328 0.750000
O O16 0.379610 0.625298 0.655655
O O17 0.689972 0.428114 0.470248
O O18 0.500000 0.611138 0.250000
O O19 0.000000 0.293043 0.250000
#
# Coordination Sequence:
#
# PCOD8143779 Si02
#       8
#     8   8   8   8   8   8   8   8
#     4  11  26  40  63  94 125 175 219 258 324 384
#     4  10  22  41  66  94 127 166 210 265 325 388
#     4  11  24  42  63  89 133 167 212 267 321 384
#     4  10  22  41  66  94 133 169 209 264 323 390
#     4  10  24  42  60  91 127 161 217 266 314 382
#     4  10  21  41  64  95 124 163 212 261 324 386
#     4  10  23  42  65  89 123 169 210 261 330 383
#     4  12  25  42  64  99 133 171 221 268 320 386
#
# _framework density 21.28453
#
# number of rings (size 3 to 8) (size 9 to 14) (size 15 to 20)
#    0.000    1.500    2.500    1.125    8.750    2.500 
#    2.250    2.500    0.000    0.000    0.000    0.000 
#    0.000    0.000    0.000    0.000    0.000    0.000 
#
# Total GULP energy -396433.836457 kJ/mol
# GULP energy per Si atom -12388.557389 kJ/mol
# Density = 2.123609 g / cm^3
# Si number density = 21.284530 Si / 1000 Ang^3
#
#
#
# Elastic Constant Matrix: (Units=GPa)
#
#
# Indices 1 2 3 4 5 6 
#
# 1 64.4303 26.0698 15.1916 0.0000 -26.6634 0.0000
# 2 26.0698 135.8714 53.1678 0.0000 -5.7892 0.0000
# 3 15.1916 53.1678 115.4814 0.0000 -37.1934 0.0000
# 4 0.0000 0.0000 0.0000 30.9323 0.0000 -3.1368
# 5 -26.6634 -5.7892 -37.1934 0.0000 30.7969 0.0000
# 6 0.0000 0.0000 0.0000 -3.1368 0.0000 30.5253
#
#
#
# Elastic Compliance Matrix: (Units=1/GPa)
#
#
# Indices 1 2 3 4 5 6 
#
# 1 0.036581 -0.011261 0.016187 0.000000 0.049104 0.000000
# 2 -0.011261 0.013030 -0.011241 0.000000 -0.020876 0.000000
# 3 0.016187 -0.011241 0.025430 0.000000 0.042613 0.000000
# 4 0.000000 0.000000 0.000000 0.032669 0.000000 0.003357
# 5 0.049104 -0.020876 0.042613 0.000000 0.122524 0.000000
# 6 0.000000 0.000000 0.000000 0.003357 0.000000 0.033105
#
#
# Mechanical properties :
#
#
# Convention : Reuss Voigt Hill
#
# Bulk Modulus (GPa) = 16.02271 56.07126 36.04699
# Shear Modulus (GPa) = 16.84795 33.20783 25.02789
#
# Velocity S-wave (km/s) = 2.81652 3.95420 3.43282
# Velocity P-wave (km/s) = 4.25690 6.87375 5.71707
#
# Compressibility (1/GPa) = 0.06241141
#
# Stress axis : x y z
#
# Youngs Moduli (GPa) = 27.33646 76.74698 39.32364
#
# Poissons Ratio (x) = 0.86424 -0.63654
# Poissons Ratio (y) = 0.30783 0.44204
# Poissons Ratio (z) = -0.44250 0.86273
#
# Static dielectric constant tensor:
#      x y z
#    x 3.554240 0.000000 -0.089230 
#    y 0.000000 4.280650 0.000000 
#    z -0.089230 0.000000 3.804560 
# 
# 
# High freq. dielectric constant tensor:
#      x y z
#    x 1.829960 0.000000 -0.017800 
#    y 0.000000 1.846520 0.000000 
#    z -0.017800 0.000000 1.829630 
# 
# From -- ./inp_files/52830.got.cif
#   From: 2010.06.25/outbox.cif.g09.slc.cpg/sg15_27_cif.got.tgz:52830.got - 2010.06.28 07:06:18.
