data_PCOD8143665
_publ_section_title
;
Structure prediction by ZEFSAII (Michael W. Deem and Ramdas Pophale) SiO2 
 PCOD8143665
Probable space group: C 2/C
;
_chemical_formula_sum "Si O2"
_cell_formula_units_Z 56
_cell_length_a 16.974591
_cell_length_b 19.520271
_cell_length_c 15.131591
_cell_angle_alpha 90.000000
_cell_angle_beta 147.061262
_cell_angle_gamma 90.000000
_cell_volume 2726.230887
_symmetry_space_group_name_H-M "C 2/C"
_symmetry_group_IT_number 15
_symmetry_cell_setting 'monoclinic'
loop_
_space_group_symop_operation_xyz
x,y,z
-x,y,1/2-z
-x,-y,-z
x,-y,1/2+z
1/2+x,1/2+y,z
1/2-x,1/2+y,1/2-z
1/2-x,1/2-y,-z
1/2+x,1/2-y,1/2+z
loop_
_atom_site_type_symbol
_atom_site_label
_atom_site_fract_x
_atom_site_fract_y
_atom_site_fract_z
Si Si1 0.648732 0.885725 0.067667
Si Si2 0.564269 0.234770 0.088181
Si Si3 0.155683 0.905319 0.885793
Si Si4 0.172852 0.627877 0.783166
Si Si5 0.654650 0.300971 0.351751
Si Si6 0.347712 0.716317 0.253551
Si Si7 0.566896 0.980813 0.404681
O O1 0.735063 0.885430 0.242776
O O2 0.755173 0.870651 0.083964
O O3 0.528773 0.827135 0.961361
O O4 0.566226 0.957259 0.973716
O O5 0.640546 0.269404 0.242216
O O6 0.687539 0.204526 0.140583
O O7 0.468356 0.291409 0.944805
O O8 0.129302 0.836065 0.804820
O O9 0.000000 0.942074 0.750000
O O10 0.207045 0.890756 0.033257
O O11 0.266851 0.956500 0.944313
O O12 0.129620 0.706350 0.760207
O O13 0.026856 0.583570 0.652490
O O14 0.500000 0.317829 0.250000
O O15 0.750000 0.250000 0.500000
O O16 0.500000 0.008406 0.250000
#
# Coordination Sequence:
#
# PCOD8143665 Si02
#       7
#     8   8   8   8   8   8   8
#     4  11  23  40  70  88 129 168 218 261 325 367
#     4  11  21  39  62  97 126 159 210 266 313 381
#     4  11  23  38  63  91 132 164 211 260 325 376
#     4  10  21  41  62  94 126 162 218 263 304 391
#     4  12  23  39  63  95 132 162 211 268 317 377
#     4  11  21  37  65  95 129 163 203 264 327 366
#     4  10  24  43  63  90 126 177 222 257 310 393
#
# _framework density 20.541180000000001
#
# number of rings (size 3 to 8) (size 9 to 14) (size 15 to 20)
#    0.000    1.143    4.286    3.429    2.000    2.286 
#    0.000    0.714    0.000    0.000    0.000    0.000 
#    0.000    0.000    0.000    0.000    0.000    0.000 
#
# Total GULP energy -347120.881405 kJ/mol
# GULP energy per Si atom -12397.174336 kJ/mol
# Density = 2.049443 g / cm^3
# Si number density = 20.541180 Si / 1000 Ang^3
#
#
#
# Elastic Constant Matrix: (Units=GPa)
#
#
# Indices 1 2 3 4 5 6 
#
# 1 102.7168 24.2077 39.6232 0.0000 16.3829 0.0000
# 2 24.2077 79.1123 34.4887 0.0000 -4.3794 0.0000
# 3 39.6232 34.4887 124.6400 0.0000 3.6831 0.0000
# 4 0.0000 0.0000 0.0000 23.4101 0.0000 -5.8075
# 5 16.3829 -4.3794 3.6831 0.0000 43.7284 0.0000
# 6 0.0000 0.0000 0.0000 -5.8075 0.0000 30.5616
#
#
#
# Elastic Compliance Matrix: (Units=1/GPa)
#
#
# Indices 1 2 3 4 5 6 
#
# 1 0.012271 -0.002694 -0.003019 0.000000 -0.004613 0.000000
# 2 -0.002694 0.015105 -0.003406 0.000000 0.002809 0.000000
# 3 -0.003019 -0.003406 0.009927 0.000000 -0.000046 0.000000
# 4 0.000000 0.000000 0.000000 0.044830 0.000000 0.008519
# 5 -0.004613 0.002809 -0.000046 0.000000 0.024882 0.000000
# 6 0.000000 0.000000 0.000000 0.008519 0.000000 0.034340
#
#
# Mechanical properties :
#
#
# Convention : Reuss Voigt Hill
#
# Bulk Modulus (GPa) = 52.45513 55.90091 54.17802
# Shear Modulus (GPa) = 30.13009 33.41666 31.77337
#
# Velocity S-wave (km/s) = 3.83406 4.03775 3.93722
# Velocity P-wave (km/s) = 6.72250 7.00079 6.86306
#
# Compressibility (1/GPa) = 0.01906391
#
# Stress axis : x y z
#
# Youngs Moduli (GPa) = 81.49454 66.20321 100.73740
#
# Poissons Ratio (x) = 0.17835 0.30414
# Poissons Ratio (y) = 0.21954 0.34314
# Poissons Ratio (z) = 0.24605 0.22551
#
# Static dielectric constant tensor:
#      x y z
#    x 3.869220 0.000000 -0.071020 
#    y 0.000000 3.560210 0.000000 
#    z -0.071020 0.000000 3.999790 
# 
# 
# High freq. dielectric constant tensor:
#      x y z
#    x 1.811730 0.000000 -0.002880 
#    y 0.000000 1.780310 0.000000 
#    z -0.002880 0.000000 1.819280 
# 
# From -- ./inp_files/163828.got.cif
#   From: 2010.06.25/outbox.cif.g09.slc.cpg/sg15_82_cif.got.tgz:163828.got - 2010.06.28 07:06:18.
