data_PCOD8143245
_publ_section_title
;
Structure prediction by ZEFSAII (Michael W. Deem and Ramdas Pophale) SiO2 
 PCOD8143245
Probable space group: C 2/C
;
_chemical_formula_sum "Si O2"
_cell_formula_units_Z 52
_cell_length_a 10.579719
_cell_length_b 20.372491
_cell_length_c 18.372022
_cell_angle_alpha 90.000000
_cell_angle_beta 40.711194
_cell_angle_gamma 90.000000
_cell_volume 2582.777463
_symmetry_space_group_name_H-M "C 2/C"
_symmetry_group_IT_number 15
_symmetry_cell_setting 'monoclinic'
loop_
_space_group_symop_operation_xyz
x,y,z
-x,y,1/2-z
-x,-y,-z
x,-y,1/2+z
1/2+x,1/2+y,z
1/2-x,1/2+y,1/2-z
1/2-x,1/2-y,-z
1/2+x,1/2-y,1/2+z
loop_
_atom_site_type_symbol
_atom_site_label
_atom_site_fract_x
_atom_site_fract_y
_atom_site_fract_z
Si Si1 0.677654 0.960833 0.454498
Si Si2 0.728889 0.674496 0.663039
Si Si3 0.693045 0.201468 0.704133
Si Si4 0.917809 0.808654 0.547227
Si Si5 0.799638 0.842892 0.750942
Si Si6 0.917060 0.603083 0.361335
Si Si7 0.500000 0.453955 0.750000
O O1 0.691654 0.891101 0.408398
O O2 0.637715 0.953741 0.557976
O O3 0.500000 0.000000 0.500000
O O4 0.877149 0.000358 0.357665
O O5 0.500000 0.683069 0.750000
O O6 0.780396 0.673615 0.726126
O O7 0.841584 0.734139 0.575472
O O8 0.500000 0.172573 0.750000
O O9 0.681527 0.280465 0.705192
O O10 0.873726 0.179533 0.577658
O O11 0.938724 0.831957 0.621285
O O12 0.772956 0.854311 0.566354
O O13 0.578243 0.847356 0.821860
O O14 0.854203 0.909663 0.767461
O O15 0.000000 0.571413 0.250000
#
# Coordination Sequence:
#
# PCOD8143245 Si02
#       7
#     8   8   8   8   8   8   4
#     4  12  25  41  65  92 133 177 214 263 314 392
#     4  11  23  41  66  99 130 163 218 273 326 383
#     4  11  23  39  63  98 133 166 212 273 331 386
#     4  10  22  38  69  94 125 164 208 277 331 365
#     4  10  21  40  64  92 128 166 215 259 324 394
#     4  10  21  43  68  97 123 165 220 269 322 379
#     4  12  24  42  62  94 128 174 220 248 320 388
#
# _framework density 20.133365999999999
#
# number of rings (size 3 to 8) (size 9 to 14) (size 15 to 20)
#    0.000    1.231    3.077    4.154    0.000    5.538 
#    0.000    5.385    0.000    0.000    0.000    0.000 
#    0.000    0.000    0.000    0.000    0.000    0.000 
#
# Total GULP energy -322465.062161 kJ/mol
# GULP energy per Si atom -12402.502391 kJ/mol
# Density = 2.008754 g / cm^3
# Si number density = 20.133366 Si / 1000 Ang^3
#
#
#
# Elastic Constant Matrix: (Units=GPa)
#
#
# Indices 1 2 3 4 5 6 
#
# 1 123.4470 35.3641 64.8446 0.0067 -2.4185 0.0007
# 2 35.3641 90.5697 45.4754 0.0064 12.7418 -0.0005
# 3 64.8446 45.4754 158.5324 0.0121 0.1488 -0.0029
# 4 0.0067 0.0064 0.0121 22.2226 -0.0091 1.6284
# 5 -2.4185 12.7418 0.1488 -0.0091 34.0224 0.0016
# 6 0.0007 -0.0005 -0.0029 1.6284 0.0016 28.3227
#
#
#
# Elastic Compliance Matrix: (Units=1/GPa)
#
#
# Indices 1 2 3 4 5 6 
#
# 1 0.010817 -0.002629 -0.003672 0.000000 0.001770 -0.000001
# 2 -0.002629 0.014378 -0.003044 -0.000004 -0.005558 0.000001
# 3 -0.003672 -0.003044 0.008682 -0.000002 0.000841 0.000001
# 4 0.000000 -0.000004 -0.000002 0.045190 0.000014 -0.002598
# 5 0.001770 -0.005558 0.000841 0.000014 0.031596 -0.000003
# 6 -0.000001 0.000001 0.000001 -0.002598 -0.000003 0.035457
#
#
# Mechanical properties :
#
#
# Convention : Reuss Voigt Hill
#
# Bulk Modulus (GPa) = 65.84262 73.76858 69.80560
# Shear Modulus (GPa) = 29.43381 32.03786 30.73584
#
# Velocity S-wave (km/s) = 3.82768 3.99342 3.91143
# Velocity P-wave (km/s) = 7.23250 7.61463 7.42603
#
# Compressibility (1/GPa) = 0.01518773
#
# Stress axis : x y z
#
# Youngs Moduli (GPa) = 92.44401 69.55063 115.17762
#
# Poissons Ratio (x) = 0.18284 0.42295
# Poissons Ratio (y) = 0.24303 0.35058
# Poissons Ratio (z) = 0.33947 0.21170
#
# Static dielectric constant tensor:
#      x y z
#    x 3.746710 -0.000010 0.102750 
#    y -0.000010 3.584380 0.000010 
#    z 0.102750 0.000010 3.898880 
# 
# 
# High freq. dielectric constant tensor:
#      x y z
#    x 1.791780 0.000000 0.000190 
#    y 0.000000 1.771140 0.000000 
#    z 0.000190 0.000000 1.802450 
# 
# From -- ./inp_files/240511.got.cif
#   From: 2010.06.25/outbox.cif.g09.slc.cpg/sg15_121_cif.got.tgz:240511.got - 2010.06.28 07:06:18.
