data_PCOD8143319
_publ_section_title
;
Structure prediction by ZEFSAII (Michael W. Deem and Ramdas Pophale) SiO2 
 PCOD8143319
Probable space group: C 2/C
;
_chemical_formula_sum "Si O2"
_cell_formula_units_Z 40
_cell_length_a 14.814884
_cell_length_b 9.442266
_cell_length_c 19.748532
_cell_angle_alpha 90.000000
_cell_angle_beta 140.036062
_cell_angle_gamma 90.000000
_cell_volume 1774.397155
_symmetry_space_group_name_H-M "C 2/C"
_symmetry_group_IT_number 15
_symmetry_cell_setting 'monoclinic'
loop_
_space_group_symop_operation_xyz
x,y,z
-x,y,1/2-z
-x,-y,-z
x,-y,1/2+z
1/2+x,1/2+y,z
1/2-x,1/2+y,1/2-z
1/2-x,1/2-y,-z
1/2+x,1/2-y,1/2+z
loop_
_atom_site_type_symbol
_atom_site_label
_atom_site_fract_x
_atom_site_fract_y
_atom_site_fract_z
Si Si1 0.932414 0.129050 0.063307
Si Si2 0.630309 0.143010 0.872361
Si Si3 0.142153 0.352164 0.122980
Si Si4 0.951122 0.421840 0.574172
Si Si5 0.965433 0.854858 0.307912
O O1 0.901622 0.200603 0.118516
O O2 0.057221 0.213248 0.098088
O O3 0.789837 0.136739 0.933624
O O4 0.975129 0.969175 0.104590
O O5 0.500000 0.095035 0.750000
O O6 0.644442 0.037596 0.943963
O O7 0.303313 0.337540 0.233214
O O8 0.091451 0.497926 0.129168
O O9 0.133167 0.360447 0.037244
O O10 0.971915 0.298057 0.640080
O O11 0.000000 0.894990 0.250000
#
# Coordination Sequence:
#
# PCOD8143319 Si02
#       5
#     8   8   8   8   8
#     4  10  23  40  64  94 125 166 211 251 308 378
#     4  10  21  40  65  92 125 165 208 256 310 371
#     4  10  23  43  62  87 127 168 207 254 308 374
#     4  10  23  40  61  89 123 160 208 259 309 362
#     4  12  24  39  64  94 127 163 206 260 313 363
#
# _framework density 22.542867999999999
#
# number of rings (size 3 to 8) (size 9 to 14) (size 15 to 20)
#    0.000    1.600    0.000    3.600    0.000   15.200 
#    0.000    0.000    0.000    0.000    0.000    0.000 
#    0.000    0.000    0.000    0.000    0.000    0.000 
#
# Total GULP energy -247905.926249 kJ/mol
# GULP energy per Si atom -12395.296312 kJ/mol
# Density = 2.249156 g / cm^3
# Si number density = 22.542868 Si / 1000 Ang^3
#
#
#
# Elastic Constant Matrix: (Units=GPa)
#
#
# Indices 1 2 3 4 5 6 
#
# 1 64.1434 19.7227 43.0187 0.0000 12.3866 0.0000
# 2 19.7227 102.1688 33.7526 0.0000 -0.8583 0.0000
# 3 43.0187 33.7526 121.3015 0.0000 23.7680 0.0000
# 4 0.0000 0.0000 0.0000 26.0809 0.0000 -7.6082
# 5 12.3866 -0.8583 23.7680 0.0000 41.0432 0.0000
# 6 0.0000 0.0000 0.0000 -7.6082 0.0000 34.6808
#
#
#
# Elastic Compliance Matrix: (Units=1/GPa)
#
#
# Indices 1 2 3 4 5 6 
#
# 1 0.020985 -0.001970 -0.006368 0.000000 -0.002687 0.000000
# 2 -0.001970 0.011145 -0.002893 0.000000 0.002503 0.000000
# 3 -0.006368 -0.002893 0.012343 0.000000 -0.005287 0.000000
# 4 0.000000 0.000000 0.000000 0.040964 0.000000 0.008987
# 5 -0.002687 0.002503 -0.005287 0.000000 0.028289 0.000000
# 6 0.000000 0.000000 0.000000 0.008987 0.000000 0.030806
#
#
# Mechanical properties :
#
#
# Convention : Reuss Voigt Hill
#
# Bulk Modulus (GPa) = 45.42965 53.40018 49.41492
# Shear Modulus (GPa) = 28.68126 33.10229 30.89178
#
# Velocity S-wave (km/s) = 3.57080 3.83615 3.70585
# Velocity P-wave (km/s) = 6.09894 6.58491 6.34658
#
# Compressibility (1/GPa) = 0.02201206
#
# Stress axis : x y z
#
# Youngs Moduli (GPa) = 47.65265 89.72872 81.01787
#
# Poissons Ratio (x) = 0.17676 0.51589
# Poissons Ratio (y) = 0.09387 0.23437
# Poissons Ratio (z) = 0.30343 0.25957
#
# Static dielectric constant tensor:
#      x y z
#    x 3.966640 0.000000 0.193650 
#    y 0.000000 4.018480 0.000000 
#    z 0.193650 0.000000 4.378490 
# 
# 
# High freq. dielectric constant tensor:
#      x y z
#    x 1.880020 0.000000 0.014070 
#    y 0.000000 1.899460 0.000000 
#    z 0.014070 0.000000 1.887070 
# 
# From -- ./inp_files/259063.got.cif
#   From: 2010.06.25/outbox.cif.g09.slc.cpg/sg15_130_cif.got.tgz:259063.got - 2010.06.28 07:06:18.
