data_PCOD8143303
_publ_section_title
;
Structure prediction by ZEFSAII (Michael W. Deem and Ramdas Pophale) SiO2 
 PCOD8143303
Probable space group: C 2/C
;
_chemical_formula_sum "Si O2"
_cell_formula_units_Z 40
_cell_length_a 21.171197
_cell_length_b 7.881527
_cell_length_c 18.434077
_cell_angle_alpha 90.000000
_cell_angle_beta 34.979836
_cell_angle_gamma 90.000000
_cell_volume 1763.397087
_symmetry_space_group_name_H-M "C 2/C"
_symmetry_group_IT_number 15
_symmetry_cell_setting 'monoclinic'
loop_
_space_group_symop_operation_xyz
x,y,z
-x,y,1/2-z
-x,-y,-z
x,-y,1/2+z
1/2+x,1/2+y,z
1/2-x,1/2+y,1/2-z
1/2-x,1/2-y,-z
1/2+x,1/2-y,1/2+z
loop_
_atom_site_type_symbol
_atom_site_label
_atom_site_fract_x
_atom_site_fract_y
_atom_site_fract_z
Si Si1 0.467489 0.135185 0.934601
Si Si2 0.120563 0.323500 0.828888
Si Si3 0.882509 0.434357 0.892777
Si Si4 0.793495 0.112180 0.057557
Si Si5 0.514923 0.488171 0.901340
O O1 0.553045 0.295426 0.845112
O O2 0.531299 0.961715 0.888807
O O3 0.398058 0.104621 0.926443
O O4 0.383946 0.184613 0.079394
O O5 0.242572 0.369231 0.686843
O O6 0.094441 0.146829 0.809350
O O7 0.798209 0.476622 0.906937
O O8 0.000000 0.373327 0.750000
O O9 0.828827 0.293503 0.994209
O O10 0.900668 0.997654 0.964419
O O11 0.500000 0.500000 0.000000
#
# Coordination Sequence:
#
# PCOD8143303 Si02
#       5
#     8   8   8   8   8
#     4  10  21  40  65  89 135 168 210 288 317 379
#     4  10  21  43  64  94 131 171 220 271 335 379
#     4  11  22  42  66  97 137 177 218 268 329 395
#     4  11  22  40  71  93 131 183 217 263 338 401
#     4  10  22  42  62  97 129 162 221 275 325 388
#
# _framework density 22.683489999999999
#
# number of rings (size 3 to 8) (size 9 to 14) (size 15 to 20)
#    0.000    1.600    4.000    0.000    0.000    4.000 
#    3.600    5.000    0.000    0.000    0.000    0.000 
#    0.000    0.000    0.000    0.000    0.000    0.000 
#
# Total GULP energy -247784.133637 kJ/mol
# GULP energy per Si atom -12389.206682 kJ/mol
# Density = 2.263186 g / cm^3
# Si number density = 22.683490 Si / 1000 Ang^3
#
#
#
# Elastic Constant Matrix: (Units=GPa)
#
#
# Indices 1 2 3 4 5 6 
#
# 1 83.2110 15.9058 6.8743 0.0021 -0.3937 -0.0008
# 2 15.9058 109.7641 -14.4401 0.0054 19.3222 -0.0026
# 3 6.8743 -14.4401 75.0205 0.0014 22.7038 -0.0009
# 4 0.0021 0.0054 0.0014 11.4006 -0.0005 5.3460
# 5 -0.3937 19.3222 22.7038 -0.0005 24.4956 0.0002
# 6 -0.0008 -0.0026 -0.0009 5.3460 0.0002 35.6964
#
#
#
# Elastic Compliance Matrix: (Units=1/GPa)
#
#
# Indices 1 2 3 4 5 6 
#
# 1 0.013053 -0.003571 -0.003891 0.000000 0.006633 0.000000
# 2 -0.003571 0.014286 0.009041 -0.000009 -0.019706 0.000003
# 3 -0.003891 0.009041 0.024466 -0.000009 -0.029870 0.000003
# 4 0.000000 -0.000009 -0.000009 0.094340 0.000018 -0.014129
# 5 0.006633 -0.019706 -0.029870 0.000018 0.084160 -0.000005
# 6 0.000000 0.000003 0.000003 -0.014129 -0.000005 0.030130
#
#
# Mechanical properties :
#
#
# Convention : Reuss Voigt Hill
#
# Bulk Modulus (GPa) = 18.19388 31.63064 24.91226
# Shear Modulus (GPa) = 18.14235 31.62889 24.88562
#
# Velocity S-wave (km/s) = 2.83115 3.73816 3.31581
# Velocity P-wave (km/s) = 4.32728 5.71020 5.06615
#
# Compressibility (1/GPa) = 0.05496353
#
# Stress axis : x y z
#
# Youngs Moduli (GPa) = 76.61054 69.99791 40.87269
#
# Poissons Ratio (x) = 0.24996 0.15902
# Poissons Ratio (y) = 0.27357 -0.36952
# Poissons Ratio (z) = 0.29807 -0.63283
#
# Static dielectric constant tensor:
#      x y z
#    x 4.463040 0.000030 0.161880 
#    y 0.000030 5.849430 0.000020 
#    z 0.161880 0.000020 3.978660 
# 
# 
# High freq. dielectric constant tensor:
#      x y z
#    x 1.899180 0.000000 0.010070 
#    y 0.000000 1.896000 0.000000 
#    z 0.010070 0.000000 1.866960 
# 
# From -- ./inp_files/214149.got.cif
#   From: 2010.06.25/outbox.cif.g09.slc.cpg/sg15_108_cif.got.tgz:214149.got - 2010.06.28 07:06:18.
