data_PCOD8143090
_publ_section_title
;
Structure prediction by ZEFSAII (Michael W. Deem and Ramdas Pophale) SiO2 
 PCOD8143090
Probable space group: C 2/C
;
_chemical_formula_sum "Si O2"
_cell_formula_units_Z 40
_cell_length_a 14.082015
_cell_length_b 9.646574
_cell_length_c 14.245975
_cell_angle_alpha 90.000000
_cell_angle_beta 112.378223
_cell_angle_gamma 90.000000
_cell_volume 1789.479054
_symmetry_space_group_name_H-M "C 2/C"
_symmetry_group_IT_number 15
_symmetry_cell_setting 'monoclinic'
loop_
_space_group_symop_operation_xyz
x,y,z
-x,y,1/2-z
-x,-y,-z
x,-y,1/2+z
1/2+x,1/2+y,z
1/2-x,1/2+y,1/2-z
1/2-x,1/2-y,-z
1/2+x,1/2-y,1/2+z
loop_
_atom_site_type_symbol
_atom_site_label
_atom_site_fract_x
_atom_site_fract_y
_atom_site_fract_z
Si Si1 0.609271 0.323419 0.753458
Si Si2 0.133313 0.429195 0.395003
Si Si3 0.077304 0.737022 0.358042
Si Si4 0.256303 0.468651 0.094728
Si Si5 0.945904 0.314055 0.444161
O O1 0.500000 0.376298 0.750000
O O2 0.642488 0.176803 0.812279
O O3 0.693892 0.438774 0.805717
O O4 0.601114 0.307863 0.638418
O O5 0.107100 0.579886 0.342708
O O6 0.241610 0.440852 0.493059
O O7 0.044135 0.379556 0.431776
O O8 0.179010 0.830429 0.398861
O O9 0.025742 0.745505 0.442246
O O10 0.000000 0.795002 0.250000
O O11 0.140573 0.431591 0.079311
#
# Coordination Sequence:
#
# PCOD8143090 Si02
#       5
#     8   8   8   8   8
#     4  10  22  41  60  86 120 153 189 238 292 345
#     4  10  21  40  62  85 117 157 193 231 286 353
#     4  11  22  38  60  87 118 153 194 242 286 338
#     4  11  22  37  60  90 117 148 195 244 286 334
#     4  10  22  38  62  86 115 157 197 231 285 352
#
# _framework density 22.352874
#
# number of rings (size 3 to 8) (size 9 to 14) (size 15 to 20)
#    0.000    1.600    0.000    7.800    0.000    6.400 
#    0.000    9.000    0.000    0.000    0.000    1.400 
#    0.000    0.000    0.000    0.000    0.000    0.000 
#
# Total GULP energy -247960.634080 kJ/mol
# GULP energy per Si atom -12398.031704 kJ/mol
# Density = 2.230200 g / cm^3
# Si number density = 22.352874 Si / 1000 Ang^3
#
#
#
# Elastic Constant Matrix: (Units=GPa)
#
#
# Indices 1 2 3 4 5 6 
#
# 1 28.4743 24.2264 37.8060 0.0000 5.3136 0.0000
# 2 24.2264 76.6444 38.8024 0.0000 -1.8976 0.0000
# 3 37.8060 38.8024 169.0035 0.0000 9.4693 0.0000
# 4 0.0000 0.0000 0.0000 36.0508 0.0000 14.5981
# 5 5.3136 -1.8976 9.4693 0.0000 36.8550 0.0000
# 6 0.0000 0.0000 0.0000 14.5981 0.0000 17.3466
#
#
#
# Elastic Compliance Matrix: (Units=1/GPa)
#
#
# Indices 1 2 3 4 5 6 
#
# 1 0.062593 -0.014797 -0.010203 0.000000 -0.007165 0.000000
# 2 -0.014797 0.018361 -0.001094 0.000000 0.003360 0.000000
# 3 -0.010203 -0.001094 0.008494 0.000000 -0.000768 0.000000
# 4 0.000000 0.000000 0.000000 0.042078 0.000000 -0.035411
# 5 -0.007165 0.003360 -0.000768 0.000000 0.028537 0.000000
# 6 0.000000 0.000000 0.000000 -0.035411 0.000000 0.087448
#
#
# Mechanical properties :
#
#
# Convention : Reuss Voigt Hill
#
# Bulk Modulus (GPa) = 26.83843 52.86576 39.85209
# Shear Modulus (GPa) = 16.01960 29.60296 22.81128
#
# Velocity S-wave (km/s) = 2.67997 3.64311 3.19800
# Velocity P-wave (km/s) = 4.64856 6.43414 5.61281
#
# Compressibility (1/GPa) = 0.03726001
#
# Stress axis : x y z
#
# Youngs Moduli (GPa) = 15.97631 54.46235 117.73461
#
# Poissons Ratio (x) = 0.80586 1.20128
# Poissons Ratio (y) = 0.23640 0.12879
# Poissons Ratio (z) = 0.16301 0.05958
#
# Static dielectric constant tensor:
#      x y z
#    x 3.710180 0.000000 0.125190 
#    y 0.000000 3.929450 0.000000 
#    z 0.125190 0.000000 4.628870 
# 
# 
# High freq. dielectric constant tensor:
#      x y z
#    x 1.857050 0.000000 0.016170 
#    y 0.000000 1.875610 0.000000 
#    z 0.016170 0.000000 1.900760 
# 
# From -- ./inp_files/150783.got.cif
#   From: 2010.06.25/outbox.cif.g09.slc.cpg/sg15_76_cif.got.tgz:150783.got - 2010.06.28 07:06:18.
