data_PCOD8143128
_publ_section_title
;
Structure prediction by ZEFSAII (Michael W. Deem and Ramdas Pophale) SiO2 
 PCOD8143128
Probable space group: C 2/C
;
_chemical_formula_sum "Si O2"
_cell_formula_units_Z 56
_cell_length_a 8.225451
_cell_length_b 11.206088
_cell_length_c 29.965253
_cell_angle_alpha 90.000000
_cell_angle_beta 66.589776
_cell_angle_gamma 90.000000
_cell_volume 2534.689321
_symmetry_space_group_name_H-M "C 2/C"
_symmetry_group_IT_number 15
_symmetry_cell_setting 'monoclinic'
loop_
_space_group_symop_operation_xyz
x,y,z
-x,y,1/2-z
-x,-y,-z
x,-y,1/2+z
1/2+x,1/2+y,z
1/2-x,1/2+y,1/2-z
1/2-x,1/2-y,-z
1/2+x,1/2-y,1/2+z
loop_
_atom_site_type_symbol
_atom_site_label
_atom_site_fract_x
_atom_site_fract_y
_atom_site_fract_z
Si Si1 0.637542 0.165449 0.481686
Si Si2 0.616322 0.872907 0.420624
Si Si3 0.037786 0.216600 0.574921
Si Si4 0.549841 0.063309 0.356517
Si Si5 0.160018 0.774131 0.699155
Si Si6 0.214615 0.946951 0.351119
Si Si7 0.047323 0.842378 0.614928
O O1 0.750000 0.250000 0.500000
O O2 0.535375 0.078251 0.528004
O O3 0.479722 0.240294 0.474313
O O4 0.772359 0.108221 0.430119
O O5 0.790449 0.859490 0.431786
O O6 0.560599 0.745362 0.405766
O O7 0.645215 0.968635 0.378646
O O8 0.040290 0.330866 0.606538
O O9 0.865579 0.132322 0.600000
O O10 0.700914 0.118555 0.307582
O O11 0.403350 0.000904 0.342812
O O12 0.253042 0.643228 0.694663
O O13 0.000000 0.791927 0.750000
O O14 0.099818 0.773586 0.653986
O O15 0.074261 0.049251 0.354980
#
# Coordination Sequence:
#
# PCOD8143128 Si02
#       7
#     8   8   8   8   8   8   8
#     4  10  21  40  62  98 136 178 223 262 317 388
#     4  11  22  40  67  95 138 177 218 265 322 384
#     4  11  22  40  63  97 131 177 221 264 318 379
#     4  11  22  43  69  94 130 169 216 271 330 387
#     4  11  25  46  70  95 128 165 218 274 335 393
#     4  11  22  42  70  92 130 173 211 270 331 382
#     4  11  21  43  66  96 136 173 216 273 319 387
#
# _framework density 22.093439
#
# number of rings (size 3 to 8) (size 9 to 14) (size 15 to 20)
#    0.000    1.143    5.714    2.143    0.000    1.714 
#    2.571    2.143    0.000    0.000    0.000    0.000 
#    0.000    0.000    0.000    0.000    0.000    0.000 
#
# Total GULP energy -346974.861931 kJ/mol
# GULP energy per Si atom -12391.959355 kJ/mol
# Density = 2.204315 g / cm^3
# Si number density = 22.093439 Si / 1000 Ang^3
#
#
#
# Elastic Constant Matrix: (Units=GPa)
#
#
# Indices 1 2 3 4 5 6 
#
# 1 121.8218 32.8615 34.9423 0.0000 -21.2949 0.0000
# 2 32.8615 103.1047 33.2622 0.0000 -25.8622 0.0000
# 3 34.9423 33.2622 114.9563 0.0000 -38.1214 0.0000
# 4 0.0000 0.0000 0.0000 25.7377 0.0000 -9.4191
# 5 -21.2949 -25.8622 -38.1214 0.0000 30.3674 0.0000
# 6 0.0000 0.0000 0.0000 -9.4191 0.0000 39.5826
#
#
#
# Elastic Compliance Matrix: (Units=1/GPa)
#
#
# Indices 1 2 3 4 5 6 
#
# 1 0.009686 -0.001748 -0.001164 0.000000 0.003842 0.000000
# 2 -0.001748 0.012650 0.000064 0.000000 0.009628 0.000000
# 3 -0.001164 0.000064 0.015045 0.000000 0.018124 0.000000
# 4 0.000000 0.000000 0.000000 0.042560 0.000000 0.010128
# 5 0.003842 0.009628 0.018124 0.000000 0.066576 0.000000
# 6 0.000000 0.000000 0.000000 0.010128 0.000000 0.027674
#
#
# Mechanical properties :
#
#
# Convention : Reuss Voigt Hill
#
# Bulk Modulus (GPa) = 31.56158 60.22388 45.89273
# Shear Modulus (GPa) = 26.25389 35.05864 30.65627
#
# Velocity S-wave (km/s) = 3.45093 3.98783 3.72906
# Velocity P-wave (km/s) = 5.49500 6.96575 6.27362
#
# Compressibility (1/GPa) = 0.03168409
#
# Stress axis : x y z
#
# Youngs Moduli (GPa) = 103.24490 79.04882 66.46884
#
# Poissons Ratio (x) = 0.13815 0.07739
# Poissons Ratio (y) = 0.18044 -0.00424
# Poissons Ratio (z) = 0.12021 -0.00504
#
# Static dielectric constant tensor:
#      x y z
#    x 4.091320 0.000000 -0.295640 
#    y 0.000000 4.350500 0.000000 
#    z -0.295640 0.000000 3.952020 
# 
# 
# High freq. dielectric constant tensor:
#      x y z
#    x 1.878600 0.000000 -0.017180 
#    y 0.000000 1.880950 0.000000 
#    z -0.017180 0.000000 1.839890 
# 
# From -- ./inp_files/307078.got.cif
#   From: 2010.06.25/outbox.cif.g09.slc.cpg/sg15_154_cif.got.tgz:307078.got - 2010.06.28 07:06:18.
