data_PCOD8143492
_publ_section_title
;
Structure prediction by ZEFSAII (Michael W. Deem and Ramdas Pophale) SiO2 
 PCOD8143492
Probable space group: C 2/C
;
_chemical_formula_sum "Si O2"
_cell_formula_units_Z 48
_cell_length_a 17.417060
_cell_length_b 12.877418
_cell_length_c 10.619875
_cell_angle_alpha 90.000000
_cell_angle_beta 70.690381
_cell_angle_gamma 90.000000
_cell_volume 2247.904812
_symmetry_space_group_name_H-M "C 2/C"
_symmetry_group_IT_number 15
_symmetry_cell_setting 'monoclinic'
loop_
_space_group_symop_operation_xyz
x,y,z
-x,y,1/2-z
-x,-y,-z
x,-y,1/2+z
1/2+x,1/2+y,z
1/2-x,1/2+y,1/2-z
1/2-x,1/2-y,-z
1/2+x,1/2-y,1/2+z
loop_
_atom_site_type_symbol
_atom_site_label
_atom_site_fract_x
_atom_site_fract_y
_atom_site_fract_z
Si Si1 0.793768 0.081032 0.359523
Si Si2 0.088545 0.729152 0.736701
Si Si3 0.492646 0.365618 0.392561
Si Si4 0.886975 0.564860 0.984741
Si Si5 0.367874 0.483564 0.077178
Si Si6 0.544354 0.146234 0.022808
O O1 0.839422 0.190286 0.325486
O O2 0.697319 0.094114 0.402385
O O3 0.810560 0.033536 0.488471
O O4 0.818089 0.006359 0.231280
O O5 0.103991 0.625787 0.649339
O O6 0.090617 0.691283 0.877367
O O7 0.000000 0.778719 0.750000
O O8 0.500000 0.418941 0.250000
O O9 0.577130 0.381548 0.423366
O O10 0.424195 0.418114 0.515774
O O11 0.470635 0.245401 0.379967
O O12 0.956630 0.596774 0.044446
O O13 0.897244 0.441509 0.947580
#
# Coordination Sequence:
#
# PCOD8143492 Si02
#       6
#     8   8   8   8   8   8
#     4  12  24  43  68  99 137 173 226 286 335 397
#     4  10  21  40  68  95 125 175 225 275 331 405
#     4  11  22  41  67  98 131 177 220 272 341 402
#     4  10  24  41  66  95 130 181 221 273 331 406
#     4  11  24  40  67 100 133 174 222 282 335 398
#     4  10  22  44  66  94 131 176 226 274 332 410
#
# _framework density 21.353217000000001
#
# number of rings (size 3 to 8) (size 9 to 14) (size 15 to 20)
#    0.000    1.333    3.333    2.500    4.667    3.333 
#    0.000    0.833    0.000    0.000    0.000    0.000 
#    0.000    0.000    0.000    0.000    0.000    0.000 
#
# Total GULP energy -297573.390835 kJ/mol
# GULP energy per Si atom -12398.891285 kJ/mol
# Density = 2.130462 g / cm^3
# Si number density = 21.353217 Si / 1000 Ang^3
#
#
#
# Elastic Constant Matrix: (Units=GPa)
#
#
# Indices 1 2 3 4 5 6 
#
# 1 95.0598 41.7661 48.6267 0.0000 -18.4030 0.0000
# 2 41.7661 122.6625 26.5104 0.0000 -8.4979 0.0000
# 3 48.6267 26.5104 116.1921 0.0000 2.9479 0.0000
# 4 0.0000 0.0000 0.0000 22.6440 0.0000 -0.2953
# 5 -18.4030 -8.4979 2.9479 0.0000 31.4900 0.0000
# 6 0.0000 0.0000 0.0000 -0.2953 0.0000 21.0445
#
#
#
# Elastic Compliance Matrix: (Units=1/GPa)
#
#
# Indices 1 2 3 4 5 6 
#
# 1 0.017551 -0.003842 -0.006719 0.000000 0.009849 0.000000
# 2 -0.003842 0.009618 -0.000597 0.000000 0.000406 0.000000
# 3 -0.006719 -0.000597 0.011686 0.000000 -0.005181 0.000000
# 4 0.000000 0.000000 0.000000 0.044170 0.000000 0.000620
# 5 0.009849 0.000406 -0.005181 0.000000 0.038107 0.000000
# 6 0.000000 0.000000 0.000000 0.000620 0.000000 0.047527
#
#
# Mechanical properties :
#
#
# Convention : Reuss Voigt Hill
#
# Bulk Modulus (GPa) = 60.45842 63.08009 61.76925
# Shear Modulus (GPa) = 25.44709 29.50312 27.47511
#
# Velocity S-wave (km/s) = 3.45588 3.72112 3.59095
# Velocity P-wave (km/s) = 6.65575 6.93308 6.79583
#
# Compressibility (1/GPa) = 0.01654029
#
# Stress axis : x y z
#
# Youngs Moduli (GPa) = 56.97624 103.97511 85.57373
#
# Poissons Ratio (x) = 0.39944 0.57493
# Poissons Ratio (y) = 0.21889 0.05108
# Poissons Ratio (z) = 0.38280 0.06206
#
# Static dielectric constant tensor:
#      x y z
#    x 3.826580 0.000000 -0.089640 
#    y 0.000000 3.928940 0.000000 
#    z -0.089640 0.000000 3.873490 
# 
# 
# High freq. dielectric constant tensor:
#      x y z
#    x 1.819060 0.000000 -0.007640 
#    y 0.000000 1.838400 0.000000 
#    z -0.007640 0.000000 1.851130 
# 
# From -- ./inp_files/104186.got.cif
#   From: 2010.06.25/outbox.cif.g09.slc.cpg/sg15_53_cif.got.tgz:104186.got - 2010.06.28 07:06:18.
