data_PCOD8143392
_publ_section_title
;
Structure prediction by ZEFSAII (Michael W. Deem and Ramdas Pophale) SiO2 
 PCOD8143392
Probable space group: C 2/C
;
_chemical_formula_sum "Si O2"
_cell_formula_units_Z 60
_cell_length_a 16.299869
_cell_length_b 21.758451
_cell_length_c 8.655358
_cell_angle_alpha 90.000000
_cell_angle_beta 116.737173
_cell_angle_gamma 90.000000
_cell_volume 2741.494224
_symmetry_space_group_name_H-M "C 2/C"
_symmetry_group_IT_number 15
_symmetry_cell_setting 'monoclinic'
loop_
_space_group_symop_operation_xyz
x,y,z
-x,y,1/2-z
-x,-y,-z
x,-y,1/2+z
1/2+x,1/2+y,z
1/2-x,1/2+y,1/2-z
1/2-x,1/2-y,-z
1/2+x,1/2-y,1/2+z
loop_
_atom_site_type_symbol
_atom_site_label
_atom_site_fract_x
_atom_site_fract_y
_atom_site_fract_z
Si Si1 0.508289 0.637436 0.429183
Si Si2 0.509896 0.228368 0.014460
Si Si3 0.500000 0.128653 0.750000
Si Si4 0.412912 0.550881 0.568372
Si Si5 0.637253 0.960124 0.218040
Si Si6 0.602907 0.917833 0.855377
Si Si7 0.654168 0.213450 0.397642
Si Si8 0.160509 0.060109 0.680140
O O1 0.500000 0.609106 0.250000
O O2 0.501997 0.710283 0.407830
O O3 0.429016 0.611818 0.477878
O O4 0.607456 0.621496 0.585701
O O5 0.598189 0.235674 0.200207
O O6 0.411045 0.222504 0.010799
O O7 0.525744 0.169790 0.919039
O O8 0.414102 0.084407 0.707386
O O9 0.500000 0.537093 0.750000
O O10 0.329591 0.557782 0.622810
O O11 0.398704 0.496580 0.435089
O O12 0.742120 0.939671 0.318442
O O13 0.626213 0.032158 0.245203
O O14 0.601567 0.953182 0.015351
O O15 0.500000 0.889688 0.750000
O O16 0.673325 0.860351 0.903132
O O17 0.750000 0.250000 0.500000
#
# Coordination Sequence:
#
# PCOD8143392 Si02
#       8
#     8   8   4   8   8   8   8   8
#     4  11  23  41  69  97 138 184 222 274 355 422
#     4  11  25  46  72  97 140 184 230 287 352 425
#     4  12  24  50  68 100 138 190 232 296 360 404
#     4  10  21  40  66  92 140 180 220 278 346 416
#     4  12  27  41  75  99 139 176 235 293 351 408
#     4  12  24  47  70 103 136 183 229 289 355 418
#     4  11  26  47  74 103 138 181 238 288 347 424
#     4  11  23  41  63 103 133 176 232 288 342 418
#
# _framework density 21.885876
#
# number of rings (size 3 to 8) (size 9 to 14) (size 15 to 20)
#    0.000    0.800    4.000    4.000    9.333    1.067 
#    2.400    1.333    0.000    0.000    0.000    0.000 
#    0.000    0.000    0.000    0.000    0.000    0.000 
#
# Total GULP energy -372000.798365 kJ/mol
# GULP energy per Si atom -12400.026612 kJ/mol
# Density = 2.183606 g / cm^3
# Si number density = 21.885876 Si / 1000 Ang^3
#
#
#
# Elastic Constant Matrix: (Units=GPa)
#
#
# Indices 1 2 3 4 5 6 
#
# 1 134.0080 59.4276 42.6734 0.0000 -2.4206 0.0000
# 2 59.4276 152.8450 40.8154 0.0000 -4.2731 0.0000
# 3 42.6734 40.8154 106.2113 0.0000 -16.0469 0.0000
# 4 0.0000 0.0000 0.0000 29.8538 0.0000 -12.6571
# 5 -2.4206 -4.2731 -16.0469 0.0000 32.5251 0.0000
# 6 0.0000 0.0000 0.0000 -12.6571 0.0000 13.2546
#
#
#
# Elastic Compliance Matrix: (Units=1/GPa)
#
#
# Indices 1 2 3 4 5 6 
#
# 1 0.009711 -0.003031 -0.002904 0.000000 -0.001108 0.000000
# 2 -0.003031 0.008243 -0.001967 0.000000 -0.000113 0.000000
# 3 -0.002904 -0.001967 0.012174 0.000000 0.005532 0.000000
# 4 0.000000 0.000000 0.000000 0.056283 0.000000 0.053745
# 5 -0.001108 -0.000113 0.005532 0.000000 0.033377 0.000000
# 6 0.000000 0.000000 0.000000 0.053745 0.000000 0.126768
#
#
# Mechanical properties :
#
#
# Convention : Reuss Voigt Hill
#
# Bulk Modulus (GPa) = 69.81730 75.43300 72.62515
# Shear Modulus (GPa) = 18.71707 31.80323 25.26015
#
# Velocity S-wave (km/s) = 2.92757 3.81614 3.40100
# Velocity P-wave (km/s) = 6.58767 7.34565 6.97696
#
# Compressibility (1/GPa) = 0.01432310
#
# Stress axis : x y z
#
# Youngs Moduli (GPa) = 102.97222 121.31137 82.14408
#
# Poissons Ratio (x) = 0.36773 0.23858
# Poissons Ratio (y) = 0.31214 0.16157
# Poissons Ratio (z) = 0.29907 0.23861
#
# Static dielectric constant tensor:
#      x y z
#    x 4.161980 0.000000 -0.267900 
#    y 0.000000 3.974420 0.000000 
#    z -0.267900 0.000000 4.072920 
# 
# 
# High freq. dielectric constant tensor:
#      x y z
#    x 1.855730 0.000000 -0.011870 
#    y 0.000000 1.870110 0.000000 
#    z -0.011870 0.000000 1.865930 
# 
# From -- ./inp_files/42694.got.cif
#   From: 2010.06.25/outbox.cif.g09.slc.cpg/sg15_22_cif.got.tgz:42694.got - 2010.06.28 07:06:18.
