data_PCOD8143144
_publ_section_title
;
Structure prediction by ZEFSAII (Michael W. Deem and Ramdas Pophale) SiO2 
 PCOD8143144
Probable space group: C 2/C
;
_chemical_formula_sum "Si O2"
_cell_formula_units_Z 56
_cell_length_a 27.671786
_cell_length_b 6.900855
_cell_length_c 16.340365
_cell_angle_alpha 90.000000
_cell_angle_beta 60.147704
_cell_angle_gamma 90.000000
_cell_volume 2706.306268
_symmetry_space_group_name_H-M "C 2/C"
_symmetry_group_IT_number 15
_symmetry_cell_setting 'monoclinic'
loop_
_space_group_symop_operation_xyz
x,y,z
-x,y,1/2-z
-x,-y,-z
x,-y,1/2+z
1/2+x,1/2+y,z
1/2-x,1/2+y,1/2-z
1/2-x,1/2-y,-z
1/2+x,1/2-y,1/2+z
loop_
_atom_site_type_symbol
_atom_site_label
_atom_site_fract_x
_atom_site_fract_y
_atom_site_fract_z
Si Si1 0.409160 0.430966 0.482057
Si Si2 0.646868 0.926724 0.765483
Si Si3 0.871210 0.103520 0.833384
Si Si4 0.689570 0.629331 0.846989
Si Si5 0.204471 0.823550 0.699849
Si Si6 0.978852 0.103839 0.180557
Si Si7 0.445615 0.894749 0.073775
O O1 0.376850 0.387264 0.425571
O O2 0.370102 0.589591 0.560161
O O3 0.471167 0.507524 0.412989
O O4 0.416348 0.237326 0.529206
O O5 0.638728 0.825793 0.684350
O O6 0.689869 0.795675 0.778497
O O7 0.660890 0.150586 0.743467
O O8 0.592806 0.925584 0.868901
O O9 0.818815 0.965762 0.851817
O O10 0.927901 0.042885 0.738961
O O11 0.736462 0.714530 0.870477
O O12 0.708261 0.433519 0.784135
O O13 0.956511 0.279755 0.147663
O O14 0.000000 0.183322 0.250000
O O15 0.500000 0.000000 0.000000
#
# Coordination Sequence:
#
# PCOD8143144 Si02
#       7
#     8   8   8   8   8   8   8
#     4  11  23  41  61  95 133 163 209 273 313 375
#     4  11  21  39  64  89 120 168 205 251 314 379
#     4  10  23  42  62  90 133 168 204 259 324 384
#     4  11  22  40  67  92 124 160 219 265 314 373
#     4  11  21  40  65  91 121 169 210 258 320 381
#     4  10  21  40  63  88 129 167 200 254 323 378
#     4  12  22  36  63  97 124 162 219 257 308 379
#
# _framework density 20.692411
#
# number of rings (size 3 to 8) (size 9 to 14) (size 15 to 20)
#    0.000    1.143    4.286    3.000    0.000    1.714 
#    2.571    0.714    0.000    0.000    0.000    0.000 
#    0.000    0.000    0.000    0.000    0.000    0.000 
#
# Total GULP energy -346943.220801 kJ/mol
# GULP energy per Si atom -12390.829314 kJ/mol
# Density = 2.064531 g / cm^3
# Si number density = 20.692411 Si / 1000 Ang^3
#
#
#
# Elastic Constant Matrix: (Units=GPa)
#
#
# Indices 1 2 3 4 5 6 
#
# 1 108.6378 46.2365 27.7435 -0.0007 13.9001 0.0010
# 2 46.2365 112.9854 31.2768 -0.0035 13.9647 0.0101
# 3 27.7435 31.2768 53.5128 0.0007 17.6978 -0.0003
# 4 -0.0007 -0.0035 0.0007 20.4915 -0.0003 -12.3855
# 5 13.9001 13.9647 17.6978 -0.0003 33.8195 0.0003
# 6 0.0010 0.0101 -0.0003 -12.3855 0.0003 22.3227
#
#
#
# Elastic Compliance Matrix: (Units=1/GPa)
#
#
# Indices 1 2 3 4 5 6 
#
# 1 0.011866 -0.003703 -0.003483 0.000001 -0.001525 0.000002
# 2 -0.003703 0.011767 -0.004661 -0.000002 -0.000898 -0.000006
# 3 -0.003483 -0.004661 0.026734 -0.000001 -0.010634 0.000003
# 4 0.000001 -0.000002 -0.000001 0.073424 0.000001 0.040739
# 5 -0.001525 -0.000898 -0.010634 0.000001 0.036131 0.000000
# 6 0.000002 -0.000006 0.000003 0.040739 0.000000 0.067401
#
#
# Mechanical properties :
#
#
# Convention : Reuss Voigt Hill
#
# Bulk Modulus (GPa) = 37.49113 53.96106 45.72610
# Shear Modulus (GPa) = 19.23763 26.65202 22.94482
#
# Velocity S-wave (km/s) = 3.05240 3.59278 3.33356
# Velocity P-wave (km/s) = 5.52996 6.58370 6.07970
#
# Compressibility (1/GPa) = 0.02667297
#
# Stress axis : x y z
#
# Youngs Moduli (GPa) = 84.27787 84.98143 37.40583
#
# Poissons Ratio (x) = 0.31469 0.13028
# Poissons Ratio (y) = 0.31208 0.17434
# Poissons Ratio (z) = 0.29353 0.39609
#
# Static dielectric constant tensor:
#      x y z
#    x 3.984300 0.000000 -0.042340 
#    y 0.000000 3.628800 0.000000 
#    z -0.042340 0.000000 3.488340 
# 
# 
# High freq. dielectric constant tensor:
#      x y z
#    x 1.827440 0.000000 -0.007860 
#    y 0.000000 1.810850 0.000000 
#    z -0.007860 0.000000 1.794020 
# 
# From -- ./inp_files/223831.got.cif
#   From: 2010.06.25/outbox.cif.g09.slc.cpg/sg15_112_cif.got.tgz:223831.got - 2010.06.28 07:06:18.
