data_PCOD8143046
_publ_section_title
;
Structure prediction by ZEFSAII (Michael W. Deem and Ramdas Pophale) SiO2 
 PCOD8143046
Probable space group: C 2/C
;
_chemical_formula_sum "Si O2"
_cell_formula_units_Z 64
_cell_length_a 18.012479
_cell_length_b 12.721681
_cell_length_c 13.728485
_cell_angle_alpha 90.000000
_cell_angle_beta 100.092388
_cell_angle_gamma 90.000000
_cell_volume 3097.191076
_symmetry_space_group_name_H-M "C 2/C"
_symmetry_group_IT_number 15
_symmetry_cell_setting 'monoclinic'
loop_
_space_group_symop_operation_xyz
x,y,z
-x,y,1/2-z
-x,-y,-z
x,-y,1/2+z
1/2+x,1/2+y,z
1/2-x,1/2+y,1/2-z
1/2-x,1/2-y,-z
1/2+x,1/2-y,1/2+z
loop_
_atom_site_type_symbol
_atom_site_label
_atom_site_fract_x
_atom_site_fract_y
_atom_site_fract_z
Si Si1 0.964951 0.287172 0.979987
Si Si2 0.498456 0.420599 0.590075
Si Si3 0.437669 0.120829 0.160182
Si Si4 0.645306 0.773821 0.707364
Si Si5 0.303834 0.816951 0.223084
Si Si6 0.787896 0.511547 0.341240
Si Si7 0.876701 0.092409 0.225513
Si Si8 0.649393 0.936770 0.444198
O O1 0.907223 0.230318 0.891680
O O2 0.029653 0.347756 0.936482
O O3 0.923306 0.373860 0.035318
O O4 0.003825 0.199044 0.054594
O O5 0.500000 0.500000 0.500000
O O6 0.571575 0.444811 0.672852
O O7 0.421538 0.429014 0.635364
O O8 0.500000 0.077414 0.250000
O O9 0.399012 0.224601 0.199889
O O10 0.376466 0.031112 0.130175
O O11 0.718961 0.706287 0.733920
O O12 0.662953 0.895104 0.690436
O O13 0.358026 0.715894 0.237461
O O14 0.301502 0.859815 0.112334
O O15 0.326085 0.905214 0.307759
O O16 0.699645 0.523823 0.293187
O O17 0.796542 0.516782 0.459881
#
# Coordination Sequence:
#
# PCOD8143046 Si02
#       8
#     8   8   8   8   8   8   8   8
#     4  10  22  38  63  92 122 167 209 260 315 381
#     4  11  25  44  66  90 128 167 214 260 310 386
#     4  10  21  40  60  95 132 159 207 262 318 383
#     4   9  21  39  60  91 125 166 213 251 323 378
#     4  11  22  41  70  88 133 166 211 277 306 386
#     4  10  23  39  63  97 125 165 215 260 322 380
#     4  10  25  45  63  97 123 168 221 257 320 380
#     4  11  22  38  67  97 128 169 209 259 333 380
#
# _framework density 20.663885000000001
#
# number of rings (size 3 to 8) (size 9 to 14) (size 15 to 20)
#    0.000    1.750    2.500    0.375    5.250    3.500 
#    4.500    0.625    0.000    0.000    0.000    0.000 
#    0.000    0.000    0.000    0.000    0.000    0.000 
#
# Total GULP energy -396753.268007 kJ/mol
# GULP energy per Si atom -12398.539625 kJ/mol
# Density = 2.061685 g / cm^3
# Si number density = 20.663885 Si / 1000 Ang^3
#
#
#
# Elastic Constant Matrix: (Units=GPa)
#
#
# Indices 1 2 3 4 5 6 
#
# 1 87.7417 24.4459 34.5657 0.0000 1.9650 0.0000
# 2 24.4459 54.8413 46.4107 0.0000 -14.3808 0.0000
# 3 34.5657 46.4107 116.8243 0.0000 -2.1772 0.0000
# 4 0.0000 0.0000 0.0000 32.9131 0.0000 -2.6520
# 5 1.9650 -14.3808 -2.1772 0.0000 22.9791 0.0000
# 6 0.0000 0.0000 0.0000 -2.6520 0.0000 21.6604
#
#
#
# Elastic Compliance Matrix: (Units=1/GPa)
#
#
# Indices 1 2 3 4 5 6 
#
# 1 0.013900 -0.005988 -0.001829 0.000000 -0.005109 0.000000
# 2 -0.005988 0.037741 -0.012795 0.000000 0.022919 0.000000
# 3 -0.001829 -0.012795 0.014063 0.000000 -0.006518 0.000000
# 4 0.000000 0.000000 0.000000 0.030686 0.000000 0.003757
# 5 -0.005109 0.022919 -0.006518 0.000000 0.057680 0.000000
# 6 0.000000 0.000000 0.000000 0.003757 0.000000 0.046627
#
#
# Mechanical properties :
#
#
# Convention : Reuss Voigt Hill
#
# Bulk Modulus (GPa) = 40.84862 52.25020 46.54941
# Shear Modulus (GPa) = 19.99348 25.77619 22.88484
#
# Velocity S-wave (km/s) = 3.11393 3.53569 3.33149
# Velocity P-wave (km/s) = 5.72187 6.48142 6.11345
#
# Compressibility (1/GPa) = 0.02448063
#
# Stress axis : x y z
#
# Youngs Moduli (GPa) = 71.94003 26.49612 71.11107
#
# Poissons Ratio (x) = 0.15866 0.13008
# Poissons Ratio (y) = 0.43078 0.90984
# Poissons Ratio (z) = 0.13159 0.33901
#
# Static dielectric constant tensor:
#      x y z
#    x 3.716660 0.000000 -0.103170 
#    y 0.000000 3.553790 0.000000 
#    z -0.103170 0.000000 3.868370 
# 
# 
# High freq. dielectric constant tensor:
#      x y z
#    x 1.810600 0.000000 -0.011900 
#    y 0.000000 1.798090 0.000000 
#    z -0.011900 0.000000 1.816800 
# 
# From -- ./inp_files/105725.got.cif
#   From: 2010.06.25/outbox.cif.g09.slc.cpg/sg15_53_cif.got.tgz:105725.got - 2010.06.28 07:06:18.
