data_PCOD8143352
_publ_section_title
;
Structure prediction by ZEFSAII (Michael W. Deem and Ramdas Pophale) SiO2 
 PCOD8143352
Probable space group: C 2/C
;
_chemical_formula_sum "Si O2"
_cell_formula_units_Z 64
_cell_length_a 13.049067
_cell_length_b 21.120317
_cell_length_c 21.937754
_cell_angle_alpha 90.000000
_cell_angle_beta 149.764806
_cell_angle_gamma 90.000000
_cell_volume 3044.495164
_symmetry_space_group_name_H-M "C 2/C"
_symmetry_group_IT_number 15
_symmetry_cell_setting 'monoclinic'
loop_
_space_group_symop_operation_xyz
x,y,z
-x,y,1/2-z
-x,-y,-z
x,-y,1/2+z
1/2+x,1/2+y,z
1/2-x,1/2+y,1/2-z
1/2-x,1/2-y,-z
1/2+x,1/2-y,1/2+z
loop_
_atom_site_type_symbol
_atom_site_label
_atom_site_fract_x
_atom_site_fract_y
_atom_site_fract_z
Si Si1 0.555693 0.909500 0.374414
Si Si2 0.537281 0.431287 0.993169
Si Si3 0.183232 0.108590 0.235438
Si Si4 0.666119 0.340529 0.156472
Si Si5 0.191621 0.147544 0.811344
Si Si6 0.704158 0.688971 0.434660
Si Si7 0.915453 0.701291 0.425072
Si Si8 0.842942 0.515448 0.867156
O O1 0.391429 0.866558 0.252909
O O2 0.631413 0.865003 0.467416
O O3 0.741571 0.930894 0.426686
O O4 0.448721 0.967990 0.355624
O O5 0.354389 0.410512 0.854024
O O6 0.500000 0.500000 0.000000
O O7 0.517091 0.383990 0.039672
O O8 0.389451 0.147639 0.358399
O O9 0.188950 0.043439 0.277084
O O10 0.015655 0.160094 0.167398
O O11 0.639730 0.345644 0.214271
O O12 0.598109 0.269749 0.110200
O O13 0.000000 0.172184 0.750000
O O14 0.220507 0.072775 0.834378
O O15 0.378644 0.189800 0.931406
O O16 0.750000 0.750000 0.500000
O O17 0.726569 0.702957 0.375074
O O18 0.000000 0.500000 0.000000
#
# Coordination Sequence:
#
# PCOD8143352 Si02
#       8
#     8   8   8   8   8   8   8   8
#     4  10  21  40  65  97 136 182 221 278 352 410
#     4  11  24  42  67 102 140 182 229 280 353 423
#     4  11  24  38  64 104 139 173 230 281 344 418
#     4  11  24  42  72  94 138 177 228 285 347 418
#     4  11  26  46  70  94 132 183 231 286 348 411
#     4  11  21  38  67 105 137 173 219 290 357 412
#     4  12  23  43  68  99 137 174 231 287 353 409
#     4  11  21  42  67  98 136 182 230 285 340 406
#
# _framework density 21.021547000000002
#
# number of rings (size 3 to 8) (size 9 to 14) (size 15 to 20)
#    0.000    1.000    3.750    4.500    1.750    6.500 
#    0.000    0.000    0.000    0.000    0.000    0.000 
#    0.000    0.000    0.000    0.000    0.000    0.000 
#
# Total GULP energy -396446.406893 kJ/mol
# GULP energy per Si atom -12388.950215 kJ/mol
# Density = 2.097370 g / cm^3
# Si number density = 21.021547 Si / 1000 Ang^3
#
#
#
# Elastic Constant Matrix: (Units=GPa)
#
#
# Indices 1 2 3 4 5 6 
#
# 1 89.7194 34.1164 44.3847 -0.0001 -10.9887 -0.0014
# 2 34.1164 118.8766 40.6050 -0.0022 -4.0376 -0.0012
# 3 44.3847 40.6050 109.7798 0.0033 -29.7062 0.0000
# 4 -0.0001 -0.0022 0.0033 54.6561 0.0015 -6.1060
# 5 -10.9887 -4.0376 -29.7062 0.0015 30.1338 0.0000
# 6 -0.0014 -0.0012 0.0000 -6.1060 0.0000 20.2721
#
#
#
# Elastic Compliance Matrix: (Units=1/GPa)
#
#
# Indices 1 2 3 4 5 6 
#
# 1 0.014544 -0.002486 -0.004931 0.000000 0.000109 0.000001
# 2 -0.002486 0.010260 -0.003632 0.000001 -0.003112 0.000001
# 3 -0.004931 -0.003632 0.016131 -0.000002 0.013617 -0.000001
# 4 0.000000 0.000001 -0.000002 0.018933 -0.000002 0.005703
# 5 0.000109 -0.003112 0.013617 -0.000002 0.046232 -0.000001
# 6 0.000001 0.000001 -0.000001 0.005703 -0.000001 0.051047
#
#
# Mechanical properties :
#
#
# Convention : Reuss Voigt Hill
#
# Bulk Modulus (GPa) = 53.08698 61.84310 57.46504
# Shear Modulus (GPa) = 26.95044 34.29704 30.62374
#
# Velocity S-wave (km/s) = 3.58444 4.04359 3.82092
# Velocity P-wave (km/s) = 6.51455 7.16126 6.84554
#
# Compressibility (1/GPa) = 0.01883701
#
# Stress axis : x y z
#
# Youngs Moduli (GPa) = 68.75681 97.46124 61.99175
#
# Poissons Ratio (x) = 0.24228 0.30569
# Poissons Ratio (y) = 0.17092 0.22517
# Poissons Ratio (z) = 0.33905 0.35401
#
# Static dielectric constant tensor:
#      x y z
#    x 3.626830 -0.000070 -0.031810 
#    y -0.000070 4.136900 0.000130 
#    z -0.031810 0.000130 3.689440 
# 
# 
# High freq. dielectric constant tensor:
#      x y z
#    x 1.795770 0.000000 -0.026380 
#    y 0.000000 1.835580 0.000000 
#    z -0.026380 0.000000 1.844070 
# 
# From -- ./inp_files/274847.got.cif
#   From: 2010.06.25/outbox.cif.g09.slc.cpg/sg15_138_cif.got.tgz:274847.got - 2010.06.28 07:06:18.
