data_PCOD8143891
_publ_section_title
;
Structure prediction by ZEFSAII (Michael W. Deem and Ramdas Pophale) SiO2 
 PCOD8143891
Probable space group: C 2/C
;
_chemical_formula_sum "Si O2"
_cell_formula_units_Z 44
_cell_length_a 16.488965
_cell_length_b 8.714140
_cell_length_c 14.601881
_cell_angle_alpha 90.000000
_cell_angle_beta 98.534294
_cell_angle_gamma 90.000000
_cell_volume 2074.870820
_symmetry_space_group_name_H-M "C 2/C"
_symmetry_group_IT_number 15
_symmetry_cell_setting 'monoclinic'
loop_
_space_group_symop_operation_xyz
x,y,z
-x,y,1/2-z
-x,-y,-z
x,-y,1/2+z
1/2+x,1/2+y,z
1/2-x,1/2+y,1/2-z
1/2-x,1/2-y,-z
1/2+x,1/2-y,1/2+z
loop_
_atom_site_type_symbol
_atom_site_label
_atom_site_fract_x
_atom_site_fract_y
_atom_site_fract_z
Si Si1 0.841772 0.072266 0.731153
Si Si2 0.911951 0.255671 0.270268
Si Si3 0.558315 0.988475 0.595379
Si Si4 0.735808 0.951883 0.561884
Si Si5 0.000000 0.721068 0.250000
Si Si6 0.279306 0.134619 0.630878
O O1 0.921870 0.169635 0.720396
O O2 0.794194 0.143386 0.808892
O O3 0.858847 0.898384 0.766808
O O4 0.783079 0.079060 0.631056
O O5 0.924102 0.336914 0.369827
O O6 0.866355 0.384411 0.198401
O O7 0.000000 0.206216 0.250000
O O8 0.500000 0.000000 0.500000
O O9 0.644595 0.916089 0.581494
O O10 0.514264 0.885752 0.664765
O O11 0.733445 0.993302 0.451846
O O12 0.788141 0.797153 0.581408
#
# Coordination Sequence:
#
# PCOD8143891 Si02
#       6
#     8   8   8   8   4   8
#     4  11  23  44  69  98 130 174 222 269 326 388
#     4  11  22  41  66  97 134 170 217 270 329 382
#     4  12  25  42  65  99 132 173 219 272 333 390
#     4  10  22  40  66  95 126 174 214 260 334 386
#     4  12  26  46  68  96 136 170 224 276 324 394
#     4  10  21  41  66  93 133 169 213 270 320 392
#
# _framework density 21.206137999999999
#
# number of rings (size 3 to 8) (size 9 to 14) (size 15 to 20)
#    0.000    1.091    5.455    1.091    0.000    1.455 
#    0.000    3.636    0.000    0.000    0.000    0.000 
#    0.000    0.000    0.000    0.000    0.000    0.000 
#
# Total GULP energy -272688.640363 kJ/mol
# GULP energy per Si atom -12394.938198 kJ/mol
# Density = 2.115787 g / cm^3
# Si number density = 21.206138 Si / 1000 Ang^3
#
#
#
# Elastic Constant Matrix: (Units=GPa)
#
#
# Indices 1 2 3 4 5 6 
#
# 1 129.1051 16.4941 62.6391 0.0000 7.0972 0.0000
# 2 16.4941 60.7640 35.2978 0.0000 11.0300 0.0000
# 3 62.6391 35.2978 145.3658 0.0000 15.4414 0.0000
# 4 0.0000 0.0000 0.0000 20.6583 0.0000 3.4359
# 5 7.0972 11.0300 15.4414 0.0000 36.9730 0.0000
# 6 0.0000 0.0000 0.0000 3.4359 0.0000 20.5350
#
#
#
# Elastic Compliance Matrix: (Units=1/GPa)
#
#
# Indices 1 2 3 4 5 6 
#
# 1 0.009796 -0.000230 -0.004157 0.000000 -0.000075 0.000000
# 2 -0.000230 0.019732 -0.004260 0.000000 -0.004063 0.000000
# 3 -0.004157 -0.004260 0.009926 0.000000 -0.002076 0.000000
# 4 0.000000 0.000000 0.000000 0.049792 0.000000 -0.008331
# 5 -0.000075 -0.004063 -0.002076 0.000000 0.029141 0.000000
# 6 0.000000 0.000000 0.000000 -0.008331 0.000000 0.050091
#
#
# Mechanical properties :
#
#
# Convention : Reuss Voigt Hill
#
# Bulk Modulus (GPa) = 45.13125 62.67743 53.90434
# Shear Modulus (GPa) = 25.88519 30.35351 28.11935
#
# Velocity S-wave (km/s) = 3.49756 3.78743 3.64538
# Velocity P-wave (km/s) = 6.13506 6.98188 6.57212
#
# Compressibility (1/GPa) = 0.02215760
#
# Stress axis : x y z
#
# Youngs Moduli (GPa) = 102.07987 50.67881 100.74877
#
# Poissons Ratio (x) = 0.01168 0.41884
# Poissons Ratio (y) = 0.02353 0.42924
# Poissons Ratio (z) = 0.42438 0.21591
#
# Static dielectric constant tensor:
#      x y z
#    x 3.858870 0.000000 0.197550 
#    y 0.000000 3.594390 0.000000 
#    z 0.197550 0.000000 4.260290 
# 
# 
# High freq. dielectric constant tensor:
#      x y z
#    x 1.843390 0.000000 0.011760 
#    y 0.000000 1.808780 0.000000 
#    z 0.011760 0.000000 1.842630 
# 
# From -- ./inp_files/159440.got.cif
#   From: 2010.06.25/outbox.cif.g09.slc.cpg/sg15_80_cif.got.tgz:159440.got - 2010.06.28 07:06:18.
