data_PCOD8143819
_publ_section_title
;
Structure prediction by ZEFSAII (Michael W. Deem and Ramdas Pophale) SiO2 
 PCOD8143819
Probable space group: C 2/C
;
_chemical_formula_sum "Si O2"
_cell_formula_units_Z 52
_cell_length_a 18.293335
_cell_length_b 12.119974
_cell_length_c 17.799592
_cell_angle_alpha 90.000000
_cell_angle_beta 143.663491
_cell_angle_gamma 90.000000
_cell_volume 2338.365923
_symmetry_space_group_name_H-M "C 2/C"
_symmetry_group_IT_number 15
_symmetry_cell_setting 'monoclinic'
loop_
_space_group_symop_operation_xyz
x,y,z
-x,y,1/2-z
-x,-y,-z
x,-y,1/2+z
1/2+x,1/2+y,z
1/2-x,1/2+y,1/2-z
1/2-x,1/2-y,-z
1/2+x,1/2-y,1/2+z
loop_
_atom_site_type_symbol
_atom_site_label
_atom_site_fract_x
_atom_site_fract_y
_atom_site_fract_z
Si Si1 0.855156 0.271879 0.650813
Si Si2 0.926872 0.813791 0.946702
Si Si3 0.186276 0.890750 0.794672
Si Si4 0.327106 0.452265 0.985936
Si Si5 0.261299 0.125468 0.830103
Si Si6 0.500000 0.487890 0.750000
Si Si7 0.811239 0.825948 0.396421
O O1 0.750000 0.250000 0.500000
O O2 0.804241 0.391891 0.635463
O O3 0.850023 0.184917 0.715883
O O4 0.000000 0.281783 0.750000
O O5 0.831508 0.861471 0.807088
O O6 0.932232 0.907295 0.015527
O O7 0.883048 0.698165 0.948244
O O8 0.051667 0.789134 0.008284
O O9 0.249172 0.782330 0.881955
O O10 0.058398 0.912555 0.732755
O O11 0.273307 0.999820 0.869338
O O12 0.303625 0.581421 0.954024
O O13 0.390522 0.437267 0.121739
O O14 0.245229 0.126786 0.727217
#
# Coordination Sequence:
#
# PCOD8143819 Si02
#       7
#     8   8   8   8   8   4   8
#     4  11  27  44  69 107 142 181 229 289 354 406
#     4  10  21  41  65  92 126 172 222 285 334 404
#     4  11  23  40  62  96 125 174 230 270 346 408
#     4  11  23  44  70  97 132 179 229 286 347 410
#     4  10  23  39  67  96 129 174 228 281 338 412
#     4  12  24  40  68  94 132 184 226 274 346 430
#     4  11  22  41  67  92 133 176 227 285 338 407
#
# _framework density 22.237749999999998
#
# number of rings (size 3 to 8) (size 9 to 14) (size 15 to 20)
#    0.000    1.231    3.077    2.308    8.615    1.231 
#    1.385    4.615    0.000    0.000    0.000    0.000 
#    0.000    0.000    0.000    0.000    0.000    0.000 
#
# Total GULP energy -322211.040224 kJ/mol
# GULP energy per Si atom -12392.732316 kJ/mol
# Density = 2.218714 g / cm^3
# Si number density = 22.237750 Si / 1000 Ang^3
#
#
#
# Elastic Constant Matrix: (Units=GPa)
#
#
# Indices 1 2 3 4 5 6 
#
# 1 71.7322 21.7855 19.4649 0.0000 6.5117 0.0000
# 2 21.7855 142.0264 37.0483 0.0000 8.6661 0.0000
# 3 19.4649 37.0483 78.3297 0.0000 4.6388 0.0000
# 4 0.0000 0.0000 0.0000 26.2262 0.0000 1.0204
# 5 6.5117 8.6661 4.6388 0.0000 36.2819 0.0000
# 6 0.0000 0.0000 0.0000 1.0204 0.0000 22.8799
#
#
#
# Elastic Compliance Matrix: (Units=1/GPa)
#
#
# Indices 1 2 3 4 5 6 
#
# 1 0.015384 -0.001449 -0.003017 0.000000 -0.002029 0.000000
# 2 -0.001449 0.008244 -0.003464 0.000000 -0.001266 0.000000
# 3 -0.003017 -0.003464 0.015189 0.000000 -0.000573 0.000000
# 4 0.000000 0.000000 0.000000 0.038196 0.000000 -0.001703
# 5 -0.002029 -0.001266 -0.000573 0.000000 0.028302 0.000000
# 6 0.000000 0.000000 0.000000 -0.001703 0.000000 0.043782
#
#
# Mechanical properties :
#
#
# Convention : Reuss Voigt Hill
#
# Bulk Modulus (GPa) = 43.56222 49.85397 46.70810
# Shear Modulus (GPa) = 28.96703 31.33024 30.14864
#
# Velocity S-wave (km/s) = 3.61308 3.75757 3.68603
# Velocity P-wave (km/s) = 6.08585 6.42597 6.25822
#
# Compressibility (1/GPa) = 0.02295567
#
# Stress axis : x y z
#
# Youngs Moduli (GPa) = 65.00367 121.29876 65.83779
#
# Poissons Ratio (x) = 0.17574 0.19866
# Poissons Ratio (y) = 0.09418 0.22808
# Poissons Ratio (z) = 0.19615 0.42021
#
# Static dielectric constant tensor:
#      x y z
#    x 4.133090 0.000000 -0.115090 
#    y 0.000000 4.354620 0.000000 
#    z -0.115090 0.000000 3.961440 
# 
# 
# High freq. dielectric constant tensor:
#      x y z
#    x 1.880470 0.000000 -0.009480 
#    y 0.000000 1.883520 0.000000 
#    z -0.009480 0.000000 1.851270 
# 
# From -- ./inp_files/252745.got.cif
#   From: 2010.06.25/outbox.cif.g09.slc.cpg/sg15_127_cif.got.tgz:252745.got - 2010.06.28 07:06:18.
