data_PCOD8143265
_publ_section_title
;
Structure prediction by ZEFSAII (Michael W. Deem and Ramdas Pophale) SiO2 
 PCOD8143265
Probable space group: C 2/C
;
_chemical_formula_sum "Si O2"
_cell_formula_units_Z 60
_cell_length_a 15.892351
_cell_length_b 11.811879
_cell_length_c 16.767469
_cell_angle_alpha 90.000000
_cell_angle_beta 119.344578
_cell_angle_gamma 90.000000
_cell_volume 2743.695072
_symmetry_space_group_name_H-M "C 2/C"
_symmetry_group_IT_number 15
_symmetry_cell_setting 'monoclinic'
loop_
_space_group_symop_operation_xyz
x,y,z
-x,y,1/2-z
-x,-y,-z
x,-y,1/2+z
1/2+x,1/2+y,z
1/2-x,1/2+y,1/2-z
1/2-x,1/2-y,-z
1/2+x,1/2-y,1/2+z
loop_
_atom_site_type_symbol
_atom_site_label
_atom_site_fract_x
_atom_site_fract_y
_atom_site_fract_z
Si Si1 0.194308 0.783983 0.892872
Si Si2 0.623427 0.983591 0.195200
Si Si3 0.344675 0.529326 0.577960
Si Si4 0.962500 0.939858 0.405080
Si Si5 0.500000 0.153925 0.750000
Si Si6 0.863165 0.725987 0.349487
Si Si7 0.790938 0.061291 0.376449
Si Si8 0.750430 0.688334 0.844835
O O1 0.091301 0.724566 0.826880
O O2 0.264388 0.757665 0.852173
O O3 0.175401 0.917290 0.881499
O O4 0.250000 0.750000 0.000000
O O5 0.597141 0.097547 0.133148
O O6 0.685416 0.025895 0.299395
O O7 0.529729 0.923751 0.188523
O O8 0.675693 0.898013 0.160605
O O9 0.460521 0.550188 0.630451
O O10 0.305906 0.509101 0.470591
O O11 0.291515 0.635333 0.593556
O O12 0.946685 0.807779 0.421537
O O13 0.861596 0.005493 0.341511
O O14 0.000000 0.000000 0.500000
O O15 0.840576 0.778238 0.252042
O O16 0.808197 0.195904 0.390302
#
# Coordination Sequence:
#
# PCOD8143265 Si02
#       8
#     8   8   8   8   4   8   8   8
#     4  12  25  44  72 101 141 186 235 293 353 421
#     4  11  23  43  67  98 134 183 224 285 353 419
#     4  11  24  40  67 101 129 180 236 278 342 427
#     4  10  21  40  64  95 130 172 224 279 333 406
#     4  12  26  44  72 104 138 186 244 284 360 422
#     4  11  23  44  65  95 145 182 224 292 359 413
#     4  10  22  43  69  91 143 177 222 286 352 411
#     4  11  22  40  67  97 134 181 227 281 359 419
#
# _framework density 21.868319
#
# number of rings (size 3 to 8) (size 9 to 14) (size 15 to 20)
#    0.000    1.067    4.000    2.800    1.867    3.733 
#    0.000    3.333    0.000    0.000    0.000    0.000 
#    0.000    0.000    0.000    0.000    0.000    0.000 
#
# Total GULP energy -371872.273915 kJ/mol
# GULP energy per Si atom -12395.742464 kJ/mol
# Density = 2.181855 g / cm^3
# Si number density = 21.868319 Si / 1000 Ang^3
#
#
#
# Elastic Constant Matrix: (Units=GPa)
#
#
# Indices 1 2 3 4 5 6 
#
# 1 112.7822 39.0459 21.2978 0.0000 -9.5003 0.0000
# 2 39.0459 132.6936 15.5665 0.0000 4.2223 0.0000
# 3 21.2978 15.5665 60.8067 0.0000 3.2479 0.0000
# 4 0.0000 0.0000 0.0000 33.4850 0.0000 -2.4790
# 5 -9.5003 4.2223 3.2479 0.0000 28.5913 0.0000
# 6 0.0000 0.0000 0.0000 -2.4790 0.0000 39.7217
#
#
#
# Elastic Compliance Matrix: (Units=1/GPa)
#
#
# Indices 1 2 3 4 5 6 
#
# 1 0.010885 -0.002958 -0.003292 0.000000 0.004428 0.000000
# 2 -0.002958 0.008598 -0.001051 0.000000 -0.002133 0.000000
# 3 -0.003292 -0.001051 0.018027 0.000000 -0.002986 0.000000
# 4 0.000000 0.000000 0.000000 0.030003 0.000000 0.001872
# 5 0.004428 -0.002133 -0.002986 0.000000 0.037101 0.000000
# 6 0.000000 0.000000 0.000000 0.001872 0.000000 0.025292
#
#
# Mechanical properties :
#
#
# Convention : Reuss Voigt Hill
#
# Bulk Modulus (GPa) = 43.65185 50.90033 47.27609
# Shear Modulus (GPa) = 32.86364 35.71774 34.29069
#
# Velocity S-wave (km/s) = 3.88080 4.04581 3.96416
# Velocity P-wave (km/s) = 6.33130 6.71946 6.52826
#
# Compressibility (1/GPa) = 0.02290854
#
# Stress axis : x y z
#
# Youngs Moduli (GPa) = 91.86735 116.31037 55.47186
#
# Poissons Ratio (x) = 0.34402 0.18261
# Poissons Ratio (y) = 0.27172 0.05831
# Poissons Ratio (z) = 0.30242 0.12225
#
# Static dielectric constant tensor:
#      x y z
#    x 5.147620 0.000000 0.348790 
#    y 0.000000 3.220510 0.000000 
#    z 0.348790 0.000000 3.877510 
# 
# 
# High freq. dielectric constant tensor:
#      x y z
#    x 1.860180 0.000000 -0.007360 
#    y 0.000000 1.884120 0.000000 
#    z -0.007360 0.000000 1.840540 
# 
# From -- ./inp_files/204491.got.cif
#   From: 2010.06.25/outbox.cif.g09.slc.cpg/sg15_103_cif.got.tgz:204491.got - 2010.06.28 07:06:18.
