data_PCOD8143584
_publ_section_title
;
Structure prediction by ZEFSAII (Michael W. Deem and Ramdas Pophale) SiO2 
 PCOD8143584
Probable space group: C 2/C
;
_chemical_formula_sum "Si O2"
_cell_formula_units_Z 60
_cell_length_a 21.682142
_cell_length_b 15.163351
_cell_length_c 18.962143
_cell_angle_alpha 90.000000
_cell_angle_beta 30.735854
_cell_angle_gamma 90.000000
_cell_volume 3186.210251
_symmetry_space_group_name_H-M "C 2/C"
_symmetry_group_IT_number 15
_symmetry_cell_setting 'monoclinic'
loop_
_space_group_symop_operation_xyz
x,y,z
-x,y,1/2-z
-x,-y,-z
x,-y,1/2+z
1/2+x,1/2+y,z
1/2-x,1/2+y,1/2-z
1/2-x,1/2-y,-z
1/2+x,1/2-y,1/2+z
loop_
_atom_site_type_symbol
_atom_site_label
_atom_site_fract_x
_atom_site_fract_y
_atom_site_fract_z
Si Si1 0.766493 0.308753 0.697259
Si Si2 0.461976 0.087322 0.077245
Si Si3 0.393679 0.526556 0.154655
Si Si4 0.500000 0.106181 0.750000
Si Si5 0.059461 0.063103 0.117954
Si Si6 0.320496 0.024198 0.815965
Si Si7 0.160377 0.256772 0.023213
Si Si8 0.791009 0.622986 0.700057
O O1 0.895480 0.349932 0.587513
O O2 0.663820 0.381140 0.814926
O O3 0.759342 0.281512 0.622760
O O4 0.759634 0.221666 0.751916
O O5 0.377935 0.066373 0.227888
O O6 0.591283 0.130970 0.966429
O O7 0.500000 0.000000 0.000000
O O8 0.449546 0.537725 0.176022
O O9 0.296409 0.448194 0.249977
O O10 0.500000 0.500000 0.000000
O O11 0.402299 0.049855 0.802571
O O12 0.434609 0.165696 0.872198
O O13 0.088314 0.166472 0.082962
O O14 0.000000 0.037103 0.250000
O O15 0.183141 0.009361 0.978765
O O16 0.318708 0.096231 0.754562
O O17 0.250000 0.250000 0.000000
#
# Coordination Sequence:
#
# PCOD8143584 Si02
#       8
#     8   8   8   4   8   8   8   8
#     4  12  23  37  66  87 129 172 205 270 322 369
#     4  10  21  41  59  84 123 160 220 266 305 371
#     4  12  24  41  61  91 133 172 218 265 320 384
#     4  12  24  32  62  82 128 170 208 248 328 390
#     4  12  24  38  59  92 137 172 208 254 322 399
#     4  11  22  42  54  88 128 164 212 266 301 379
#     4  12  22  36  52  94 132 169 207 242 309 412
#     4  11  23  39  61  94 122 168 219 264 321 378
#
# _framework density 18.831149
#
# number of rings (size 3 to 8) (size 9 to 14) (size 15 to 20)
#    0.000    0.533    7.333    2.400    5.600    0.000 
#    0.000    0.000    0.000    0.000    1.733    2.800 
#    0.000    0.000    0.000    0.000    0.000    0.000 
#
# Total GULP energy -371827.960653 kJ/mol
# GULP energy per Si atom -12394.265355 kJ/mol
# Density = 1.878829 g / cm^3
# Si number density = 18.831149 Si / 1000 Ang^3
#
#
#
# Elastic Constant Matrix: (Units=GPa)
#
#
# Indices 1 2 3 4 5 6 
#
# 1 109.2753 55.1878 45.2390 0.0000 -20.5008 0.0000
# 2 55.1878 102.6340 46.6269 -0.0002 -6.4968 0.0001
# 3 45.2390 46.6269 136.0036 -0.0006 -3.5944 0.0003
# 4 0.0000 -0.0002 -0.0006 34.8035 0.0003 1.8343
# 5 -20.5008 -6.4968 -3.5944 0.0003 37.3357 -0.0001
# 6 0.0000 0.0001 0.0003 1.8343 -0.0001 18.7319
#
#
#
# Elastic Compliance Matrix: (Units=1/GPa)
#
#
# Indices 1 2 3 4 5 6 
#
# 1 0.014635 -0.006295 -0.002533 0.000000 0.006697 0.000000
# 2 -0.006295 0.014348 -0.002858 0.000000 -0.001235 0.000000
# 3 -0.002533 -0.002858 0.009148 0.000000 -0.001007 0.000000
# 4 0.000000 0.000000 0.000000 0.028882 0.000000 -0.002828
# 5 0.006697 -0.001235 -0.001007 0.000000 0.030149 0.000000
# 6 0.000000 0.000000 0.000000 -0.002828 0.000000 0.053662
#
#
# Mechanical properties :
#
#
# Convention : Reuss Voigt Hill
#
# Bulk Modulus (GPa) = 67.74842 71.33559 69.54200
# Shear Modulus (GPa) = 27.91463 31.56484 29.73973
#
# Velocity S-wave (km/s) = 3.85433 4.09859 3.97833
# Velocity P-wave (km/s) = 7.47413 7.76929 7.62314
#
# Compressibility (1/GPa) = 0.01476049
#
# Stress axis : x y z
#
# Youngs Moduli (GPa) = 68.32719 69.69403 109.30775
#
# Poissons Ratio (x) = 0.43872 0.27688
# Poissons Ratio (y) = 0.43012 0.31239
# Poissons Ratio (z) = 0.17308 0.19918
#
# Static dielectric constant tensor:
#      x y z
#    x 3.140530 0.000000 0.128250 
#    y 0.000000 3.463240 0.000000 
#    z 0.128250 0.000000 3.756270 
# 
# 
# High freq. dielectric constant tensor:
#      x y z
#    x 1.717290 0.000000 -0.015920 
#    y 0.000000 1.711780 0.000000 
#    z -0.015920 0.000000 1.753300 
# 
# From -- ./inp_files/112761.got.cif
#   From: 2010.06.25/outbox.cif.g09.slc.cpg/sg15_57_cif.got.tgz:112761.got - 2010.06.28 07:06:18.
