data_PCOD8143768
_publ_section_title
;
Structure prediction by ZEFSAII (Michael W. Deem and Ramdas Pophale) SiO2 
 PCOD8143768
Probable space group: C 2/C
;
_chemical_formula_sum "Si O2"
_cell_formula_units_Z 52
_cell_length_a 31.965956
_cell_length_b 14.351349
_cell_length_c 19.232538
_cell_angle_alpha 90.000000
_cell_angle_beta 162.581917
_cell_angle_gamma 90.000000
_cell_volume 2641.098484
_symmetry_space_group_name_H-M "C 2/C"
_symmetry_group_IT_number 15
_symmetry_cell_setting 'monoclinic'
loop_
_space_group_symop_operation_xyz
x,y,z
-x,y,1/2-z
-x,-y,-z
x,-y,1/2+z
1/2+x,1/2+y,z
1/2-x,1/2+y,1/2-z
1/2-x,1/2-y,-z
1/2+x,1/2-y,1/2+z
loop_
_atom_site_type_symbol
_atom_site_label
_atom_site_fract_x
_atom_site_fract_y
_atom_site_fract_z
Si Si1 0.115398 0.256116 0.242586
Si Si2 0.404857 0.774154 0.724117
Si Si3 0.353170 0.343756 0.843436
Si Si4 0.409711 0.714940 0.035338
Si Si5 0.571795 0.080815 0.575115
Si Si6 0.000000 0.625036 0.250000
Si Si7 0.248042 0.540366 0.730654
O O1 0.250000 0.250000 0.500000
O O2 0.108358 0.168088 0.177699
O O3 0.140013 0.349923 0.238318
O O4 0.990300 0.265647 0.099957
O O5 0.250000 0.750000 0.500000
O O6 0.404763 0.807006 0.644980
O O7 0.508195 0.686069 0.895019
O O8 0.456789 0.861325 0.851035
O O9 0.226110 0.275242 0.661615
O O10 0.318617 0.449153 0.809607
O O11 0.500000 0.700925 0.250000
O O12 0.365319 0.619391 0.926493
O O13 0.688663 0.029434 0.714156
O O14 0.500000 0.000000 0.500000
O O15 0.113105 0.563101 0.469588
#
# Coordination Sequence:
#
# PCOD8143768 Si02
#       7
#     8   8   8   8   8   4   8
#     4  11  22  40  68  94 128 172 218 270 337 390
#     4  10  23  43  63  92 130 172 215 269 331 392
#     4  11  24  44  66 100 129 179 228 267 345 396
#     4  12  23  45  67  94 140 173 220 291 330 402
#     4  10  21  41  64  92 127 167 220 266 319 397
#     4  10  22  42  64  90 134 168 216 276 328 390
#     4  11  24  42  64 100 134 172 226 275 333 398
#
# _framework density 19.688777000000002
#
# number of rings (size 3 to 8) (size 9 to 14) (size 15 to 20)
#    0.000    1.231    6.154    0.923    5.385    4.308 
#    6.923    0.000    0.000    0.000    0.000    0.000 
#    0.000    0.000    0.000    0.000    0.000    0.000 
#
# Total GULP energy -322138.803085 kJ/mol
# GULP energy per Si atom -12389.953965 kJ/mol
# Density = 1.964396 g / cm^3
# Si number density = 19.688777 Si / 1000 Ang^3
#
#
#
# Elastic Constant Matrix: (Units=GPa)
#
#
# Indices 1 2 3 4 5 6 
#
# 1 134.4400 43.0552 34.9793 0.0000 7.4000 0.0000
# 2 43.0552 93.1303 38.0745 0.0000 -5.2862 0.0000
# 3 34.9793 38.0745 108.3379 0.0000 8.9266 0.0000
# 4 0.0000 0.0000 0.0000 17.3513 0.0000 18.1347
# 5 7.4000 -5.2862 8.9266 0.0000 35.9509 0.0000
# 6 0.0000 0.0000 0.0000 18.1347 0.0000 38.0854
#
#
#
# Elastic Compliance Matrix: (Units=1/GPa)
#
#
# Indices 1 2 3 4 5 6 
#
# 1 0.009131 -0.003740 -0.001463 0.000000 -0.002066 0.000000
# 2 -0.003740 0.014396 -0.004175 0.000000 0.003923 0.000000
# 3 -0.001463 -0.004175 0.011430 0.000000 -0.003151 0.000000
# 4 0.000000 0.000000 0.000000 0.114729 0.000000 -0.054629
# 5 -0.002066 0.003923 -0.003151 0.000000 0.029600 0.000000
# 6 0.000000 0.000000 0.000000 -0.054629 0.000000 0.052269
#
#
# Mechanical properties :
#
#
# Convention : Reuss Voigt Hill
#
# Bulk Modulus (GPa) = 61.73069 63.12513 62.42791
# Shear Modulus (GPa) = 19.55326 32.93079 26.24203
#
# Velocity S-wave (km/s) = 3.15480 4.09414 3.65477
# Velocity P-wave (km/s) = 6.68518 7.38108 7.04173
#
# Compressibility (1/GPa) = 0.01619940
#
# Stress axis : x y z
#
# Youngs Moduli (GPa) = 109.52276 69.46182 87.49072
#
# Poissons Ratio (x) = 0.25980 0.12803
# Poissons Ratio (y) = 0.40963 0.36529
# Poissons Ratio (z) = 0.16027 0.29002
#
# Static dielectric constant tensor:
#      x y z
#    x 3.821570 0.000000 -0.309410 
#    y 0.000000 5.199860 0.000000 
#    z -0.309410 0.000000 3.599800 
# 
# 
# High freq. dielectric constant tensor:
#      x y z
#    x 1.793560 0.000000 0.002000 
#    y 0.000000 1.753240 0.000000 
#    z 0.002000 0.000000 1.772810 
# 
# From -- ./inp_files/225517.got.cif
#   From: 2010.06.25/outbox.cif.g09.slc.cpg/sg15_113_cif.got.tgz:225517.got - 2010.06.28 07:06:18.
