data_PCOD8143616
_publ_section_title
;
Structure prediction by ZEFSAII (Michael W. Deem and Ramdas Pophale) SiO2 
 PCOD8143616
Probable space group: C 2/C
;
_chemical_formula_sum "Si O2"
_cell_formula_units_Z 40
_cell_length_a 19.146437
_cell_length_b 7.332818
_cell_length_c 23.797904
_cell_angle_alpha 90.000000
_cell_angle_beta 145.249858
_cell_angle_gamma 90.000000
_cell_volume 1904.458537
_symmetry_space_group_name_H-M "C 2/C"
_symmetry_group_IT_number 15
_symmetry_cell_setting 'monoclinic'
loop_
_space_group_symop_operation_xyz
x,y,z
-x,y,1/2-z
-x,-y,-z
x,-y,1/2+z
1/2+x,1/2+y,z
1/2-x,1/2+y,1/2-z
1/2-x,1/2-y,-z
1/2+x,1/2-y,1/2+z
loop_
_atom_site_type_symbol
_atom_site_label
_atom_site_fract_x
_atom_site_fract_y
_atom_site_fract_z
Si Si1 0.804677 0.533957 0.470813
Si Si2 0.184495 0.840551 0.781507
Si Si3 0.180547 0.015941 0.660923
Si Si4 0.573894 0.327400 0.489381
Si Si5 0.409100 0.612896 0.093089
O O1 0.780438 0.595101 0.391476
O O2 0.884303 0.349489 0.518312
O O3 0.674179 0.511839 0.415608
O O4 0.876828 0.678397 0.557015
O O5 0.201800 0.622888 0.785540
O O6 0.046303 0.886919 0.708343
O O7 0.218011 0.935688 0.745234
O O8 0.071520 0.167284 0.594676
O O9 0.145296 0.849414 0.595823
O O10 0.605106 0.505802 0.474146
#
# Coordination Sequence:
#
# PCOD8143616 Si02
#       5
#     8   8   8   8   8
#     4  11  22  40  66  84 124 167 199 254 314 352
#     4  11  22  39  61  89 126 157 206 254 306 365
#     4  10  22  37  60  94 125 158 207 255 305 377
#     4  10  21  41  61  90 123 159 207 254 306 370
#     4  10  23  41  61  91 120 160 211 253 297 375
#
# _framework density 21.003347000000002
#
# number of rings (size 3 to 8) (size 9 to 14) (size 15 to 20)
#    0.000    1.600    2.000    2.400    2.800    0.800 
#    0.000    0.000    4.400    0.000    0.000    0.000 
#    0.000    0.000    0.000    0.000    0.000    0.000 
#
# Total GULP energy -247956.880038 kJ/mol
# GULP energy per Si atom -12397.844002 kJ/mol
# Density = 2.095554 g / cm^3
# Si number density = 21.003347 Si / 1000 Ang^3
#
#
#
# Elastic Constant Matrix: (Units=GPa)
#
#
# Indices 1 2 3 4 5 6 
#
# 1 80.0294 33.0375 0.1751 -0.0001 -6.3109 -0.0004
# 2 33.0375 81.9553 9.8578 -0.0002 13.1126 -0.0009
# 3 0.1751 9.8578 52.0635 -0.0001 -13.1457 -0.0003
# 4 -0.0001 -0.0002 -0.0001 21.8212 0.0000 -0.9876
# 5 -6.3109 13.1126 -13.1457 0.0000 22.6319 -0.0001
# 6 -0.0004 -0.0009 -0.0003 -0.9876 -0.0001 45.1717
#
#
#
# Elastic Compliance Matrix: (Units=1/GPa)
#
#
# Indices 1 2 3 4 5 6 
#
# 1 0.017692 -0.009980 0.005315 0.000000 0.013803 0.000000
# 2 -0.009980 0.020447 -0.008826 0.000000 -0.019756 0.000000
# 3 0.005315 -0.008826 0.026398 0.000000 0.021929 0.000000
# 4 0.000000 0.000000 0.000000 0.045872 0.000000 0.001003
# 5 0.013803 -0.019756 0.021929 0.000000 0.072218 0.000000
# 6 0.000000 0.000000 0.000000 0.001003 0.000000 0.022160
#
#
# Mechanical properties :
#
#
# Convention : Reuss Voigt Hill
#
# Bulk Modulus (GPa) = 26.62750 33.35435 29.99092
# Shear Modulus (GPa) = 20.46771 29.32347 24.89559
#
# Velocity S-wave (km/s) = 3.12508 3.74054 3.44658
# Velocity P-wave (km/s) = 5.07216 5.87967 5.49078
#
# Compressibility (1/GPa) = 0.03755516
#
# Stress axis : x y z
#
# Youngs Moduli (GPa) = 56.52281 48.90609 37.88237
#
# Poissons Ratio (x) = 0.48806 -0.20135
# Poissons Ratio (y) = 0.56408 0.33436
# Poissons Ratio (z) = -0.30043 0.43166
#
# Static dielectric constant tensor:
#      x y z
#    x 3.939270 0.000000 0.030090 
#    y 0.000000 3.598150 0.000000 
#    z 0.030090 0.000000 3.659810 
# 
# 
# High freq. dielectric constant tensor:
#      x y z
#    x 1.830940 0.000000 -0.005950 
#    y 0.000000 1.808730 0.000000 
#    z -0.005950 0.000000 1.822820 
# 
# From -- ./inp_files/170551.got.cif
#   From: 2010.06.25/outbox.cif.g09.slc.cpg/sg15_86_cif.got.tgz:170551.got - 2010.06.28 07:06:18.
