data_PCOD8143357
_publ_section_title
;
Structure prediction by ZEFSAII (Michael W. Deem and Ramdas Pophale) SiO2 
 PCOD8143357
Probable space group: C 2/C
;
_chemical_formula_sum "Si O2"
_cell_formula_units_Z 64
_cell_length_a 18.331026
_cell_length_b 13.418204
_cell_length_c 16.625657
_cell_angle_alpha 90.000000
_cell_angle_beta 133.540427
_cell_angle_gamma 90.000000
_cell_volume 2964.361670
_symmetry_space_group_name_H-M "C 2/C"
_symmetry_group_IT_number 15
_symmetry_cell_setting 'monoclinic'
loop_
_space_group_symop_operation_xyz
x,y,z
-x,y,1/2-z
-x,-y,-z
x,-y,1/2+z
1/2+x,1/2+y,z
1/2-x,1/2+y,1/2-z
1/2-x,1/2-y,-z
1/2+x,1/2-y,1/2+z
loop_
_atom_site_type_symbol
_atom_site_label
_atom_site_fract_x
_atom_site_fract_y
_atom_site_fract_z
Si Si1 0.109798 0.466737 0.610130
Si Si2 0.205828 0.956660 0.859049
Si Si3 0.703938 0.841506 0.260152
Si Si4 0.058450 0.836633 0.637874
Si Si5 0.636901 0.611264 0.035160
Si Si6 0.330859 0.206472 0.245334
Si Si7 0.657244 0.610033 0.492613
Si Si8 0.889545 0.151935 0.658013
O O1 0.181421 0.443254 0.588558
O O2 0.165307 0.550310 0.705337
O O3 0.093392 0.362858 0.646060
O O4 0.000000 0.500000 0.500000
O O5 0.122463 0.923037 0.730807
O O6 0.190647 0.072188 0.870598
O O7 0.198014 0.889710 0.932910
O O8 0.608782 0.769448 0.192757
O O9 0.787463 0.800388 0.261580
O O10 0.755125 0.844552 0.386301
O O11 0.052951 0.860744 0.537811
O O12 0.945079 0.825960 0.583503
O O13 0.743508 0.629359 0.156993
O O14 0.624035 0.498329 0.998219
O O15 0.628195 0.680613 0.949012
O O16 0.384719 0.246925 0.206267
O O17 0.000000 0.103644 0.750000
#
# Coordination Sequence:
#
# PCOD8143357 Si02
#       8
#     8   8   8   8   8   8   8   8
#     4  12  26  48  71  99 142 192 236 285 368 428
#     4  11  22  46  68 102 140 177 232 304 336 417
#     4  11  24  43  69  98 139 183 232 287 342 433
#     4  11  23  40  70 101 135 184 236 274 359 419
#     4  10  21  40  65  99 136 174 224 297 344 403
#     4  11  23  44  68  95 139 184 231 284 346 419
#     4  11  23  40  70  97 139 178 231 294 349 405
#     4  11  24  39  70 106 138 173 229 291 358 407
#
# _framework density 21.589807
#
# number of rings (size 3 to 8) (size 9 to 14) (size 15 to 20)
#    0.000    1.000    5.000    2.625    3.500    1.500 
#    4.500    1.875    0.000    0.000    0.000    0.000 
#    0.000    0.000    0.000    0.000    0.000    0.000 
#
# Total GULP energy -396897.664976 kJ/mol
# GULP energy per Si atom -12403.052030 kJ/mol
# Density = 2.154067 g / cm^3
# Si number density = 21.589807 Si / 1000 Ang^3
#
#
#
# Elastic Constant Matrix: (Units=GPa)
#
#
# Indices 1 2 3 4 5 6 
#
# 1 126.0976 38.1015 61.4345 0.0000 -21.7048 0.0000
# 2 38.1015 79.1709 30.5421 0.0000 -16.9454 0.0000
# 3 61.4345 30.5421 109.1900 0.0000 -22.1227 0.0000
# 4 0.0000 0.0000 0.0000 41.7075 0.0000 -7.1895
# 5 -21.7048 -16.9454 -22.1227 0.0000 34.7814 0.0000
# 6 0.0000 0.0000 0.0000 -7.1895 0.0000 16.3959
#
#
#
# Elastic Compliance Matrix: (Units=1/GPa)
#
#
# Indices 1 2 3 4 5 6 
#
# 1 0.011898 -0.003140 -0.005305 0.000000 0.002521 0.000000
# 2 -0.003140 0.015797 -0.001710 0.000000 0.004649 0.000000
# 3 -0.005305 -0.001710 0.013525 0.000000 0.004459 0.000000
# 4 0.000000 0.000000 0.000000 0.025937 0.000000 0.011373
# 5 0.002521 0.004649 0.004459 0.000000 0.035425 0.000000
# 6 0.000000 0.000000 0.000000 0.011373 0.000000 0.065978
#
#
# Mechanical properties :
#
#
# Convention : Reuss Voigt Hill
#
# Bulk Modulus (GPa) = 47.82564 63.84608 55.83586
# Shear Modulus (GPa) = 25.53124 30.86899 28.20011
#
# Velocity S-wave (km/s) = 3.44257 3.78536 3.61803
# Velocity P-wave (km/s) = 6.16455 6.98154 6.58573
#
# Compressibility (1/GPa) = 0.02090929
#
# Stress axis : x y z
#
# Youngs Moduli (GPa) = 84.05093 63.30437 73.93755
#
# Poissons Ratio (x) = 0.19876 0.39225
# Poissons Ratio (y) = 0.26390 0.12644
# Poissons Ratio (z) = 0.44590 0.10826
#
# Static dielectric constant tensor:
#      x y z
#    x 3.937620 0.000000 -0.296260 
#    y 0.000000 3.752810 0.000000 
#    z -0.296260 0.000000 4.050820 
# 
# 
# High freq. dielectric constant tensor:
#      x y z
#    x 1.843510 0.000000 -0.011540 
#    y 0.000000 1.842770 0.000000 
#    z -0.011540 0.000000 1.854760 
# 
# From -- ./inp_files/162579.got.cif
#   From: 2010.06.25/outbox.cif.g09.slc.cpg/sg15_82_cif.got.tgz:162579.got - 2010.06.28 07:06:18.
