data_PCOD8143471
_publ_section_title
;
Structure prediction by ZEFSAII (Michael W. Deem and Ramdas Pophale) SiO2 
 PCOD8143471
Probable space group: C 2/C
;
_chemical_formula_sum "Si O2"
_cell_formula_units_Z 32
_cell_length_a 20.111456
_cell_length_b 9.470422
_cell_length_c 7.549491
_cell_angle_alpha 90.000000
_cell_angle_beta 101.806231
_cell_angle_gamma 90.000000
_cell_volume 1407.487372
_symmetry_space_group_name_H-M "C 2/C"
_symmetry_group_IT_number 15
_symmetry_cell_setting 'monoclinic'
loop_
_space_group_symop_operation_xyz
x,y,z
-x,y,1/2-z
-x,-y,-z
x,-y,1/2+z
1/2+x,1/2+y,z
1/2-x,1/2+y,1/2-z
1/2-x,1/2-y,-z
1/2+x,1/2-y,1/2+z
loop_
_atom_site_type_symbol
_atom_site_label
_atom_site_fract_x
_atom_site_fract_y
_atom_site_fract_z
Si Si1 0.373840 0.338712 0.029621
Si Si2 0.541832 0.874769 0.108375
Si Si3 0.681741 0.836376 0.290139
Si Si4 0.330883 0.368024 0.395461
O O1 0.444424 0.257141 0.017859
O O2 0.314536 0.278741 0.867732
O O3 0.377896 0.506504 0.996150
O O4 0.359117 0.310157 0.226226
O O5 0.500000 0.811866 0.250000
O O6 0.615591 0.935542 0.216707
O O7 0.500000 0.000000 0.000000
O O8 0.668192 0.761735 0.470074
O O9 0.752362 0.922171 0.331121
#
# Coordination Sequence:
#
# PCOD8143471 Si02
#       4
#     8   8   8   8
#     4  10  21  40  67  98 137 177 222 283 340 408
#     4  10  24  46  62  94 135 181 237 273 334 404
#     4   9  23  39  68  98 139 174 221 286 337 417
#     4  11  19  42  68 107 135 169 227 283 363 397
#
# _framework density 22.735551000000001
#
# number of rings (size 3 to 8) (size 9 to 14) (size 15 to 20)
#    1.500    0.500    2.500    0.750    0.000    4.000 
#    0.000    5.000    0.000    0.000    0.000    0.000 
#    0.000    0.000    0.000    0.000    0.000    0.000 
#
# Total GULP energy -198211.122185 kJ/mol
# GULP energy per Si atom -12388.195137 kJ/mol
# Density = 2.268380 g / cm^3
# Si number density = 22.735551 Si / 1000 Ang^3
#
#
#
# Elastic Constant Matrix: (Units=GPa)
#
#
# Indices 1 2 3 4 5 6 
#
# 1 133.4961 60.4638 37.1376 0.0000 -8.9774 0.0000
# 2 60.4638 86.7157 52.2308 0.0000 -19.4017 0.0000
# 3 37.1376 52.2308 170.6090 0.0000 -29.0160 0.0000
# 4 0.0000 0.0000 0.0000 10.4014 0.0000 7.1606
# 5 -8.9774 -19.4017 -29.0160 0.0000 39.0808 0.0000
# 6 0.0000 0.0000 0.0000 7.1606 0.0000 44.4307
#
#
#
# Elastic Compliance Matrix: (Units=1/GPa)
#
#
# Indices 1 2 3 4 5 6 
#
# 1 0.011029 -0.007889 -0.000253 0.000000 -0.001571 0.000000
# 2 -0.007889 0.020461 -0.003579 0.000000 0.005688 0.000000
# 3 -0.000253 -0.003579 0.007668 0.000000 0.003858 0.000000
# 4 0.000000 0.000000 0.000000 0.108139 0.000000 -0.017428
# 5 -0.001571 0.005688 0.003858 0.000000 0.030916 0.000000
# 6 0.000000 0.000000 0.000000 -0.017428 0.000000 0.025316
#
#
# Mechanical properties :
#
#
# Convention : Reuss Voigt Hill
#
# Bulk Modulus (GPa) = 63.62910 76.72059 70.17485
# Shear Modulus (GPa) = 21.53219 34.84847 28.19033
#
# Velocity S-wave (km/s) = 3.08079 3.91931 3.52507
# Velocity P-wave (km/s) = 6.37984 7.36881 6.89209
#
# Compressibility (1/GPa) = 0.01571608
#
# Stress axis : x y z
#
# Youngs Moduli (GPa) = 90.67222 48.87234 130.40570
#
# Poissons Ratio (x) = 0.38557 0.03294
# Poissons Ratio (y) = 0.71533 0.46678
# Poissons Ratio (z) = 0.02290 0.17493
#
# Static dielectric constant tensor:
#      x y z
#    x 4.142160 0.000000 -0.041970 
#    y 0.000000 3.536880 0.000000 
#    z -0.041970 0.000000 4.311970 
# 
# 
# High freq. dielectric constant tensor:
#      x y z
#    x 1.884320 0.000000 -0.006520 
#    y 0.000000 1.860940 0.000000 
#    z -0.006520 0.000000 1.918420 
# 
# From -- ./inp_files/53400.got.cif
#   From: 2010.06.25/outbox.cif.g09.slc.cpg/sg15_27_cif.got.tgz:53400.got - 2010.06.28 07:06:18.
