data_PCOD8143542
_publ_section_title
;
Structure prediction by ZEFSAII (Michael W. Deem and Ramdas Pophale) SiO2 
 PCOD8143542
Probable space group: C 2/C
;
_chemical_formula_sum "Si O2"
_cell_formula_units_Z 64
_cell_length_a 30.259227
_cell_length_b 9.101991
_cell_length_c 15.401336
_cell_angle_alpha 90.000000
_cell_angle_beta 44.480567
_cell_angle_gamma 90.000000
_cell_volume 2972.107291
_symmetry_space_group_name_H-M "C 2/C"
_symmetry_group_IT_number 15
_symmetry_cell_setting 'monoclinic'
loop_
_space_group_symop_operation_xyz
x,y,z
-x,y,1/2-z
-x,-y,-z
x,-y,1/2+z
1/2+x,1/2+y,z
1/2-x,1/2+y,1/2-z
1/2-x,1/2-y,-z
1/2+x,1/2-y,1/2+z
loop_
_atom_site_type_symbol
_atom_site_label
_atom_site_fract_x
_atom_site_fract_y
_atom_site_fract_z
Si Si1 0.284944 0.924940 0.084257
Si Si2 0.829798 0.104786 0.977472
Si Si3 0.948375 0.962080 0.894361
Si Si4 0.140759 0.074895 0.753011
Si Si5 0.560011 0.335857 0.942103
Si Si6 0.439631 0.213995 0.024262
Si Si7 0.863377 0.427319 0.138426
Si Si8 0.218306 0.401647 0.076742
O O1 0.210933 0.956824 0.188367
O O2 0.312050 0.978496 0.138958
O O3 0.300902 0.753966 0.054337
O O4 0.312797 0.016768 0.963376
O O5 0.862409 0.135887 0.839742
O O6 0.880460 0.030516 0.969432
O O7 0.773243 0.993102 0.044166
O O8 0.000000 0.992405 0.750000
O O9 0.941962 0.787925 0.924330
O O10 0.972390 0.044784 0.948376
O O11 0.114687 0.202603 0.848569
O O12 0.101430 0.923486 0.812922
O O13 0.604756 0.226301 0.934396
O O14 0.508280 0.233827 0.969472
O O15 0.420018 0.045146 0.054581
O O16 0.835532 0.395042 0.273788
O O17 0.250000 0.250000 0.000000
#
# Coordination Sequence:
#
# PCOD8143542 Si02
#       8
#     8   8   8   8   8   8   8   8
#     4  11  24  42  66 103 136 177 228 270 354 404
#     4  11  21  41  63  97 133 169 224 278 339 402
#     4  11  23  40  67  94 124 173 232 286 330 410
#     4  10  21  40  70  92 127 170 220 286 329 407
#     4  11  23  44  64  98 126 179 229 278 341 404
#     4  11  24  41  65  93 132 178 228 271 345 400
#     4  12  25  43  68  97 145 180 218 287 341 412
#     4  11  26  41  68 102 141 179 222 279 341 407
#
# _framework density 21.533543999999999
#
# number of rings (size 3 to 8) (size 9 to 14) (size 15 to 20)
#    0.000    1.000    1.250    7.875    5.250    2.000 
#    0.000    0.625    0.000    0.000    0.000    0.000 
#    0.000    0.000    0.000    0.000    0.000    0.000 
#
# Total GULP energy -396720.712740 kJ/mol
# GULP energy per Si atom -12397.522273 kJ/mol
# Density = 2.148453 g / cm^3
# Si number density = 21.533544 Si / 1000 Ang^3
#
#
#
# Elastic Constant Matrix: (Units=GPa)
#
#
# Indices 1 2 3 4 5 6 
#
# 1 87.4853 16.5561 30.2873 -0.0001 1.3768 0.0001
# 2 16.5561 106.2034 33.6218 -0.0003 -4.9324 0.0004
# 3 30.2873 33.6218 106.0744 0.0000 -2.8773 0.0000
# 4 -0.0001 -0.0003 0.0000 31.1765 0.0000 -1.9852
# 5 1.3768 -4.9324 -2.8773 0.0000 22.5822 0.0000
# 6 0.0001 0.0004 0.0000 -1.9852 0.0000 34.2897
#
#
#
# Elastic Compliance Matrix: (Units=1/GPa)
#
#
# Indices 1 2 3 4 5 6 
#
# 1 0.012812 -0.000993 -0.003382 0.000000 -0.001429 0.000000
# 2 -0.000993 0.010622 -0.003029 0.000000 0.001995 0.000000
# 3 -0.003382 -0.003029 0.011380 0.000000 0.000995 0.000000
# 4 0.000000 0.000000 0.000000 0.032194 0.000000 0.001864
# 5 -0.001429 0.001995 0.000995 0.000000 0.044932 0.000000
# 6 0.000000 0.000000 0.000000 0.001864 0.000000 0.029271
#
#
# Mechanical properties :
#
#
# Convention : Reuss Voigt Hill
#
# Bulk Modulus (GPa) = 49.98598 51.18817 50.58708
# Shear Modulus (GPa) = 30.73346 32.22953 31.48150
#
# Velocity S-wave (km/s) = 3.78198 3.87293 3.82773
# Velocity P-wave (km/s) = 6.50650 6.61985 6.56342
#
# Compressibility (1/GPa) = 0.02000561
#
# Stress axis : x y z
#
# Youngs Moduli (GPa) = 78.05321 94.14130 87.87185
#
# Poissons Ratio (x) = 0.09347 0.29720
# Poissons Ratio (y) = 0.07750 0.26619
# Poissons Ratio (z) = 0.26399 0.28518
#
# Static dielectric constant tensor:
#      x y z
#    x 4.097650 0.000000 0.217000 
#    y 0.000000 4.033560 0.000000 
#    z 0.217000 0.000000 4.075430 
# 
# 
# High freq. dielectric constant tensor:
#      x y z
#    x 1.850490 0.000000 -0.001500 
#    y 0.000000 1.849680 0.000000 
#    z -0.001500 0.000000 1.847310 
# 
# From -- ./inp_files/181125.got.cif
#   From: 2010.06.25/outbox.cif.g09.slc.cpg/sg15_91_cif.got.tgz:181125.got - 2010.06.28 07:06:18.
