data_PCOD8143893
_publ_section_title
;
Structure prediction by ZEFSAII (Michael W. Deem and Ramdas Pophale) SiO2 
 PCOD8143893
Probable space group: C 2/C
;
_chemical_formula_sum "Si O2"
_cell_formula_units_Z 60
_cell_length_a 19.484367
_cell_length_b 24.431432
_cell_length_c 11.753180
_cell_angle_alpha 90.000000
_cell_angle_beta 149.393210
_cell_angle_gamma 90.000000
_cell_volume 2848.595241
_symmetry_space_group_name_H-M "C 2/C"
_symmetry_group_IT_number 15
_symmetry_cell_setting 'monoclinic'
loop_
_space_group_symop_operation_xyz
x,y,z
-x,y,1/2-z
-x,-y,-z
x,-y,1/2+z
1/2+x,1/2+y,z
1/2-x,1/2+y,1/2-z
1/2-x,1/2-y,-z
1/2+x,1/2-y,1/2+z
loop_
_atom_site_type_symbol
_atom_site_label
_atom_site_fract_x
_atom_site_fract_y
_atom_site_fract_z
Si Si1 0.617633 0.460377 0.203158
Si Si2 0.783938 0.817968 0.659679
Si Si3 0.116280 0.503382 0.998301
Si Si4 0.786481 0.304499 0.193238
Si Si5 0.012383 0.612908 0.400375
Si Si6 0.219793 0.390547 0.763507
Si Si7 0.454083 0.631072 0.065650
Si Si8 0.000000 0.910123 0.250000
O O1 0.762769 0.488163 0.414290
O O2 0.588504 0.445220 0.290287
O O3 0.500000 0.500000 0.000000
O O4 0.629957 0.410824 0.131117
O O5 0.816619 0.758906 0.761487
O O6 0.700907 0.813477 0.424213
O O7 0.689521 0.851751 0.612311
O O8 0.922821 0.849437 0.835708
O O9 0.176530 0.547459 0.171366
O O10 0.000000 0.527483 0.750000
O O11 0.063116 0.449740 0.991115
O O12 0.888463 0.344207 0.401373
O O13 0.637114 0.317345 0.027312
O O14 0.866770 0.624306 0.249098
O O15 0.000000 0.625943 0.250000
O O16 0.380147 0.378232 0.013795
O O17 0.500000 0.602144 0.250000
#
# Coordination Sequence:
#
# PCOD8143893 Si02
#       8
#     8   8   8   8   8   8   8   4
#     4  12  23  42  65  95 134 177 222 273 335 410
#     4  10  23  44  68 107 126 175 238 283 345 391
#     4  11  24  45  67  99 138 175 232 279 338 411
#     4  10  23  43  72  95 141 175 223 293 336 408
#     4  11  25  45  65  99 140 183 224 270 349 411
#     4  12  26  44  70  98 135 182 226 289 336 409
#     4  10  21  41  66  94 129 172 225 275 331 400
#     4  12  24  42  64  96 136 170 222 284 334 400
#
# _framework density 21.063013999999999
#
# number of rings (size 3 to 8) (size 9 to 14) (size 15 to 20)
#    0.000    1.067    4.000    2.000    4.667    0.000 
#    1.200    0.667    0.000    0.000    0.000    0.000 
#    0.000    0.000    0.000    0.000    0.000    0.000 
#
# Total GULP energy -371935.204359 kJ/mol
# GULP energy per Si atom -12397.840145 kJ/mol
# Density = 2.101507 g / cm^3
# Si number density = 21.063014 Si / 1000 Ang^3
#
#
#
# Elastic Constant Matrix: (Units=GPa)
#
#
# Indices 1 2 3 4 5 6 
#
# 1 156.2350 35.5224 36.8957 0.0000 1.1955 0.0000
# 2 35.5224 96.4865 36.3205 0.0000 -13.7453 0.0000
# 3 36.8957 36.3205 106.4656 0.0000 2.7945 0.0000
# 4 0.0000 0.0000 0.0000 18.5429 0.0000 -0.3538
# 5 1.1955 -13.7453 2.7945 0.0000 36.0905 0.0000
# 6 0.0000 0.0000 0.0000 -0.3538 0.0000 12.2052
#
#
#
# Elastic Compliance Matrix: (Units=1/GPa)
#
#
# Indices 1 2 3 4 5 6 
#
# 1 0.007318 -0.002158 -0.001775 0.000000 -0.000927 0.000000
# 2 -0.002158 0.013441 -0.003982 0.000000 0.005499 0.000000
# 3 -0.001775 -0.003982 0.011428 0.000000 -0.002343 0.000000
# 4 0.000000 0.000000 0.000000 0.053959 0.000000 0.001564
# 5 -0.000927 0.005499 -0.002343 0.000000 0.030014 0.000000
# 6 0.000000 0.000000 0.000000 0.001564 0.000000 0.081977
#
#
# Mechanical properties :
#
#
# Convention : Reuss Voigt Hill
#
# Bulk Modulus (GPa) = 61.13917 64.07382 62.60650
# Shear Modulus (GPa) = 22.78743 30.06428 26.42586
#
# Velocity S-wave (km/s) = 3.29275 3.78213 3.54589
# Velocity P-wave (km/s) = 6.59894 7.03980 6.82293
#
# Compressibility (1/GPa) = 0.01635613
#
# Stress axis : x y z
#
# Youngs Moduli (GPa) = 136.65714 74.40046 87.50522
#
# Poissons Ratio (x) = 0.16053 0.15536
# Poissons Ratio (y) = 0.29487 0.34843
# Poissons Ratio (z) = 0.24263 0.29625
#
# Static dielectric constant tensor:
#      x y z
#    x 3.849280 0.000000 0.326500 
#    y 0.000000 3.688130 0.000000 
#    z 0.326500 0.000000 3.388350 
# 
# 
# High freq. dielectric constant tensor:
#      x y z
#    x 1.845260 0.000000 0.004120 
#    y 0.000000 1.804960 0.000000 
#    z 0.004120 0.000000 1.828520 
# 
# From -- ./inp_files/114832.got.cif
#   From: 2010.06.25/outbox.cif.g09.slc.cpg/sg15_58_cif.got.tgz:114832.got - 2010.06.28 07:06:18.
