data_PCOD8143745
_publ_section_title
;
Structure prediction by ZEFSAII (Michael W. Deem and Ramdas Pophale) SiO2 
 PCOD8143745
Probable space group: C 2/C
;
_chemical_formula_sum "Si O2"
_cell_formula_units_Z 52
_cell_length_a 26.935075
_cell_length_b 13.275632
_cell_length_c 19.335495
_cell_angle_alpha 90.000000
_cell_angle_beta 21.415780
_cell_angle_gamma 90.000000
_cell_volume 2524.526925
_symmetry_space_group_name_H-M "C 2/C"
_symmetry_group_IT_number 15
_symmetry_cell_setting 'monoclinic'
loop_
_space_group_symop_operation_xyz
x,y,z
-x,y,1/2-z
-x,-y,-z
x,-y,1/2+z
1/2+x,1/2+y,z
1/2-x,1/2+y,1/2-z
1/2-x,1/2-y,-z
1/2+x,1/2-y,1/2+z
loop_
_atom_site_type_symbol
_atom_site_label
_atom_site_fract_x
_atom_site_fract_y
_atom_site_fract_z
Si Si1 0.500000 0.937012 0.750000
Si Si2 0.014504 0.151272 0.498864
Si Si3 0.914882 0.628219 0.591564
Si Si4 0.358323 0.467508 0.099225
Si Si5 0.359933 0.413352 0.463703
Si Si6 0.751356 0.288399 0.077512
Si Si7 0.097051 0.503941 0.265251
O O1 0.632748 0.871361 0.562987
O O2 0.475572 0.007855 0.714603
O O3 0.950243 0.125253 0.507070
O O4 0.892529 0.162532 0.713418
O O5 0.103278 0.252315 0.380953
O O6 0.122263 0.062820 0.375106
O O7 0.795268 0.571655 0.705492
O O8 0.928870 0.593273 0.653289
O O9 0.047069 0.600995 0.374868
O O10 0.401298 0.508596 0.969360
O O11 0.500000 0.378981 0.250000
O O12 0.289695 0.307083 0.577233
O O13 0.257562 0.473579 0.545094
O O14 0.750000 0.250000 0.000000
#
# Coordination Sequence:
#
# PCOD8143745 Si02
#       7
#     4   8   8   8   8   8   8
#     4  12  22  34  58 100 136 158 206 260 322 388
#     4  11  23  41  62  92 130 162 216 260 316 382
#     4  10  21  41  64  85 129 167 212 257 313 380
#     4  10  25  38  61  98 120 173 207 267 317 376
#     4  11  21  38  61  88 133 164 205 254 326 389
#     4  12  22  34  60  96 128 168 195 259 336 387
#     4  10  22  37  58  96 122 168 209 254 318 376
#
# _framework density 20.597919000000001
#
# number of rings (size 3 to 8) (size 9 to 14) (size 15 to 20)
#    0.000    1.231    3.846    1.846    4.308    0.000 
#    0.000    0.000    1.692    1.846    0.000    0.000 
#    0.000    0.000    0.000    0.000    0.000    0.000 
#
# Total GULP energy -322188.030779 kJ/mol
# GULP energy per Si atom -12391.847338 kJ/mol
# Density = 2.055104 g / cm^3
# Si number density = 20.597919 Si / 1000 Ang^3
#
#
#
# Elastic Constant Matrix: (Units=GPa)
#
#
# Indices 1 2 3 4 5 6 
#
# 1 139.9328 47.1784 39.3836 0.0000 -21.5938 0.0000
# 2 47.1784 110.7249 42.2750 0.0000 -8.8955 0.0000
# 3 39.3836 42.2750 84.7136 -0.0001 -12.9603 0.0001
# 4 0.0000 0.0000 -0.0001 28.6622 0.0001 -7.2399
# 5 -21.5938 -8.8955 -12.9603 0.0001 21.2449 0.0000
# 6 0.0000 0.0000 0.0001 -7.2399 0.0000 30.8963
#
#
#
# Elastic Compliance Matrix: (Units=1/GPa)
#
#
# Indices 1 2 3 4 5 6 
#
# 1 0.009830 -0.002813 -0.002005 0.000000 0.007591 0.000000
# 2 -0.002813 0.012001 -0.004797 0.000000 -0.000761 0.000000
# 3 -0.002005 -0.004797 0.016005 0.000000 0.005717 0.000000
# 4 0.000000 0.000000 0.000000 0.037084 0.000000 0.008690
# 5 0.007591 -0.000761 0.005717 0.000000 0.057955 0.000000
# 6 0.000000 0.000000 0.000000 0.008690 0.000000 0.034403
#
#
# Mechanical properties :
#
#
# Convention : Reuss Voigt Hill
#
# Bulk Modulus (GPa) = 53.74817 65.89393 59.82105
# Shear Modulus (GPa) = 25.94567 29.92964 27.93766
#
# Velocity S-wave (km/s) = 3.55297 3.81601 3.68684
# Velocity P-wave (km/s) = 6.55607 7.17468 6.87234
#
# Compressibility (1/GPa) = 0.01860528
#
# Stress axis : x y z
#
# Youngs Moduli (GPa) = 101.72468 83.32959 62.47943
#
# Poissons Ratio (x) = 0.23443 0.12527
# Poissons Ratio (y) = 0.28618 0.29973
# Poissons Ratio (z) = 0.20395 0.39975
#
# Static dielectric constant tensor:
#      x y z
#    x 3.955570 0.000000 -0.289060 
#    y 0.000000 3.709040 0.000000 
#    z -0.289060 0.000000 3.738930 
# 
# 
# High freq. dielectric constant tensor:
#      x y z
#    x 1.805850 0.000000 -0.027890 
#    y 0.000000 1.789360 0.000000 
#    z -0.027890 0.000000 1.800830 
# 
# From -- ./inp_files/118804.got.cif
#   From: 2010.06.25/outbox.cif.g09.slc.cpg/sg15_60_cif.got.tgz:118804.got - 2010.06.28 07:06:18.
