data_PCOD8143037
_publ_section_title
;
Structure prediction by ZEFSAII (Michael W. Deem and Ramdas Pophale) SiO2 
 PCOD8143037
Probable space group: C 2/C
;
_chemical_formula_sum "Si O2"
_cell_formula_units_Z 64
_cell_length_a 22.232070
_cell_length_b 9.163048
_cell_length_c 13.762914
_cell_angle_alpha 90.000000
_cell_angle_beta 104.416057
_cell_angle_gamma 90.000000
_cell_volume 2715.413079
_symmetry_space_group_name_H-M "C 2/C"
_symmetry_group_IT_number 15
_symmetry_cell_setting 'monoclinic'
loop_
_space_group_symop_operation_xyz
x,y,z
-x,y,1/2-z
-x,-y,-z
x,-y,1/2+z
1/2+x,1/2+y,z
1/2-x,1/2+y,1/2-z
1/2-x,1/2-y,-z
1/2+x,1/2-y,1/2+z
loop_
_atom_site_type_symbol
_atom_site_label
_atom_site_fract_x
_atom_site_fract_y
_atom_site_fract_z
Si Si1 0.217513 0.169127 0.799109
Si Si2 0.562402 0.948671 0.235737
Si Si3 0.045619 0.125257 0.187253
Si Si4 0.914631 0.955013 0.465423
Si Si5 0.726439 0.461663 0.635523
Si Si6 0.624837 0.166278 0.120668
Si Si7 0.642991 0.443018 0.867862
Si Si8 0.830293 0.625796 0.570648
O O1 0.268143 0.285471 0.856739
O O2 0.170011 0.264549 0.717850
O O3 0.247414 0.041190 0.744781
O O4 0.185146 0.088800 0.878774
O O5 0.500000 0.027772 0.250000
O O6 0.539169 0.797774 0.178665
O O7 0.610594 0.927020 0.342957
O O8 0.588895 0.036412 0.156637
O O9 0.036703 0.058372 0.074296
O O10 0.115536 0.079925 0.248238
O O11 0.000000 0.058545 0.250000
O O12 0.843196 0.002366 0.420766
O O13 0.924321 0.789716 0.433282
O O14 0.917522 0.962137 0.584152
O O15 0.770903 0.527742 0.570677
O O16 0.659440 0.102512 0.040004
O O17 0.682080 0.298364 0.913402
#
# Coordination Sequence:
#
# PCOD8143037 Si02
#       8
#     8   8   8   8   8   8   8   8
#     4  11  22  37  61  89 120 165 198 243 297 362
#     4  10  22  41  63  87 119 159 202 254 301 354
#     4  10  21  41  62  84 119 158 201 251 302 353
#     4  10  23  39  59  92 119 158 203 248 300 360
#     4  11  22  36  60  91 120 159 201 242 299 362
#     4  10  21  40  60  90 123 153 204 243 301 358
#     4  10  21  41  60  86 125 155 202 246 301 362
#     4  10  22  39  62  90 123 162 195 247 307 356
#
# _framework density 23.569158999999999
#
# number of rings (size 3 to 8) (size 9 to 14) (size 15 to 20)
#    0.000    1.750    3.750    0.750    1.750    8.500 
#    0.000    0.000    0.000    0.000    0.000    0.000 
#    0.000    0.000    0.000    0.000    0.000    0.000 
#
# Total GULP energy -396713.991597 kJ/mol
# GULP energy per Si atom -12397.312237 kJ/mol
# Density = 2.351551 g / cm^3
# Si number density = 23.569159 Si / 1000 Ang^3
#
#
#
# Elastic Constant Matrix: (Units=GPa)
#
#
# Indices 1 2 3 4 5 6 
#
# 1 39.2351 26.0134 16.9641 0.0000 -31.1801 0.0000
# 2 26.0134 105.4788 36.2939 0.0000 -23.1852 0.0000
# 3 16.9641 36.2939 101.3200 0.0000 -23.5002 0.0000
# 4 0.0000 0.0000 0.0000 41.7908 0.0000 -16.6417
# 5 -31.1801 -23.1852 -23.5002 0.0000 40.0129 0.0000
# 6 0.0000 0.0000 0.0000 -16.6417 0.0000 34.1258
#
#
#
# Elastic Compliance Matrix: (Units=1/GPa)
#
#
# Indices 1 2 3 4 5 6 
#
# 1 0.070829 -0.006819 0.002858 0.000000 0.052921 0.000000
# 2 -0.006819 0.012262 -0.003282 0.000000 -0.000136 0.000000
# 3 0.002858 -0.003282 0.012321 0.000000 0.007562 0.000000
# 4 0.000000 0.000000 0.000000 0.029695 0.000000 0.014481
# 5 0.052921 -0.000136 0.007562 0.000000 0.070593 0.000000
# 6 0.000000 0.000000 0.000000 0.014481 0.000000 0.036365
#
#
# Mechanical properties :
#
#
# Convention : Reuss Voigt Hill
#
# Bulk Modulus (GPa) = 12.35700 44.95297 28.65498
# Shear Modulus (GPa) = 18.27979 34.30340 26.29160
#
# Velocity S-wave (km/s) = 2.78795 3.81916 3.34355
# Velocity P-wave (km/s) = 3.95193 6.20984 5.20480
#
# Compressibility (1/GPa) = 0.08092579
#
# Stress axis : x y z
#
# Youngs Moduli (GPa) = 14.11847 81.55510 81.16409
#
# Poissons Ratio (x) = 0.55612 -0.23199
# Poissons Ratio (y) = 0.09627 0.26640
# Poissons Ratio (z) = -0.04035 0.26768
#
# Static dielectric constant tensor:
#      x y z
#    x 4.125510 0.000000 -0.211960 
#    y 0.000000 4.350240 0.000000 
#    z -0.211960 0.000000 4.594080 
# 
# 
# High freq. dielectric constant tensor:
#      x y z
#    x 1.929000 0.000000 -0.008390 
#    y 0.000000 1.921990 0.000000 
#    z -0.008390 0.000000 1.946410 
# 
# From -- ./inp_files/172380.got.cif
#   From: 2010.06.25/outbox.cif.g09.slc.cpg/sg15_87_cif.got.tgz:172380.got - 2010.06.28 07:06:18.
