data_PCOD8143051
_publ_section_title
;
Structure prediction by ZEFSAII (Michael W. Deem and Ramdas Pophale) SiO2 
 PCOD8143051
Probable space group: C 2/C
;
_chemical_formula_sum "Si O2"
_cell_formula_units_Z 56
_cell_length_a 9.280049
_cell_length_b 32.168750
_cell_length_c 12.597056
_cell_angle_alpha 90.000000
_cell_angle_beta 49.580787
_cell_angle_gamma 90.000000
_cell_volume 2862.999583
_symmetry_space_group_name_H-M "C 2/C"
_symmetry_group_IT_number 15
_symmetry_cell_setting 'monoclinic'
loop_
_space_group_symop_operation_xyz
x,y,z
-x,y,1/2-z
-x,-y,-z
x,-y,1/2+z
1/2+x,1/2+y,z
1/2-x,1/2+y,1/2-z
1/2-x,1/2-y,-z
1/2+x,1/2-y,1/2+z
loop_
_atom_site_type_symbol
_atom_site_label
_atom_site_fract_x
_atom_site_fract_y
_atom_site_fract_z
Si Si1 0.998661 0.464602 0.583321
Si Si2 0.865192 0.172941 0.724294
Si Si3 0.292570 0.238931 0.856406
Si Si4 0.439509 0.872958 0.992940
Si Si5 0.821357 0.829130 0.766289
Si Si6 0.860311 0.124786 0.036446
Si Si7 0.325289 0.532560 0.095758
O O1 0.796201 0.469520 0.738337
O O2 0.000000 0.500000 0.500000
O O3 0.024623 0.421797 0.504576
O O4 0.179318 0.473022 0.570256
O O5 0.839553 0.205453 0.639487
O O6 0.675602 0.152672 0.863001
O O7 0.000000 0.194200 0.750000
O O8 0.977278 0.133548 0.626067
O O9 0.500000 0.219127 0.750000
O O10 0.284749 0.280073 0.788835
O O11 0.250000 0.250000 0.000000
O O12 0.642010 0.852240 0.897654
O O13 0.343914 0.870940 0.922407
O O14 0.863478 0.840827 0.625829
O O15 0.000000 0.842721 0.750000
O O16 0.907801 0.079116 0.056444
O O17 0.500000 0.500000 0.000000
#
# Coordination Sequence:
#
# PCOD8143051 Si02
#       7
#     8   8   8   8   8   8   8
#     4  10  22  40  62  89 121 156 199 243 303 357
#     4  10  22  38  62  92 118 157 211 251 297 361
#     4  11  23  41  60  86 127 164 196 250 315 362
#     4  10  21  40  62  86 121 158 196 255 300 350
#     4  11  22  37  61  87 115 159 203 243 299 362
#     4  10  21  40  61  86 120 158 200 246 305 352
#     4  10  22  40  62  88 121 159 196 247 299 358
#
# _framework density 19.559906000000002
#
# number of rings (size 3 to 8) (size 9 to 14) (size 15 to 20)
#    0.000    1.714    1.429    3.000    2.000    2.857 
#    0.000    3.571    0.000    0.000    0.000    0.000 
#    0.000    0.000    0.000    0.000    0.000    0.000 
#
# Total GULP energy -346993.654340 kJ/mol
# GULP energy per Si atom -12392.630512 kJ/mol
# Density = 1.951539 g / cm^3
# Si number density = 19.559906 Si / 1000 Ang^3
#
#
#
# Elastic Constant Matrix: (Units=GPa)
#
#
# Indices 1 2 3 4 5 6 
#
# 1 89.4852 61.5213 52.4531 0.0000 -15.6210 0.0000
# 2 61.5213 118.2778 47.3114 0.0000 5.4835 0.0000
# 3 52.4531 47.3114 108.7190 0.0000 0.3402 0.0000
# 4 0.0000 0.0000 0.0000 37.4642 0.0000 4.0647
# 5 -15.6210 5.4835 0.3402 0.0000 35.0226 0.0000
# 6 0.0000 0.0000 0.0000 4.0647 0.0000 34.6005
#
#
#
# Elastic Compliance Matrix: (Units=1/GPa)
#
#
# Indices 1 2 3 4 5 6 
#
# 1 0.025235 -0.010706 -0.007557 0.000000 0.013005 0.000000
# 2 -0.010706 0.014865 -0.001281 0.000000 -0.007090 0.000000
# 3 -0.007557 -0.001281 0.013412 0.000000 -0.003300 0.000000
# 4 0.000000 0.000000 0.000000 0.027037 0.000000 -0.003176
# 5 0.013005 -0.007090 -0.003300 0.000000 0.035496 0.000000
# 6 0.000000 0.000000 0.000000 -0.003176 0.000000 0.029274
#
#
# Mechanical properties :
#
#
# Convention : Reuss Voigt Hill
#
# Bulk Modulus (GPa) = 69.33152 71.00597 70.16874
# Shear Modulus (GPa) = 26.42497 31.76387 29.09442
#
# Velocity S-wave (km/s) = 3.67955 4.03417 3.86093
# Velocity P-wave (km/s) = 7.31948 7.62102 7.47177
#
# Compressibility (1/GPa) = 0.01442345
#
# Stress axis : x y z
#
# Youngs Moduli (GPa) = 39.62684 67.27403 74.56144
#
# Poissons Ratio (x) = 0.72025 0.56345
# Poissons Ratio (y) = 0.42425 0.09552
# Poissons Ratio (z) = 0.29945 0.08618
#
# Static dielectric constant tensor:
#      x y z
#    x 4.079210 0.000000 -0.204500 
#    y 0.000000 3.933920 0.000000 
#    z -0.204500 0.000000 3.244580 
# 
# 
# High freq. dielectric constant tensor:
#      x y z
#    x 1.762700 0.000000 -0.007120 
#    y 0.000000 1.764370 0.000000 
#    z -0.007120 0.000000 1.774390 
# 
# From -- ./inp_files/82464.got.cif
#   From: 2010.06.25/outbox.cif.g09.slc.cpg/sg15_42_cif.got.tgz:82464.got - 2010.06.28 07:06:18.
