data_PCOD8143321
_publ_section_title
;
Structure prediction by ZEFSAII (Michael W. Deem and Ramdas Pophale) SiO2 
 PCOD8143321
Probable space group: C 2/C
;
_chemical_formula_sum "Si O2"
_cell_formula_units_Z 48
_cell_length_a 7.830043
_cell_length_b 11.125263
_cell_length_c 24.676053
_cell_angle_alpha 90.000000
_cell_angle_beta 74.789265
_cell_angle_gamma 90.000000
_cell_volume 2074.257880
_symmetry_space_group_name_H-M "C 2/C"
_symmetry_group_IT_number 15
_symmetry_cell_setting 'monoclinic'
loop_
_space_group_symop_operation_xyz
x,y,z
-x,y,1/2-z
-x,-y,-z
x,-y,1/2+z
1/2+x,1/2+y,z
1/2-x,1/2+y,1/2-z
1/2-x,1/2-y,-z
1/2+x,1/2-y,1/2+z
loop_
_atom_site_type_symbol
_atom_site_label
_atom_site_fract_x
_atom_site_fract_y
_atom_site_fract_z
Si Si1 0.226451 0.440157 0.828246
Si Si2 0.000000 0.095666 0.750000
Si Si3 0.584517 0.454599 0.428613
Si Si4 0.555795 0.304799 0.527775
Si Si5 0.481738 0.049344 0.940833
Si Si6 0.000000 0.490288 0.250000
Si Si7 0.728182 0.674047 0.820015
O O1 0.403698 0.515306 0.803657
O O2 0.115882 0.487640 0.888232
O O3 0.124432 0.431615 0.778645
O O4 0.280384 0.303991 0.838336
O O5 0.140286 0.181133 0.767973
O O6 0.481753 0.361577 0.477465
O O7 0.471407 0.579027 0.430129
O O8 0.589281 0.390677 0.370848
O O9 0.782498 0.474497 0.436357
O O10 0.750000 0.250000 0.500000
O O11 0.456173 0.190134 0.561511
O O12 0.500000 0.000000 0.000000
O O13 0.902438 0.406266 0.301970
#
# Coordination Sequence:
#
# PCOD8143321 Si02
#       7
#     8   4   8   8   8   4   8
#     4  11  23  43  66  97 133 172 223 273 334 391
#     4  10  26  40  62 102 124 174 224 276 324 400
#     4  10  21  40  65  92 126 181 212 268 340 396
#     4   9  21  40  62  92 130 167 217 263 327 403
#     4  11  23  39  63  99 133 172 220 278 332 401
#     4  10  22  44  64  92 130 172 220 266 336 386
#     4  11  22  42  66  92 128 168 218 270 330 389
#
# _framework density 23.140806000000001
#
# number of rings (size 3 to 8) (size 9 to 14) (size 15 to 20)
#    0.000    1.667    1.667    2.000    0.000    8.667 
#   12.000    0.000    0.000    0.000    0.000    0.000 
#    0.000    0.000    0.000    0.000    0.000    0.000 
#
# Total GULP energy -297324.410988 kJ/mol
# GULP energy per Si atom -12388.517124 kJ/mol
# Density = 2.308814 g / cm^3
# Si number density = 23.140806 Si / 1000 Ang^3
#
#
#
# Elastic Constant Matrix: (Units=GPa)
#
#
# Indices 1 2 3 4 5 6 
#
# 1 48.7145 1.2838 -5.7525 0.0000 0.4696 0.0000
# 2 1.2838 157.3858 35.4346 0.0000 -9.0722 0.0000
# 3 -5.7525 35.4346 107.6854 0.0000 -17.5661 0.0000
# 4 0.0000 0.0000 0.0000 41.7831 0.0000 -3.9897
# 5 0.4696 -9.0722 -17.5661 0.0000 34.2653 0.0000
# 6 0.0000 0.0000 0.0000 -3.9897 0.0000 18.2824
#
#
#
# Elastic Compliance Matrix: (Units=1/GPa)
#
#
# Indices 1 2 3 4 5 6 
#
# 1 0.020690 -0.000445 0.001294 0.000000 0.000262 0.000000
# 2 -0.000445 0.006888 -0.002174 0.000000 0.000715 0.000000
# 3 0.001294 -0.002174 0.010884 0.000000 0.004987 0.000000
# 4 0.000000 0.000000 0.000000 0.024442 0.000000 0.005334
# 5 0.000262 0.000715 0.004987 0.000000 0.031926 0.000000
# 6 0.000000 0.000000 0.000000 0.005334 0.000000 0.055861
#
#
# Mechanical properties :
#
#
# Convention : Reuss Voigt Hill
#
# Bulk Modulus (GPa) = 27.92239 41.74638 34.83438
# Shear Modulus (GPa) = 30.25198 37.72082 33.98640
#
# Velocity S-wave (km/s) = 3.61958 4.04178 3.83649
# Velocity P-wave (km/s) = 5.43700 6.31352 5.89159
#
# Compressibility (1/GPa) = 0.03581356
#
# Stress axis : x y z
#
# Youngs Moduli (GPa) = 48.33287 145.17852 91.87685
#
# Poissons Ratio (x) = 0.06462 -0.11893
# Poissons Ratio (y) = 0.02151 0.19971
# Poissons Ratio (z) = -0.06257 0.31556
#
# Static dielectric constant tensor:
#      x y z
#    x 3.901560 0.000000 -0.112190 
#    y 0.000000 4.516320 0.000000 
#    z -0.112190 0.000000 4.297820 
# 
# 
# High freq. dielectric constant tensor:
#      x y z
#    x 1.891260 0.000000 -0.000370 
#    y 0.000000 1.918960 0.000000 
#    z -0.000370 0.000000 1.931420 
# 
# From -- ./inp_files/263525.got.cif
#   From: 2010.06.25/outbox.cif.g09.slc.cpg/sg15_132_cif.got.tgz:263525.got - 2010.06.28 07:06:18.
