data_PCOD8143958
_publ_section_title
;
Structure prediction by ZEFSAII (Michael W. Deem and Ramdas Pophale) SiO2 
 PCOD8143958
Probable space group: C 2/C
;
_chemical_formula_sum "Si O2"
_cell_formula_units_Z 44
_cell_length_a 8.067432
_cell_length_b 23.381577
_cell_length_c 10.879367
_cell_angle_alpha 90.000000
_cell_angle_beta 72.801363
_cell_angle_gamma 90.000000
_cell_volume 1960.405349
_symmetry_space_group_name_H-M "C 2/C"
_symmetry_group_IT_number 15
_symmetry_cell_setting 'monoclinic'
loop_
_space_group_symop_operation_xyz
x,y,z
-x,y,1/2-z
-x,-y,-z
x,-y,1/2+z
1/2+x,1/2+y,z
1/2-x,1/2+y,1/2-z
1/2-x,1/2-y,-z
1/2+x,1/2-y,1/2+z
loop_
_atom_site_type_symbol
_atom_site_label
_atom_site_fract_x
_atom_site_fract_y
_atom_site_fract_z
Si Si1 0.137102 0.692883 0.899621
Si Si2 0.887765 0.588164 0.934894
Si Si3 0.380299 0.369795 0.175683
Si Si4 0.366205 0.679842 0.075850
Si Si5 0.000000 0.504230 0.250000
Si Si6 0.305892 0.421896 0.767380
O O1 0.295310 0.682318 0.770924
O O2 0.074388 0.757607 0.890491
O O3 0.984284 0.648660 0.906348
O O4 0.195338 0.684693 0.028453
O O5 0.756879 0.585598 0.847310
O O6 0.007547 0.533634 0.874893
O O7 0.794146 0.582928 0.083518
O O8 0.500000 0.402822 0.250000
O O9 0.477454 0.346350 0.035474
O O10 0.327108 0.640396 0.201619
O O11 0.820722 0.541004 0.292789
O O12 0.500000 0.447801 0.750000
#
# Coordination Sequence:
#
# PCOD8143958 Si02
#       6
#     8   8   8   8   4   8
#     4  10  22  41  72 101 143 187 226 291 350 425
#     4  12  24  47  70 101 134 187 236 289 359 415
#     4  10  21  41  67  99 137 181 231 284 350 422
#     4  10  23  43  66 106 143 180 234 288 356 420
#     4  12  28  50  70 102 140 186 248 294 348 422
#     4  12  27  47  72 106 140 186 235 298 357 416
#
# _framework density 22.444338999999999
#
# number of rings (size 3 to 8) (size 9 to 14) (size 15 to 20)
#    0.000    1.091    3.636    1.636    2.545    3.636 
#    1.636    0.000    0.000    0.000    0.000    0.000 
#    0.000    0.000    0.000    0.000    0.000    0.000 
#
# Total GULP energy -272708.319355 kJ/mol
# GULP energy per Si atom -12395.832698 kJ/mol
# Density = 2.239325 g / cm^3
# Si number density = 22.444339 Si / 1000 Ang^3
#
#
#
# Elastic Constant Matrix: (Units=GPa)
#
#
# Indices 1 2 3 4 5 6 
#
# 1 108.2137 44.9275 17.9357 0.0000 -1.3268 0.0000
# 2 44.9275 117.1454 42.5295 0.0000 -4.9198 0.0000
# 3 17.9357 42.5295 136.0371 0.0000 -14.1442 0.0000
# 4 0.0000 0.0000 0.0000 20.0874 0.0000 5.6610
# 5 -1.3268 -4.9198 -14.1442 0.0000 34.8260 0.0000
# 6 0.0000 0.0000 0.0000 5.6610 0.0000 28.5667
#
#
#
# Elastic Compliance Matrix: (Units=1/GPa)
#
#
# Indices 1 2 3 4 5 6 
#
# 1 0.010996 -0.004164 -0.000173 0.000000 -0.000240 0.000000
# 2 -0.004164 0.011207 -0.002930 0.000000 0.000234 0.000000
# 3 -0.000173 -0.002930 0.008610 0.000000 0.003076 0.000000
# 4 0.000000 0.000000 0.000000 0.052727 0.000000 -0.010449
# 5 -0.000240 0.000234 0.003076 0.000000 0.029987 0.000000
# 6 0.000000 0.000000 0.000000 -0.010449 0.000000 0.037076
#
#
# Mechanical properties :
#
#
# Convention : Reuss Voigt Hill
#
# Bulk Modulus (GPa) = 61.43373 63.57573 62.50473
# Shear Modulus (GPa) = 29.31450 33.76294 31.53872
#
# Velocity S-wave (km/s) = 3.61792 3.88273 3.75266
# Velocity P-wave (km/s) = 6.69951 6.96335 6.83271
#
# Compressibility (1/GPa) = 0.01627770
#
# Stress axis : x y z
#
# Youngs Moduli (GPa) = 90.94547 89.22828 116.14876
#
# Poissons Ratio (x) = 0.37158 0.02006
# Poissons Ratio (y) = 0.37873 0.34035
# Poissons Ratio (z) = 0.01571 0.26147
#
# Static dielectric constant tensor:
#      x y z
#    x 4.401200 0.000000 0.042970 
#    y 0.000000 3.988790 0.000000 
#    z 0.042970 0.000000 4.070670 
# 
# 
# High freq. dielectric constant tensor:
#      x y z
#    x 1.890600 0.000000 0.001950 
#    y 0.000000 1.870940 0.000000 
#    z 0.001950 0.000000 1.898110 
# 
# From -- ./inp_files/78105.got.cif
#   From: 2010.06.25/outbox.cif.g09.slc.cpg/sg15_40_cif.got.tgz:78105.got - 2010.06.28 07:06:18.
