data_PCOD8143635
_publ_section_title
;
Structure prediction by ZEFSAII (Michael W. Deem and Ramdas Pophale) SiO2 
 PCOD8143635
Probable space group: C 2/C
;
_chemical_formula_sum "Si O2"
_cell_formula_units_Z 64
_cell_length_a 25.033861
_cell_length_b 14.284011
_cell_length_c 18.032634
_cell_angle_alpha 90.000000
_cell_angle_beta 151.136507
_cell_angle_gamma 90.000000
_cell_volume 3112.694462
_symmetry_space_group_name_H-M "C 2/C"
_symmetry_group_IT_number 15
_symmetry_cell_setting 'monoclinic'
loop_
_space_group_symop_operation_xyz
x,y,z
-x,y,1/2-z
-x,-y,-z
x,-y,1/2+z
1/2+x,1/2+y,z
1/2-x,1/2+y,1/2-z
1/2-x,1/2-y,-z
1/2+x,1/2-y,1/2+z
loop_
_atom_site_type_symbol
_atom_site_label
_atom_site_fract_x
_atom_site_fract_y
_atom_site_fract_z
Si Si1 0.619692 0.415773 0.251332
Si Si2 0.487789 0.258763 0.149293
Si Si3 0.754541 0.435365 0.553704
Si Si4 0.751741 0.314685 0.675447
Si Si5 0.879043 0.492668 0.890671
Si Si6 0.811106 0.874577 0.319940
Si Si7 0.060430 0.951848 0.895084
Si Si8 0.992491 0.536354 0.323708
O O1 0.585371 0.307148 0.220655
O O2 0.729126 0.429680 0.435367
O O3 0.648548 0.438739 0.200857
O O4 0.523064 0.482169 0.162451
O O5 0.500000 0.292303 0.250000
O O6 0.490612 0.147627 0.147482
O O7 0.378711 0.297798 0.975619
O O8 0.771447 0.331350 0.610712
O O9 0.661230 0.486317 0.488121
O O10 0.870243 0.490354 0.705703
O O11 0.799027 0.408198 0.771663
O O12 0.812521 0.229194 0.788658
O O13 0.807880 0.588607 0.795787
O O14 0.000000 0.500000 0.000000
O O15 0.911352 0.481687 0.016336
O O16 0.896189 0.875845 0.492845
O O17 0.000000 0.904201 0.750000
O O18 0.000000 0.501063 0.250000
#
# Coordination Sequence:
#
# PCOD8143635 Si02
#       8
#     8   8   8   8   8   8   8   8
#     4  11  21  34  63  92 128 152 202 267 317 373
#     4  11  20  36  59  91 129 158 194 250 323 388
#     4  11  20  38  60  90 127 171 199 249 327 392
#     4  12  23  38  62  90 124 166 209 247 314 382
#     4  12  24  43  60  86 131 172 206 252 316 386
#     4  12  24  38  61  95 119 160 217 263 308 372
#     4  10  21  41  62  83 120 169 210 260 319 367
#     4  11  23  37  59  89 123 164 207 254 313 372
#
# _framework density 20.560964999999999
#
# number of rings (size 3 to 8) (size 9 to 14) (size 15 to 20)
#    0.000    0.750    6.250    2.250    1.750    1.000 
#    0.000    0.625    0.000    0.000    0.000    7.000 
#    0.000    0.000    0.000    0.000    0.000    0.000 
#
# Total GULP energy -396427.678777 kJ/mol
# GULP energy per Si atom -12388.364962 kJ/mol
# Density = 2.051417 g / cm^3
# Si number density = 20.560965 Si / 1000 Ang^3
#
#
#
# Elastic Constant Matrix: (Units=GPa)
#
#
# Indices 1 2 3 4 5 6 
#
# 1 83.5386 23.7361 45.0569 0.0000 -14.7919 0.0000
# 2 23.7361 48.2010 36.0231 0.0000 -9.7719 0.0000
# 3 45.0569 36.0231 154.6085 0.0000 -29.2521 0.0000
# 4 0.0000 0.0000 0.0000 32.3416 0.0000 -5.9111
# 5 -14.7919 -9.7719 -29.2521 0.0000 42.5687 0.0000
# 6 0.0000 0.0000 0.0000 -5.9111 0.0000 17.8064
#
#
#
# Elastic Compliance Matrix: (Units=1/GPa)
#
#
# Indices 1 2 3 4 5 6 
#
# 1 0.015326 -0.004933 -0.002901 0.000000 0.002200 0.000000
# 2 -0.004933 0.026859 -0.004573 0.000000 0.001309 0.000000
# 3 -0.002901 -0.004573 0.009183 0.000000 0.004253 0.000000
# 4 0.000000 0.000000 0.000000 0.032917 0.000000 0.010927
# 5 0.002200 0.001309 0.004253 0.000000 0.027479 0.000000
# 6 0.000000 0.000000 0.000000 0.010927 0.000000 0.059787
#
#
# Mechanical properties :
#
#
# Convention : Reuss Voigt Hill
#
# Bulk Modulus (GPa) = 37.65800 55.10892 46.38346
# Shear Modulus (GPa) = 24.36454 30.64549 27.50501
#
# Velocity S-wave (km/s) = 3.44610 3.86485 3.66147
# Velocity P-wave (km/s) = 5.84715 6.83937 6.36263
#
# Compressibility (1/GPa) = 0.02655478
#
# Stress axis : x y z
#
# Youngs Moduli (GPa) = 65.24720 37.23206 108.89261
#
# Poissons Ratio (x) = 0.18368 0.31588
# Poissons Ratio (y) = 0.32189 0.49791
# Poissons Ratio (z) = 0.18927 0.17024
#
# Static dielectric constant tensor:
#      x y z
#    x 3.936330 0.000000 -0.151100 
#    y 0.000000 3.323890 0.000000 
#    z -0.151100 0.000000 4.280650 
# 
# 
# High freq. dielectric constant tensor:
#      x y z
#    x 1.807390 0.000000 -0.000470 
#    y 0.000000 1.750100 0.000000 
#    z -0.000470 0.000000 1.836240 
# 
# From -- ./inp_files/219750.got.cif
#   From: 2010.06.25/outbox.cif.g09.slc.cpg/sg15_110_cif.got.tgz:219750.got - 2010.06.28 07:06:18.
