data_PCOD8143818
_publ_section_title
;
Structure prediction by ZEFSAII (Michael W. Deem and Ramdas Pophale) SiO2 
 PCOD8143818
Probable space group: C 2/C
;
_chemical_formula_sum "Si O2"
_cell_formula_units_Z 56
_cell_length_a 23.253367
_cell_length_b 8.958398
_cell_length_c 12.139300
_cell_angle_alpha 90.000000
_cell_angle_beta 109.772139
_cell_angle_gamma 90.000000
_cell_volume 2379.690122
_symmetry_space_group_name_H-M "C 2/C"
_symmetry_group_IT_number 15
_symmetry_cell_setting 'monoclinic'
loop_
_space_group_symop_operation_xyz
x,y,z
-x,y,1/2-z
-x,-y,-z
x,-y,1/2+z
1/2+x,1/2+y,z
1/2-x,1/2+y,1/2-z
1/2-x,1/2-y,-z
1/2+x,1/2-y,1/2+z
loop_
_atom_site_type_symbol
_atom_site_label
_atom_site_fract_x
_atom_site_fract_y
_atom_site_fract_z
Si Si1 0.927136 0.479220 0.874505
Si Si2 0.367301 0.265469 0.480991
Si Si3 0.113496 0.071380 0.909104
Si Si4 0.696364 0.415224 0.259193
Si Si5 0.771916 0.152093 0.376520
Si Si6 0.156939 0.478656 0.371299
Si Si7 0.546126 0.847967 0.906317
O O1 0.913472 0.342303 0.948020
O O2 0.867733 0.538271 0.770321
O O3 0.979641 0.413557 0.824378
O O4 0.952909 0.619133 0.960830
O O5 0.402553 0.405217 0.559731
O O6 0.318094 0.327096 0.362922
O O7 0.334105 0.177715 0.559613
O O8 0.136807 0.070664 0.797812
O O9 0.052166 0.171337 0.882930
O O10 0.165100 0.148803 0.017589
O O11 0.750771 0.323647 0.352972
O O12 0.720403 0.578668 0.240239
O O13 0.721467 0.061345 0.413404
O O14 0.105783 0.576206 0.396216
#
# Coordination Sequence:
#
# PCOD8143818 Si02
#       7
#     8   8   8   8   8   8   8
#     4  10  21  41  65  92 121 165 223 275 323 373
#     4  10  24  40  63  99 129 168 217 264 331 390
#     4  11  24  40  60  93 134 169 213 265 334 392
#     4  11  24  40  58  92 131 170 213 266 317 387
#     4  11  25  36  64  91 129 172 219 258 326 391
#     4  11  22  39  66  90 129 171 214 268 317 386
#     4  10  22  39  65  91 122 166 221 268 320 394
#
# _framework density 23.532475999999999
#
# number of rings (size 3 to 8) (size 9 to 14) (size 15 to 20)
#    0.000    1.429    2.857    0.857    6.000    2.857 
#    0.000    0.000    0.000   10.286    0.000    0.000 
#    0.000    0.000    0.000    0.000    0.000    0.000 
#
# Total GULP energy -347126.606231 kJ/mol
# GULP energy per Si atom -12397.378794 kJ/mol
# Density = 2.347892 g / cm^3
# Si number density = 23.532476 Si / 1000 Ang^3
#
#
#
# Elastic Constant Matrix: (Units=GPa)
#
#
# Indices 1 2 3 4 5 6 
#
# 1 72.7641 3.3756 14.4272 0.0000 -17.2296 0.0000
# 2 3.3756 67.7650 30.1127 0.0000 -20.2066 0.0000
# 3 14.4272 30.1127 69.2324 0.0000 -11.3594 0.0000
# 4 0.0000 0.0000 0.0000 40.5909 0.0000 -8.5369
# 5 -17.2296 -20.2066 -11.3594 0.0000 34.5572 0.0000
# 6 0.0000 0.0000 0.0000 -8.5369 0.0000 34.8132
#
#
#
# Elastic Compliance Matrix: (Units=1/GPa)
#
#
# Indices 1 2 3 4 5 6 
#
# 1 0.016403 0.003395 -0.003411 0.000000 0.009042 0.000000
# 2 0.003395 0.021738 -0.008244 0.000000 0.011694 0.000000
# 3 -0.003411 -0.008244 0.018678 0.000000 -0.000381 0.000000
# 4 0.000000 0.000000 0.000000 0.025976 0.000000 0.006370
# 5 0.009042 0.011694 -0.000381 0.000000 0.040158 0.000000
# 6 0.000000 0.000000 0.000000 0.006370 0.000000 0.030287
#
#
# Mechanical properties :
#
#
# Convention : Reuss Voigt Hill
#
# Bulk Modulus (GPa) = 24.81457 33.95470 29.38464
# Shear Modulus (GPa) = 27.29372 32.78199 30.03786
#
# Velocity S-wave (km/s) = 3.40933 3.73641 3.57661
# Velocity P-wave (km/s) = 5.10546 5.75105 5.43784
#
# Compressibility (1/GPa) = 0.04029890
#
# Stress axis : x y z
#
# Youngs Moduli (GPa) = 60.96462 46.00256 53.53896
#
# Poissons Ratio (x) = -0.15618 0.18263
# Poissons Ratio (y) = -0.20697 0.44136
# Poissons Ratio (z) = 0.20796 0.37923
#
# Static dielectric constant tensor:
#      x y z
#    x 4.116550 0.000000 -0.295800 
#    y 0.000000 4.524970 0.000000 
#    z -0.295800 0.000000 4.506910 
# 
# 
# High freq. dielectric constant tensor:
#      x y z
#    x 1.920110 0.000000 -0.015970 
#    y 0.000000 1.922610 0.000000 
#    z -0.015970 0.000000 1.941650 
# 
# From -- ./inp_files/121992.got.cif
#   From: 2010.06.25/outbox.cif.g09.slc.cpg/sg15_61_cif.got.tgz:121992.got - 2010.06.28 07:06:18.
