data_PCOD8143294
_publ_section_title
;
Structure prediction by ZEFSAII (Michael W. Deem and Ramdas Pophale) SiO2 
 PCOD8143294
Probable space group: C 2/C
;
_chemical_formula_sum "Si O2"
_cell_formula_units_Z 52
_cell_length_a 27.232647
_cell_length_b 15.986194
_cell_length_c 16.395735
_cell_angle_alpha 90.000000
_cell_angle_beta 159.555569
_cell_angle_gamma 90.000000
_cell_volume 2493.233119
_symmetry_space_group_name_H-M "C 2/C"
_symmetry_group_IT_number 15
_symmetry_cell_setting 'monoclinic'
loop_
_space_group_symop_operation_xyz
x,y,z
-x,y,1/2-z
-x,-y,-z
x,-y,1/2+z
1/2+x,1/2+y,z
1/2-x,1/2+y,1/2-z
1/2-x,1/2-y,-z
1/2+x,1/2-y,1/2+z
loop_
_atom_site_type_symbol
_atom_site_label
_atom_site_fract_x
_atom_site_fract_y
_atom_site_fract_z
Si Si1 0.756639 0.037321 0.693121
Si Si2 0.122206 0.314545 0.884156
Si Si3 0.500000 0.239815 0.750000
Si Si4 0.447538 0.957405 0.999077
Si Si5 0.885916 0.704933 0.310088
Si Si6 0.795864 0.607770 0.500192
Si Si7 0.505865 0.656871 0.103635
O O1 0.677211 0.099245 0.507972
O O2 0.665260 0.017608 0.631996
O O3 0.779871 0.949591 0.684539
O O4 0.910400 0.073676 0.952254
O O5 0.066300 0.329915 0.704467
O O6 0.000000 0.279490 0.750000
O O7 0.230223 0.238722 0.055720
O O8 0.362861 0.186224 0.558465
O O9 0.545932 0.296661 0.896524
O O10 0.383178 0.867520 0.874090
O O11 0.581439 0.943213 0.264837
O O12 0.500000 0.000000 0.000000
O O13 0.985083 0.781455 0.493828
O O14 0.671602 0.635370 0.368249
#
# Coordination Sequence:
#
# PCOD8143294 Si02
#       7
#     8   8   4   8   8   8   8
#     4  11  23  43  63  97 130 174 219 274 336 388
#     4  10  21  40  65  88 128 165 217 266 323 387
#     4  12  24  44  66  98 136 172 222 272 338 400
#     4  12  24  39  66  93 128 171 222 271 333 400
#     4  10  22  41  60  96 122 169 217 263 329 393
#     4  12  23  44  66  94 134 172 221 275 336 394
#     4  11  26  41  68  96 133 174 219 279 331 401
#
# _framework density 20.856453999999999
#
# number of rings (size 3 to 8) (size 9 to 14) (size 15 to 20)
#    0.000    0.923    3.077    3.692    2.154    3.692 
#    0.000    3.077    0.000    0.000    0.000    0.000 
#    0.000    0.000    0.000    0.000    0.000    0.000 
#
# Total GULP energy -322419.638591 kJ/mol
# GULP energy per Si atom -12400.755330 kJ/mol
# Density = 2.080898 g / cm^3
# Si number density = 20.856454 Si / 1000 Ang^3
#
#
#
# Elastic Constant Matrix: (Units=GPa)
#
#
# Indices 1 2 3 4 5 6 
#
# 1 125.9100 36.1389 41.5406 0.0000 6.3852 0.0000
# 2 36.1389 89.3406 33.3606 0.0000 0.1233 0.0000
# 3 41.5406 33.3606 93.9348 0.0000 12.2901 0.0000
# 4 0.0000 0.0000 0.0000 19.1352 0.0000 8.0427
# 5 6.3852 0.1233 12.2901 0.0000 32.9233 0.0000
# 6 0.0000 0.0000 0.0000 8.0427 0.0000 31.3549
#
#
#
# Elastic Compliance Matrix: (Units=1/GPa)
#
#
# Indices 1 2 3 4 5 6 
#
# 1 0.009853 -0.002756 -0.003291 0.000000 -0.000672 0.000000
# 2 -0.002756 0.013772 -0.003927 0.000000 0.001949 0.000000
# 3 -0.003291 -0.003927 0.014099 0.000000 -0.004610 0.000000
# 4 0.000000 0.000000 0.000000 0.058575 0.000000 -0.015025
# 5 -0.000672 0.001949 -0.004610 0.000000 0.032218 0.000000
# 6 0.000000 0.000000 0.000000 -0.015025 0.000000 0.035747
#
#
# Mechanical properties :
#
#
# Convention : Reuss Voigt Hill
#
# Bulk Modulus (GPa) = 56.25553 59.02949 57.64251
# Shear Modulus (GPa) = 26.29709 29.89237 28.09473
#
# Velocity S-wave (km/s) = 3.55471 3.78993 3.67420
# Velocity P-wave (km/s) = 6.62414 6.89315 6.75999
#
# Compressibility (1/GPa) = 0.01777603
#
# Stress axis : x y z
#
# Youngs Moduli (GPa) = 101.49292 72.61283 70.92831
#
# Poissons Ratio (x) = 0.20012 0.23339
# Poissons Ratio (y) = 0.27971 0.27855
# Poissons Ratio (z) = 0.33396 0.28516
#
# Static dielectric constant tensor:
#      x y z
#    x 3.936720 0.000000 -0.065980 
#    y 0.000000 3.914430 0.000000 
#    z -0.065980 0.000000 3.716930 
# 
# 
# High freq. dielectric constant tensor:
#      x y z
#    x 1.825790 0.000000 -0.004020 
#    y 0.000000 1.827670 0.000000 
#    z -0.004020 0.000000 1.808900 
# 
# From -- ./inp_files/225514.got.cif
#   From: 2010.06.25/outbox.cif.g09.slc.cpg/sg15_113_cif.got.tgz:225514.got - 2010.06.28 07:06:18.
