data_PCOD8143674
_publ_section_title
;
Structure prediction by ZEFSAII (Michael W. Deem and Ramdas Pophale) SiO2 
 PCOD8143674
Probable space group: C 2/C
;
_chemical_formula_sum "Si O2"
_cell_formula_units_Z 40
_cell_length_a 10.606937
_cell_length_b 8.658862
_cell_length_c 18.477098
_cell_angle_alpha 90.000000
_cell_angle_beta 103.493583
_cell_angle_gamma 90.000000
_cell_volume 1650.166477
_symmetry_space_group_name_H-M "C 2/C"
_symmetry_group_IT_number 15
_symmetry_cell_setting 'monoclinic'
loop_
_space_group_symop_operation_xyz
x,y,z
-x,y,1/2-z
-x,-y,-z
x,-y,1/2+z
1/2+x,1/2+y,z
1/2-x,1/2+y,1/2-z
1/2-x,1/2-y,-z
1/2+x,1/2-y,1/2+z
loop_
_atom_site_type_symbol
_atom_site_label
_atom_site_fract_x
_atom_site_fract_y
_atom_site_fract_z
Si Si1 0.076735 0.086882 0.926051
Si Si2 0.234660 0.427673 0.442890
Si Si3 0.670222 0.570242 0.176308
Si Si4 0.719686 0.087260 0.669365
Si Si5 0.097966 0.646758 0.057311
O O1 0.187264 0.127629 0.884269
O O2 0.030187 0.251769 0.951587
O O3 0.964655 0.994587 0.870626
O O4 0.134575 0.988874 0.999840
O O5 0.216555 0.528098 0.367367
O O6 0.106610 0.438630 0.478546
O O7 0.269064 0.250953 0.424958
O O8 0.656348 0.752918 0.187402
O O9 0.701288 0.489987 0.255723
O O10 0.608177 0.971521 0.625752
#
# Coordination Sequence:
#
# PCOD8143674 Si02
#       5
#     8   8   8   8   8
#     4  10  21  41  63  85 119 158 193 241 298 346
#     4   9  19  37  62  88 119 156 192 241 296 347
#     4  11  21  39  60  84 120 156 196 242 294 348
#     4  11  24  39  60  87 118 158 198 243 292 349
#     4   9  18  37  61  87 118 151 194 240 289 346
#
# _framework density 24.239977
#
# number of rings (size 3 to 8) (size 9 to 14) (size 15 to 20)
#    0.000    2.000    0.000    5.400    0.000    3.200 
#    0.000   23.000    0.000    0.000    0.000    0.000 
#    0.000    0.000    0.000    0.000    0.000    0.000 
#
# Total GULP energy -248019.944067 kJ/mol
# GULP energy per Si atom -12400.997203 kJ/mol
# Density = 2.418481 g / cm^3
# Si number density = 24.239977 Si / 1000 Ang^3
#
#
#
# Elastic Constant Matrix: (Units=GPa)
#
#
# Indices 1 2 3 4 5 6 
#
# 1 48.8580 4.2249 -0.8999 0.0000 1.0158 0.0000
# 2 4.2249 139.0573 25.8600 0.0000 11.6669 0.0000
# 3 -0.8999 25.8600 81.8245 0.0000 4.5077 0.0000
# 4 0.0000 0.0000 0.0000 40.5610 0.0000 -3.4908
# 5 1.0158 11.6669 4.5077 0.0000 23.8928 0.0000
# 6 0.0000 0.0000 0.0000 -3.4908 0.0000 29.1447
#
#
#
# Elastic Compliance Matrix: (Units=1/GPa)
#
#
# Indices 1 2 3 4 5 6 
#
# 1 0.020546 -0.000658 0.000469 0.000000 -0.000641 0.000000
# 2 -0.000658 0.007929 -0.002326 0.000000 -0.003405 0.000000
# 3 0.000469 -0.002326 0.013035 0.000000 -0.001344 0.000000
# 4 0.000000 0.000000 0.000000 0.024911 0.000000 0.002984
# 5 -0.000641 -0.003405 -0.001344 0.000000 0.043797 0.000000
# 6 0.000000 0.000000 0.000000 0.002984 0.000000 0.034669
#
#
# Mechanical properties :
#
#
# Convention : Reuss Voigt Hill
#
# Bulk Modulus (GPa) = 27.41026 36.45665 31.93345
# Shear Modulus (GPa) = 30.84937 34.75668 32.80303
#
# Velocity S-wave (km/s) = 3.57131 3.79074 3.68266
# Velocity P-wave (km/s) = 5.32336 5.85082 5.59331
#
# Compressibility (1/GPa) = 0.03648269
#
# Stress axis : x y z
#
# Youngs Moduli (GPa) = 48.67055 126.11205 76.71375
#
# Poissons Ratio (x) = 0.08295 -0.03599
# Poissons Ratio (y) = 0.03201 0.17841
# Poissons Ratio (z) = -0.02283 0.29330
#
# Static dielectric constant tensor:
#      x y z
#    x 4.083790 0.000000 -0.396990 
#    y 0.000000 4.606310 0.000000 
#    z -0.396990 0.000000 4.490270 
# 
# 
# High freq. dielectric constant tensor:
#      x y z
#    x 1.945930 0.000000 -0.018810 
#    y 0.000000 1.982760 0.000000 
#    z -0.018810 0.000000 1.961810 
# 
# From -- ./inp_files/195242.got.cif
#   From: 2010.06.25/outbox.cif.g09.slc.cpg/sg15_98_cif.got.tgz:195242.got - 2010.06.28 07:06:18.
