data_PCOD8143421
_publ_section_title
;
Structure prediction by ZEFSAII (Michael W. Deem and Ramdas Pophale) SiO2 
 PCOD8143421
Probable space group: C 2/C
;
_chemical_formula_sum "Si O2"
_cell_formula_units_Z 40
_cell_length_a 14.496563
_cell_length_b 12.364649
_cell_length_c 13.346521
_cell_angle_alpha 90.000000
_cell_angle_beta 142.191391
_cell_angle_gamma 90.000000
_cell_volume 1466.539101
_symmetry_space_group_name_H-M "C 2/C"
_symmetry_group_IT_number 15
_symmetry_cell_setting 'monoclinic'
loop_
_space_group_symop_operation_xyz
x,y,z
-x,y,1/2-z
-x,-y,-z
x,-y,1/2+z
1/2+x,1/2+y,z
1/2-x,1/2+y,1/2-z
1/2-x,1/2-y,-z
1/2+x,1/2-y,1/2+z
loop_
_atom_site_type_symbol
_atom_site_label
_atom_site_fract_x
_atom_site_fract_y
_atom_site_fract_z
Si Si1 0.478211 0.737521 0.547762
Si Si2 0.781998 0.066488 0.048400
Si Si3 0.186641 0.597170 0.313780
Si Si4 0.567001 0.243609 0.913006
Si Si5 0.360639 0.467595 0.313879
O O1 0.327217 0.679245 0.456805
O O2 0.527308 0.840863 0.658044
O O3 0.453270 0.768342 0.408997
O O4 0.630300 0.662915 0.683351
O O5 0.881711 0.130217 0.050879
O O6 0.881375 0.005917 0.216923
O O7 0.701588 0.159472 0.045604
O O8 0.673623 0.980280 0.899779
O O9 0.213659 0.519762 0.239858
O O10 0.500000 0.204935 0.750000
O O11 0.500000 0.500000 0.500000
#
# Coordination Sequence:
#
# PCOD8143421 Si02
#       5
#     8   8   8   8   8
#     4  11  24  43  70 104 144 187 244 295 364 434
#     4  11  24  42  69 104 144 184 241 295 369 429
#     4  11  24  45  71 105 144 193 235 304 362 430
#     4  11  23  40  71 104 136 185 246 302 352 435
#     4  10  21  40  66  99 137 185 233 289 355 424
#
# _framework density 27.275099000000001
#
# number of rings (size 3 to 8) (size 9 to 14) (size 15 to 20)
#    0.000    1.200    4.000    2.400    5.600    0.800 
#    3.600    2.000    0.000    0.000    0.000    0.000 
#    0.000    0.000    0.000    0.000    0.000    0.000 
#
# Total GULP energy -247813.647754 kJ/mol
# GULP energy per Si atom -12390.682388 kJ/mol
# Density = 2.721302 g / cm^3
# Si number density = 27.275099 Si / 1000 Ang^3
#
#
#
# Elastic Constant Matrix: (Units=GPa)
#
#
# Indices 1 2 3 4 5 6 
#
# 1 35.5336 18.2168 10.8066 0.0000 -18.2320 0.0000
# 2 18.2168 102.9550 48.2177 0.0000 -24.1565 0.0000
# 3 10.8066 48.2177 100.7939 0.0000 -42.1503 0.0000
# 4 0.0000 0.0000 0.0000 54.1996 0.0000 0.3123
# 5 -18.2320 -24.1565 -42.1503 0.0000 39.1802 0.0000
# 6 0.0000 0.0000 0.0000 0.3123 0.0000 28.0017
#
#
#
# Elastic Compliance Matrix: (Units=1/GPa)
#
#
# Indices 1 2 3 4 5 6 
#
# 1 0.041227 -0.005473 0.008743 0.000000 0.025216 0.000000
# 2 -0.005473 0.013361 -0.006226 0.000000 -0.001007 0.000000
# 3 0.008743 -0.006226 0.021920 0.000000 0.023811 0.000000
# 4 0.000000 0.000000 0.000000 0.018451 0.000000 -0.000206
# 5 0.025216 -0.001007 0.023811 0.000000 0.062252 0.000000
# 6 0.000000 0.000000 0.000000 -0.000206 0.000000 0.035714
#
#
# Mechanical properties :
#
#
# Convention : Reuss Voigt Hill
#
# Bulk Modulus (GPa) = 14.16515 43.75164 28.95839
# Shear Modulus (GPa) = 22.48508 35.07907 28.78208
#
# Velocity S-wave (km/s) = 2.87432 3.59014 3.25199
# Velocity P-wave (km/s) = 4.02745 5.76725 4.97401
#
# Compressibility (1/GPa) = 0.07059580
#
# Stress axis : x y z
#
# Youngs Moduli (GPa) = 24.25576 74.84523 45.62137
#
# Poissons Ratio (x) = 0.40962 -0.39886
# Poissons Ratio (y) = 0.13275 0.28403
# Poissons Ratio (z) = -0.21206 0.46598
#
# Static dielectric constant tensor:
#      x y z
#    x 4.658480 0.000000 -0.206360 
#    y 0.000000 6.672130 0.000000 
#    z -0.206360 0.000000 4.654580 
# 
# 
# High freq. dielectric constant tensor:
#      x y z
#    x 2.068930 0.000000 -0.022180 
#    y 0.000000 2.111330 0.000000 
#    z -0.022180 0.000000 2.090560 
# 
# From -- ./inp_files/161149.got.cif
#   From: 2010.06.25/outbox.cif.g09.slc.cpg/sg15_81_cif.got.tgz:161149.got - 2010.06.28 07:06:18.
