data_PCOD8143845
_publ_section_title
;
Structure prediction by ZEFSAII (Michael W. Deem and Ramdas Pophale) SiO2 
 PCOD8143845
Probable space group: C 2/C
;
_chemical_formula_sum "Si O2"
_cell_formula_units_Z 40
_cell_length_a 7.289967
_cell_length_b 28.139047
_cell_length_c 8.027540
_cell_angle_alpha 90.000000
_cell_angle_beta 78.058508
_cell_angle_gamma 90.000000
_cell_volume 1611.075332
_symmetry_space_group_name_H-M "C 2/C"
_symmetry_group_IT_number 15
_symmetry_cell_setting 'monoclinic'
loop_
_space_group_symop_operation_xyz
x,y,z
-x,y,1/2-z
-x,-y,-z
x,-y,1/2+z
1/2+x,1/2+y,z
1/2-x,1/2+y,1/2-z
1/2-x,1/2-y,-z
1/2+x,1/2-y,1/2+z
loop_
_atom_site_type_symbol
_atom_site_label
_atom_site_fract_x
_atom_site_fract_y
_atom_site_fract_z
Si Si1 0.286578 0.943462 0.734618
Si Si2 0.286575 0.641293 0.779859
Si Si3 0.194864 0.845036 0.867490
Si Si4 0.209943 0.542685 0.654866
Si Si5 0.721474 0.305136 0.531753
O O1 0.500000 0.934860 0.750000
O O2 0.161094 0.900510 0.830055
O O3 0.273643 0.942679 0.538432
O O4 0.192364 0.991818 0.825345
O O5 0.500000 0.658601 0.750000
O O6 0.285831 0.584561 0.757971
O O7 0.183625 0.666984 0.642879
O O8 0.194857 0.657208 0.974908
O O9 0.312089 0.820719 0.693350
O O10 0.996657 0.818764 0.920481
O O11 0.000000 0.532436 0.750000
O O12 0.750000 0.250000 0.500000
#
# Coordination Sequence:
#
# PCOD8143845 Si02
#       5
#     8   8   8   8   8
#     4  11  21  38  64  99 135 181 222 269 330 396
#     4  10  21  41  65  97 132 171 218 275 328 393
#     4  10  21  42  66  93 132 167 221 275 330 399
#     4  11  21  38  63  98 141 179 224 267 324 403
#     4  10  22  43  66  90 128 171 219 279 337 394
#
# _framework density 24.828135
#
# number of rings (size 3 to 8) (size 9 to 14) (size 15 to 20)
#    0.000    1.600    2.000    4.800    0.000    0.800 
#    7.200    6.000    0.000    0.000    0.000    0.000 
#    0.000    0.000    0.000    0.000    0.000    0.000 
#
# Total GULP energy -247848.792163 kJ/mol
# GULP energy per Si atom -12392.439608 kJ/mol
# Density = 2.477163 g / cm^3
# Si number density = 24.828135 Si / 1000 Ang^3
#
#
#
# Elastic Constant Matrix: (Units=GPa)
#
#
# Indices 1 2 3 4 5 6 
#
# 1 26.6286 13.2271 21.0833 0.0000 6.5074 0.0000
# 2 13.2271 218.5142 97.1639 0.0000 7.0763 0.0000
# 3 21.0833 97.1639 250.9782 0.0000 38.9345 0.0000
# 4 0.0000 0.0000 0.0000 42.4917 0.0000 -7.6561
# 5 6.5074 7.0763 38.9345 0.0000 28.1548 0.0000
# 6 0.0000 0.0000 0.0000 -7.6561 0.0000 32.2180
#
#
#
# Elastic Compliance Matrix: (Units=1/GPa)
#
#
# Indices 1 2 3 4 5 6 
#
# 1 0.041381 -0.001450 -0.001894 0.000000 -0.006581 0.000000
# 2 -0.001450 0.005669 -0.002424 0.000000 0.002262 0.000000
# 3 -0.001894 -0.002424 0.006263 0.000000 -0.007614 0.000000
# 4 0.000000 0.000000 0.000000 0.024587 0.000000 0.005843
# 5 -0.006581 0.002262 -0.007614 0.000000 0.047000 0.000000
# 6 0.000000 0.000000 0.000000 0.005843 0.000000 0.032427
#
#
# Mechanical properties :
#
#
# Convention : Reuss Voigt Hill
#
# Bulk Modulus (GPa) = 23.93589 84.34107 54.13848
# Shear Modulus (GPa) = 27.35423 44.88269 36.11846
#
# Velocity S-wave (km/s) = 3.32285 4.25636 3.81824
# Velocity P-wave (km/s) = 4.93795 7.62884 6.42583
#
# Compressibility (1/GPa) = 0.04177826
#
# Stress axis : x y z
#
# Youngs Moduli (GPa) = 24.16541 176.41196 159.66832
#
# Poissons Ratio (x) = 0.25572 0.30244
# Poissons Ratio (y) = 0.03503 0.38698
# Poissons Ratio (z) = 0.04577 0.42756
#
# Static dielectric constant tensor:
#      x y z
#    x 3.921350 0.000000 0.294900 
#    y 0.000000 4.515680 0.000000 
#    z 0.294900 0.000000 5.734110 
# 
# 
# High freq. dielectric constant tensor:
#      x y z
#    x 1.947520 0.000000 0.012100 
#    y 0.000000 1.985660 0.000000 
#    z 0.012100 0.000000 2.024240 
# 
# From -- ./inp_files/24404.got.cif
#   From: 2010.06.25/outbox.cif.g09.slc.cpg/sg15_13_cif.got.tgz:24404.got - 2010.06.28 07:06:18.
