data_PCOD8143997
_publ_section_title
;
Structure prediction by ZEFSAII (Michael W. Deem and Ramdas Pophale) SiO2 
 PCOD8143997
Probable space group: C 2/C
;
_chemical_formula_sum "Si O2"
_cell_formula_units_Z 52
_cell_length_a 13.473031
_cell_length_b 11.636256
_cell_length_c 16.804501
_cell_angle_alpha 90.000000
_cell_angle_beta 117.209491
_cell_angle_gamma 90.000000
_cell_volume 2343.000263
_symmetry_space_group_name_H-M "C 2/C"
_symmetry_group_IT_number 15
_symmetry_cell_setting 'monoclinic'
loop_
_space_group_symop_operation_xyz
x,y,z
-x,y,1/2-z
-x,-y,-z
x,-y,1/2+z
1/2+x,1/2+y,z
1/2-x,1/2+y,1/2-z
1/2-x,1/2-y,-z
1/2+x,1/2-y,1/2+z
loop_
_atom_site_type_symbol
_atom_site_label
_atom_site_fract_x
_atom_site_fract_y
_atom_site_fract_z
Si Si1 0.379944 0.451529 0.730442
Si Si2 0.218875 0.362152 0.540329
Si Si3 0.506693 0.772650 0.534043
Si Si4 0.000000 0.601395 0.250000
Si Si5 0.140424 0.800596 0.227202
Si Si6 0.664980 0.921406 0.929011
Si Si7 0.170099 0.824722 0.637467
O O1 0.500000 0.402951 0.750000
O O2 0.296072 0.380216 0.644864
O O3 0.381185 0.590243 0.723571
O O4 0.348707 0.432886 0.811456
O O5 0.250000 0.250000 0.500000
O O6 0.092121 0.361434 0.525049
O O7 0.233253 0.477050 0.494243
O O8 0.583457 0.687917 0.618366
O O9 0.402374 0.835992 0.537643
O O10 0.452563 0.704379 0.440722
O O11 0.912493 0.682900 0.261421
O O12 0.929861 0.522583 0.163665
O O13 0.273899 0.775804 0.285946
O O14 0.753816 0.849113 0.911480
#
# Coordination Sequence:
#
# PCOD8143997 Si02
#       7
#     8   8   8   4   8   8   8
#     4  12  26  44  68  96 139 181 220 283 353 401
#     4  12  27  47  63 101 142 183 226 280 346 415
#     4  11  23  45  70  98 139 176 225 283 338 408
#     4   8  18  42  66  98 126 170 224 282 316 398
#     4  10  21  41  68  99 130 169 229 278 329 403
#     4  10  23  42  73  98 131 177 230 278 338 402
#     4  11  24  43  69 102 130 176 231 278 339 405
#
# _framework density 22.193767000000001
#
# number of rings (size 3 to 8) (size 9 to 14) (size 15 to 20)
#    0.000    1.231    2.308    2.769    4.308    0.615 
#    4.154    0.000    0.000    0.000    0.000    0.000 
#    0.000    0.000    0.000    0.000    0.000    0.000 
#
# Total GULP energy -322104.894034 kJ/mol
# GULP energy per Si atom -12388.649771 kJ/mol
# Density = 2.214325 g / cm^3
# Si number density = 22.193767 Si / 1000 Ang^3
#
#
#
# Elastic Constant Matrix: (Units=GPa)
#
#
# Indices 1 2 3 4 5 6 
#
# 1 109.2522 28.2830 34.8428 0.0000 3.7072 0.0000
# 2 28.2830 75.5504 46.6569 0.0000 2.6920 0.0000
# 3 34.8428 46.6569 157.7783 0.0000 21.2755 0.0000
# 4 0.0000 0.0000 0.0000 35.6523 0.0000 2.7398
# 5 3.7072 2.6920 21.2755 0.0000 36.9028 0.0000
# 6 0.0000 0.0000 0.0000 2.7398 0.0000 14.3917
#
#
#
# Elastic Compliance Matrix: (Units=1/GPa)
#
#
# Indices 1 2 3 4 5 6 
#
# 1 0.010382 -0.003024 -0.001396 0.000000 -0.000017 0.000000
# 2 -0.003024 0.017175 -0.004644 0.000000 0.001728 0.000000
# 3 -0.001396 -0.004644 0.008626 0.000000 -0.004494 0.000000
# 4 0.000000 0.000000 0.000000 0.028465 0.000000 -0.005419
# 5 -0.000017 0.001728 -0.004494 0.000000 0.029565 0.000000
# 6 0.000000 0.000000 0.000000 -0.005419 0.000000 0.070516
#
#
# Mechanical properties :
#
#
# Convention : Reuss Voigt Hill
#
# Bulk Modulus (GPa) = 55.38894 62.46070 58.92482
# Shear Modulus (GPa) = 26.47276 32.90926 29.69101
#
# Velocity S-wave (km/s) = 3.45744 3.85491 3.66157
# Velocity P-wave (km/s) = 6.39920 6.92952 6.66963
#
# Compressibility (1/GPa) = 0.01805414
#
# Stress axis : x y z
#
# Youngs Moduli (GPa) = 96.32292 58.22585 115.93413
#
# Poissons Ratio (x) = 0.17606 0.16186
# Poissons Ratio (y) = 0.29125 0.53840
# Poissons Ratio (z) = 0.13448 0.27040
#
# Static dielectric constant tensor:
#      x y z
#    x 3.991340 0.000000 0.191220 
#    y 0.000000 3.517730 0.000000 
#    z 0.191220 0.000000 4.656990 
# 
# 
# High freq. dielectric constant tensor:
#      x y z
#    x 1.875570 0.000000 0.011220 
#    y 0.000000 1.839940 0.000000 
#    z 0.011220 0.000000 1.898840 
# 
# From -- ./inp_files/204193.got.cif
#   From: 2010.06.25/outbox.cif.g09.slc.cpg/sg15_103_cif.got.tgz:204193.got - 2010.06.28 07:06:18.
