data_PCOD8143253
_publ_section_title
;
Structure prediction by ZEFSAII (Michael W. Deem and Ramdas Pophale) SiO2 
 PCOD8143253
Probable space group: C 2/C
;
_chemical_formula_sum "Si O2"
_cell_formula_units_Z 44
_cell_length_a 15.286697
_cell_length_b 7.462461
_cell_length_c 21.764929
_cell_angle_alpha 90.000000
_cell_angle_beta 57.815006
_cell_angle_gamma 90.000000
_cell_volume 2101.329259
_symmetry_space_group_name_H-M "C 2/C"
_symmetry_group_IT_number 15
_symmetry_cell_setting 'monoclinic'
loop_
_space_group_symop_operation_xyz
x,y,z
-x,y,1/2-z
-x,-y,-z
x,-y,1/2+z
1/2+x,1/2+y,z
1/2-x,1/2+y,1/2-z
1/2-x,1/2-y,-z
1/2+x,1/2-y,1/2+z
loop_
_atom_site_type_symbol
_atom_site_label
_atom_site_fract_x
_atom_site_fract_y
_atom_site_fract_z
Si Si1 0.808459 0.857521 0.890354
Si Si2 0.500000 0.537471 0.250000
Si Si3 0.066194 0.835837 0.925319
Si Si4 0.678933 0.008935 0.831284
Si Si5 0.158175 0.062163 0.985924
Si Si6 0.873985 0.129426 0.692174
O O1 0.756630 0.662881 0.919122
O O2 0.738585 0.976186 0.872205
O O3 0.820082 0.965257 0.950014
O O4 0.921237 0.833428 0.816756
O O5 0.559357 0.402205 0.272274
O O6 0.095801 0.661783 0.876031
O O7 0.136549 0.870728 0.960315
O O8 0.081081 0.013611 0.879621
O O9 0.944795 0.816321 0.986169
O O10 0.754597 0.078208 0.749278
O O11 0.618178 0.836230 0.829881
#
# Coordination Sequence:
#
# PCOD8143253 Si02
#       6
#     8   4   8   8   8   8
#     4  10  21  40  64  94 127 171 208 265 313 379
#     4  10  22  40  68  86 132 168 216 268 320 374
#     4  11  22  41  65  93 129 174 202 266 315 387
#     4  11  23  39  68  91 127 165 218 262 319 370
#     4  10  22  41  64  95 134 165 212 257 327 376
#     4  11  21  42  61  96 122 167 213 267 313 381
#
# _framework density 20.939126999999999
#
# number of rings (size 3 to 8) (size 9 to 14) (size 15 to 20)
#    0.000    1.455    5.455    0.000    0.000    1.455 
#    0.000   10.000    0.000    0.000    0.000    0.000 
#    0.000    0.000    0.000    0.000    0.000    0.000 
#
# Total GULP energy -272786.746030 kJ/mol
# GULP energy per Si atom -12399.397547 kJ/mol
# Density = 2.089147 g / cm^3
# Si number density = 20.939127 Si / 1000 Ang^3
#
#
#
# Elastic Constant Matrix: (Units=GPa)
#
#
# Indices 1 2 3 4 5 6 
#
# 1 89.2767 35.9816 45.6209 0.0001 -2.8384 0.0003
# 2 35.9816 109.1084 53.7116 0.0002 -15.7981 0.0010
# 3 45.6209 53.7116 118.2754 0.0000 -11.9881 0.0001
# 4 0.0001 0.0002 0.0000 35.1607 0.0000 4.2089
# 5 -2.8384 -15.7981 -11.9881 0.0000 37.8776 0.0001
# 6 0.0003 0.0010 0.0001 4.2089 0.0001 22.9945
#
#
#
# Elastic Compliance Matrix: (Units=1/GPa)
#
#
# Indices 1 2 3 4 5 6 
#
# 1 0.014587 -0.002812 -0.004502 0.000000 -0.001505 0.000000
# 2 -0.002812 0.012768 -0.004334 0.000000 0.003743 0.000000
# 3 -0.004502 -0.004334 0.012338 0.000000 0.001760 0.000000
# 4 0.000000 0.000000 0.000000 0.029078 0.000000 -0.005322
# 5 -0.001505 0.003743 0.001760 0.000000 0.028406 0.000000
# 6 0.000000 0.000000 0.000000 -0.005322 0.000000 0.044463
#
#
# Mechanical properties :
#
#
# Convention : Reuss Voigt Hill
#
# Bulk Modulus (GPa) = 60.98834 65.25427 63.12131
# Shear Modulus (GPa) = 29.34224 31.29632 30.31928
#
# Velocity S-wave (km/s) = 3.74747 3.87024 3.80935
# Velocity P-wave (km/s) = 6.92203 7.15564 7.03980
#
# Compressibility (1/GPa) = 0.01639658
#
# Stress axis : x y z
#
# Youngs Moduli (GPa) = 68.55303 78.31956 81.05053
#
# Poissons Ratio (x) = 0.22025 0.36489
# Poissons Ratio (y) = 0.19279 0.35129
# Poissons Ratio (z) = 0.30862 0.33946
#
# Static dielectric constant tensor:
#      x y z
#    x 3.955200 0.000000 0.050040 
#    y 0.000000 3.403700 0.000000 
#    z 0.050040 0.000000 4.151590 
# 
# 
# High freq. dielectric constant tensor:
#      x y z
#    x 1.823150 0.000000 0.005430 
#    y 0.000000 1.783640 0.000000 
#    z 0.005430 0.000000 1.844980 
# 
# From -- ./inp_files/272931.got.cif
#   From: 2010.06.25/outbox.cif.g09.slc.cpg/sg15_137_cif.got.tgz:272931.got - 2010.06.28 07:06:18.
