data_PCOD8143194
_publ_section_title
;
Structure prediction by ZEFSAII (Michael W. Deem and Ramdas Pophale) SiO2 
 PCOD8143194
Probable space group: C 2/C
;
_chemical_formula_sum "Si O2"
_cell_formula_units_Z 60
_cell_length_a 25.582296
_cell_length_b 22.213492
_cell_length_c 9.232006
_cell_angle_alpha 90.000000
_cell_angle_beta 32.583163
_cell_angle_gamma 90.000000
_cell_volume 2825.249778
_symmetry_space_group_name_H-M "C 2/C"
_symmetry_group_IT_number 15
_symmetry_cell_setting 'monoclinic'
loop_
_space_group_symop_operation_xyz
x,y,z
-x,y,1/2-z
-x,-y,-z
x,-y,1/2+z
1/2+x,1/2+y,z
1/2-x,1/2+y,1/2-z
1/2-x,1/2-y,-z
1/2+x,1/2-y,1/2+z
loop_
_atom_site_type_symbol
_atom_site_label
_atom_site_fract_x
_atom_site_fract_y
_atom_site_fract_z
Si Si1 0.750712 0.934550 0.292439
Si Si2 0.288647 0.408993 0.517572
Si Si3 0.650599 0.275360 0.179412
Si Si4 0.074084 0.001595 0.201468
Si Si5 0.105011 0.457698 0.081668
Si Si6 0.369010 0.826758 0.988643
Si Si7 0.446850 0.142868 0.604476
Si Si8 0.500000 0.222726 0.750000
O O1 0.787903 0.945492 0.368526
O O2 0.727790 0.864028 0.322453
O O3 0.658815 0.978148 0.472314
O O4 0.844094 0.946547 0.973206
O O5 0.335519 0.344114 0.391123
O O6 0.361267 0.440851 0.461763
O O7 0.176410 0.410587 0.831609
O O8 0.572879 0.265391 0.489619
O O9 0.750000 0.250000 0.000000
O O10 0.625937 0.240696 0.086623
O O11 0.000000 0.013550 0.250000
O O12 0.000000 0.000000 0.500000
O O13 0.087879 0.425300 0.277628
O O14 0.000000 0.465231 0.250000
O O15 0.380101 0.825274 0.137267
O O16 0.449193 0.864599 0.713026
O O17 0.446389 0.180969 0.755414
#
# Coordination Sequence:
#
# PCOD8143194 Si02
#       8
#     8   8   8   8   8   8   8   4
#     4  11  24  39  65  99 129 171 220 261 341 391
#     4  11  24  43  67  97 129 175 222 270 335 399
#     4  11  22  43  67  91 131 170 219 275 328 391
#     4  11  24  45  68  90 128 170 220 283 325 380
#     4  11  24  38  66  96 138 173 215 267 329 407
#     4  10  23  40  64  95 136 167 215 272 319 396
#     4  10  21  40  63  95 133 176 212 260 330 392
#     4  10  22  42  66  92 126 178 222 268 326 390
#
# _framework density 21.23706
#
# number of rings (size 3 to 8) (size 9 to 14) (size 15 to 20)
#    0.000    1.333    3.333    1.600    5.600    2.133 
#    4.800    2.667    0.000    0.000    0.000    0.000 
#    0.000    0.000    0.000    0.000    0.000    0.000 
#
# Total GULP energy -371644.652528 kJ/mol
# GULP energy per Si atom -12388.155084 kJ/mol
# Density = 2.118872 g / cm^3
# Si number density = 21.237060 Si / 1000 Ang^3
#
#
#
# Elastic Constant Matrix: (Units=GPa)
#
#
# Indices 1 2 3 4 5 6 
#
# 1 86.8512 25.5715 36.0906 0.0000 -0.6117 0.0000
# 2 25.5715 91.8146 49.8444 0.0000 -6.9327 0.0000
# 3 36.0906 49.8444 123.6921 0.0000 -14.7026 0.0000
# 4 0.0000 0.0000 0.0000 34.1638 0.0000 1.2983
# 5 -0.6117 -6.9327 -14.7026 0.0000 40.1958 0.0000
# 6 0.0000 0.0000 0.0000 1.2983 0.0000 22.1854
#
#
#
# Elastic Compliance Matrix: (Units=1/GPa)
#
#
# Indices 1 2 3 4 5 6 
#
# 1 0.013469 -0.002090 -0.003248 0.000000 -0.001343 0.000000
# 2 -0.002090 0.014271 -0.005073 0.000000 0.000574 0.000000
# 3 -0.003248 -0.005073 0.011465 0.000000 0.003269 0.000000
# 4 0.000000 0.000000 0.000000 0.029336 0.000000 -0.001717
# 5 -0.001343 0.000574 0.003269 0.000000 0.026153 0.000000
# 6 0.000000 0.000000 0.000000 -0.001717 0.000000 0.045175
#
#
# Mechanical properties :
#
#
# Convention : Reuss Voigt Hill
#
# Bulk Modulus (GPa) = 54.39266 58.37453 56.38360
# Shear Modulus (GPa) = 29.97294 32.03244 31.00269
#
# Velocity S-wave (km/s) = 3.76087 3.88793 3.82493
# Velocity P-wave (km/s) = 6.67283 6.90662 6.79073
#
# Compressibility (1/GPa) = 0.01838483
#
# Stress axis : x y z
#
# Youngs Moduli (GPa) = 74.24299 70.07328 87.22252
#
# Poissons Ratio (x) = 0.14643 0.28326
# Poissons Ratio (y) = 0.15515 0.44246
# Poissons Ratio (z) = 0.24111 0.35546
#
# Static dielectric constant tensor:
#      x y z
#    x 4.428410 0.000000 -0.205310 
#    y 0.000000 3.221510 0.000000 
#    z -0.205310 0.000000 3.869170 
# 
# 
# High freq. dielectric constant tensor:
#      x y z
#    x 1.835740 0.000000 -0.001610 
#    y 0.000000 1.818720 0.000000 
#    z -0.001610 0.000000 1.843840 
# 
# From -- ./inp_files/42180.got.cif
#   From: 2010.06.25/outbox.cif.g09.slc.cpg/sg15_22_cif.got.tgz:42180.got - 2010.06.28 07:06:18.
