data_PCOD8143022
_publ_section_title
;
Structure prediction by ZEFSAII (Michael W. Deem and Ramdas Pophale) SiO2 
 PCOD8143022
Probable space group: C 2/C
;
_chemical_formula_sum "Si O2"
_cell_formula_units_Z 40
_cell_length_a 16.340868
_cell_length_b 22.311214
_cell_length_c 8.734640
_cell_angle_alpha 90.000000
_cell_angle_beta 148.462875
_cell_angle_gamma 90.000000
_cell_volume 1665.663654
_symmetry_space_group_name_H-M "C 2/C"
_symmetry_group_IT_number 15
_symmetry_cell_setting 'monoclinic'
loop_
_space_group_symop_operation_xyz
x,y,z
-x,y,1/2-z
-x,-y,-z
x,-y,1/2+z
1/2+x,1/2+y,z
1/2-x,1/2+y,1/2-z
1/2-x,1/2-y,-z
1/2+x,1/2-y,1/2+z
loop_
_atom_site_type_symbol
_atom_site_label
_atom_site_fract_x
_atom_site_fract_y
_atom_site_fract_z
Si Si1 0.000000 0.531432 0.250000
Si Si2 0.609094 0.683414 0.713667
Si Si3 0.126184 0.569924 0.747839
Si Si4 0.290705 0.726237 0.314784
Si Si5 0.500000 0.838158 0.250000
Si Si6 0.533107 0.436636 0.629583
O O1 0.120844 0.568976 0.551879
O O2 0.094878 0.494849 0.274008
O O3 0.453703 0.727026 0.478188
O O4 0.732230 0.708914 0.784384
O O5 0.570439 0.615292 0.610961
O O6 0.689162 0.682129 0.007597
O O7 0.999884 0.619208 0.599921
O O8 0.289926 0.587887 0.087302
O O9 0.154117 0.702215 0.988891
O O10 0.500000 0.449680 0.750000
O O11 0.500000 0.500000 0.500000
#
# Coordination Sequence:
#
# PCOD8143022 Si02
#       6
#     4   8   8   8   4   8
#     4   9  20  38  64  86 142 176 243 274 344 434
#     4  10  24  47  71 106 144 189 249 294 377 427
#     4  10  21  40  60 100 130 189 226 293 348 422
#     4  10  23  44  74 103 142 189 237 314 358 437
#     4  11  22  38  72  96 134 176 227 296 370 408
#     4  12  27  42  69 105 145 191 237 295 364 442
#
# _framework density 24.014451999999999
#
# number of rings (size 3 to 8) (size 9 to 14) (size 15 to 20)
#    0.000    1.600    2.000    1.200    4.200    8.800 
#    0.000    2.000    0.000    2.400    0.000    0.000 
#    0.000    0.000    0.000    0.000    0.000    0.000 
#
# Total GULP energy -247831.533987 kJ/mol
# GULP energy per Si atom -12391.576699 kJ/mol
# Density = 2.395979 g / cm^3
# Si number density = 24.014452 Si / 1000 Ang^3
#
#
#
# Elastic Constant Matrix: (Units=GPa)
#
#
# Indices 1 2 3 4 5 6 
#
# 1 78.1465 21.1936 9.1512 0.0000 -4.8870 0.0000
# 2 21.1936 118.4069 37.5807 0.0000 -8.3507 0.0000
# 3 9.1512 37.5807 119.2762 0.0000 -10.9706 0.0000
# 4 0.0000 0.0000 0.0000 54.0754 0.0000 2.0419
# 5 -4.8870 -8.3507 -10.9706 0.0000 45.3086 0.0000
# 6 0.0000 0.0000 0.0000 2.0419 0.0000 21.4728
#
#
#
# Elastic Compliance Matrix: (Units=1/GPa)
#
#
# Indices 1 2 3 4 5 6 
#
# 1 0.013502 -0.002275 -0.000229 0.000000 0.000982 0.000000
# 2 -0.002275 0.009815 -0.002837 0.000000 0.000877 0.000000
# 3 -0.000229 -0.002837 0.009456 0.000000 0.001742 0.000000
# 4 0.000000 0.000000 0.000000 0.018559 0.000000 -0.001765
# 5 0.000982 0.000877 0.001742 0.000000 0.022760 0.000000
# 6 0.000000 0.000000 0.000000 -0.001765 0.000000 0.046738
#
#
# Mechanical properties :
#
#
# Convention : Reuss Voigt Hill
#
# Bulk Modulus (GPa) = 45.26868 50.18673 47.72770
# Shear Modulus (GPa) = 36.00354 40.69831 38.35092
#
# Velocity S-wave (km/s) = 3.87621 4.12119 4.00058
# Velocity P-wave (km/s) = 6.23898 6.60224 6.42318
#
# Compressibility (1/GPa) = 0.02209033
#
# Stress axis : x y z
#
# Youngs Moduli (GPa) = 74.06536 101.88546 105.75715
#
# Poissons Ratio (x) = 0.23177 0.02420
# Poissons Ratio (y) = 0.16848 0.30006
# Poissons Ratio (z) = 0.01695 0.28908
#
# Static dielectric constant tensor:
#      x y z
#    x 4.315690 0.000000 0.080670 
#    y 0.000000 3.947580 0.000000 
#    z 0.080670 0.000000 4.301490 
# 
# 
# High freq. dielectric constant tensor:
#      x y z
#    x 1.950810 0.000000 -0.000340 
#    y 0.000000 1.935790 0.000000 
#    z -0.000340 0.000000 1.964740 
# 
# From -- ./inp_files/51712.got.cif
#   From: 2010.06.25/outbox.cif.g09.slc.cpg/sg15_26_cif.got.tgz:51712.got - 2010.06.28 07:06:18.
