data_PCOD8143349
_publ_section_title
;
Structure prediction by ZEFSAII (Michael W. Deem and Ramdas Pophale) SiO2 
 PCOD8143349
Probable space group: C 2/C
;
_chemical_formula_sum "Si O2"
_cell_formula_units_Z 52
_cell_length_a 12.631203
_cell_length_b 12.328680
_cell_length_c 18.490463
_cell_angle_alpha 90.000000
_cell_angle_beta 119.192522
_cell_angle_gamma 90.000000
_cell_volume 2513.716133
_symmetry_space_group_name_H-M "C 2/C"
_symmetry_group_IT_number 15
_symmetry_cell_setting 'monoclinic'
loop_
_space_group_symop_operation_xyz
x,y,z
-x,y,1/2-z
-x,-y,-z
x,-y,1/2+z
1/2+x,1/2+y,z
1/2-x,1/2+y,1/2-z
1/2-x,1/2-y,-z
1/2+x,1/2-y,1/2+z
loop_
_atom_site_type_symbol
_atom_site_label
_atom_site_fract_x
_atom_site_fract_y
_atom_site_fract_z
Si Si1 0.180659 0.545883 0.439883
Si Si2 0.565766 0.779591 0.999833
Si Si3 0.878272 0.693101 0.554421
Si Si4 0.500000 0.703014 0.750000
Si Si5 0.428914 0.425953 0.088894
Si Si6 0.534790 0.632398 0.180390
Si Si7 0.255709 0.814409 0.667792
O O1 0.090158 0.637995 0.441748
O O2 0.124660 0.427126 0.413623
O O3 0.290806 0.537790 0.532644
O O4 0.219858 0.579045 0.372354
O O5 0.446179 0.819010 0.000642
O O6 0.682374 0.771355 0.092255
O O7 0.533594 0.659001 0.960531
O O8 0.750000 0.750000 0.500000
O O9 0.955096 0.762870 0.636405
O O10 0.556815 0.629210 0.829731
O O11 0.385524 0.772913 0.740325
O O12 0.507957 0.535542 0.114474
O O13 0.500000 0.596727 0.250000
O O14 0.676760 0.658492 0.213413
#
# Coordination Sequence:
#
# PCOD8143349 Si02
#       7
#     8   8   8   4   8   8   8
#     4  11  20  43  64  96 126 160 213 267 308 366
#     4  10  21  40  65  97 123 161 211 268 304 368
#     4  11  24  38  64  94 132 169 207 251 325 380
#     4  12  20  42  62 100 116 168 214 262 312 370
#     4  11  21  38  71  88 122 162 219 257 305 374
#     4  11  25  45  58  93 134 169 203 261 319 381
#     4  10  23  40  66  90 126 162 215 259 311 371
#
# _framework density 20.686502999999998
#
# number of rings (size 3 to 8) (size 9 to 14) (size 15 to 20)
#    0.000    1.231    5.385    1.385    2.154    3.077 
#    1.385    1.538    0.000    0.000    0.000    0.000 
#    0.000    0.000    0.000    0.000    0.000    0.000 
#
# Total GULP energy -322327.203532 kJ/mol
# GULP energy per Si atom -12397.200136 kJ/mol
# Density = 2.063942 g / cm^3
# Si number density = 20.686503 Si / 1000 Ang^3
#
#
#
# Elastic Constant Matrix: (Units=GPa)
#
#
# Indices 1 2 3 4 5 6 
#
# 1 140.1371 44.4188 28.3462 0.0000 5.7552 0.0000
# 2 44.4188 134.3497 19.1273 0.0000 7.4378 0.0000
# 3 28.3462 19.1273 58.8726 0.0000 5.8318 0.0000
# 4 0.0000 0.0000 0.0000 21.8972 0.0000 -1.4081
# 5 5.7552 7.4378 5.8318 0.0000 33.9556 0.0000
# 6 0.0000 0.0000 0.0000 -1.4081 0.0000 23.6613
#
#
#
# Elastic Compliance Matrix: (Units=1/GPa)
#
#
# Indices 1 2 3 4 5 6 
#
# 1 0.008565 -0.002338 -0.003328 0.000000 -0.000368 0.000000
# 2 -0.002338 0.008499 -0.001516 0.000000 -0.001205 0.000000
# 3 -0.003328 -0.001516 0.019321 0.000000 -0.002422 0.000000
# 4 0.000000 0.000000 0.000000 0.045843 0.000000 0.002728
# 5 -0.000368 -0.001205 -0.002422 0.000000 0.030193 0.000000
# 6 0.000000 0.000000 0.000000 0.002728 0.000000 0.042425
#
#
# Mechanical properties :
#
#
# Convention : Reuss Voigt Hill
#
# Bulk Modulus (GPa) = 45.41172 57.46046 51.43609
# Shear Modulus (GPa) = 28.32055 32.00060 30.16058
#
# Velocity S-wave (km/s) = 3.70406 3.93737 3.82250
# Velocity P-wave (km/s) = 6.34771 6.96474 6.66337
#
# Compressibility (1/GPa) = 0.02202075
#
# Stress axis : x y z
#
# Youngs Moduli (GPa) = 116.75272 117.66495 51.75772
#
# Poissons Ratio (x) = 0.27506 0.17225
# Poissons Ratio (y) = 0.27292 0.07848
# Poissons Ratio (z) = 0.38856 0.17841
#
# Static dielectric constant tensor:
#      x y z
#    x 3.822920 0.000000 0.148640 
#    y 0.000000 3.858100 0.000000 
#    z 0.148640 0.000000 3.744310 
# 
# 
# High freq. dielectric constant tensor:
#      x y z
#    x 1.812830 0.000000 0.003410 
#    y 0.000000 1.815030 0.000000 
#    z 0.003410 0.000000 1.791330 
# 
# From -- ./inp_files/237676.got.cif
#   From: 2010.06.25/outbox.cif.g09.slc.cpg/sg15_119_cif.got.tgz:237676.got - 2010.06.28 07:06:18.
