data_PCOD8143272
_publ_section_title
;
Structure prediction by ZEFSAII (Michael W. Deem and Ramdas Pophale) SiO2 
 PCOD8143272
Probable space group: C 2/C
;
_chemical_formula_sum "Si O2"
_cell_formula_units_Z 40
_cell_length_a 16.830984
_cell_length_b 17.193601
_cell_length_c 5.608576
_cell_angle_alpha 90.000000
_cell_angle_beta 96.286915
_cell_angle_gamma 90.000000
_cell_volume 1613.278046
_symmetry_space_group_name_H-M "C 2/C"
_symmetry_group_IT_number 15
_symmetry_cell_setting 'monoclinic'
loop_
_space_group_symop_operation_xyz
x,y,z
-x,y,1/2-z
-x,-y,-z
x,-y,1/2+z
1/2+x,1/2+y,z
1/2-x,1/2+y,1/2-z
1/2-x,1/2-y,-z
1/2+x,1/2-y,1/2+z
loop_
_atom_site_type_symbol
_atom_site_label
_atom_site_fract_x
_atom_site_fract_y
_atom_site_fract_z
Si Si1 0.378933 0.838996 0.851059
Si Si2 0.592242 0.519087 0.905255
Si Si3 0.500000 0.777386 0.250000
Si Si4 0.764934 0.538039 0.452435
Si Si5 0.914578 0.192238 0.599724
Si Si6 0.500000 0.046719 0.250000
O O1 0.297936 0.873309 0.941235
O O2 0.359966 0.755507 0.721396
O O3 0.418743 0.901948 0.687499
O O4 0.452640 0.832044 0.056907
O O5 0.544918 0.504314 0.636808
O O6 0.668579 0.461700 0.919319
O O7 0.626097 0.607523 0.924988
O O8 0.431598 0.722629 0.341239
O O9 0.795540 0.505869 0.719685
O O10 0.000000 0.181185 0.750000
O O11 0.500000 0.000000 0.500000
#
# Coordination Sequence:
#
# PCOD8143272 Si02
#       6
#     8   8   4   8   8   4
#     4  11  22  39  63  99 137 176 220 272 333 407
#     4  10  24  46  68  95 134 175 230 279 330 396
#     4  10  21  40  64  97 138 170 222 268 347 392
#     4  10  23  43  65  91 135 179 224 271 324 394
#     4  10  23  41  68  99 136 174 220 279 340 403
#     4  12  23  34  58  95 132 172 206 258 327 392
#
# _framework density 24.794239999999999
#
# number of rings (size 3 to 8) (size 9 to 14) (size 15 to 20)
#    0.000    1.600    3.000    1.800    8.400    0.800 
#    0.000    8.000    0.000    0.000    0.000    0.000 
#    0.000    0.000    0.000    0.000    0.000    0.000 
#
# Total GULP energy -247783.664862 kJ/mol
# GULP energy per Si atom -12389.183243 kJ/mol
# Density = 2.473781 g / cm^3
# Si number density = 24.794240 Si / 1000 Ang^3
#
#
#
# Elastic Constant Matrix: (Units=GPa)
#
#
# Indices 1 2 3 4 5 6 
#
# 1 83.1577 41.9110 37.7220 0.0000 -17.3592 0.0000
# 2 41.9110 140.6790 74.8894 0.0000 -16.8405 0.0000
# 3 37.7220 74.8894 190.4333 0.0000 -24.5293 0.0000
# 4 0.0000 0.0000 0.0000 21.0806 0.0000 1.9897
# 5 -17.3592 -16.8405 -24.5293 0.0000 27.7831 0.0000
# 6 0.0000 0.0000 0.0000 1.9897 0.0000 -0.7190
#
#
#
# Elastic Compliance Matrix: (Units=1/GPa)
#
#
# Indices 1 2 3 4 5 6 
#
# 1 0.015549 -0.003338 -0.000876 0.000000 0.006919 0.000000
# 2 -0.003338 0.009880 -0.003071 0.000000 0.001192 0.000000
# 3 -0.000876 -0.003071 0.007133 0.000000 0.003889 0.000000
# 4 0.000000 0.000000 0.000000 0.037613 0.000000 0.104086
# 5 0.006919 0.001192 0.003889 0.000000 0.044472 0.000000
# 6 0.000000 0.000000 0.000000 0.104086 0.000000 -1.102759
#
#
# Mechanical properties :
#
#
# Convention : Reuss Voigt Hill
#
# Bulk Modulus (GPa) = 55.57654 80.36831 67.97243
# Shear Modulus (GPa) = -5.16772 26.94545 10.88886
#
# Velocity S-wave (km/s) = -1.44526 3.30018 2.09791
# Velocity P-wave (km/s) = 4.43607 6.85610 5.77429
#
# Compressibility (1/GPa) = 0.01799320
#
# Stress axis : x y z
#
# Youngs Moduli (GPa) = 64.31148 101.21299 140.18760
#
# Poissons Ratio (x) = 0.33782 0.12285
# Poissons Ratio (y) = 0.21465 0.43048
# Poissons Ratio (z) = 0.05636 0.31080
#
# Static dielectric constant tensor:
#      x y z
#    x 4.181070 0.000000 -0.431340 
#    y 0.000000 4.566090 0.000000 
#    z -0.431340 0.000000 5.470810 
# 
# 
# High freq. dielectric constant tensor:
#      x y z
#    x 1.966720 0.000000 -0.013520 
#    y 0.000000 1.979650 0.000000 
#    z -0.013520 0.000000 2.016590 
# 
# From -- ./inp_files/9840.got.cif
#   From: 2010.06.25/outbox.cif.g09.slc.cpg/sg15_5_cif.got.tgz:9840.got - 2010.06.28 07:06:18.
