data_PCOD8143704
_publ_section_title
;
Structure prediction by ZEFSAII (Michael W. Deem and Ramdas Pophale) SiO2 
 PCOD8143704
Probable space group: C 2/C
;
_chemical_formula_sum "Si O2"
_cell_formula_units_Z 44
_cell_length_a 17.645295
_cell_length_b 13.498504
_cell_length_c 10.585520
_cell_angle_alpha 90.000000
_cell_angle_beta 129.317236
_cell_angle_gamma 90.000000
_cell_volume 1950.612876
_symmetry_space_group_name_H-M "C 2/C"
_symmetry_group_IT_number 15
_symmetry_cell_setting 'monoclinic'
loop_
_space_group_symop_operation_xyz
x,y,z
-x,y,1/2-z
-x,-y,-z
x,-y,1/2+z
1/2+x,1/2+y,z
1/2-x,1/2+y,1/2-z
1/2-x,1/2-y,-z
1/2+x,1/2-y,1/2+z
loop_
_atom_site_type_symbol
_atom_site_label
_atom_site_fract_x
_atom_site_fract_y
_atom_site_fract_z
Si Si1 0.182518 0.743698 0.308687
Si Si2 0.000000 0.222079 0.750000
Si Si3 0.105007 0.775435 0.812296
Si Si4 0.782888 0.415016 0.053925
Si Si5 0.859113 0.142363 0.401696
Si Si6 0.771856 0.956828 0.233471
O O1 0.250000 0.750000 0.500000
O O2 0.069967 0.713573 0.229125
O O3 0.240165 0.663319 0.284914
O O4 0.180927 0.849690 0.238051
O O5 0.922325 0.152262 0.595440
O O6 0.132244 0.664697 0.886931
O O7 0.100157 0.778068 0.654783
O O8 0.000000 0.805786 0.750000
O O9 0.179500 0.857950 0.941539
O O10 0.795510 0.456616 0.210410
O O11 0.786696 0.503985 0.953844
O O12 0.864108 0.029945 0.357426
#
# Coordination Sequence:
#
# PCOD8143704 Si02
#       6
#     8   4   8   8   8   8
#     4  10  21  41  63  91 129 165 207 258 318 373
#     4  10  22  36  66 100 124 164 208 266 314 382
#     4  10  22  41  64  90 125 173 210 255 317 385
#     4  10  22  41  66  90 129 167 208 269 317 370
#     4  10  22  40  64  91 128 169 206 258 320 372
#     4  11  22  42  66  93 129 170 212 260 322 383
#
# _framework density 22.557012
#
# number of rings (size 3 to 8) (size 9 to 14) (size 15 to 20)
#    0.000    1.818    1.818    2.182    2.545    0.727 
#   11.455    0.909   18.000    0.000    0.000    0.000 
#    0.000    0.000    0.000    0.000    0.000    0.000 
#
# Total GULP energy -272549.836950 kJ/mol
# GULP energy per Si atom -12388.628952 kJ/mol
# Density = 2.250567 g / cm^3
# Si number density = 22.557012 Si / 1000 Ang^3
#
#
#
# Elastic Constant Matrix: (Units=GPa)
#
#
# Indices 1 2 3 4 5 6 
#
# 1 128.3972 21.8310 41.5269 0.0000 0.5235 0.0000
# 2 21.8310 69.2977 26.9229 0.0000 4.1402 0.0000
# 3 41.5269 26.9229 80.4175 0.0000 -7.6075 0.0000
# 4 0.0000 0.0000 0.0000 28.6714 0.0000 -10.3491
# 5 0.5235 4.1402 -7.6075 0.0000 43.7718 0.0000
# 6 0.0000 0.0000 0.0000 -10.3491 0.0000 18.0481
#
#
#
# Elastic Compliance Matrix: (Units=1/GPa)
#
#
# Indices 1 2 3 4 5 6 
#
# 1 0.009469 -0.001157 -0.004578 0.000000 -0.000800 0.000000
# 2 -0.001157 0.017020 -0.005340 0.000000 -0.002524 0.000000
# 3 -0.004578 -0.005340 0.016918 0.000000 0.003500 0.000000
# 4 0.000000 0.000000 0.000000 0.043981 0.000000 0.025220
# 5 -0.000800 -0.002524 0.003500 0.000000 0.023702 0.000000
# 6 0.000000 0.000000 0.000000 0.025220 0.000000 0.069869
#
#
# Mechanical properties :
#
#
# Convention : Reuss Voigt Hill
#
# Bulk Modulus (GPa) = 47.04041 50.96378 49.00209
# Shear Modulus (GPa) = 23.78753 30.62036 27.20394
#
# Velocity S-wave (km/s) = 3.25091 3.68838 3.47653
# Velocity P-wave (km/s) = 5.91528 6.38602 6.15515
#
# Compressibility (1/GPa) = 0.02125832
#
# Stress axis : x y z
#
# Youngs Moduli (GPa) = 105.60872 58.75374 59.10877
#
# Poissons Ratio (x) = 0.06796 0.27060
# Poissons Ratio (y) = 0.12215 0.31562
# Poissons Ratio (z) = 0.48348 0.31373
#
# Static dielectric constant tensor:
#      x y z
#    x 6.144680 0.000000 -0.163670 
#    y 0.000000 4.164090 0.000000 
#    z -0.163670 0.000000 4.120740 
# 
# 
# High freq. dielectric constant tensor:
#      x y z
#    x 1.886470 0.000000 -0.032370 
#    y 0.000000 1.873020 0.000000 
#    z -0.032370 0.000000 1.879270 
# 
# From -- ./inp_files/105532.got.cif
#   From: 2010.06.25/outbox.cif.g09.slc.cpg/sg15_53_cif.got.tgz:105532.got - 2010.06.28 07:06:18.
