data_PCOD8143951
_publ_section_title
;
Structure prediction by ZEFSAII (Michael W. Deem and Ramdas Pophale) SiO2 
 PCOD8143951
Probable space group: C 2/C
;
_chemical_formula_sum "Si O2"
_cell_formula_units_Z 40
_cell_length_a 21.457691
_cell_length_b 17.071541
_cell_length_c 11.774936
_cell_angle_alpha 90.000000
_cell_angle_beta 22.764637
_cell_angle_gamma 90.000000
_cell_volume 1669.034189
_symmetry_space_group_name_H-M "C 2/C"
_symmetry_group_IT_number 15
_symmetry_cell_setting 'monoclinic'
loop_
_space_group_symop_operation_xyz
x,y,z
-x,y,1/2-z
-x,-y,-z
x,-y,1/2+z
1/2+x,1/2+y,z
1/2-x,1/2+y,1/2-z
1/2-x,1/2-y,-z
1/2+x,1/2-y,1/2+z
loop_
_atom_site_type_symbol
_atom_site_label
_atom_site_fract_x
_atom_site_fract_y
_atom_site_fract_z
Si Si1 0.537394 0.882086 0.346327
Si Si2 0.127928 0.649563 0.946082
Si Si3 0.238595 0.479745 0.422212
Si Si4 0.263510 0.194604 0.169118
Si Si5 0.997516 0.085128 0.628015
O O1 0.538591 0.872037 0.479156
O O2 0.360193 0.861126 0.595761
O O3 0.661146 0.819345 0.082110
O O4 0.587123 0.971331 0.227674
O O5 0.194609 0.568567 0.884172
O O6 0.270897 0.712917 0.686798
O O7 0.000000 0.684551 0.250000
O O8 0.315026 0.419833 0.387103
O O9 0.378541 0.539891 0.160139
O O10 0.072647 0.173022 0.498346
O O11 0.000000 0.049904 0.750000
#
# Coordination Sequence:
#
# PCOD8143951 Si02
#       5
#     8   8   8   8   8
#     4  10  24  49  71  97 147 189 237 284 358 423
#     4  12  27  41  72 106 141 183 240 293 352 417
#     4  10  24  43  68 104 135 188 239 287 349 420
#     4  10  24  45  70 100 140 190 230 290 356 420
#     4  10  21  41  67  94 140 180 233 292 350 406
#
# _framework density 23.965955999999998
#
# number of rings (size 3 to 8) (size 9 to 14) (size 15 to 20)
#    0.000    1.600    0.000    2.400   11.200    1.600 
#   14.400    0.000    0.000    0.000    0.000    0.000 
#    0.000    0.000    0.000    0.000    0.000    0.000 
#
# Total GULP energy -247878.643417 kJ/mol
# GULP energy per Si atom -12393.932171 kJ/mol
# Density = 2.391141 g / cm^3
# Si number density = 23.965956 Si / 1000 Ang^3
#
#
#
# Elastic Constant Matrix: (Units=GPa)
#
#
# Indices 1 2 3 4 5 6 
#
# 1 154.3417 31.7122 26.5749 -0.0036 18.8707 0.0014
# 2 31.7122 113.3638 36.4903 -0.0024 -4.9452 0.0014
# 3 26.5749 36.4903 47.9159 -0.0056 5.2868 0.0035
# 4 -0.0036 -0.0024 -0.0056 36.0660 0.0024 -1.3971
# 5 18.8707 -4.9452 5.2868 0.0024 38.4639 -0.0010
# 6 0.0014 0.0014 0.0035 -1.3971 -0.0010 32.2725
#
#
#
# Elastic Compliance Matrix: (Units=1/GPa)
#
#
# Indices 1 2 3 4 5 6 
#
# 1 0.007686 -0.001404 -0.002800 0.000000 -0.003566 0.000000
# 2 -0.001404 0.012240 -0.008927 -0.000001 0.003490 0.000001
# 3 -0.002800 -0.008927 0.029646 0.000004 -0.003849 -0.000003
# 4 0.000000 -0.000001 0.000004 0.027774 -0.000003 0.001202
# 5 -0.003566 0.003490 -0.003849 -0.000003 0.028726 0.000001
# 6 0.000000 0.000001 -0.000003 0.001202 0.000001 0.031038
#
#
# Mechanical properties :
#
#
# Convention : Reuss Voigt Hill
#
# Bulk Modulus (GPa) = 42.90234 56.13069 49.51652
# Shear Modulus (GPa) = 29.21558 36.08342 32.64950
#
# Velocity S-wave (km/s) = 3.49527 3.88443 3.69498
# Velocity P-wave (km/s) = 5.85059 6.60229 6.23778
#
# Compressibility (1/GPa) = 0.02330875
#
# Stress axis : x y z
#
# Youngs Moduli (GPa) = 130.11014 81.70026 33.73145
#
# Poissons Ratio (x) = 0.11474 0.09443
# Poissons Ratio (y) = 0.18273 0.30113
# Poissons Ratio (z) = 0.36426 0.72937
#
# Static dielectric constant tensor:
#      x y z
#    x 4.411980 0.000000 -0.136020 
#    y 0.000000 4.310760 0.000010 
#    z -0.136020 0.000010 4.395730 
# 
# 
# High freq. dielectric constant tensor:
#      x y z
#    x 1.953730 0.000000 0.005500 
#    y 0.000000 1.945010 0.000000 
#    z 0.005500 0.000000 1.949840 
# 
# From -- ./inp_files/113578.got.cif
#   From: 2010.06.25/outbox.cif.g09.slc.cpg/sg15_57_cif.got.tgz:113578.got - 2010.06.28 07:06:18.
