data_PCOD8143074
_publ_section_title
;
Structure prediction by ZEFSAII (Michael W. Deem and Ramdas Pophale) SiO2 
 PCOD8143074
Probable space group: C 2/C
;
_chemical_formula_sum "Si O2"
_cell_formula_units_Z 40
_cell_length_a 17.045692
_cell_length_b 14.590808
_cell_length_c 13.064292
_cell_angle_alpha 90.000000
_cell_angle_beta 144.662974
_cell_angle_gamma 90.000000
_cell_volume 1879.303030
_symmetry_space_group_name_H-M "C 2/C"
_symmetry_group_IT_number 15
_symmetry_cell_setting 'monoclinic'
loop_
_space_group_symop_operation_xyz
x,y,z
-x,y,1/2-z
-x,-y,-z
x,-y,1/2+z
1/2+x,1/2+y,z
1/2-x,1/2+y,1/2-z
1/2-x,1/2-y,-z
1/2+x,1/2-y,1/2+z
loop_
_atom_site_type_symbol
_atom_site_label
_atom_site_fract_x
_atom_site_fract_y
_atom_site_fract_z
Si Si1 0.999485 0.729052 0.919471
Si Si2 0.722447 0.653139 0.210537
Si Si3 0.723391 0.485152 0.889012
Si Si4 0.000000 0.586442 0.750000
Si Si5 0.154916 0.164426 0.914400
Si Si6 0.500000 0.629657 0.250000
O O1 0.046613 0.811320 0.896756
O O2 0.879379 0.764877 0.864670
O O3 0.948378 0.647822 0.790539
O O4 0.125995 0.693931 0.120994
O O5 0.703928 0.560404 0.256920
O O6 0.692228 0.620184 0.063666
O O7 0.679811 0.591692 0.848647
O O8 0.631144 0.431146 0.870505
O O9 0.878997 0.479152 0.087607
O O10 0.000000 0.197031 0.750000
O O11 0.250000 0.250000 0.000000
#
# Coordination Sequence:
#
# PCOD8143074 Si02
#       6
#     8   8   8   4   8   4
#     4   9  17  34  62  97 123 157 196 250 305 364
#     4  10  21  40  64  92 121 161 204 243 308 362
#     4  10  21  40  61  92 121 161 205 250 298 362
#     4   9  18  34  61  94 130 152 195 254 306 353
#     4  12  27  46  63  87 124 164 205 255 307 362
#     4   9  16  34  63  92 128 152 199 256 300 351
#
# _framework density 21.284486000000001
#
# number of rings (size 3 to 8) (size 9 to 14) (size 15 to 20)
#    0.000    2.000    1.000    2.400    1.400    5.600 
#    7.200    2.000    0.000    0.000    0.000    0.000 
#    0.000    0.000    0.000    0.000    0.000    0.000 
#
# Total GULP energy -247978.049938 kJ/mol
# GULP energy per Si atom -12398.902497 kJ/mol
# Density = 2.123604 g / cm^3
# Si number density = 21.284486 Si / 1000 Ang^3
#
#
#
# Elastic Constant Matrix: (Units=GPa)
#
#
# Indices 1 2 3 4 5 6 
#
# 1 75.6009 35.1022 41.7398 0.0000 -1.1765 0.0000
# 2 35.1022 112.0710 36.5098 0.0000 11.3858 0.0000
# 3 41.7398 36.5098 118.7244 0.0000 3.9919 0.0000
# 4 0.0000 0.0000 0.0000 22.4985 0.0000 1.4061
# 5 -1.1765 11.3858 3.9919 0.0000 34.1978 0.0000
# 6 0.0000 0.0000 0.0000 1.4061 0.0000 23.3671
#
#
#
# Elastic Compliance Matrix: (Units=1/GPa)
#
#
# Indices 1 2 3 4 5 6 
#
# 1 0.018081 -0.004258 -0.005136 0.000000 0.002639 0.000000
# 2 -0.004258 0.011226 -0.001832 0.000000 -0.003670 0.000000
# 3 -0.005136 -0.001832 0.010820 0.000000 -0.000830 0.000000
# 4 0.000000 0.000000 0.000000 0.044615 0.000000 -0.002685
# 5 0.002639 -0.003670 -0.000830 0.000000 0.030651 0.000000
# 6 0.000000 0.000000 0.000000 -0.002685 0.000000 0.042957
#
#
# Mechanical properties :
#
#
# Convention : Reuss Voigt Hill
#
# Bulk Modulus (GPa) = 56.57684 59.23332 57.90508
# Shear Modulus (GPa) = 26.78173 28.88231 27.83202
#
# Velocity S-wave (km/s) = 3.55107 3.68770 3.62003
# Velocity P-wave (km/s) = 6.59184 6.78394 6.68858
#
# Compressibility (1/GPa) = 0.01767508
#
# Stress axis : x y z
#
# Youngs Moduli (GPa) = 55.30602 89.07653 92.42351
#
# Poissons Ratio (x) = 0.37931 0.47469
# Poissons Ratio (y) = 0.23551 0.16930
# Poissons Ratio (z) = 0.28405 0.16317
#
# Static dielectric constant tensor:
#      x y z
#    x 4.418580 0.000000 -0.034290 
#    y 0.000000 3.717920 0.000000 
#    z -0.034290 0.000000 3.847450 
# 
# 
# High freq. dielectric constant tensor:
#      x y z
#    x 1.829070 0.000000 0.006270 
#    y 0.000000 1.822570 0.000000 
#    z 0.006270 0.000000 1.842560 
# 
# From -- ./inp_files/37878.got.cif
#   From: 2010.06.25/outbox.cif.g09.slc.cpg/sg15_19_cif.got.tgz:37878.got - 2010.06.28 07:06:18.
