data_PCOD8143021
_publ_section_title
;
Structure prediction by ZEFSAII (Michael W. Deem and Ramdas Pophale) SiO2 
 PCOD8143021
Probable space group: C 2/C
;
_chemical_formula_sum "Si O2"
_cell_formula_units_Z 64
_cell_length_a 32.058624
_cell_length_b 18.589364
_cell_length_c 9.479650
_cell_angle_alpha 90.000000
_cell_angle_beta 145.328526
_cell_angle_gamma 90.000000
_cell_volume 3213.770374
_symmetry_space_group_name_H-M "C 2/C"
_symmetry_group_IT_number 15
_symmetry_cell_setting 'monoclinic'
loop_
_space_group_symop_operation_xyz
x,y,z
-x,y,1/2-z
-x,-y,-z
x,-y,1/2+z
1/2+x,1/2+y,z
1/2-x,1/2+y,1/2-z
1/2-x,1/2-y,-z
1/2+x,1/2-y,1/2+z
loop_
_atom_site_type_symbol
_atom_site_label
_atom_site_fract_x
_atom_site_fract_y
_atom_site_fract_z
Si Si1 0.358458 0.068501 0.262554
Si Si2 0.598017 0.211929 0.257991
Si Si3 0.366061 0.068849 0.606200
Si Si4 0.567515 0.781282 0.156892
Si Si5 0.304467 0.578065 0.344848
Si Si6 0.672462 0.730817 0.216101
Si Si7 0.584182 0.686963 0.470937
Si Si8 0.687082 0.561188 0.806108
O O1 0.400367 0.137484 0.320683
O O2 0.383302 0.054050 0.490992
O O3 0.387283 0.001783 0.251948
O O4 0.271343 0.081251 0.009665
O O5 0.658778 0.212874 0.550447
O O6 0.518925 0.224229 0.108227
O O7 0.614262 0.277100 0.196968
O O8 0.412222 0.135081 0.792905
O O9 0.282071 0.087800 0.397522
O O10 0.608248 0.736636 0.150512
O O11 0.592123 0.747168 0.373315
O O12 0.336540 0.651753 0.373941
O O13 0.331304 0.559924 0.578143
O O14 0.330913 0.515821 0.312203
O O15 0.750000 0.750000 0.500000
O O16 0.500000 0.661250 0.250000
O O17 0.635664 0.618714 0.583459
#
# Coordination Sequence:
#
# PCOD8143021 Si02
#       8
#     8   8   8   8   8   8   8   8
#     4  10  23  37  65  91 128 162 216 259 316 369
#     4  11  24  43  62  92 126 170 207 264 313 378
#     4  10  21  40  59  95 123 168 208 259 310 381
#     4  11  24  41  64  91 132 164 210 259 319 376
#     4  10  22  40  63  94 124 161 207 265 314 370
#     4  12  25  40  67  95 126 161 214 261 314 372
#     4  10  22  42  65  89 123 167 215 257 316 384
#     4  10  22  40  64  91 128 161 211 264 315 372
#
# _framework density 19.914304000000001
#
# number of rings (size 3 to 8) (size 9 to 14) (size 15 to 20)
#    0.000    1.500    3.750    0.375    5.250    2.000 
#    0.000    1.875    0.000    0.000    0.000    0.000 
#    0.000    0.000    0.000    0.000    0.000    0.000 
#
# Total GULP energy -396920.139483 kJ/mol
# GULP energy per Si atom -12403.754359 kJ/mol
# Density = 1.986898 g / cm^3
# Si number density = 19.914304 Si / 1000 Ang^3
#
#
#
# Elastic Constant Matrix: (Units=GPa)
#
#
# Indices 1 2 3 4 5 6 
#
# 1 120.8286 61.6652 39.7196 0.0000 -13.3410 0.0000
# 2 61.6652 121.1308 38.3137 0.0000 -2.7880 0.0000
# 3 39.7196 38.3137 83.7667 0.0000 -20.3932 0.0000
# 4 0.0000 0.0000 0.0000 25.9708 0.0000 -2.7203
# 5 -13.3410 -2.7880 -20.3932 0.0000 17.1286 0.0000
# 6 0.0000 0.0000 0.0000 -2.7203 0.0000 45.0590
#
#
#
# Elastic Compliance Matrix: (Units=1/GPa)
#
#
# Indices 1 2 3 4 5 6 
#
# 1 0.012464 -0.005663 -0.001663 0.000000 0.006806 0.000000
# 2 -0.005663 0.012563 -0.005122 0.000000 -0.008464 0.000000
# 3 -0.001663 -0.005122 0.020490 0.000000 0.022266 0.000000
# 4 0.000000 0.000000 0.000000 0.038750 0.000000 0.002339
# 5 0.006806 -0.008464 0.022266 0.000000 0.088816 0.000000
# 6 0.000000 0.000000 0.000000 0.002339 0.000000 0.022334
#
#
# Mechanical properties :
#
#
# Convention : Reuss Voigt Hill
#
# Bulk Modulus (GPa) = 48.49055 67.23591 57.86323
# Shear Modulus (GPa) = 22.00827 30.03350 26.02088
#
# Velocity S-wave (km/s) = 3.32798 3.88769 3.61867
# Velocity P-wave (km/s) = 6.25858 7.34766 6.82487
#
# Compressibility (1/GPa) = 0.02062258
#
# Stress axis : x y z
#
# Youngs Moduli (GPa) = 80.22872 79.59566 48.80432
#
# Poissons Ratio (x) = 0.45072 0.08117
# Poissons Ratio (y) = 0.45431 0.24997
# Poissons Ratio (z) = 0.13344 0.40767
#
# Static dielectric constant tensor:
#      x y z
#    x 3.734410 0.000000 -0.144890 
#    y 0.000000 3.562090 0.000000 
#    z -0.144890 0.000000 3.526660 
# 
# 
# High freq. dielectric constant tensor:
#      x y z
#    x 1.784010 0.000000 -0.011820 
#    y 0.000000 1.779480 0.000000 
#    z -0.011820 0.000000 1.772820 
# 
# From -- ./inp_files/70602.got.cif
#   From: 2010.06.25/outbox.cif.g09.slc.cpg/sg15_36_cif.got.tgz:70602.got - 2010.06.28 07:06:18.
