data_PCOD8143769
_publ_section_title
;
Structure prediction by ZEFSAII (Michael W. Deem and Ramdas Pophale) SiO2 
 PCOD8143769
Probable space group: C 2/C
;
_chemical_formula_sum "Si O2"
_cell_formula_units_Z 64
_cell_length_a 25.166936
_cell_length_b 10.882077
_cell_length_c 12.107980
_cell_angle_alpha 90.000000
_cell_angle_beta 107.673608
_cell_angle_gamma 90.000000
_cell_volume 3159.484526
_symmetry_space_group_name_H-M "C 2/C"
_symmetry_group_IT_number 15
_symmetry_cell_setting 'monoclinic'
loop_
_space_group_symop_operation_xyz
x,y,z
-x,y,1/2-z
-x,-y,-z
x,-y,1/2+z
1/2+x,1/2+y,z
1/2-x,1/2+y,1/2-z
1/2-x,1/2-y,-z
1/2+x,1/2-y,1/2+z
loop_
_atom_site_type_symbol
_atom_site_label
_atom_site_fract_x
_atom_site_fract_y
_atom_site_fract_z
Si Si1 0.064094 0.816115 0.779418
Si Si2 0.821859 0.574563 0.342085
Si Si3 0.994676 0.636666 0.374882
Si Si4 0.903288 0.217375 0.951872
Si Si5 0.227218 0.850668 0.629212
Si Si6 0.737219 0.414459 0.395972
Si Si7 0.361053 0.505984 0.299990
Si Si8 0.426750 0.095887 0.884851
O O1 0.095431 0.938595 0.759491
O O2 0.075293 0.710635 0.697493
O O3 0.000000 0.851744 0.750000
O O4 0.084801 0.772342 0.911432
O O5 0.848590 0.701086 0.398601
O O6 0.786709 0.599498 0.209208
O O7 0.777296 0.531442 0.405305
O O8 0.866773 0.467936 0.350354
O O9 0.954103 0.731182 0.411344
O O10 0.971546 0.498391 0.362526
O O11 0.000000 0.677829 0.250000
O O12 0.053696 0.637042 0.478809
O O13 0.892899 0.076066 0.911206
O O14 0.227383 0.704937 0.614752
O O15 0.217034 0.917804 0.507842
O O16 0.173749 0.881936 0.669476
O O17 0.681704 0.416033 0.288049
#
# Coordination Sequence:
#
# PCOD8143769 Si02
#       8
#     8   8   8   8   8   8   8   8
#     4  12  25  44  68  90 130 175 216 272 321 389
#     4  10  22  37  65  97 126 166 207 267 321 387
#     4  10  22  40  66  92 130 172 214 275 318 379
#     4  11  24  44  62  96 130 168 223 269 321 390
#     4  10  21  41  64  92 128 166 211 259 322 392
#     4  10  21  41  64  93 126 166 208 264 322 386
#     4  11  24  44  62  94 126 169 216 269 321 384
#     4  10  22  40  63 100 129 165 221 261 329 382
#
# _framework density 20.25647
#
# number of rings (size 3 to 8) (size 9 to 14) (size 15 to 20)
#    0.000    1.500    2.500    1.875    5.250    2.000 
#    4.500    1.875    0.000    0.000    0.000    0.000 
#    0.000    0.000    0.000    0.000    0.000    0.000 
#
# Total GULP energy -396844.148190 kJ/mol
# GULP energy per Si atom -12401.379631 kJ/mol
# Density = 2.021037 g / cm^3
# Si number density = 20.256470 Si / 1000 Ang^3
#
#
#
# Elastic Constant Matrix: (Units=GPa)
#
#
# Indices 1 2 3 4 5 6 
#
# 1 84.1522 30.6431 33.7279 0.0000 -1.4263 0.0000
# 2 30.6431 70.7976 29.6255 0.0000 -7.5593 0.0000
# 3 33.7279 29.6255 130.2043 0.0000 -13.6194 0.0000
# 4 0.0000 0.0000 0.0000 31.3385 0.0000 -0.9776
# 5 -1.4263 -7.5593 -13.6194 0.0000 26.3375 0.0000
# 6 0.0000 0.0000 0.0000 -0.9776 0.0000 26.2591
#
#
#
# Elastic Compliance Matrix: (Units=1/GPa)
#
#
# Indices 1 2 3 4 5 6 
#
# 1 0.015010 -0.005539 -0.002864 0.000000 -0.002258 0.000000
# 2 -0.005539 0.017852 -0.002244 0.000000 0.003664 0.000000
# 3 -0.002864 -0.002244 0.009355 0.000000 0.004038 0.000000
# 4 0.000000 0.000000 0.000000 0.031947 0.000000 0.001189
# 5 -0.002258 0.003664 0.004038 0.000000 0.040986 0.000000
# 6 0.000000 0.000000 0.000000 0.001189 0.000000 0.038126
#
#
# Mechanical properties :
#
#
# Convention : Reuss Voigt Hill
#
# Bulk Modulus (GPa) = 47.79401 52.57190 50.18295
# Shear Modulus (GPa) = 27.54129 29.53086 28.53607
#
# Velocity S-wave (km/s) = 3.69132 3.82232 3.75739
# Velocity P-wave (km/s) = 6.46633 6.74460 6.60693
#
# Compressibility (1/GPa) = 0.02092312
#
# Stress axis : x y z
#
# Youngs Moduli (GPa) = 66.62255 56.01459 106.89371
#
# Poissons Ratio (x) = 0.31029 0.30614
# Poissons Ratio (y) = 0.36905 0.23985
# Poissons Ratio (z) = 0.19080 0.12569
#
# Static dielectric constant tensor:
#      x y z
#    x 3.641030 0.000000 0.129230 
#    y 0.000000 3.584530 0.000000 
#    z 0.129230 0.000000 3.840300 
# 
# 
# High freq. dielectric constant tensor:
#      x y z
#    x 1.791920 0.000000 0.008120 
#    y 0.000000 1.790180 0.000000 
#    z 0.008120 0.000000 1.799810 
# 
# From -- ./inp_files/118041.got.cif
#   From: 2010.06.25/outbox.cif.g09.slc.cpg/sg15_60_cif.got.tgz:118041.got - 2010.06.28 07:06:18.
