data_PCOD8143174
_publ_section_title
;
Structure prediction by ZEFSAII (Michael W. Deem and Ramdas Pophale) SiO2 
 PCOD8143174
Probable space group: C 2/C
;
_chemical_formula_sum "Si O2"
_cell_formula_units_Z 64
_cell_length_a 12.365087
_cell_length_b 28.422543
_cell_length_c 15.489687
_cell_angle_alpha 90.000000
_cell_angle_beta 34.839877
_cell_angle_gamma 90.000000
_cell_volume 3109.965160
_symmetry_space_group_name_H-M "C 2/C"
_symmetry_group_IT_number 15
_symmetry_cell_setting 'monoclinic'
loop_
_space_group_symop_operation_xyz
x,y,z
-x,y,1/2-z
-x,-y,-z
x,-y,1/2+z
1/2+x,1/2+y,z
1/2-x,1/2+y,1/2-z
1/2-x,1/2-y,-z
1/2+x,1/2-y,1/2+z
loop_
_atom_site_type_symbol
_atom_site_label
_atom_site_fract_x
_atom_site_fract_y
_atom_site_fract_z
Si Si1 0.184015 0.370304 0.439592
Si Si2 0.810863 0.599595 0.930904
Si Si3 0.940743 0.209312 0.018810
Si Si4 0.215158 0.295227 0.080230
Si Si5 0.479068 0.047629 0.566512
Si Si6 0.037471 0.713377 0.328159
Si Si7 0.125165 0.954580 0.408644
Si Si8 0.969436 0.876974 0.396122
O O1 0.073991 0.412504 0.466984
O O2 0.300906 0.390793 0.442891
O O3 0.345324 0.351192 0.267627
O O4 0.037846 0.330989 0.567408
O O5 0.749626 0.654145 0.990362
O O6 0.644445 0.574003 0.985846
O O7 0.000000 0.602362 0.750000
O O8 0.840426 0.569514 0.999769
O O9 0.762558 0.220831 0.197424
O O10 0.142112 0.210524 0.933428
O O11 0.934850 0.241797 0.937156
O O12 0.890976 0.157127 0.020367
O O13 0.000000 0.292939 0.250000
O O14 0.250000 0.250000 0.000000
O O15 0.331860 0.033802 0.737417
O O16 0.500000 0.000000 0.500000
O O17 0.000000 0.709392 0.250000
O O18 0.022358 0.925921 0.402156
O O19 0.000000 0.000000 0.500000
#
# Coordination Sequence:
#
# PCOD8143174 Si02
#       8
#     8   8   8   8   8   8   8   8
#     4  10  23  40  63  88 127 165 208 258 320 382
#     4   9  20  41  65  89 122 165 211 252 315 385
#     4  12  24  40  63  91 131 162 217 259 316 378
#     4  11  24  43  66  92 125 171 215 264 318 378
#     4  10  23  42  62  92 124 164 205 260 326 378
#     4  12  25  40  61  95 130 171 211 260 319 381
#     4  10  21  40  67  90 120 161 208 262 316 380
#     4  10  21  40  63  92 121 165 209 258 316 383
#
# _framework density 20.579008999999999
#
# number of rings (size 3 to 8) (size 9 to 14) (size 15 to 20)
#    0.000    1.500    2.500    1.875    7.000    1.000 
#    0.000    0.000    0.000    0.000    0.000    0.000 
#    0.000    0.000    0.000    0.000    0.000    0.000 
#
# Total GULP energy -396551.679267 kJ/mol
# GULP energy per Si atom -12392.239977 kJ/mol
# Density = 2.053217 g / cm^3
# Si number density = 20.579009 Si / 1000 Ang^3
#
#
#
# Elastic Constant Matrix: (Units=GPa)
#
#
# Indices 1 2 3 4 5 6 
#
# 1 133.9901 46.4089 28.7206 0.0000 -0.5226 0.0001
# 2 46.4089 115.4887 40.1987 0.0000 7.8268 0.0000
# 3 28.7206 40.1987 79.4718 0.0001 -6.8433 0.0001
# 4 0.0000 0.0000 0.0001 42.5325 0.0000 3.9206
# 5 -0.5226 7.8268 -6.8433 0.0000 28.8653 -0.0001
# 6 0.0001 0.0000 0.0001 3.9206 -0.0001 29.2358
#
#
#
# Elastic Compliance Matrix: (Units=1/GPa)
#
#
# Indices 1 2 3 4 5 6 
#
# 1 0.008865 -0.003042 -0.001613 0.000000 0.000603 0.000000
# 2 -0.003042 0.012075 -0.005406 0.000000 -0.004611 0.000000
# 3 -0.001613 -0.005406 0.016358 0.000000 0.005315 0.000000
# 4 0.000000 0.000000 0.000000 0.023806 0.000000 -0.003192
# 5 0.000603 -0.004611 0.005315 0.000000 0.037165 0.000000
# 6 0.000000 0.000000 0.000000 -0.003192 0.000000 0.034633
#
#
# Mechanical properties :
#
#
# Convention : Reuss Voigt Hill
#
# Bulk Modulus (GPa) = 58.21771 62.17854 60.19813
# Shear Modulus (GPa) = 31.49638 34.36822 32.93230
#
# Velocity S-wave (km/s) = 3.91642 4.09107 4.00470
# Velocity P-wave (km/s) = 6.98587 7.25231 7.12034
#
# Compressibility (1/GPa) = 0.01717690
#
# Stress axis : x y z
#
# Youngs Moduli (GPa) = 112.80445 82.81427 61.13178
#
# Poissons Ratio (x) = 0.25189 0.09862
# Poissons Ratio (y) = 0.34311 0.33046
# Poissons Ratio (z) = 0.18198 0.44767
#
# Static dielectric constant tensor:
#      x y z
#    x 3.934510 0.000000 -0.106480 
#    y 0.000000 3.850770 0.000000 
#    z -0.106480 0.000000 3.707180 
# 
# 
# High freq. dielectric constant tensor:
#      x y z
#    x 1.817950 0.000000 -0.004090 
#    y 0.000000 1.808530 0.000000 
#    z -0.004090 0.000000 1.786790 
# 
# From -- ./inp_files/148736.got.cif
#   From: 2010.06.25/outbox.cif.g09.slc.cpg/sg15_75_cif.got.tgz:148736.got - 2010.06.28 07:06:18.
