data_PCOD8143314
_publ_section_title
;
Structure prediction by ZEFSAII (Michael W. Deem and Ramdas Pophale) SiO2 
 PCOD8143314
Probable space group: C 2/C
;
_chemical_formula_sum "Si O2"
_cell_formula_units_Z 60
_cell_length_a 8.343092
_cell_length_b 13.187882
_cell_length_c 28.146743
_cell_angle_alpha 90.000000
_cell_angle_beta 73.869889
_cell_angle_gamma 90.000000
_cell_volume 2975.006112
_symmetry_space_group_name_H-M "C 2/C"
_symmetry_group_IT_number 15
_symmetry_cell_setting 'monoclinic'
loop_
_space_group_symop_operation_xyz
x,y,z
-x,y,1/2-z
-x,-y,-z
x,-y,1/2+z
1/2+x,1/2+y,z
1/2-x,1/2+y,1/2-z
1/2-x,1/2-y,-z
1/2+x,1/2-y,1/2+z
loop_
_atom_site_type_symbol
_atom_site_label
_atom_site_fract_x
_atom_site_fract_y
_atom_site_fract_z
Si Si1 0.762693 0.157211 0.224041
Si Si2 0.730469 0.151919 0.919573
Si Si3 0.687536 0.473887 0.999611
Si Si4 0.500000 0.488817 0.750000
Si Si5 0.700249 0.884371 0.312822
Si Si6 0.072300 0.656991 0.077125
Si Si7 0.890255 0.668939 0.996966
Si Si8 0.013686 0.422123 0.817859
O O1 0.815972 0.273141 0.209265
O O2 0.665531 0.108074 0.187809
O O3 0.651628 0.150110 0.281240
O O4 0.923902 0.086268 0.216499
O O5 0.803643 0.061884 0.946372
O O6 0.689973 0.116806 0.870221
O O7 0.875914 0.235037 0.905998
O O8 0.559134 0.196280 0.955350
O O9 0.817819 0.564586 0.983176
O O10 0.500000 0.500000 0.000000
O O11 0.757012 0.389186 0.958188
O O12 0.626463 0.563900 0.714277
O O13 0.553947 0.958632 0.305015
O O14 0.987348 0.592811 0.125778
O O15 0.928871 0.665627 0.049616
O O16 0.750000 0.750000 0.000000
#
# Coordination Sequence:
#
# PCOD8143314 Si02
#       8
#     8   8   8   4   8   8   8   8
#     4  10  22  42  63  91 126 164 211 266 323 375
#     4  11  22  39  62  93 123 169 208 264 323 380
#     4  11  22  38  61  90 130 168 210 262 319 380
#     4  10  24  40  66  94 122 164 216 262 322 390
#     4  11  22  42  66  91 131 164 213 264 326 379
#     4  11  21  39  64  90 125 168 210 262 316 384
#     4  11  22  40  60  90 129 167 212 261 314 378
#     4  10  21  40  65  91 123 167 210 261 325 383
#
# _framework density 20.168026000000001
#
# number of rings (size 3 to 8) (size 9 to 14) (size 15 to 20)
#    0.000    1.333    1.333    7.200    0.000    3.200 
#    7.200    1.333    2.933    0.000    0.000    0.000 
#    0.000    0.000    0.000    0.000    0.000    0.000 
#
# Total GULP energy -371972.674270 kJ/mol
# GULP energy per Si atom -12399.089142 kJ/mol
# Density = 2.012212 g / cm^3
# Si number density = 20.168026 Si / 1000 Ang^3
#
#
#
# Elastic Constant Matrix: (Units=GPa)
#
#
# Indices 1 2 3 4 5 6 
#
# 1 99.5683 31.9940 18.0952 0.0000 5.8527 0.0000
# 2 31.9940 114.3483 25.9146 0.0000 3.9642 0.0000
# 3 18.0952 25.9146 108.1192 0.0000 13.1522 0.0000
# 4 0.0000 0.0000 0.0000 25.8458 0.0000 3.0987
# 5 5.8527 3.9642 13.1522 0.0000 17.1745 0.0000
# 6 0.0000 0.0000 0.0000 3.0987 0.0000 44.3595
#
#
#
# Elastic Compliance Matrix: (Units=1/GPa)
#
#
# Indices 1 2 3 4 5 6 
#
# 1 0.011273 -0.002865 -0.000897 0.000000 -0.002494 0.000000
# 2 -0.002865 0.009979 -0.001931 0.000000 0.000151 0.000000
# 3 -0.000897 -0.001931 0.010774 0.000000 -0.007500 0.000000
# 4 0.000000 0.000000 0.000000 0.039018 0.000000 -0.002726
# 5 -0.002494 0.000151 -0.007500 0.000000 0.064784 0.000000
# 6 0.000000 0.000000 0.000000 -0.002726 0.000000 0.022733
#
#
# Mechanical properties :
#
#
# Convention : Reuss Voigt Hill
#
# Bulk Modulus (GPa) = 48.44428 52.67151 50.55789
# Shear Modulus (GPa) = 28.27624 33.87811 31.07717
#
# Velocity S-wave (km/s) = 3.74844 4.10297 3.92971
# Velocity P-wave (km/s) = 6.54269 6.97273 6.76113
#
# Compressibility (1/GPa) = 0.02064227
#
# Stress axis : x y z
#
# Youngs Moduli (GPa) = 88.70459 100.21016 92.81406
#
# Poissons Ratio (x) = 0.28706 0.08324
# Poissons Ratio (y) = 0.25410 0.17921
# Poissons Ratio (z) = 0.07955 0.19349
#
# Static dielectric constant tensor:
#      x y z
#    x 3.593390 0.000000 0.303770 
#    y 0.000000 3.867670 0.000000 
#    z 0.303770 0.000000 3.216970 
# 
# 
# High freq. dielectric constant tensor:
#      x y z
#    x 1.789420 0.000000 0.005620 
#    y 0.000000 1.798030 0.000000 
#    z 0.005620 0.000000 1.786190 
# 
# From -- ./inp_files/307467.got.cif
#   From: 2010.06.25/outbox.cif.g09.slc.cpg/sg15_154_cif.got.tgz:307467.got - 2010.06.28 07:06:18.
