data_PCOD8143277
_publ_section_title
;
Structure prediction by ZEFSAII (Michael W. Deem and Ramdas Pophale) SiO2 
 PCOD8143277
Probable space group: C 2/C
;
_chemical_formula_sum "Si O2"
_cell_formula_units_Z 64
_cell_length_a 17.408310
_cell_length_b 11.802322
_cell_length_c 13.934471
_cell_angle_alpha 90.000000
_cell_angle_beta 90.054499
_cell_angle_gamma 90.000000
_cell_volume 2862.953937
_symmetry_space_group_name_H-M "C 2/C"
_symmetry_group_IT_number 15
_symmetry_cell_setting 'monoclinic'
loop_
_space_group_symop_operation_xyz
x,y,z
-x,y,1/2-z
-x,-y,-z
x,-y,1/2+z
1/2+x,1/2+y,z
1/2-x,1/2+y,1/2-z
1/2-x,1/2-y,-z
1/2+x,1/2-y,1/2+z
loop_
_atom_site_type_symbol
_atom_site_label
_atom_site_fract_x
_atom_site_fract_y
_atom_site_fract_z
Si Si1 0.326214 0.031087 0.092536
Si Si2 0.858358 0.222489 0.261740
Si Si3 0.920396 0.814760 0.561377
Si Si4 0.326388 0.379306 0.395930
Si Si5 0.859899 0.433545 0.374279
Si Si6 0.023282 0.409345 0.423444
Si Si7 0.697994 0.844198 0.723651
Si Si8 0.039333 0.955812 0.650695
O O1 0.247406 0.959662 0.106143
O O2 0.395674 0.947997 0.123263
O O3 0.329411 0.137213 0.166159
O O4 0.334836 0.080477 0.985305
O O5 0.908740 0.241088 0.167128
O O6 0.820745 0.336135 0.308658
O O7 0.789682 0.141471 0.225578
O O8 0.908684 0.156798 0.340586
O O9 0.839885 0.832182 0.504604
O O10 0.967607 0.708969 0.517039
O O11 0.972238 0.928306 0.572326
O O12 0.322710 0.279437 0.317683
O O13 0.407763 0.440952 0.380884
O O14 0.836533 0.559046 0.343960
O O15 0.950265 0.408601 0.351825
O O16 0.000000 0.500000 0.500000
O O17 0.000000 0.991432 0.750000
#
# Coordination Sequence:
#
# PCOD8143277 Si02
#       8
#     8   8   8   8   8   8   8   8
#     4  11  25  44  67 100 135 181 224 282 350 407
#     4  11  23  43  70  97 134 175 236 274 335 407
#     4  11  22  41  72  96 129 186 226 282 331 407
#     4  12  24  46  66 102 140 178 234 280 344 412
#     4  11  24  44  69  99 136 179 229 285 345 407
#     4  10  21  40  64  99 132 167 227 270 337 407
#     4  12  25  42  68 100 138 176 223 289 343 402
#     4  10  23  45  67  97 132 182 228 276 337 413
#
# _framework density 22.354534999999998
#
# number of rings (size 3 to 8) (size 9 to 14) (size 15 to 20)
#    0.000    1.000    2.500    4.875    0.000    3.500 
#    6.750    0.000    0.000    0.000    0.000    0.000 
#    0.000    0.000    0.000    0.000    0.000    0.000 
#
# Total GULP energy -396554.792259 kJ/mol
# GULP energy per Si atom -12392.337258 kJ/mol
# Density = 2.230366 g / cm^3
# Si number density = 22.354535 Si / 1000 Ang^3
#
#
#
# Elastic Constant Matrix: (Units=GPa)
#
#
# Indices 1 2 3 4 5 6 
#
# 1 120.6355 28.9851 34.1813 0.0000 12.7840 0.0000
# 2 28.9851 80.5406 46.7401 0.0000 -1.7190 0.0000
# 3 34.1813 46.7401 112.8771 0.0000 8.1114 0.0000
# 4 0.0000 0.0000 0.0000 33.5948 0.0000 1.7877
# 5 12.7840 -1.7190 8.1114 0.0000 31.5854 0.0000
# 6 0.0000 0.0000 0.0000 1.7877 0.0000 33.3210
#
#
#
# Elastic Compliance Matrix: (Units=1/GPa)
#
#
# Indices 1 2 3 4 5 6 
#
# 1 0.009773 -0.002676 -0.001586 0.000000 -0.003694 0.000000
# 2 -0.002676 0.017301 -0.006622 0.000000 0.003725 0.000000
# 3 -0.001586 -0.006622 0.012288 0.000000 -0.002874 0.000000
# 4 0.000000 0.000000 0.000000 0.029852 0.000000 -0.001602
# 5 -0.003694 0.003725 -0.002874 0.000000 0.034096 0.000000
# 6 0.000000 0.000000 0.000000 -0.001602 0.000000 0.030097
#
#
# Mechanical properties :
#
#
# Convention : Reuss Voigt Hill
#
# Bulk Modulus (GPa) = 56.83191 59.31844 58.07518
# Shear Modulus (GPa) = 31.04845 33.31003 32.17924
#
# Velocity S-wave (km/s) = 3.73085 3.86434 3.79818
# Velocity P-wave (km/s) = 6.63605 6.81937 6.72833
#
# Compressibility (1/GPa) = 0.01759575
#
# Stress axis : x y z
#
# Youngs Moduli (GPa) = 102.32099 57.79973 81.38103
#
# Poissons Ratio (x) = 0.15464 0.12908
# Poissons Ratio (y) = 0.27376 0.53887
# Poissons Ratio (z) = 0.16230 0.38272
#
# Static dielectric constant tensor:
#      x y z
#    x 23.336200 0.000000 6.498300 
#    y 0.000000 4.030390 0.000000 
#    z 6.498300 0.000000 6.100330 
# 
# 
# High freq. dielectric constant tensor:
#      x y z
#    x 1.889200 0.000000 0.017230 
#    y 0.000000 1.882000 0.000000 
#    z 0.017230 0.000000 1.878140 
# 
# From -- ./inp_files/161328.got.cif
#   From: 2010.06.25/outbox.cif.g09.slc.cpg/sg15_81_cif.got.tgz:161328.got - 2010.06.28 07:06:18.
