data_PCOD8143230
_publ_section_title
;
Structure prediction by ZEFSAII (Michael W. Deem and Ramdas Pophale) SiO2 
 PCOD8143230
Probable space group: C 2/C
;
_chemical_formula_sum "Si O2"
_cell_formula_units_Z 32
_cell_length_a 8.854490
_cell_length_b 15.002202
_cell_length_c 20.292710
_cell_angle_alpha 90.000000
_cell_angle_beta 41.017383
_cell_angle_gamma 90.000000
_cell_volume 1769.102733
_symmetry_space_group_name_H-M "C 2/C"
_symmetry_group_IT_number 15
_symmetry_cell_setting 'monoclinic'
loop_
_space_group_symop_operation_xyz
x,y,z
-x,y,1/2-z
-x,-y,-z
x,-y,1/2+z
1/2+x,1/2+y,z
1/2-x,1/2+y,1/2-z
1/2-x,1/2-y,-z
1/2+x,1/2-y,1/2+z
loop_
_atom_site_type_symbol
_atom_site_label
_atom_site_fract_x
_atom_site_fract_y
_atom_site_fract_z
Si Si1 0.556829 0.365251 0.308006
Si Si2 0.087737 0.572170 0.022333
Si Si3 0.244086 0.810800 0.697686
Si Si4 0.889767 0.524766 0.216350
O O1 0.500000 0.369695 0.250000
O O2 0.338340 0.392905 0.422758
O O3 0.634678 0.267139 0.301814
O O4 0.763544 0.430833 0.257325
O O5 0.000000 0.500000 0.000000
O O6 0.910756 0.656641 0.082841
O O7 0.090035 0.526242 0.094294
O O8 0.209595 0.895044 0.758832
O O9 0.000000 0.778813 0.750000
O O10 0.000000 0.543396 0.250000
#
# Coordination Sequence:
#
# PCOD8143230 Si02
#       4
#     8   8   8   8
#     4  12  21  39  65  89 126 166 204 254 306 364
#     4  10  21  40  64  91 122 164 205 250 313 357
#     4  10  22  40  60  90 124 161 205 250 305 366
#     4  10  22  39  63  90 123 164 198 259 303 363
#
# _framework density 18.088266000000001
#
# number of rings (size 3 to 8) (size 9 to 14) (size 15 to 20)
#    1.500    0.000    2.500    4.500    0.000    1.000 
#    0.000    1.250    0.000    0.000    0.000    0.000 
#    0.000    0.000    0.000    0.000    0.000    0.000 
#
# Total GULP energy -198298.001313 kJ/mol
# GULP energy per Si atom -12393.625082 kJ/mol
# Density = 1.804710 g / cm^3
# Si number density = 18.088266 Si / 1000 Ang^3
#
#
#
# Elastic Constant Matrix: (Units=GPa)
#
#
# Indices 1 2 3 4 5 6 
#
# 1 98.3926 14.6647 36.9112 -0.0016 15.2703 0.0003
# 2 14.6647 87.4084 20.6908 -0.0015 -0.0809 0.0003
# 3 36.9112 20.6908 120.2008 -0.0021 8.0142 0.0006
# 4 -0.0016 -0.0015 -0.0021 18.4829 0.0011 -10.8976
# 5 15.2703 -0.0809 8.0142 0.0011 26.2541 -0.0003
# 6 0.0003 0.0003 0.0006 -10.8976 -0.0003 40.3081
#
#
#
# Elastic Compliance Matrix: (Units=1/GPa)
#
#
# Indices 1 2 3 4 5 6 
#
# 1 0.012547 -0.001354 -0.003198 0.000001 -0.006325 0.000000
# 2 -0.001354 0.012084 -0.001755 0.000001 0.001360 0.000000
# 3 -0.003198 -0.001755 0.009677 0.000001 -0.001099 0.000000
# 4 0.000001 0.000001 0.000001 0.064364 -0.000003 0.017401
# 5 -0.006325 0.001360 -0.001099 -0.000003 0.042108 -0.000001
# 6 0.000000 0.000000 0.000000 0.017401 -0.000001 0.029513
#
#
# Mechanical properties :
#
#
# Convention : Reuss Voigt Hill
#
# Bulk Modulus (GPa) = 46.09584 50.05948 48.07766
# Shear Modulus (GPa) = 26.29658 32.59136 29.44397
#
# Velocity S-wave (km/s) = 3.81700 4.24936 4.03897
# Velocity P-wave (km/s) = 6.70560 7.19801 6.95616
#
# Compressibility (1/GPa) = 0.02169393
#
# Stress axis : x y z
#
# Youngs Moduli (GPa) = 79.70322 82.75129 103.33927
#
# Poissons Ratio (x) = 0.11203 0.33048
# Poissons Ratio (y) = 0.10790 0.18137
# Poissons Ratio (z) = 0.25489 0.14524
#
# Static dielectric constant tensor:
#      x y z
#    x 3.040810 0.000000 0.127130 
#    y 0.000000 3.368920 0.000000 
#    z 0.127130 0.000000 3.367650 
# 
# 
# High freq. dielectric constant tensor:
#      x y z
#    x 1.695150 0.000000 0.004550 
#    y 0.000000 1.710860 0.000000 
#    z 0.004550 0.000000 1.696560 
# 
# From -- ./inp_files/75674.got.cif
#   From: 2010.06.25/outbox.cif.g09.slc.cpg/sg15_38_cif.got.tgz:75674.got - 2010.06.28 07:06:18.
