data_PCOD8143814
_publ_section_title
;
Structure prediction by ZEFSAII (Michael W. Deem and Ramdas Pophale) SiO2 
 PCOD8143814
Probable space group: C 2/C
;
_chemical_formula_sum "Si O2"
_cell_formula_units_Z 60
_cell_length_a 19.564534
_cell_length_b 9.119187
_cell_length_c 16.605866
_cell_angle_alpha 90.000000
_cell_angle_beta 75.305731
_cell_angle_gamma 90.000000
_cell_volume 2865.795933
_symmetry_space_group_name_H-M "C 2/C"
_symmetry_group_IT_number 15
_symmetry_cell_setting 'monoclinic'
loop_
_space_group_symop_operation_xyz
x,y,z
-x,y,1/2-z
-x,-y,-z
x,-y,1/2+z
1/2+x,1/2+y,z
1/2-x,1/2+y,1/2-z
1/2-x,1/2-y,-z
1/2+x,1/2-y,1/2+z
loop_
_atom_site_type_symbol
_atom_site_label
_atom_site_fract_x
_atom_site_fract_y
_atom_site_fract_z
Si Si1 0.381170 0.456404 0.386114
Si Si2 0.372302 0.756721 0.026621
Si Si3 0.000000 0.924602 0.750000
Si Si4 0.690812 0.948229 0.217844
Si Si5 0.675202 0.770343 0.062146
Si Si6 0.940496 0.531772 0.950890
Si Si7 0.557559 0.172997 0.832164
Si Si8 0.233120 0.225564 0.670073
O O1 0.383503 0.396207 0.476782
O O2 0.459382 0.470496 0.324850
O O3 0.347634 0.615871 0.395858
O O4 0.336597 0.347115 0.344447
O O5 0.425873 0.762902 0.084724
O O6 0.292506 0.776325 0.082342
O O7 0.392871 0.885543 0.956489
O O8 0.944704 0.816846 0.722468
O O9 0.684001 0.884981 0.131166
O O10 0.615451 0.942219 0.285007
O O11 0.745992 0.859485 0.255513
O O12 0.717597 0.112181 0.204081
O O13 0.616374 0.835927 0.016861
O O14 0.750000 0.750000 0.000000
O O15 0.983194 0.582664 0.857631
O O16 0.000000 0.500000 0.000000
#
# Coordination Sequence:
#
# PCOD8143814 Si02
#       8
#     8   8   4   8   8   8   8   8
#     4  12  24  41  64  97 134 174 221 276 342 398
#     4  10  23  41  66  96 134 169 221 287 336 400
#     4  12  24  42  64  96 136 178 218 280 332 402
#     4  11  23  41  68  94 134 182 222 283 344 405
#     4  12  23  40  66  96 131 177 230 280 342 409
#     4  10  21  41  65  91 125 179 228 274 342 407
#     4  10  21  43  66  90 133 177 226 277 338 399
#     4  11  24  42  66 101 136 173 226 283 341 404
#
# _framework density 20.936591
#
# number of rings (size 3 to 8) (size 9 to 14) (size 15 to 20)
#    0.000    1.067    2.667    3.600    1.867    3.733 
#    0.000    0.000    0.000    0.000    0.000    0.000 
#    0.000    0.000    0.000    0.000    0.000    0.000 
#
# Total GULP energy -371911.087967 kJ/mol
# GULP energy per Si atom -12397.036266 kJ/mol
# Density = 2.088894 g / cm^3
# Si number density = 20.936591 Si / 1000 Ang^3
#
#
#
# Elastic Constant Matrix: (Units=GPa)
#
#
# Indices 1 2 3 4 5 6 
#
# 1 103.6944 56.1148 52.4828 0.0000 -16.8793 0.0000
# 2 56.1148 144.6945 49.6240 0.0000 -3.5005 0.0000
# 3 52.4828 49.6240 92.2983 0.0000 -9.6900 0.0000
# 4 0.0000 0.0000 0.0000 41.8646 0.0000 -1.8468
# 5 -16.8793 -3.5005 -9.6900 0.0000 38.9300 0.0000
# 6 0.0000 0.0000 0.0000 -1.8468 0.0000 41.1638
#
#
#
# Elastic Compliance Matrix: (Units=1/GPa)
#
#
# Indices 1 2 3 4 5 6 
#
# 1 0.015724 -0.003788 -0.006391 0.000000 0.004886 0.000000
# 2 -0.003788 0.009392 -0.003059 0.000000 -0.001559 0.000000
# 3 -0.006391 -0.003059 0.016218 0.000000 0.000990 0.000000
# 4 0.000000 0.000000 0.000000 0.023934 0.000000 0.001074
# 5 0.004886 -0.001559 0.000990 0.000000 0.027912 0.000000
# 6 0.000000 0.000000 0.000000 0.001074 0.000000 0.024341
#
#
# Mechanical properties :
#
#
# Convention : Reuss Voigt Hill
#
# Bulk Modulus (GPa) = 67.31308 73.01449 70.16379
# Shear Modulus (GPa) = 33.56861 36.55605 35.06233
#
# Velocity S-wave (km/s) = 4.00852 4.18309 4.09674
# Velocity P-wave (km/s) = 7.32428 7.63419 7.48084
#
# Compressibility (1/GPa) = 0.01485595
#
# Stress axis : x y z
#
# Youngs Moduli (GPa) = 63.59830 106.47913 61.66173
#
# Poissons Ratio (x) = 0.40331 0.39411
# Poissons Ratio (y) = 0.24089 0.18864
# Poissons Ratio (z) = 0.40648 0.32575
#
# Static dielectric constant tensor:
#      x y z
#    x 4.005350 0.000000 -0.175070 
#    y 0.000000 3.926110 0.000000 
#    z -0.175070 0.000000 4.009640 
# 
# 
# High freq. dielectric constant tensor:
#      x y z
#    x 1.831620 0.000000 -0.006920 
#    y 0.000000 1.822210 0.000000 
#    z -0.006920 0.000000 1.822530 
# 
# From -- ./inp_files/213839.got.cif
#   From: 2010.06.25/outbox.cif.g09.slc.cpg/sg15_107_cif.got.tgz:213839.got - 2010.06.28 07:06:18.
