data_PCOD8143793
_publ_section_title
;
Structure prediction by ZEFSAII (Michael W. Deem and Ramdas Pophale) SiO2 
 PCOD8143793
Probable space group: C 2/C
;
_chemical_formula_sum "Si O2"
_cell_formula_units_Z 36
_cell_length_a 20.289424
_cell_length_b 12.608848
_cell_length_c 7.641306
_cell_angle_alpha 90.000000
_cell_angle_beta 44.499592
_cell_angle_gamma 90.000000
_cell_volume 1370.160276
_symmetry_space_group_name_H-M "C 2/C"
_symmetry_group_IT_number 15
_symmetry_cell_setting 'monoclinic'
loop_
_space_group_symop_operation_xyz
x,y,z
-x,y,1/2-z
-x,-y,-z
x,-y,1/2+z
1/2+x,1/2+y,z
1/2-x,1/2+y,1/2-z
1/2-x,1/2-y,-z
1/2+x,1/2-y,1/2+z
loop_
_atom_site_type_symbol
_atom_site_label
_atom_site_fract_x
_atom_site_fract_y
_atom_site_fract_z
Si Si1 0.272142 0.229797 0.158707
Si Si2 0.500000 0.433871 0.250000
Si Si3 0.605053 0.845840 0.584777
Si Si4 0.626491 0.403542 0.314392
Si Si5 0.684454 0.964441 0.729204
O O1 0.174973 0.243977 0.456845
O O2 0.349908 0.306856 0.098855
O O3 0.305443 0.108341 0.115378
O O4 0.250000 0.250000 0.000000
O O5 0.549906 0.365776 0.311697
O O6 0.417545 0.505263 0.483999
O O7 0.500000 0.807010 0.750000
O O8 0.602427 0.910667 0.769433
O O9 0.651787 0.918440 0.343162
O O10 0.719335 0.460145 0.062590
#
# Coordination Sequence:
#
# PCOD8143793 Si02
#       5
#     8   4   8   8   8
#     4  11  25  46  66  98 141 189 233 283 361 416
#     4  10  22  40  68 104 136 174 240 282 350 428
#     4  11  23  44  74 100 133 183 238 290 339 417
#     4  10  21  41  64  99 138 182 223 289 352 419
#     4  11  23  44  69  96 139 181 230 280 361 408
#
# _framework density 26.274297000000001
#
# number of rings (size 3 to 8) (size 9 to 14) (size 15 to 20)
#    0.000    1.333    0.000    7.333    0.000    5.333 
#   18.000    0.000    0.000    0.000    0.000    0.000 
#    0.000    0.000    0.000    0.000    0.000    0.000 
#
# Total GULP energy -223162.729038 kJ/mol
# GULP energy per Si atom -12397.929391 kJ/mol
# Density = 2.621450 g / cm^3
# Si number density = 26.274297 Si / 1000 Ang^3
#
#
#
# Elastic Constant Matrix: (Units=GPa)
#
#
# Indices 1 2 3 4 5 6 
#
# 1 183.0874 22.4198 23.6504 0.0000 -7.6051 0.0000
# 2 22.4198 51.1490 11.3577 0.0000 -18.0541 0.0000
# 3 23.6504 11.3577 72.7762 0.0000 -11.4918 0.0000
# 4 0.0000 0.0000 0.0000 31.5967 0.0000 3.2009
# 5 -7.6051 -18.0541 -11.4918 0.0000 48.0423 0.0000
# 6 0.0000 0.0000 0.0000 3.2009 0.0000 39.2101
#
#
#
# Elastic Compliance Matrix: (Units=1/GPa)
#
#
# Indices 1 2 3 4 5 6 
#
# 1 0.005946 -0.002366 -0.001616 0.000000 -0.000334 0.000000
# 2 -0.002366 0.023847 -0.001660 0.000000 0.008190 0.000000
# 3 -0.001616 -0.001660 0.014951 0.000000 0.002697 0.000000
# 4 0.000000 0.000000 0.000000 0.031913 0.000000 -0.002605
# 5 -0.000334 0.008190 0.002697 0.000000 0.024485 0.000000
# 6 0.000000 0.000000 0.000000 -0.002605 0.000000 0.025716
#
#
# Mechanical properties :
#
#
# Convention : Reuss Voigt Hill
#
# Bulk Modulus (GPa) = 29.88484 46.87426 38.37955
# Shear Modulus (GPa) = 33.49082 40.40880 36.94981
#
# Velocity S-wave (km/s) = 3.57411 3.92594 3.75415
# Velocity P-wave (km/s) = 5.33210 6.19917 5.78191
#
# Compressibility (1/GPa) = 0.03346178
#
# Stress axis : x y z
#
# Youngs Moduli (GPa) = 168.16858 41.93396 66.88620
#
# Poissons Ratio (x) = 0.09920 0.10809
# Poissons Ratio (y) = 0.39782 0.11100
# Poissons Ratio (z) = 0.27177 0.06959
#
# Static dielectric constant tensor:
#      x y z
#    x 5.328220 0.000000 0.040260 
#    y 0.000000 4.697670 0.000000 
#    z 0.040260 0.000000 4.523780 
# 
# 
# High freq. dielectric constant tensor:
#      x y z
#    x 2.082480 0.000000 0.006500 
#    y 0.000000 2.060900 0.000000 
#    z 0.006500 0.000000 2.035790 
# 
# From -- ./inp_files/55591.got.cif
#   From: 2010.06.25/outbox.cif.g09.slc.cpg/sg15_28_cif.got.tgz:55591.got - 2010.06.28 07:06:18.
