data_PCOD8143722
_publ_section_title
;
Structure prediction by ZEFSAII (Michael W. Deem and Ramdas Pophale) SiO2 
 PCOD8143722
Probable space group: C 2/C
;
_chemical_formula_sum "Si O2"
_cell_formula_units_Z 48
_cell_length_a 9.195905
_cell_length_b 10.662805
_cell_length_c 22.140156
_cell_angle_alpha 90.000000
_cell_angle_beta 82.858654
_cell_angle_gamma 90.000000
_cell_volume 2154.092945
_symmetry_space_group_name_H-M "C 2/C"
_symmetry_group_IT_number 15
_symmetry_cell_setting 'monoclinic'
loop_
_space_group_symop_operation_xyz
x,y,z
-x,y,1/2-z
-x,-y,-z
x,-y,1/2+z
1/2+x,1/2+y,z
1/2-x,1/2+y,1/2-z
1/2-x,1/2-y,-z
1/2+x,1/2-y,1/2+z
loop_
_atom_site_type_symbol
_atom_site_label
_atom_site_fract_x
_atom_site_fract_y
_atom_site_fract_z
Si Si1 0.345111 0.939122 0.229937
Si Si2 0.340243 0.915589 0.992102
Si Si3 0.094253 0.808937 0.932052
Si Si4 0.455075 0.886606 0.630164
Si Si5 0.766318 0.157659 0.445426
Si Si6 0.707684 0.189157 0.195613
O O1 0.500000 0.896103 0.250000
O O2 0.379496 0.988008 0.160670
O O3 0.270686 0.057651 0.269259
O O4 0.239052 0.815854 0.233306
O O5 0.173729 0.885132 0.981659
O O6 0.427044 0.928009 0.925451
O O7 0.419802 0.826387 0.036374
O O8 0.332032 0.040315 0.030752
O O9 0.180453 0.807734 0.865415
O O10 0.936497 0.868269 0.924015
O O11 0.323344 0.798285 0.610011
O O12 0.539495 0.809382 0.679024
O O13 0.750000 0.250000 0.500000
#
# Coordination Sequence:
#
# PCOD8143722 Si02
#       6
#     8   8   8   8   8   8
#     4  10  23  46  71  96 130 175 235 285 343 397
#     4  10  21  41  63  94 137 175 217 269 330 400
#     4  10  22  41  65  93 133 177 220 274 330 397
#     4  10  22  43  67  98 136 180 216 279 336 401
#     4  12  23  36  63 102 136 171 216 258 328 410
#     4  10  23  46  72  97 133 182 226 288 340 395
#
# _framework density 22.283161
#
# number of rings (size 3 to 8) (size 9 to 14) (size 15 to 20)
#    0.000    1.667    1.667    2.000    2.333    1.333 
#    9.000    9.167    0.000    0.000    0.000    0.000 
#    0.000    0.000    0.000    0.000    0.000    0.000 
#
# Total GULP energy -297324.386704 kJ/mol
# GULP energy per Si atom -12388.516113 kJ/mol
# Density = 2.223244 g / cm^3
# Si number density = 22.283161 Si / 1000 Ang^3
#
#
#
# Elastic Constant Matrix: (Units=GPa)
#
#
# Indices 1 2 3 4 5 6 
#
# 1 120.7228 39.6639 31.7511 0.0000 43.6145 0.0000
# 2 39.6639 120.6033 42.4009 0.0000 21.4379 0.0000
# 3 31.7511 42.4009 92.0877 0.0000 13.3171 0.0000
# 4 0.0000 0.0000 0.0000 26.7194 0.0000 2.5586
# 5 43.6145 21.4379 13.3171 0.0000 38.2541 0.0000
# 6 0.0000 0.0000 0.0000 2.5586 0.0000 28.4516
#
#
#
# Elastic Compliance Matrix: (Units=1/GPa)
#
#
# Indices 1 2 3 4 5 6 
#
# 1 0.014908 -0.001355 -0.002283 0.000000 -0.015443 0.000000
# 2 -0.001355 0.010691 -0.004014 0.000000 -0.003048 0.000000
# 3 -0.002283 -0.004014 0.013471 0.000000 0.000163 0.000000
# 4 0.000000 0.000000 0.000000 0.037751 0.000000 -0.003395
# 5 -0.015443 -0.003048 0.000163 0.000000 0.045400 0.000000
# 6 0.000000 0.000000 0.000000 -0.003395 0.000000 0.035453
#
#
# Mechanical properties :
#
#
# Convention : Reuss Voigt Hill
#
# Bulk Modulus (GPa) = 42.07850 62.33840 52.20845
# Shear Modulus (GPa) = 27.63949 33.32488 30.48219
#
# Velocity S-wave (km/s) = 3.52572 3.87139 3.70259
# Velocity P-wave (km/s) = 5.95809 6.92963 6.46214
#
# Compressibility (1/GPa) = 0.02376511
#
# Stress axis : x y z
#
# Youngs Moduli (GPa) = 67.07588 93.54061 74.23285
#
# Poissons Ratio (x) = 0.12678 0.16947
# Poissons Ratio (y) = 0.09091 0.29799
# Poissons Ratio (z) = 0.15313 0.37549
#
# Static dielectric constant tensor:
#      x y z
#    x 4.813090 0.000000 0.299300 
#    y 0.000000 3.966990 0.000000 
#    z 0.299300 0.000000 4.230990 
# 
# 
# High freq. dielectric constant tensor:
#      x y z
#    x 1.890630 0.000000 0.012370 
#    y 0.000000 1.855460 0.000000 
#    z 0.012370 0.000000 1.892070 
# 
# From -- ./inp_files/263164.got.cif
#   From: 2010.06.25/outbox.cif.g09.slc.cpg/sg15_132_cif.got.tgz:263164.got - 2010.06.28 07:06:18.
