data_PCOD8143092
_publ_section_title
;
Structure prediction by ZEFSAII (Michael W. Deem and Ramdas Pophale) SiO2 
 PCOD8143092
Probable space group: C 2/C
;
_chemical_formula_sum "Si O2"
_cell_formula_units_Z 40
_cell_length_a 12.048240
_cell_length_b 8.492465
_cell_length_c 17.738020
_cell_angle_alpha 90.000000
_cell_angle_beta 94.947581
_cell_angle_gamma 90.000000
_cell_volume 1808.178582
_symmetry_space_group_name_H-M "C 2/C"
_symmetry_group_IT_number 15
_symmetry_cell_setting 'monoclinic'
loop_
_space_group_symop_operation_xyz
x,y,z
-x,y,1/2-z
-x,-y,-z
x,-y,1/2+z
1/2+x,1/2+y,z
1/2-x,1/2+y,1/2-z
1/2-x,1/2-y,-z
1/2+x,1/2-y,1/2+z
loop_
_atom_site_type_symbol
_atom_site_label
_atom_site_fract_x
_atom_site_fract_y
_atom_site_fract_z
Si Si1 0.879615 0.657941 0.235445
Si Si2 0.431367 0.329540 0.667678
Si Si3 0.128471 0.162877 0.067584
Si Si4 0.337943 0.641150 0.598169
Si Si5 0.765028 0.907444 0.325263
O O1 0.886162 0.716890 0.150008
O O2 0.860122 0.800134 0.293186
O O3 0.777458 0.535942 0.239184
O O4 0.000000 0.576002 0.250000
O O5 0.500000 0.347876 0.750000
O O6 0.517650 0.296645 0.606057
O O7 0.357422 0.482432 0.645926
O O8 0.346166 0.185402 0.659665
O O9 0.206974 0.317852 0.079127
O O10 0.182788 0.999613 0.101115
O O11 0.099433 0.133424 0.978400
#
# Coordination Sequence:
#
# PCOD8143092 Si02
#       5
#     8   8   8   8   8
#     4  11  22  39  61  87 118 155 196 245 295 346
#     4  12  23  38  62  89 118 156 197 243 291 344
#     4  10  23  42  60  87 123 156 193 243 292 348
#     4  10  21  40  62  86 121 157 195 240 293 350
#     4  11  24  39  61  90 117 154 202 241 292 352
#
# _framework density 22.121708999999999
#
# number of rings (size 3 to 8) (size 9 to 14) (size 15 to 20)
#    0.000    1.200    0.000    7.800    0.000    2.400 
#    0.000   11.000    0.000    0.000    0.000    0.000 
#    0.000    0.000    0.000    0.000    0.000    0.000 
#
# Total GULP energy -247913.956211 kJ/mol
# GULP energy per Si atom -12395.697811 kJ/mol
# Density = 2.207136 g / cm^3
# Si number density = 22.121709 Si / 1000 Ang^3
#
#
#
# Elastic Constant Matrix: (Units=GPa)
#
#
# Indices 1 2 3 4 5 6 
#
# 1 85.4581 24.0792 36.8471 0.0000 -10.1103 0.0000
# 2 24.0792 65.1002 18.7103 0.0000 -8.1502 0.0000
# 3 36.8471 18.7103 105.2898 0.0000 -17.8362 0.0000
# 4 0.0000 0.0000 0.0000 20.9642 0.0000 -3.1283
# 5 -10.1103 -8.1502 -17.8362 0.0000 28.2571 0.0000
# 6 0.0000 0.0000 0.0000 -3.1283 0.0000 39.2477
#
#
#
# Elastic Compliance Matrix: (Units=1/GPa)
#
#
# Indices 1 2 3 4 5 6 
#
# 1 0.014849 -0.004096 -0.004220 0.000000 0.001468 0.000000
# 2 -0.004096 0.017579 -0.001209 0.000000 0.002842 0.000000
# 3 -0.004220 -0.001209 0.012176 0.000000 0.005827 0.000000
# 4 0.000000 0.000000 0.000000 0.048274 0.000000 0.003848
# 5 0.001468 0.002842 0.005827 0.000000 0.040412 0.000000
# 6 0.000000 0.000000 0.000000 0.003848 0.000000 0.025786
#
#
# Mechanical properties :
#
#
# Convention : Reuss Voigt Hill
#
# Bulk Modulus (GPa) = 39.13167 46.12458 42.62812
# Shear Modulus (GPa) = 26.78882 29.44124 28.11503
#
# Velocity S-wave (km/s) = 3.48368 3.65207 3.56887
# Velocity P-wave (km/s) = 5.82315 6.21926 6.02446
#
# Compressibility (1/GPa) = 0.02555475
#
# Stress axis : x y z
#
# Youngs Moduli (GPa) = 67.34518 56.88562 82.12581
#
# Poissons Ratio (x) = 0.23298 0.34657
# Poissons Ratio (y) = 0.27582 0.09930
# Poissons Ratio (z) = 0.28420 0.06878
#
# Static dielectric constant tensor:
#      x y z
#    x 4.006130 0.000000 0.082210 
#    y 0.000000 4.213370 0.000000 
#    z 0.082210 0.000000 4.069670 
# 
# 
# High freq. dielectric constant tensor:
#      x y z
#    x 1.878440 0.000000 -0.003500 
#    y 0.000000 1.870380 0.000000 
#    z -0.003500 0.000000 1.868760 
# 
# From -- ./inp_files/195169.got.cif
#   From: 2010.06.25/outbox.cif.g09.slc.cpg/sg15_98_cif.got.tgz:195169.got - 2010.06.28 07:06:18.
