data_PCOD8143680
_publ_section_title
;
Structure prediction by ZEFSAII (Michael W. Deem and Ramdas Pophale) SiO2 
 PCOD8143680
Probable space group: C 2/C
;
_chemical_formula_sum "Si O2"
_cell_formula_units_Z 32
_cell_length_a 11.728189
_cell_length_b 8.258547
_cell_length_c 13.700866
_cell_angle_alpha 90.000000
_cell_angle_beta 91.639518
_cell_angle_gamma 90.000000
_cell_volume 1326.492477
_symmetry_space_group_name_H-M "C 2/C"
_symmetry_group_IT_number 15
_symmetry_cell_setting 'monoclinic'
loop_
_space_group_symop_operation_xyz
x,y,z
-x,y,1/2-z
-x,-y,-z
x,-y,1/2+z
1/2+x,1/2+y,z
1/2-x,1/2+y,1/2-z
1/2-x,1/2-y,-z
1/2+x,1/2-y,1/2+z
loop_
_atom_site_type_symbol
_atom_site_label
_atom_site_fract_x
_atom_site_fract_y
_atom_site_fract_z
Si Si1 0.694628 0.579848 0.389375
Si Si2 0.150177 0.555092 0.442148
Si Si3 0.480478 0.221019 0.905053
Si Si4 0.737466 0.236192 0.711228
O O1 0.769239 0.556060 0.487615
O O2 0.564664 0.625319 0.415008
O O3 0.750538 0.727385 0.327149
O O4 0.693761 0.423155 0.318927
O O5 0.104311 0.711730 0.502169
O O6 0.217271 0.611534 0.349164
O O7 0.045755 0.449064 0.401444
O O8 0.399338 0.226876 0.808435
#
# Coordination Sequence:
#
# PCOD8143680 Si02
#       4
#     8   8   8   8
#     4  11  22  40  65  92 128 167 208 259 312 370
#     4  10  23  42  66  92 125 167 210 258 311 372
#     4  10  21  41  63  87 122 164 203 254 313 365
#     4  11  24  41  62  94 129 164 211 261 309 371
#
# _framework density 24.123771000000001
#
# number of rings (size 3 to 8) (size 9 to 14) (size 15 to 20)
#    0.000    1.500    0.000    6.000    0.000    6.000 
#    0.000   18.750    0.000    0.000    0.000    0.000 
#    0.000    0.000    0.000    0.000    0.000    0.000 
#
# Total GULP energy -198440.582422 kJ/mol
# GULP energy per Si atom -12402.536401 kJ/mol
# Density = 2.406886 g / cm^3
# Si number density = 24.123771 Si / 1000 Ang^3
#
#
#
# Elastic Constant Matrix: (Units=GPa)
#
#
# Indices 1 2 3 4 5 6 
#
# 1 130.5763 40.4862 34.3386 0.0000 -3.1375 0.0000
# 2 40.4862 43.2508 3.2319 0.0000 -3.4028 0.0000
# 3 34.3386 3.2319 79.5195 0.0000 -6.7784 0.0000
# 4 0.0000 0.0000 0.0000 39.9877 0.0000 -6.3225
# 5 -3.1375 -3.4028 -6.7784 0.0000 20.8587 0.0000
# 6 0.0000 0.0000 0.0000 -6.3225 0.0000 46.4886
#
#
#
# Elastic Compliance Matrix: (Units=1/GPa)
#
#
# Indices 1 2 3 4 5 6 
#
# 1 0.012505 -0.011456 -0.005074 0.000000 -0.001637 0.000000
# 2 -0.011456 0.033948 0.004003 0.000000 0.005116 0.000000
# 3 -0.005074 0.004003 0.015010 0.000000 0.004768 0.000000
# 4 0.000000 0.000000 0.000000 0.025557 0.000000 0.003476
# 5 -0.001637 0.005116 0.004768 0.000000 0.050079 0.000000
# 6 0.000000 0.000000 0.000000 0.003476 0.000000 0.021983
#
#
# Mechanical properties :
#
#
# Convention : Reuss Voigt Hill
#
# Bulk Modulus (GPa) = 27.46468 45.49558 36.48013
# Shear Modulus (GPa) = 25.47476 33.15301 29.31388
#
# Velocity S-wave (km/s) = 3.25314 3.71116 3.48967
# Velocity P-wave (km/s) = 5.05175 6.10441 5.60286
#
# Compressibility (1/GPa) = 0.03641040
#
# Stress axis : x y z
#
# Youngs Moduli (GPa) = 79.96627 29.45714 66.62076
#
# Poissons Ratio (x) = 0.33745 0.33804
# Poissons Ratio (y) = 0.91606 -0.26669
# Poissons Ratio (z) = 0.40575 -0.11792
#
# Static dielectric constant tensor:
#      x y z
#    x 4.352500 0.000000 -0.257630 
#    y 0.000000 4.287880 0.000000 
#    z -0.257630 0.000000 4.352770 
# 
# 
# High freq. dielectric constant tensor:
#      x y z
#    x 1.955530 0.000000 -0.017140 
#    y 0.000000 1.955110 0.000000 
#    z -0.017140 0.000000 1.962610 
# 
# From -- ./inp_files/140544.got.cif
#   From: 2010.06.25/outbox.cif.g09.slc.cpg/sg15_71_cif.got.tgz:140544.got - 2010.06.28 07:06:18.
