data_PCOD8143020
_publ_section_title
;
Structure prediction by ZEFSAII (Michael W. Deem and Ramdas Pophale) SiO2 
 PCOD8143020
Probable space group: C 2/C
;
_chemical_formula_sum "Si O2"
_cell_formula_units_Z 40
_cell_length_a 17.757048
_cell_length_b 18.029747
_cell_length_c 11.936662
_cell_angle_alpha 90.000000
_cell_angle_beta 32.168725
_cell_angle_gamma 90.000000
_cell_volume 2034.665447
_symmetry_space_group_name_H-M "C 2/C"
_symmetry_group_IT_number 15
_symmetry_cell_setting 'monoclinic'
loop_
_space_group_symop_operation_xyz
x,y,z
-x,y,1/2-z
-x,-y,-z
x,-y,1/2+z
1/2+x,1/2+y,z
1/2-x,1/2+y,1/2-z
1/2-x,1/2-y,-z
1/2+x,1/2-y,1/2+z
loop_
_atom_site_type_symbol
_atom_site_label
_atom_site_fract_x
_atom_site_fract_y
_atom_site_fract_z
Si Si1 0.705886 0.089898 0.441903
Si Si2 0.700073 0.714582 0.675652
Si Si3 0.872526 0.428715 0.999598
Si Si4 0.572285 0.131635 0.827435
Si Si5 0.120519 0.784256 0.863025
O O1 0.680994 0.089770 0.607450
O O2 0.581142 0.131569 0.534110
O O3 0.847524 0.136866 0.236686
O O4 0.714049 0.005606 0.388571
O O5 0.750000 0.750000 0.500000
O O6 0.759801 0.632080 0.606341
O O7 0.757775 0.766980 0.700699
O O8 0.531208 0.711081 0.887132
O O9 0.000000 0.433533 0.750000
O O10 0.933243 0.410035 0.046098
O O11 0.620745 0.217034 0.774105
#
# Coordination Sequence:
#
# PCOD8143020 Si02
#       5
#     8   8   8   8   8
#     4  11  22  37  66  88 124 165 206 262 309 375
#     4  11  23  40  62  92 126 166 206 256 308 376
#     4  11  23  38  63  91 126 164 209 258 315 377
#     4  10  21  40  59  93 120 163 211 253 310 377
#     4  11  22  40  62  90 124 160 214 252 310 370
#
# _framework density 19.659251000000001
#
# number of rings (size 3 to 8) (size 9 to 14) (size 15 to 20)
#    0.000    1.200    4.000    4.200    0.000    0.800 
#    0.000    0.000    0.000    0.000    0.000    0.000 
#    0.000    0.000    0.000    0.000    0.000    0.000 
#
# Total GULP energy -247994.483991 kJ/mol
# GULP energy per Si atom -12399.724200 kJ/mol
# Density = 1.961451 g / cm^3
# Si number density = 19.659251 Si / 1000 Ang^3
#
#
#
# Elastic Constant Matrix: (Units=GPa)
#
#
# Indices 1 2 3 4 5 6 
#
# 1 79.7493 38.6262 31.4727 -0.0015 21.9889 0.0005
# 2 38.6262 129.2563 46.3940 -0.0003 10.5063 0.0002
# 3 31.4727 46.3940 113.9387 -0.0011 8.7321 0.0009
# 4 -0.0015 -0.0003 -0.0011 33.7531 0.0011 -0.5443
# 5 21.9889 10.5063 8.7321 0.0011 27.2710 -0.0005
# 6 0.0005 0.0002 0.0009 -0.5443 -0.0005 21.1025
#
#
#
# Elastic Compliance Matrix: (Units=1/GPa)
#
#
# Indices 1 2 3 4 5 6 
#
# 1 0.018974 -0.003618 -0.002770 0.000001 -0.013018 -0.000001
# 2 -0.003618 0.009902 -0.003038 0.000000 0.000075 0.000000
# 3 -0.002770 -0.003038 0.010783 0.000000 -0.000048 0.000000
# 4 0.000001 0.000000 0.000000 0.029639 -0.000002 0.000765
# 5 -0.013018 0.000075 -0.000048 -0.000002 0.047152 0.000001
# 6 -0.000001 0.000000 0.000000 0.000765 0.000001 0.047408
#
#
# Mechanical properties :
#
#
# Convention : Reuss Voigt Hill
#
# Bulk Modulus (GPa) = 48.06245 61.77000 54.91623
# Shear Modulus (GPa) = 26.36480 30.18876 28.27678
#
# Velocity S-wave (km/s) = 3.66606 3.92293 3.79667
# Velocity P-wave (km/s) = 6.51313 7.21163 6.87126
#
# Compressibility (1/GPa) = 0.02080626
#
# Stress axis : x y z
#
# Youngs Moduli (GPa) = 52.70286 100.98834 92.74020
#
# Poissons Ratio (x) = 0.36534 0.25693
# Poissons Ratio (y) = 0.19066 0.28179
# Poissons Ratio (z) = 0.14601 0.30685
#
# Static dielectric constant tensor:
#      x y z
#    x 1.648210 0.000000 1.141790 
#    y 0.000000 3.857040 0.000000 
#    z 1.141790 0.000000 3.014460 
# 
# 
# High freq. dielectric constant tensor:
#      x y z
#    x 1.766020 0.000000 0.013570 
#    y 0.000000 1.777200 0.000000 
#    z 0.013570 0.000000 1.759460 
# 
# From -- ./inp_files/48287.got.cif
#   From: 2010.06.25/outbox.cif.g09.slc.cpg/sg15_25_cif.got.tgz:48287.got - 2010.06.28 07:06:18.
