data_PCOD8143136
_publ_section_title
;
Structure prediction by ZEFSAII (Michael W. Deem and Ramdas Pophale) SiO2 
 PCOD8143136
Probable space group: C 2/C
;
_chemical_formula_sum "Si O2"
_cell_formula_units_Z 60
_cell_length_a 15.217932
_cell_length_b 18.997284
_cell_length_c 11.130726
_cell_angle_alpha 90.000000
_cell_angle_beta 88.550165
_cell_angle_gamma 90.000000
_cell_volume 3216.855771
_symmetry_space_group_name_H-M "C 2/C"
_symmetry_group_IT_number 15
_symmetry_cell_setting 'monoclinic'
loop_
_space_group_symop_operation_xyz
x,y,z
-x,y,1/2-z
-x,-y,-z
x,-y,1/2+z
1/2+x,1/2+y,z
1/2-x,1/2+y,1/2-z
1/2-x,1/2-y,-z
1/2+x,1/2-y,1/2+z
loop_
_atom_site_type_symbol
_atom_site_label
_atom_site_fract_x
_atom_site_fract_y
_atom_site_fract_z
Si Si1 0.065557 0.561514 0.039898
Si Si2 0.800720 0.581031 0.669426
Si Si3 0.000000 0.232517 0.750000
Si Si4 0.657017 0.312740 0.100940
Si Si5 0.179358 0.429492 0.760607
Si Si6 0.078150 0.666349 0.435012
Si Si7 0.901180 0.699275 0.799792
Si Si8 0.211039 0.194122 0.340937
O O1 0.095908 0.555688 0.176785
O O2 0.016561 0.635514 0.026941
O O3 0.152716 0.566827 0.958625
O O4 0.000000 0.500000 0.000000
O O5 0.711004 0.622781 0.653982
O O6 0.775792 0.505125 0.722411
O O7 0.865241 0.624412 0.754375
O O8 0.940056 0.184660 0.838610
O O9 0.932782 0.277640 0.671315
O O10 0.702733 0.238106 0.126229
O O11 0.648722 0.319615 0.957746
O O12 0.142200 0.395825 0.885649
O O13 0.256294 0.380745 0.707314
O O14 0.112741 0.701759 0.555877
O O15 0.844621 0.765157 0.756666
O O16 0.000000 0.708476 0.750000
#
# Coordination Sequence:
#
# PCOD8143136 Si02
#       8
#     8   8   4   8   8   8   8   8
#     4  12  21  35  57  90 130 162 194 241 312 376
#     4  11  24  37  60  89 124 161 199 247 309 372
#     4  12  22  40  64  88 112 160 216 250 300 362
#     4  10  21  40  63  87 116 163 207 252 297 369
#     4  12  23  38  58  91 127 162 201 249 309 372
#     4  12  22  34  56  91 122 153 204 254 297 365
#     4  11  23  37  57  89 121 158 203 251 305 361
#     4  10  21  41  62  84 124 162 200 252 311 360
#
# _framework density 18.651754
#
# number of rings (size 3 to 8) (size 9 to 14) (size 15 to 20)
#    0.000    0.800    6.667    1.600    1.867    0.533 
#    0.000    0.000    1.467    0.800    0.000    0.000 
#    0.000    0.000    0.000    0.000    0.000    0.000 
#
# Total GULP energy -372065.224162 kJ/mol
# GULP energy per Si atom -12402.174139 kJ/mol
# Density = 1.860930 g / cm^3
# Si number density = 18.651754 Si / 1000 Ang^3
#
#
#
# Elastic Constant Matrix: (Units=GPa)
#
#
# Indices 1 2 3 4 5 6 
#
# 1 67.3630 43.7738 34.8344 0.0000 -16.2134 0.0000
# 2 43.7738 109.8899 36.8181 0.0000 -5.0981 0.0000
# 3 34.8344 36.8181 121.4296 0.0000 -0.6886 0.0000
# 4 0.0000 0.0000 0.0000 23.6621 0.0000 -5.6136
# 5 -16.2134 -5.0981 -0.6886 0.0000 33.2935 0.0000
# 6 0.0000 0.0000 0.0000 -5.6136 0.0000 31.0154
#
#
#
# Elastic Compliance Matrix: (Units=1/GPa)
#
#
# Indices 1 2 3 4 5 6 
#
# 1 0.025032 -0.007882 -0.004729 0.000000 0.010886 0.000000
# 2 -0.007882 0.012685 -0.001596 0.000000 -0.001929 0.000000
# 3 -0.004729 -0.001596 0.010063 0.000000 -0.002339 0.000000
# 4 0.000000 0.000000 0.000000 0.044158 0.000000 0.007992
# 5 0.010886 -0.001929 -0.002339 0.000000 0.034993 0.000000
# 6 0.000000 0.000000 0.000000 0.007992 0.000000 0.033689
#
#
# Mechanical properties :
#
#
# Convention : Reuss Voigt Hill
#
# Bulk Modulus (GPa) = 51.63879 58.83722 55.23800
# Shear Modulus (GPa) = 25.57684 29.81130 27.69407
#
# Velocity S-wave (km/s) = 3.70710 4.00223 3.85749
# Velocity P-wave (km/s) = 6.78744 7.27810 7.03705
#
# Compressibility (1/GPa) = 0.01936529
#
# Stress axis : x y z
#
# Youngs Moduli (GPa) = 39.94811 78.83362 99.37775
#
# Poissons Ratio (x) = 0.62136 0.47001
# Poissons Ratio (y) = 0.31487 0.15861
# Poissons Ratio (z) = 0.18893 0.12582
#
# Static dielectric constant tensor:
#      x y z
#    x 3.199370 0.000000 0.007940 
#    y 0.000000 3.410170 0.000000 
#    z 0.007940 0.000000 3.655330 
# 
# 
# High freq. dielectric constant tensor:
#      x y z
#    x 1.698040 0.000000 -0.008120 
#    y 0.000000 1.712340 0.000000 
#    z -0.008120 0.000000 1.739810 
# 
# From -- ./inp_files/98332.got.cif
#   From: 2010.06.25/outbox.cif.g09.slc.cpg/sg15_50_cif.got.tgz:98332.got - 2010.06.28 07:06:18.
