data_PCOD8143976
_publ_section_title
;
Structure prediction by ZEFSAII (Michael W. Deem and Ramdas Pophale) SiO2 
 PCOD8143976
Probable space group: C 2/C
;
_chemical_formula_sum "Si O2"
_cell_formula_units_Z 56
_cell_length_a 19.118207
_cell_length_b 17.843638
_cell_length_c 10.078826
_cell_angle_alpha 90.000000
_cell_angle_beta 58.184508
_cell_angle_gamma 90.000000
_cell_volume 2921.674140
_symmetry_space_group_name_H-M "C 2/C"
_symmetry_group_IT_number 15
_symmetry_cell_setting 'monoclinic'
loop_
_space_group_symop_operation_xyz
x,y,z
-x,y,1/2-z
-x,-y,-z
x,-y,1/2+z
1/2+x,1/2+y,z
1/2-x,1/2+y,1/2-z
1/2-x,1/2-y,-z
1/2+x,1/2-y,1/2+z
loop_
_atom_site_type_symbol
_atom_site_label
_atom_site_fract_x
_atom_site_fract_y
_atom_site_fract_z
Si Si1 0.335119 0.660809 0.642187
Si Si2 0.402846 0.389789 0.347154
Si Si3 1.000000 0.572637 0.592800
Si Si4 0.844672 0.326530 0.253234
Si Si5 0.344672 0.173470 0.057423
Si Si6 0.835119 0.839191 0.687576
Si Si7 0.597262 0.440001 0.652738
O O1 0.369310 0.653537 0.754388
O O2 0.236157 0.654667 0.751190
O O3 0.367643 0.739606 0.552359
O O4 0.368919 0.595914 0.514931
O O5 0.500000 0.386450 0.250000
O O6 0.369311 0.346463 0.506992
O O7 0.371485 0.474893 0.378515
O O8 0.079752 0.621374 0.474378
O O9 0.000000 0.552004 0.750000
O O10 0.000000 0.500000 0.500000
O O11 0.920248 0.621374 0.633883
O O12 0.821454 0.341337 0.428546
O O13 0.867643 0.239606 0.212355
O O14 0.263843 0.154667 0.223506
O O15 0.868919 0.904086 0.747233
O O16 0.500000 0.433754 0.750000
#
# Coordination Sequence:
#
# PCOD8143976 Si02
#       7
#     8   8   8   8   8   8   8
#     4  11  21  41  65  90 125 164 210 256 309 364
#     4  11  26  39  54  99 135 158 199 254 312 374
#     4  10  24  44  64  96 127 163 210 260 315 373
#     4  10  21  41  68  94 117 160 222 256 295 376
#     4  10  21  41  68  94 117 160 222 256 295 376
#     4  11  21  41  65  90 125 164 210 256 309 364
#     4  11  22  37  64  89 121 170 207 244 306 372
#
# _framework density 19.167093000000001
#
# number of rings (size 3 to 8) (size 9 to 14) (size 15 to 20)
#    0.000    1.429    2.857    2.571    4.000    6.857 
#    5.143    0.000    0.000    0.000    0.000    0.000 
#    0.000    0.000    0.000    0.000    0.000    0.000 
#
# Total GULP energy -347312.944302 kJ/mol
# GULP energy per Si atom -12404.033725 kJ/mol
# Density = 1.912347 g / cm^3
# Si number density = 19.167093 Si / 1000 Ang^3
#
#
#
# Elastic Constant Matrix: (Units=GPa)
#
#
# Indices 1 2 3 4 5 6 
#
# 1 96.4838 53.6162 37.4169 0.0000 -3.8924 0.0000
# 2 53.6162 93.3104 25.8082 0.0000 -16.7719 0.0000
# 3 37.4169 25.8082 91.0813 0.0000 0.6326 0.0000
# 4 0.0000 0.0000 0.0000 26.9357 0.0000 0.1201
# 5 -3.8924 -16.7719 0.6326 0.0000 29.0369 0.0000
# 6 0.0000 0.0000 0.0000 0.1201 0.0000 26.7369
#
#
#
# Elastic Compliance Matrix: (Units=1/GPa)
#
#
# Indices 1 2 3 4 5 6 
#
# 1 0.016987 -0.009060 -0.004391 0.000000 -0.002860 0.000000
# 2 -0.009060 0.017973 -0.001435 0.000000 0.009198 0.000000
# 3 -0.004391 -0.001435 0.013201 0.000000 -0.001705 0.000000
# 4 0.000000 0.000000 0.000000 0.037126 0.000000 -0.000167
# 5 -0.002860 0.009198 -0.001705 0.000000 0.039405 0.000000
# 6 0.000000 0.000000 0.000000 -0.000167 0.000000 0.037402
#
#
# Mechanical properties :
#
#
# Convention : Reuss Voigt Hill
#
# Bulk Modulus (GPa) = 54.37960 57.17313 55.77636
# Shear Modulus (GPa) = 25.25294 27.47752 26.36523
#
# Velocity S-wave (km/s) = 3.63370 3.79037 3.71286
# Velocity P-wave (km/s) = 6.78513 7.00353 6.89519
#
# Compressibility (1/GPa) = 0.01838925
#
# Stress axis : x y z
#
# Youngs Moduli (GPa) = 58.86950 55.63904 75.74916
#
# Poissons Ratio (x) = 0.50410 0.33263
# Poissons Ratio (y) = 0.53337 0.10867
# Poissons Ratio (z) = 0.25851 0.07982
#
# Static dielectric constant tensor:
#      x y z
#    x 3.560290 0.000000 -0.121910 
#    y 0.000000 3.597180 0.000000 
#    z -0.121910 0.000000 3.358180 
# 
# 
# High freq. dielectric constant tensor:
#      x y z
#    x 1.754380 0.000000 -0.006040 
#    y 0.000000 1.750640 0.000000 
#    z -0.006040 0.000000 1.744370 
# 
# From -- ./inp_files/49004.got.cif
#   From: 2010.06.25/outbox.cif.g09.slc.cpg/sg15_25_cif.got.tgz:49004.got - 2010.06.28 07:06:18.
