data_PCOD8143338
_publ_section_title
;
Structure prediction by ZEFSAII (Michael W. Deem and Ramdas Pophale) SiO2 
 PCOD8143338
Probable space group: C 2/C
;
_chemical_formula_sum "Si O2"
_cell_formula_units_Z 64
_cell_length_a 9.554707
_cell_length_b 26.916819
_cell_length_c 19.679817
_cell_angle_alpha 90.000000
_cell_angle_beta 141.538834
_cell_angle_gamma 90.000000
_cell_volume 3148.048510
_symmetry_space_group_name_H-M "C 2/C"
_symmetry_group_IT_number 15
_symmetry_cell_setting 'monoclinic'
loop_
_space_group_symop_operation_xyz
x,y,z
-x,y,1/2-z
-x,-y,-z
x,-y,1/2+z
1/2+x,1/2+y,z
1/2-x,1/2+y,1/2-z
1/2-x,1/2-y,-z
1/2+x,1/2-y,1/2+z
loop_
_atom_site_type_symbol
_atom_site_label
_atom_site_fract_x
_atom_site_fract_y
_atom_site_fract_z
Si Si1 0.700217 0.160013 0.369072
Si Si2 0.515775 0.777943 0.905155
Si Si3 0.882112 0.760713 0.842193
Si Si4 0.239390 0.510632 0.820701
Si Si5 0.995865 0.929294 0.517718
Si Si6 0.737857 0.492144 0.327607
Si Si7 0.170106 0.430290 0.522207
Si Si8 0.175375 0.313182 0.529086
O O1 0.500000 0.134196 0.250000
O O2 0.585048 0.169215 0.398326
O O3 0.771095 0.213803 0.366180
O O4 0.925719 0.127356 0.458497
O O5 0.322403 0.749637 0.787562
O O6 0.750000 0.750000 0.000000
O O7 0.404041 0.785805 0.934298
O O8 0.013833 0.709135 0.908219
O O9 0.062483 0.800426 0.881650
O O10 0.285081 0.462117 0.883625
O O11 0.253458 0.494079 0.748206
O O12 0.000000 0.532107 0.750000
O O13 0.406362 0.554606 0.909204
O O14 0.821281 0.939341 0.512849
O O15 0.500000 0.465182 0.250000
O O16 0.739683 0.541797 0.375836
O O17 0.925017 0.452179 0.415924
O O18 0.147879 0.371919 0.526305
#
# Coordination Sequence:
#
# PCOD8143338 Si02
#       8
#     8   8   8   8   8   8   8   8
#     4  10  21  40  65  94 128 164 214 263 315 378
#     4  11  23  41  63  96 131 168 211 270 325 386
#     4  10  22  42  67  91 134 172 214 268 326 393
#     4  11  23  40  64  91 130 170 208 262 331 381
#     4  11  22  40  65  95 126 167 217 269 316 395
#     4  11  24  44  64  94 133 171 212 276 329 386
#     4  11  24  42  68  96 128 168 227 270 325 391
#     4  11  23  42  68  97 129 173 222 268 328 392
#
# _framework density 20.330055999999999
#
# number of rings (size 3 to 8) (size 9 to 14) (size 15 to 20)
#    0.000    1.250    5.000    0.750    0.000    5.000 
#    4.500    0.000    2.750    0.000    0.000    0.000 
#    0.000    0.000    0.000    0.000    0.000    0.000 
#
# Total GULP energy -396579.784414 kJ/mol
# GULP energy per Si atom -12393.118263 kJ/mol
# Density = 2.028378 g / cm^3
# Si number density = 20.330056 Si / 1000 Ang^3
#
#
#
# Elastic Constant Matrix: (Units=GPa)
#
#
# Indices 1 2 3 4 5 6 
#
# 1 97.7892 16.4935 46.7271 -0.0006 0.7373 -0.0001
# 2 16.4935 86.0097 46.2578 -0.0036 2.8997 0.0000
# 3 46.7271 46.2578 143.3029 0.0119 7.1132 -0.0015
# 4 -0.0006 -0.0036 0.0119 -100.1604 0.0026 10.3352
# 5 0.7373 2.8997 7.1132 0.0026 39.2788 -0.0003
# 6 -0.0001 0.0000 -0.0015 10.3352 -0.0003 31.1523
#
#
#
# Elastic Compliance Matrix: (Units=1/GPa)
#
#
# Indices 1 2 3 4 5 6 
#
# 1 0.012127 -0.000245 -0.003900 -0.000001 0.000497 0.000000
# 2 -0.000245 0.014076 -0.004452 -0.000001 -0.000228 0.000000
# 3 -0.003900 -0.004452 0.009755 0.000001 -0.001365 0.000000
# 4 -0.000001 -0.000001 0.000001 -0.009654 0.000001 0.003203
# 5 0.000497 -0.000228 -0.001365 0.000001 0.025714 0.000000
# 6 0.000000 0.000000 0.000000 0.003203 0.000000 0.031038
#
#
# Mechanical properties :
#
#
# Convention : Reuss Voigt Hill
#
# Bulk Modulus (GPa) = 53.29529 60.67317 56.98423
# Shear Modulus (GPa) = 46.94616 8.56236 27.75426
#
# Velocity S-wave (km/s) = 4.81063 2.05446 3.69885
# Velocity P-wave (km/s) = 7.55831 5.96126 6.80679
#
# Compressibility (1/GPa) = 0.01876338
#
# Stress axis : x y z
#
# Youngs Moduli (GPa) = 82.45950 71.04348 102.51273
#
# Poissons Ratio (x) = 0.01739 0.39980
# Poissons Ratio (y) = 0.02019 0.45644
# Poissons Ratio (z) = 0.32159 0.31632
#
# Static dielectric constant tensor:
#      x y z
#    x 4.106340 0.000000 0.049200 
#    y 0.000000 3.424220 0.000000 
#    z 0.049200 0.000000 3.998640 
# 
# 
# High freq. dielectric constant tensor:
#      x y z
#    x 1.810710 0.000000 0.009190 
#    y 0.000000 1.765970 0.000000 
#    z 0.009190 0.000000 1.808920 
# 
# From -- ./inp_files/194247.got.cif
#   From: 2010.06.25/outbox.cif.g09.slc.cpg/sg15_98_cif.got.tgz:194247.got - 2010.06.28 07:06:18.
