data_PCOD8143367
_publ_section_title
;
Structure prediction by ZEFSAII (Michael W. Deem and Ramdas Pophale) SiO2 
 PCOD8143367
Probable space group: C 2/C
;
_chemical_formula_sum "Si O2"
_cell_formula_units_Z 64
_cell_length_a 30.753098
_cell_length_b 11.703298
_cell_length_c 18.168602
_cell_angle_alpha 90.000000
_cell_angle_beta 151.574760
_cell_angle_gamma 90.000000
_cell_volume 3112.692679
_symmetry_space_group_name_H-M "C 2/C"
_symmetry_group_IT_number 15
_symmetry_cell_setting 'monoclinic'
loop_
_space_group_symop_operation_xyz
x,y,z
-x,y,1/2-z
-x,-y,-z
x,-y,1/2+z
1/2+x,1/2+y,z
1/2-x,1/2+y,1/2-z
1/2-x,1/2-y,-z
1/2+x,1/2-y,1/2+z
loop_
_atom_site_type_symbol
_atom_site_label
_atom_site_fract_x
_atom_site_fract_y
_atom_site_fract_z
Si Si1 0.813621 0.610601 0.445401
Si Si2 0.322249 0.796407 0.801961
Si Si3 0.849141 0.301776 0.151747
Si Si4 0.451961 0.176995 0.279755
Si Si5 0.398249 0.989231 0.816860
Si Si6 0.642471 0.151685 0.512731
Si Si7 0.884683 0.891506 0.798089
Si Si8 0.928398 0.136501 0.855116
O O1 0.848350 0.681805 0.426239
O O2 0.873988 0.644598 0.608207
O O3 0.818934 0.476149 0.435592
O O4 0.708911 0.646501 0.302338
O O5 0.332611 0.918165 0.774698
O O6 0.220420 0.745168 0.643855
O O7 0.391902 0.703943 0.872443
O O8 0.855482 0.389211 0.230458
O O9 0.910411 0.192393 0.267611
O O10 0.750000 0.250000 0.000000
O O11 0.402511 0.072243 0.244989
O O12 0.562013 0.159496 0.453995
O O13 0.413798 0.186567 0.142166
O O14 0.416942 0.291692 0.265080
O O15 0.500000 0.000000 0.000000
O O16 0.871549 0.022245 0.752743
O O17 0.965027 0.890628 0.976985
#
# Coordination Sequence:
#
# PCOD8143367 Si02
#       8
#     8   8   8   8   8   8   8   8
#     4  11  22  40  62  95 128 163 213 268 322 376
#     4  11  24  38  66  96 127 166 218 270 319 391
#     4  10  22  39  63  95 127 172 212 261 323 384
#     4  10  22  38  64  88 126 163 210 266 315 384
#     4  11  22  41  64  98 126 171 218 263 321 395
#     4  11  22  40  60  94 124 164 209 269 328 368
#     4  10  21  40  66  86 129 167 207 257 319 387
#     4  10  21  41  63  91 122 169 211 255 321 386
#
# _framework density 20.560974999999999
#
# number of rings (size 3 to 8) (size 9 to 14) (size 15 to 20)
#    0.000    1.500    2.500    3.000    0.000    7.000 
#    0.000    0.000    5.500    0.000    0.000    0.000 
#    0.000    0.000    0.000    0.000    0.000    0.000 
#
# Total GULP energy -396529.568074 kJ/mol
# GULP energy per Si atom -12391.549002 kJ/mol
# Density = 2.051418 g / cm^3
# Si number density = 20.560975 Si / 1000 Ang^3
#
#
#
# Elastic Constant Matrix: (Units=GPa)
#
#
# Indices 1 2 3 4 5 6 
#
# 1 95.6446 47.7417 17.5289 0.0000 -6.4249 0.0000
# 2 47.7417 146.4667 33.4249 0.0000 -14.2718 0.0000
# 3 17.5289 33.4249 62.2746 0.0000 -5.3025 0.0000
# 4 0.0000 0.0000 0.0000 32.8407 0.0000 3.0706
# 5 -6.4249 -14.2718 -5.3025 0.0000 27.2649 0.0000
# 6 0.0000 0.0000 0.0000 3.0706 0.0000 6.4929
#
#
#
# Elastic Compliance Matrix: (Units=1/GPa)
#
#
# Indices 1 2 3 4 5 6 
#
# 1 0.012628 -0.003700 -0.001505 0.000000 0.000746 0.000000
# 2 -0.003700 0.009171 -0.003606 0.000000 0.003227 0.000000
# 3 -0.001505 -0.003606 0.018533 0.000000 0.001362 0.000000
# 4 0.000000 0.000000 0.000000 0.031859 0.000000 -0.015067
# 5 0.000746 0.003227 0.001362 0.000000 0.038807 0.000000
# 6 0.000000 0.000000 0.000000 -0.015067 0.000000 0.161140
#
#
# Mechanical properties :
#
#
# Convention : Reuss Voigt Hill
#
# Bulk Modulus (GPa) = 44.03384 55.75300 49.89342
# Shear Modulus (GPa) = 16.81630 27.03238 21.92434
#
# Velocity S-wave (km/s) = 2.86295 3.62987 3.26898
# Velocity P-wave (km/s) = 5.69134 6.68900 6.21024
#
# Compressibility (1/GPa) = 0.02270981
#
# Stress axis : x y z
#
# Youngs Moduli (GPa) = 79.18752 109.03984 53.95765
#
# Poissons Ratio (x) = 0.40345 0.08121
# Poissons Ratio (y) = 0.29300 0.19458
# Poissons Ratio (z) = 0.11918 0.39321
#
# Static dielectric constant tensor:
#      x y z
#    x 3.922040 0.000000 -0.024630 
#    y 0.000000 3.799050 0.000000 
#    z -0.024630 0.000000 3.545360 
# 
# 
# High freq. dielectric constant tensor:
#      x y z
#    x 1.796630 0.000000 -0.003410 
#    y 0.000000 1.816940 0.000000 
#    z -0.003410 0.000000 1.800040 
# 
# From -- ./inp_files/225182.got.cif
#   From: 2010.06.25/outbox.cif.g09.slc.cpg/sg15_113_cif.got.tgz:225182.got - 2010.06.28 07:06:18.
