data_PCOD8143076
_publ_section_title
;
Structure prediction by ZEFSAII (Michael W. Deem and Ramdas Pophale) SiO2 
 PCOD8143076
Probable space group: C 2/C
;
_chemical_formula_sum "Si O2"
_cell_formula_units_Z 36
_cell_length_a 8.397456
_cell_length_b 11.824968
_cell_length_c 30.318525
_cell_angle_alpha 90.000000
_cell_angle_beta 37.907765
_cell_angle_gamma 90.000000
_cell_volume 1849.700558
_symmetry_space_group_name_H-M "C 2/C"
_symmetry_group_IT_number 15
_symmetry_cell_setting 'monoclinic'
loop_
_space_group_symop_operation_xyz
x,y,z
-x,y,1/2-z
-x,-y,-z
x,-y,1/2+z
1/2+x,1/2+y,z
1/2-x,1/2+y,1/2-z
1/2-x,1/2-y,-z
1/2+x,1/2-y,1/2+z
loop_
_atom_site_type_symbol
_atom_site_label
_atom_site_fract_x
_atom_site_fract_y
_atom_site_fract_z
Si Si1 0.859541 0.576956 0.738018
Si Si2 0.319202 0.302482 0.355479
Si Si3 0.362044 0.074871 0.915365
Si Si4 0.000000 0.365689 0.750000
Si Si5 0.187629 0.176637 0.470421
O O1 0.585812 0.632314 0.788141
O O2 0.818434 0.443979 0.758399
O O3 0.000000 0.635473 0.750000
O O4 0.042222 0.582734 0.655666
O O5 0.299251 0.205941 0.322774
O O6 0.318415 0.249137 0.403569
O O7 0.076915 0.384537 0.402949
O O8 0.382369 0.340743 0.028573
O O9 0.307847 0.948630 0.944422
O O10 0.250000 0.250000 0.500000
#
# Coordination Sequence:
#
# PCOD8143076 Si02
#       5
#     8   8   8   4   8
#     4  10  21  40  61  92 124 156 210 258 299 369
#     4  12  22  43  65  92 123 167 205 254 315 355
#     4  11  23  41  62  92 126 160 212 252 299 382
#     4  10  22  38  64  90 124 156 204 262 304 350
#     4  11  25  42  62  92 128 166 202 253 312 364
#
# _framework density 19.462607999999999
#
# number of rings (size 3 to 8) (size 9 to 14) (size 15 to 20)
#    0.667    0.444    4.444    2.000    0.000    2.667 
#    4.000    0.000    0.000    0.000    0.000    0.000 
#    0.000    0.000    0.000    0.000    0.000    0.000 
#
# Total GULP energy -223123.260077 kJ/mol
# GULP energy per Si atom -12395.736671 kJ/mol
# Density = 1.941831 g / cm^3
# Si number density = 19.462608 Si / 1000 Ang^3
#
#
#
# Elastic Constant Matrix: (Units=GPa)
#
#
# Indices 1 2 3 4 5 6 
#
# 1 68.8632 29.5242 5.0102 0.0031 -14.0407 0.0055
# 2 29.5242 85.5465 33.4584 0.0018 -4.1460 0.0065
# 3 5.0102 33.4584 99.4027 -0.0009 -1.7813 0.0193
# 4 0.0031 0.0018 -0.0009 28.4519 -0.0005 -7.0022
# 5 -14.0407 -4.1460 -1.7813 -0.0005 34.2914 -0.0012
# 6 0.0055 0.0065 0.0193 -7.0022 -0.0012 5.5982
#
#
#
# Elastic Compliance Matrix: (Units=1/GPa)
#
#
# Indices 1 2 3 4 5 6 
#
# 1 0.018690 -0.006674 0.001428 -0.000007 0.006920 -0.000023
# 2 -0.006674 0.015912 -0.005039 0.000001 -0.001070 0.000007
# 3 0.001428 -0.005039 0.011695 -0.000012 0.000583 -0.000051
# 4 -0.000007 0.000001 -0.000012 0.050778 0.000000 0.063513
# 5 0.006920 -0.001070 0.000583 0.000000 0.031896 -0.000001
# 6 -0.000023 0.000007 -0.000051 0.063513 -0.000001 0.258072
#
#
# Mechanical properties :
#
#
# Convention : Reuss Voigt Hill
#
# Bulk Modulus (GPa) = 38.86797 43.31089 41.08943
# Shear Modulus (GPa) = 12.01386 26.05627 19.03507
#
# Velocity S-wave (km/s) = 2.48721 3.66291 3.13074
# Velocity P-wave (km/s) = 5.31622 6.33963 5.85035
#
# Compressibility (1/GPa) = 0.02572812
#
# Stress axis : x y z
#
# Youngs Moduli (GPa) = 53.50533 62.84763 85.51025
#
# Poissons Ratio (x) = 0.41941 -0.12213
# Poissons Ratio (y) = 0.35707 0.43085
# Poissons Ratio (z) = -0.07642 0.31666
#
# Static dielectric constant tensor:
#      x y z
#    x 3.428210 0.000010 0.112580 
#    y 0.000010 3.653980 0.000020 
#    z 0.112580 0.000020 4.072910 
# 
# 
# High freq. dielectric constant tensor:
#      x y z
#    x 1.746610 0.000000 0.002320 
#    y 0.000000 1.763820 0.000000 
#    z 0.002320 0.000000 1.777120 
# 
# From -- ./inp_files/229746.got.cif
#   From: 2010.06.25/outbox.cif.g09.slc.cpg/sg15_115_cif.got.tgz:229746.got - 2010.06.28 07:06:18.
