data_PCOD8143711
_publ_section_title
;
Structure prediction by ZEFSAII (Michael W. Deem and Ramdas Pophale) SiO2 
 PCOD8143711
Probable space group: C 2/C
;
_chemical_formula_sum "Si O2"
_cell_formula_units_Z 52
_cell_length_a 10.555325
_cell_length_b 9.277473
_cell_length_c 28.509318
_cell_angle_alpha 90.000000
_cell_angle_beta 117.281877
_cell_angle_gamma 90.000000
_cell_volume 2481.268389
_symmetry_space_group_name_H-M "C 2/C"
_symmetry_group_IT_number 15
_symmetry_cell_setting 'monoclinic'
loop_
_space_group_symop_operation_xyz
x,y,z
-x,y,1/2-z
-x,-y,-z
x,-y,1/2+z
1/2+x,1/2+y,z
1/2-x,1/2+y,1/2-z
1/2-x,1/2-y,-z
1/2+x,1/2-y,1/2+z
loop_
_atom_site_type_symbol
_atom_site_label
_atom_site_fract_x
_atom_site_fract_y
_atom_site_fract_z
Si Si1 0.500000 0.473033 0.750000
Si Si2 0.662078 0.089010 0.285931
Si Si3 0.042689 0.360927 0.478273
Si Si4 0.269960 0.146139 0.764870
Si Si5 0.269522 0.633401 0.937166
Si Si6 0.638006 0.361049 0.600493
Si Si7 0.467562 0.275393 0.655460
O O1 0.638100 0.574146 0.768882
O O2 0.463088 0.373532 0.700057
O O3 0.500000 0.118340 0.250000
O O4 0.740595 0.181545 0.257862
O O5 0.710743 0.142648 0.345706
O O6 0.705562 0.922927 0.282622
O O7 0.152645 0.409793 0.456482
O O8 0.115035 0.243795 0.523898
O O9 0.000000 0.500000 0.500000
O O10 0.898063 0.287355 0.433079
O O11 0.420694 0.140284 0.819174
O O12 0.357366 0.493968 0.934695
O O13 0.187376 0.706933 0.879651
O O14 0.513849 0.376741 0.618949
#
# Coordination Sequence:
#
# PCOD8143711 Si02
#       7
#     4   8   8   8   8   8   8
#     4  12  22  38  60  88 130 172 208 264 308 368
#     4  11  23  38  59  88 129 165 211 256 301 369
#     4  10  23  44  66  95 124 156 213 269 326 387
#     4  11  22  38  56  88 122 169 212 252 299 368
#     4  10  22  42  67  91 123 164 203 268 321 375
#     4  10  21  41  63  93 125 165 213 258 310 382
#     4  10  24  38  61  92 129 165 214 254 313 377
#
# _framework density 20.957023
#
# number of rings (size 3 to 8) (size 9 to 14) (size 15 to 20)
#    0.000    1.538    3.846    1.385    3.231    4.308 
#    0.000    4.615    0.000    0.000    0.000    0.000 
#    0.000    0.000    0.000    0.000    0.000    0.000 
#
# Total GULP energy -322145.601592 kJ/mol
# GULP energy per Si atom -12390.215446 kJ/mol
# Density = 2.090932 g / cm^3
# Si number density = 20.957023 Si / 1000 Ang^3
#
#
#
# Elastic Constant Matrix: (Units=GPa)
#
#
# Indices 1 2 3 4 5 6 
#
# 1 49.9327 28.5517 41.6372 0.0000 7.2953 0.0000
# 2 28.5517 102.6596 51.7360 0.0000 -11.2003 0.0000
# 3 41.6372 51.7360 105.7943 0.0000 4.5686 0.0000
# 4 0.0000 0.0000 0.0000 21.8392 0.0000 -13.1055
# 5 7.2953 -11.2003 4.5686 0.0000 33.7314 0.0000
# 6 0.0000 0.0000 0.0000 -13.1055 0.0000 26.7206
#
#
#
# Elastic Compliance Matrix: (Units=1/GPa)
#
#
# Indices 1 2 3 4 5 6 
#
# 1 0.032109 -0.004636 -0.010062 0.000000 -0.007121 0.000000
# 2 -0.004636 0.014563 -0.005582 0.000000 0.006594 0.000000
# 3 -0.010062 -0.005582 0.016223 0.000000 -0.001874 0.000000
# 4 0.000000 0.000000 0.000000 0.064887 0.000000 0.031825
# 5 -0.007121 0.006594 -0.001874 0.000000 0.033629 0.000000
# 6 0.000000 0.000000 0.000000 0.031825 0.000000 0.053033
#
#
# Mechanical properties :
#
#
# Convention : Reuss Voigt Hill
#
# Bulk Modulus (GPa) = 44.77386 55.80406 50.28896
# Shear Modulus (GPa) = 19.05129 25.55567 22.30348
#
# Velocity S-wave (km/s) = 3.01834 3.49583 3.26582
# Velocity P-wave (km/s) = 5.79294 6.55592 6.18620
#
# Compressibility (1/GPa) = 0.02233446
#
# Stress axis : x y z
#
# Youngs Moduli (GPa) = 31.14394 68.66884 61.64072
#
# Poissons Ratio (x) = 0.31835 0.62025
# Poissons Ratio (y) = 0.14439 0.34406
# Poissons Ratio (z) = 0.31338 0.38329
#
# Static dielectric constant tensor:
#      x y z
#    x 4.023620 0.000000 0.171650 
#    y 0.000000 3.875830 0.000000 
#    z 0.171650 0.000000 4.043960 
# 
# 
# High freq. dielectric constant tensor:
#      x y z
#    x 1.820090 0.000000 0.009800 
#    y 0.000000 1.816340 0.000000 
#    z 0.009800 0.000000 1.822860 
# 
# From -- ./inp_files/291704.got.cif
#   From: 2010.06.25/outbox.cif.g09.slc.cpg/sg15_146_cif.got.tgz:291704.got - 2010.06.28 07:06:18.
