data_PCOD8143163
_publ_section_title
;
Structure prediction by ZEFSAII (Michael W. Deem and Ramdas Pophale) SiO2 
 PCOD8143163
Probable space group: C 2/C
;
_chemical_formula_sum "Si O2"
_cell_formula_units_Z 56
_cell_length_a 14.369293
_cell_length_b 11.343274
_cell_length_c 26.930544
_cell_angle_alpha 90.000000
_cell_angle_beta 35.463423
_cell_angle_gamma 90.000000
_cell_volume 2546.736630
_symmetry_space_group_name_H-M "C 2/C"
_symmetry_group_IT_number 15
_symmetry_cell_setting 'monoclinic'
loop_
_space_group_symop_operation_xyz
x,y,z
-x,y,1/2-z
-x,-y,-z
x,-y,1/2+z
1/2+x,1/2+y,z
1/2-x,1/2+y,1/2-z
1/2-x,1/2-y,-z
1/2+x,1/2-y,1/2+z
loop_
_atom_site_type_symbol
_atom_site_label
_atom_site_fract_x
_atom_site_fract_y
_atom_site_fract_z
Si Si1 0.635129 0.507278 0.483030
Si Si2 0.039575 0.629763 0.177161
Si Si3 0.484314 0.324813 0.125058
Si Si4 0.637899 0.105881 0.498743
Si Si5 0.742260 0.526126 0.250076
Si Si6 0.553656 0.324032 0.590481
Si Si7 0.065023 0.393955 0.917291
O O1 0.500000 0.500000 0.500000
O O2 0.800649 0.550848 0.388097
O O3 0.602320 0.584978 0.546766
O O4 0.640156 0.376207 0.503180
O O5 0.065409 0.751640 0.135019
O O6 0.000000 0.668583 0.250000
O O7 0.902689 0.548367 0.212313
O O8 0.327610 0.395832 0.211763
O O9 0.431793 0.235791 0.105580
O O10 0.545003 0.185319 0.580754
O O11 0.826678 0.137924 0.416713
O O12 0.570438 0.125362 0.473227
O O13 0.594890 0.968690 0.529365
O O14 0.620932 0.627954 0.321127
O O15 0.781694 0.539236 0.174127
#
# Coordination Sequence:
#
# PCOD8143163 Si02
#       7
#     8   8   8   8   8   8   8
#     4  11  22  42  69  94 125 166 221 264 322 388
#     4  11  23  40  64  99 127 171 215 272 326 383
#     4  10  22  42  63  93 128 171 210 271 320 387
#     4  10  22  39  63  90 126 168 213 254 322 383
#     4  10  23  41  63  90 133 161 217 263 325 372
#     4  10  21  40  63  90 125 169 206 263 313 386
#     4  10  22  40  63  92 124 168 212 265 316 384
#
# _framework density 21.988924000000001
#
# number of rings (size 3 to 8) (size 9 to 14) (size 15 to 20)
#    0.000    1.714    0.000    4.714    4.000    1.714 
#    7.714    0.000    6.286    0.000    0.000    0.000 
#    0.000    0.000    0.000    0.000    0.000    0.000 
#
# Total GULP energy -346953.404798 kJ/mol
# GULP energy per Si atom -12391.193029 kJ/mol
# Density = 2.193888 g / cm^3
# Si number density = 21.988924 Si / 1000 Ang^3
#
#
#
# Elastic Constant Matrix: (Units=GPa)
#
#
# Indices 1 2 3 4 5 6 
#
# 1 92.8064 18.0883 29.0320 0.0001 -13.5177 0.0000
# 2 18.0883 60.2713 3.7157 0.0000 -11.9928 0.0000
# 3 29.0320 3.7157 94.1717 -0.0007 -11.9124 -0.0002
# 4 0.0001 0.0000 -0.0007 31.7555 -0.0001 1.3999
# 5 -13.5177 -11.9928 -11.9124 -0.0001 37.3104 0.0000
# 6 0.0000 0.0000 -0.0002 1.3999 0.0000 27.5440
#
#
#
# Elastic Compliance Matrix: (Units=1/GPa)
#
#
# Indices 1 2 3 4 5 6 
#
# 1 0.012856 -0.003139 -0.003520 0.000000 0.002525 0.000000
# 2 -0.003139 0.018492 0.000882 0.000000 0.005088 0.000000
# 3 -0.003520 0.000882 0.012030 0.000000 0.002849 0.000000
# 4 0.000000 0.000000 0.000000 0.031561 0.000000 -0.001604
# 5 0.002525 0.005088 0.002849 0.000000 0.030262 0.000000
# 6 0.000000 0.000000 0.000000 -0.001604 0.000000 0.036387
#
#
# Mechanical properties :
#
#
# Convention : Reuss Voigt Hill
#
# Bulk Modulus (GPa) = 31.42398 38.76905 35.09652
# Shear Modulus (GPa) = 30.53444 32.41621 31.47533
#
# Velocity S-wave (km/s) = 3.73047 3.84371 3.78751
# Velocity P-wave (km/s) = 5.73385 6.11295 5.92644
#
# Compressibility (1/GPa) = 0.03182283
#
# Stress axis : x y z
#
# Youngs Moduli (GPa) = 77.78593 54.07826 83.12780
#
# Poissons Ratio (x) = 0.16974 0.29261
# Poissons Ratio (y) = 0.24415 -0.07329
# Poissons Ratio (z) = 0.27381 -0.04768
#
# Static dielectric constant tensor:
#      x y z
#    x 3.966090 0.000000 0.142100 
#    y 0.000000 4.278950 0.000000 
#    z 0.142100 0.000000 4.107750 
# 
# 
# High freq. dielectric constant tensor:
#      x y z
#    x 1.860140 0.000000 0.005940 
#    y 0.000000 1.877530 0.000000 
#    z 0.005940 0.000000 1.863190 
# 
# From -- ./inp_files/313735.got.cif
#   From: 2010.06.25/outbox.cif.g09.slc.cpg/sg15_157_cif.got.tgz:313735.got - 2010.06.28 07:06:18.
