data_PCOD8143269
_publ_section_title
;
Structure prediction by ZEFSAII (Michael W. Deem and Ramdas Pophale) SiO2 
 PCOD8143269
Probable space group: C 2/C
;
_chemical_formula_sum "Si O2"
_cell_formula_units_Z 60
_cell_length_a 20.801566
_cell_length_b 15.252625
_cell_length_c 13.658338
_cell_angle_alpha 90.000000
_cell_angle_beta 137.880951
_cell_angle_gamma 90.000000
_cell_volume 2906.360445
_symmetry_space_group_name_H-M "C 2/C"
_symmetry_group_IT_number 15
_symmetry_cell_setting 'monoclinic'
loop_
_space_group_symop_operation_xyz
x,y,z
-x,y,1/2-z
-x,-y,-z
x,-y,1/2+z
1/2+x,1/2+y,z
1/2-x,1/2+y,1/2-z
1/2-x,1/2-y,-z
1/2+x,1/2-y,1/2+z
loop_
_atom_site_type_symbol
_atom_site_label
_atom_site_fract_x
_atom_site_fract_y
_atom_site_fract_z
Si Si1 0.500000 0.993888 0.750000
Si Si2 0.681614 0.598090 0.792463
Si Si3 0.389273 0.132562 0.981477
Si Si4 0.906538 0.016007 0.457976
Si Si5 0.432089 0.289065 0.764182
Si Si6 0.837493 0.045548 0.072081
Si Si7 0.362369 0.894267 0.229101
Si Si8 0.986507 0.807267 0.039397
O O1 0.431467 0.936124 0.605209
O O2 0.561801 0.054980 0.750388
O O3 0.779669 0.652922 0.890615
O O4 0.679597 0.527880 0.700294
O O5 0.681073 0.544083 0.891993
O O6 0.591839 0.664587 0.694962
O O7 0.391754 0.093033 0.875231
O O8 0.453332 0.220261 0.058039
O O9 0.902391 0.121183 0.466659
O O10 0.916848 0.971497 0.576796
O O11 0.000000 0.000000 0.500000
O O12 0.500000 0.270117 0.750000
O O13 0.370716 0.377504 0.681621
O O14 0.359619 0.208138 0.696079
O O15 0.497048 0.295541 0.934489
O O16 0.742270 0.068743 0.906257
#
# Coordination Sequence:
#
# PCOD8143269 Si02
#       8
#     4   8   8   8   8   8   8   8
#     4  12  24  48  66  92 130 182 232 266 336 404
#     4  11  22  43  67  99 135 172 224 277 337 404
#     4  11  25  46  70  93 136 177 226 282 332 401
#     4  10  21  40  64  96 137 164 215 274 334 397
#     4  11  22  38  65 100 135 170 217 279 340 391
#     4  12  23  38  71  99 132 178 217 274 344 406
#     4  11  24  44  65  99 131 176 225 274 333 405
#     4  10  24  43  62 100 136 176 221 282 332 394
#
# _framework density 20.644376999999999
#
# number of rings (size 3 to 8) (size 9 to 14) (size 15 to 20)
#    0.000    1.067    4.667    2.400    1.867    1.067 
#    2.400    2.667    0.000    0.000    0.000    0.000 
#    0.000    0.000    0.000    0.000    0.000    0.000 
#
# Total GULP energy -371991.185873 kJ/mol
# GULP energy per Si atom -12399.706196 kJ/mol
# Density = 2.059739 g / cm^3
# Si number density = 20.644377 Si / 1000 Ang^3
#
#
#
# Elastic Constant Matrix: (Units=GPa)
#
#
# Indices 1 2 3 4 5 6 
#
# 1 115.8548 55.3501 53.2817 0.0000 2.7262 0.0000
# 2 55.3501 110.5502 56.1068 0.0000 4.4064 0.0000
# 3 53.2817 56.1068 87.5109 0.0000 -0.6128 0.0000
# 4 0.0000 0.0000 0.0000 39.7943 0.0000 4.2125
# 5 2.7262 4.4064 -0.6128 0.0000 28.5739 0.0000
# 6 0.0000 0.0000 0.0000 4.2125 0.0000 36.0280
#
#
#
# Elastic Compliance Matrix: (Units=1/GPa)
#
#
# Indices 1 2 3 4 5 6 
#
# 1 0.012939 -0.003625 -0.005559 0.000000 -0.000795 0.000000
# 2 -0.003625 0.014571 -0.007149 0.000000 -0.002054 0.000000
# 3 -0.005559 -0.007149 0.019410 0.000000 0.002049 0.000000
# 4 0.000000 0.000000 0.000000 0.025444 0.000000 -0.002975
# 5 -0.000795 -0.002054 0.002049 0.000000 0.035434 0.000000
# 6 0.000000 0.000000 0.000000 -0.002975 0.000000 0.028104
#
#
# Mechanical properties :
#
#
# Convention : Reuss Voigt Hill
#
# Bulk Modulus (GPa) = 70.16296 71.48812 70.82554
# Shear Modulus (GPa) = 28.84845 30.82440 29.83642
#
# Velocity S-wave (km/s) = 3.74224 3.86827 3.80578
# Velocity P-wave (km/s) = 7.26173 7.39290 7.32761
#
# Compressibility (1/GPa) = 0.01425253
#
# Stress axis : x y z
#
# Youngs Moduli (GPa) = 77.28704 68.62971 51.51984
#
# Poissons Ratio (x) = 0.24878 0.28641
# Poissons Ratio (y) = 0.28017 0.36833
# Poissons Ratio (z) = 0.42966 0.49065
#
# Static dielectric constant tensor:
#      x y z
#    x 3.788320 0.000000 -0.073370 
#    y 0.000000 4.158030 0.000000 
#    z -0.073370 0.000000 3.787720 
# 
# 
# High freq. dielectric constant tensor:
#      x y z
#    x 1.815070 0.000000 -0.012350 
#    y 0.000000 1.808210 0.000000 
#    z -0.012350 0.000000 1.805730 
# 
# From -- ./inp_files/168651.got.cif
#   From: 2010.06.25/outbox.cif.g09.slc.cpg/sg15_85_cif.got.tgz:168651.got - 2010.06.28 07:06:18.
