data_PCOD8143917
_publ_section_title
;
Structure prediction by ZEFSAII (Michael W. Deem and Ramdas Pophale) SiO2 
 PCOD8143917
Probable space group: C 2/C
;
_chemical_formula_sum "Si O2"
_cell_formula_units_Z 36
_cell_length_a 30.729159
_cell_length_b 14.182654
_cell_length_c 12.259214
_cell_angle_alpha 90.000000
_cell_angle_beta 19.007214
_cell_angle_gamma 90.000000
_cell_volume 1740.089152
_symmetry_space_group_name_H-M "C 2/C"
_symmetry_group_IT_number 15
_symmetry_cell_setting 'monoclinic'
loop_
_space_group_symop_operation_xyz
x,y,z
-x,y,1/2-z
-x,-y,-z
x,-y,1/2+z
1/2+x,1/2+y,z
1/2-x,1/2+y,1/2-z
1/2-x,1/2-y,-z
1/2+x,1/2-y,1/2+z
loop_
_atom_site_type_symbol
_atom_site_label
_atom_site_fract_x
_atom_site_fract_y
_atom_site_fract_z
Si Si1 0.073877 0.868940 0.260890
Si Si2 0.888458 0.696122 0.685317
Si Si3 0.690260 0.063793 0.446050
Si Si4 0.596819 0.464092 0.426004
Si Si5 0.000000 0.559851 0.250000
O O1 0.112803 0.885050 0.295183
O O2 0.016000 0.764753 0.382755
O O3 0.203341 0.880197 0.879392
O O4 0.959981 0.940922 0.492981
O O5 0.901199 0.623825 0.555379
O O6 0.750000 0.750000 0.000000
O O7 0.891552 0.640714 0.791996
O O8 0.760258 0.989244 0.361624
O O9 0.589234 0.006097 0.612935
O O10 0.500000 0.424289 0.750000
#
# Coordination Sequence:
#
# PCOD8143917 Si02
#       5
#     8   8   8   8   4
#     4  10  21  41  67 100 122 168 220 271 320 390
#     4  12  24  42  68  99 130 169 225 271 323 387
#     4  11  23  44  66  92 136 177 215 266 332 390
#     4   9  19  37  68  94 127 164 213 263 331 381
#     4  12  28  44  64  96 136 178 214 266 334 394
#
# _framework density 20.688594999999999
#
# number of rings (size 3 to 8) (size 9 to 14) (size 15 to 20)
#    0.000    1.333    2.222    3.333    7.778    0.000 
#    2.000    2.222    0.000    0.000    0.000    0.000 
#    0.000    0.000    0.000    0.000    0.000    0.000 
#
# Total GULP energy -223300.619706 kJ/mol
# GULP energy per Si atom -12405.589984 kJ/mol
# Density = 2.064151 g / cm^3
# Si number density = 20.688595 Si / 1000 Ang^3
#
#
#
# Elastic Constant Matrix: (Units=GPa)
#
#
# Indices 1 2 3 4 5 6 
#
# 1 157.5383 66.7212 60.4884 0.0000 3.5383 0.0000
# 2 66.7212 108.7772 58.8622 0.0000 4.5917 0.0000
# 3 60.4884 58.8622 105.0196 0.0000 4.0974 0.0000
# 4 0.0000 0.0000 0.0000 40.5956 0.0000 10.9300
# 5 3.5383 4.5917 4.0974 0.0000 42.2437 0.0000
# 6 0.0000 0.0000 0.0000 10.9300 0.0000 24.7176
#
#
#
# Elastic Compliance Matrix: (Units=1/GPa)
#
#
# Indices 1 2 3 4 5 6 
#
# 1 0.009218 -0.003990 -0.003071 0.000000 -0.000040 0.000000
# 2 -0.003990 0.014944 -0.006050 0.000000 -0.000703 0.000000
# 3 -0.003071 -0.006050 0.014702 0.000000 -0.000511 0.000000
# 4 0.000000 0.000000 0.000000 0.027962 0.000000 -0.012365
# 5 -0.000040 -0.000703 -0.000511 0.000000 0.023802 0.000000
# 6 0.000000 0.000000 0.000000 -0.012365 0.000000 0.045925
#
#
# Mechanical properties :
#
#
# Convention : Reuss Voigt Hill
#
# Bulk Modulus (GPa) = 79.11051 82.60873 80.85962
# Shear Modulus (GPa) = 29.94197 33.86228 31.90213
#
# Velocity S-wave (km/s) = 3.80843 4.05008 3.93111
# Velocity P-wave (km/s) = 7.59345 7.86684 7.73135
#
# Compressibility (1/GPa) = 0.01264055
#
# Stress axis : x y z
#
# Youngs Moduli (GPa) = 108.48627 66.91461 68.01825
#
# Poissons Ratio (x) = 0.26702 0.20888
# Poissons Ratio (y) = 0.43291 0.41153
# Poissons Ratio (z) = 0.33316 0.40486
#
# Static dielectric constant tensor:
#      x y z
#    x 4.101540 0.000000 0.201620 
#    y 0.000000 3.664920 0.000000 
#    z 0.201620 0.000000 3.772370 
# 
# 
# High freq. dielectric constant tensor:
#      x y z
#    x 1.823160 0.000000 0.015090 
#    y 0.000000 1.794900 0.000000 
#    z 0.015090 0.000000 1.814210 
# 
# From -- ./inp_files/85354.got.cif
#   From: 2010.06.25/outbox.cif.g09.slc.cpg/sg15_43_cif.got.tgz:85354.got - 2010.06.28 07:06:18.
