data_PCOD8143885
_publ_section_title
;
Structure prediction by ZEFSAII (Michael W. Deem and Ramdas Pophale) SiO2 
 PCOD8143885
Probable space group: C 2/C
;
_chemical_formula_sum "Si O2"
_cell_formula_units_Z 48
_cell_length_a 11.184644
_cell_length_b 14.586358
_cell_length_c 29.601998
_cell_angle_alpha 90.000000
_cell_angle_beta 150.799963
_cell_angle_gamma 90.000000
_cell_volume 2356.055239
_symmetry_space_group_name_H-M "C 2/C"
_symmetry_group_IT_number 15
_symmetry_cell_setting 'monoclinic'
loop_
_space_group_symop_operation_xyz
x,y,z
-x,y,1/2-z
-x,-y,-z
x,-y,1/2+z
1/2+x,1/2+y,z
1/2-x,1/2+y,1/2-z
1/2-x,1/2-y,-z
1/2+x,1/2-y,1/2+z
loop_
_atom_site_type_symbol
_atom_site_label
_atom_site_fract_x
_atom_site_fract_y
_atom_site_fract_z
Si Si1 0.638483 0.203271 0.842438
Si Si2 0.467453 0.010919 0.564544
Si Si3 0.646839 0.876769 0.552226
Si Si4 0.231998 0.241924 0.881325
Si Si5 0.792734 0.333213 0.308422
Si Si6 0.386901 0.410258 0.985198
O O1 0.500000 0.192318 0.750000
O O2 0.647285 0.309608 0.860116
O O3 0.494582 0.160235 0.836487
O O4 0.896979 0.151205 0.922204
O O5 0.295837 0.082810 0.479259
O O6 0.677921 0.064293 0.661943
O O7 0.628174 0.958088 0.581273
O O8 0.301863 0.941976 0.538721
O O9 0.398011 0.817787 0.469205
O O10 0.335011 0.239014 0.863683
O O11 0.236315 0.347970 0.899269
O O12 0.968926 0.192550 0.798719
O O13 0.500000 0.500000 0.000000
#
# Coordination Sequence:
#
# PCOD8143885 Si02
#       6
#     8   8   8   8   8   8
#     4  11  25  41  61  92 131 167 211 260 319 372
#     4  10  21  41  66  93 121 159 216 260 310 377
#     4   9  22  42  64  90 120 174 206 256 321 373
#     4   9  22  40  67  87 128 171 207 256 325 374
#     4  10  21  43  62  92 126 165 211 255 309 388
#     4  11  23  41  65  96 128 166 211 264 319 370
#
# _framework density 20.373035999999999
#
# number of rings (size 3 to 8) (size 9 to 14) (size 15 to 20)
#    0.000    2.000    1.667    0.000    7.000    3.333 
#   12.000    0.000    0.000    0.000    0.000    0.000 
#    0.000    0.000    0.000    0.000    0.000    0.000 
#
# Total GULP energy -297344.521047 kJ/mol
# GULP energy per Si atom -12389.355044 kJ/mol
# Density = 2.032667 g / cm^3
# Si number density = 20.373036 Si / 1000 Ang^3
#
#
#
# Elastic Constant Matrix: (Units=GPa)
#
#
# Indices 1 2 3 4 5 6 
#
# 1 89.4934 37.5126 31.5258 -0.0002 -7.0141 0.0000
# 2 37.5126 110.8500 47.5065 -0.0001 -14.4398 0.0001
# 3 31.5258 47.5065 97.4809 0.0001 -7.2320 0.0000
# 4 -0.0002 -0.0001 0.0001 32.5015 -0.0004 -1.2056
# 5 -7.0141 -14.4398 -7.2320 -0.0004 19.3872 0.0000
# 6 0.0000 0.0001 0.0000 -1.2056 0.0000 41.2276
#
#
#
# Elastic Compliance Matrix: (Units=1/GPa)
#
#
# Indices 1 2 3 4 5 6 
#
# 1 0.013607 -0.003251 -0.002706 0.000000 0.001492 0.000000
# 2 -0.003251 0.013065 -0.004814 0.000000 0.006759 0.000000
# 3 -0.002706 -0.004814 0.013515 0.000000 0.000477 0.000000
# 4 0.000000 0.000000 0.000000 0.030801 0.000001 0.000901
# 5 0.001492 0.006759 0.000477 0.000001 0.057333 0.000000
# 6 0.000000 0.000000 0.000000 0.000901 0.000000 0.024282
#
#
# Mechanical properties :
#
#
# Convention : Reuss Voigt Hill
#
# Bulk Modulus (GPa) = 53.63248 58.99048 56.31148
# Shear Modulus (GPa) = 27.72252 30.70853 29.21553
#
# Velocity S-wave (km/s) = 3.69283 3.88662 3.79097
# Velocity P-wave (km/s) = 6.67571 7.01136 6.84559
#
# Compressibility (1/GPa) = 0.01864542
#
# Stress axis : x y z
#
# Youngs Moduli (GPa) = 73.49354 76.54036 73.99167
#
# Poissons Ratio (x) = 0.24881 0.20019
# Poissons Ratio (y) = 0.23891 0.35622
# Poissons Ratio (z) = 0.19884 0.36850
#
# Static dielectric constant tensor:
#      x y z
#    x 3.688540 0.000000 -0.174030 
#    y 0.000000 3.950210 0.000000 
#    z -0.174030 0.000000 3.690860 
# 
# 
# High freq. dielectric constant tensor:
#      x y z
#    x 1.792970 0.000000 -0.014210 
#    y 0.000000 1.806270 0.000000 
#    z -0.014210 0.000000 1.786110 
# 
# From -- ./inp_files/311246.got.cif
#   From: 2010.06.25/outbox.cif.g09.slc.cpg/sg15_156_cif.got.tgz:311246.got - 2010.06.28 07:06:18.
