data_PCOD8143613
_publ_section_title
;
Structure prediction by ZEFSAII (Michael W. Deem and Ramdas Pophale) SiO2 
 PCOD8143613
Probable space group: C 2/C
;
_chemical_formula_sum "Si O2"
_cell_formula_units_Z 64
_cell_length_a 14.475849
_cell_length_b 12.842163
_cell_length_c 25.814571
_cell_angle_alpha 90.000000
_cell_angle_beta 138.689230
_cell_angle_gamma 90.000000
_cell_volume 3167.999272
_symmetry_space_group_name_H-M "C 2/C"
_symmetry_group_IT_number 15
_symmetry_cell_setting 'monoclinic'
loop_
_space_group_symop_operation_xyz
x,y,z
-x,y,1/2-z
-x,-y,-z
x,-y,1/2+z
1/2+x,1/2+y,z
1/2-x,1/2+y,1/2-z
1/2-x,1/2-y,-z
1/2+x,1/2-y,1/2+z
loop_
_atom_site_type_symbol
_atom_site_label
_atom_site_fract_x
_atom_site_fract_y
_atom_site_fract_z
Si Si1 0.142346 0.480488 0.697557
Si Si2 0.859588 0.300488 0.426404
Si Si3 0.392879 0.445604 0.158939
Si Si4 0.441526 0.844408 0.085271
Si Si5 0.622218 0.355473 0.197106
Si Si6 0.352620 0.176670 0.213691
Si Si7 0.310626 0.332521 0.592664
Si Si8 0.885101 0.293427 0.895131
O O1 0.283754 0.544791 0.750509
O O2 0.150875 0.433272 0.758918
O O3 0.136233 0.395268 0.649387
O O4 0.003181 0.552155 0.638128
O O5 0.760469 0.402031 0.391757
O O6 0.767122 0.194443 0.380758
O O7 0.952881 0.310949 0.414843
O O8 0.955781 0.294054 0.517439
O O9 0.500000 0.422170 0.250000
O O10 0.459284 0.384799 0.137743
O O11 0.392909 0.567425 0.147014
O O12 0.423150 0.752812 0.120226
O O13 0.289819 0.867927 0.996831
O O14 0.678099 0.265505 0.257627
O O15 0.637896 0.313744 0.145456
O O16 0.500000 0.195262 0.250000
O O17 0.222962 0.286733 0.603380
#
# Coordination Sequence:
#
# PCOD8143613 Si02
#       8
#     8   8   8   8   8   8   8   8
#     4  11  23  39  65  87 123 163 200 249 312 362
#     4  11  20  41  64  84 127 157 205 253 301 354
#     4  12  21  36  64  94 115 157 204 255 293 355
#     4  10  21  41  61  89 122 162 194 257 300 363
#     4  11  22  40  59  91 124 150 205 250 301 357
#     4  11  22  41  60  89 121 163 204 246 305 363
#     4  10  23  38  63  90 122 153 211 244 305 357
#     4  10  24  40  62  91 118 164 202 249 304 366
#
# _framework density 20.202026
#
# number of rings (size 3 to 8) (size 9 to 14) (size 15 to 20)
#    0.000    1.250    3.750    2.250    1.750    4.500 
#    2.250    0.625    0.000    0.000    0.000    0.000 
#    0.000    0.000    0.000    0.000    0.000    0.000 
#
# Total GULP energy -396772.718639 kJ/mol
# GULP energy per Si atom -12399.147457 kJ/mol
# Density = 2.015605 g / cm^3
# Si number density = 20.202026 Si / 1000 Ang^3
#
#
#
# Elastic Constant Matrix: (Units=GPa)
#
#
# Indices 1 2 3 4 5 6 
#
# 1 84.3238 63.5143 56.6018 0.0000 -3.5286 0.0000
# 2 63.5143 90.7879 41.4824 0.0000 -3.5304 0.0000
# 3 56.6018 41.4824 84.7386 0.0000 5.6148 0.0000
# 4 0.0000 0.0000 0.0000 36.5880 0.0000 -4.2817
# 5 -3.5286 -3.5304 5.6148 0.0000 25.9362 0.0000
# 6 0.0000 0.0000 0.0000 -4.2817 0.0000 33.8876
#
#
#
# Elastic Compliance Matrix: (Units=1/GPa)
#
#
# Indices 1 2 3 4 5 6 
#
# 1 0.036157 -0.017842 -0.015809 0.000000 0.005913 0.000000
# 2 -0.017842 0.023310 0.000464 0.000000 0.000645 0.000000
# 3 -0.015809 0.000464 0.022596 0.000000 -0.006979 0.000000
# 4 0.000000 0.000000 0.000000 0.027742 0.000000 0.003505
# 5 0.005913 0.000645 -0.006979 0.000000 0.040959 0.000000
# 6 0.000000 0.000000 0.000000 0.003505 0.000000 0.029952
#
#
# Mechanical properties :
#
#
# Convention : Reuss Voigt Hill
#
# Bulk Modulus (GPa) = 63.73850 64.78305 64.26078
# Shear Modulus (GPa) = 19.81622 25.83247 22.82435
#
# Velocity S-wave (km/s) = 3.13533 3.57978 3.36490
# Velocity P-wave (km/s) = 6.68776 7.01596 6.85382
#
# Compressibility (1/GPa) = 0.01568910
#
# Stress axis : x y z
#
# Youngs Moduli (GPa) = 27.65738 42.90063 44.25560
#
# Poissons Ratio (x) = 0.76542 0.69963
# Poissons Ratio (y) = 0.49345 -0.02053
# Poissons Ratio (z) = 0.43723 -0.01990
#
# Static dielectric constant tensor:
#      x y z
#    x 3.770280 0.000000 -0.038540 
#    y 0.000000 3.901470 0.000000 
#    z -0.038540 0.000000 3.950010 
# 
# 
# High freq. dielectric constant tensor:
#      x y z
#    x 1.794660 0.000000 0.005590 
#    y 0.000000 1.780800 0.000000 
#    z 0.005590 0.000000 1.789890 
# 
# From -- ./inp_files/296144.got.cif
#   From: 2010.06.25/outbox.cif.g09.slc.cpg/sg15_149_cif.got.tgz:296144.got - 2010.06.28 07:06:18.
