data_PCOD8143985
_publ_section_title
;
Structure prediction by ZEFSAII (Michael W. Deem and Ramdas Pophale) SiO2 
 PCOD8143985
Probable space group: C 2/C
;
_chemical_formula_sum "Si O2"
_cell_formula_units_Z 48
_cell_length_a 8.596703
_cell_length_b 16.664613
_cell_length_c 25.141757
_cell_angle_alpha 90.000000
_cell_angle_beta 41.122030
_cell_angle_gamma 90.000000
_cell_volume 2368.794958
_symmetry_space_group_name_H-M "C 2/C"
_symmetry_group_IT_number 15
_symmetry_cell_setting 'monoclinic'
loop_
_space_group_symop_operation_xyz
x,y,z
-x,y,1/2-z
-x,-y,-z
x,-y,1/2+z
1/2+x,1/2+y,z
1/2-x,1/2+y,1/2-z
1/2-x,1/2-y,-z
1/2+x,1/2-y,1/2+z
loop_
_atom_site_type_symbol
_atom_site_label
_atom_site_fract_x
_atom_site_fract_y
_atom_site_fract_z
Si Si1 0.736094 0.975048 0.965218
Si Si2 0.939176 0.874931 0.826116
Si Si3 0.543077 0.770698 0.881752
Si Si4 0.681356 0.172751 0.551779
Si Si5 0.741086 0.253492 0.220454
Si Si6 0.623652 0.368617 0.009163
O O1 0.895289 0.953189 0.872948
O O2 0.856577 0.041750 0.972033
O O3 0.650918 0.898126 0.018798
O O4 0.500000 0.000000 0.000000
O O5 0.726747 0.808306 0.877789
O O6 0.000000 0.901329 0.750000
O O7 0.151651 0.835855 0.805310
O O8 0.684864 0.730801 0.796685
O O9 0.387886 0.695819 0.940824
O O10 0.358670 0.843361 0.914422
O O11 0.750000 0.250000 0.500000
O O12 0.435116 0.184665 0.647200
O O13 0.887105 0.141406 0.536975
O O14 0.500000 0.256793 0.250000
#
# Coordination Sequence:
#
# PCOD8143985 Si02
#       6
#     8   8   8   8   8   8
#     4  12  25  43  66 102 136 174 217 278 336 400
#     4  10  21  44  67  92 133 176 223 272 333 398
#     4  10  21  41  68  95 129 175 220 271 330 394
#     4  12  24  44  70  97 131 175 227 274 327 404
#     4  11  23  39  69  98 126 170 232 273 323 391
#     4  11  23  41  68  99 135 174 218 273 336 393
#
# _framework density 20.263468
#
# number of rings (size 3 to 8) (size 9 to 14) (size 15 to 20)
#    0.000    1.000    5.000    1.500    4.667    0.000 
#    3.000    0.000    0.000    0.000    0.000    0.000 
#    0.000    0.000    0.000    0.000    0.000    0.000 
#
# Total GULP energy -297323.017004 kJ/mol
# GULP energy per Si atom -12388.459042 kJ/mol
# Density = 2.021735 g / cm^3
# Si number density = 20.263468 Si / 1000 Ang^3
#
#
#
# Elastic Constant Matrix: (Units=GPa)
#
#
# Indices 1 2 3 4 5 6 
#
# 1 137.8441 55.1979 43.8864 0.0051 -17.2140 0.0004
# 2 55.1979 131.0345 62.2454 -0.0032 11.3590 0.0013
# 3 43.8864 62.2454 133.3467 -0.0002 0.5468 -0.0010
# 4 0.0051 -0.0032 -0.0002 35.8770 -0.0050 0.4283
# 5 -17.2140 11.3590 0.5468 -0.0050 35.9451 -0.0006
# 6 0.0004 0.0013 -0.0010 0.4283 -0.0006 26.8494
#
#
#
# Elastic Compliance Matrix: (Units=1/GPa)
#
#
# Indices 1 2 3 4 5 6 
#
# 1 0.010134 -0.004122 -0.001436 -0.000001 0.006178 0.000000
# 2 -0.004122 0.011824 -0.004140 0.000001 -0.005648 -0.000001
# 3 -0.001436 -0.004140 0.009902 0.000000 0.000470 0.000001
# 4 -0.000001 0.000001 0.000000 0.027878 0.000003 -0.000445
# 5 0.006178 -0.005648 0.000470 0.000003 0.032556 0.000001
# 6 0.000000 -0.000001 0.000001 -0.000445 0.000001 0.037252
#
#
# Mechanical properties :
#
#
# Convention : Reuss Voigt Hill
#
# Bulk Modulus (GPa) = 80.22959 80.54277 80.38618
# Shear Modulus (GPa) = 32.65891 35.79402 34.22646
#
# Velocity S-wave (km/s) = 4.01897 4.20745 4.11429
# Velocity P-wave (km/s) = 7.82402 7.96477 7.89471
#
# Compressibility (1/GPa) = 0.01246423
#
# Stress axis : x y z
#
# Youngs Moduli (GPa) = 98.67779 84.57378 100.98573
#
# Poissons Ratio (x) = 0.34862 0.14506
# Poissons Ratio (y) = 0.40676 0.41804
# Poissons Ratio (z) = 0.14174 0.35010
#
# Static dielectric constant tensor:
#      x y z
#    x 3.810510 0.000010 -0.120440 
#    y 0.000010 2.890660 -0.000020 
#    z -0.120440 -0.000020 4.172040 
# 
# 
# High freq. dielectric constant tensor:
#      x y z
#    x 1.801750 0.000000 -0.003660 
#    y 0.000000 1.775180 0.000000 
#    z -0.003660 0.000000 1.804870 
# 
# From -- ./inp_files/232495.got.cif
#   From: 2010.06.25/outbox.cif.g09.slc.cpg/sg15_117_cif.got.tgz:232495.got - 2010.06.28 07:06:18.
