data_PCOD8143597
_publ_section_title
;
Structure prediction by ZEFSAII (Michael W. Deem and Ramdas Pophale) SiO2 
 PCOD8143597
Probable space group: C 2/C
;
_chemical_formula_sum "Si O2"
_cell_formula_units_Z 60
_cell_length_a 7.745114
_cell_length_b 19.120259
_cell_length_c 20.023131
_cell_angle_alpha 90.000000
_cell_angle_beta 93.373120
_cell_angle_gamma 90.000000
_cell_volume 2960.060069
_symmetry_space_group_name_H-M "C 2/C"
_symmetry_group_IT_number 15
_symmetry_cell_setting 'monoclinic'
loop_
_space_group_symop_operation_xyz
x,y,z
-x,y,1/2-z
-x,-y,-z
x,-y,1/2+z
1/2+x,1/2+y,z
1/2-x,1/2+y,1/2-z
1/2-x,1/2-y,-z
1/2+x,1/2-y,1/2+z
loop_
_atom_site_type_symbol
_atom_site_label
_atom_site_fract_x
_atom_site_fract_y
_atom_site_fract_z
Si Si1 0.565046 0.803548 0.554270
Si Si2 0.396778 0.220595 0.181926
Si Si3 0.455468 0.285022 0.566465
Si Si4 0.869650 0.529137 0.805359
Si Si5 0.000000 0.016708 0.250000
Si Si6 0.324129 0.403285 0.862905
Si Si7 0.029998 0.458957 0.932126
Si Si8 0.931200 0.689460 0.820333
O O1 0.531380 0.769790 0.625186
O O2 0.473554 0.753683 0.497790
O O3 0.766916 0.813978 0.545958
O O4 0.480948 0.878958 0.547439
O O5 0.500000 0.234943 0.250000
O O6 0.314177 0.142936 0.181701
O O7 0.258115 0.281344 0.170789
O O8 0.575942 0.350804 0.585489
O O9 0.441695 0.226442 0.624080
O O10 0.670856 0.528255 0.773878
O O11 0.926947 0.606350 0.828876
O O12 0.000000 0.502547 0.750000
O O13 0.891117 0.481335 0.872056
O O14 0.956858 0.063625 0.313383
O O15 0.224116 0.463860 0.903587
O O16 0.000000 0.500000 0.000000
O O17 0.000000 0.712132 0.750000
#
# Coordination Sequence:
#
# PCOD8143597 Si02
#       8
#     8   8   8   8   4   8   8   8
#     4  10  22  38  63  90 128 167 206 272 317 394
#     4  10  22  35  61  93 120 155 212 262 323 371
#     4  10  21  41  60  93 123 161 214 264 335 374
#     4  11  24  43  64  92 132 175 222 270 327 388
#     4  12  24  42  68  94 132 170 230 270 318 396
#     4  10  24  37  67  92 124 169 216 271 321 385
#     4  11  23  42  65  94 134 178 218 268 332 391
#     4  10  22  38  60  85 121 160 202 266 323 377
#
# _framework density 20.269859
#
# number of rings (size 3 to 8) (size 9 to 14) (size 15 to 20)
#    0.000    1.600    1.333    2.400   10.267    5.867 
#    0.000    4.000    0.000    0.000    0.000    0.000 
#    0.000    0.000    0.000    0.000    0.000    0.000 
#
# Total GULP energy -371935.696244 kJ/mol
# GULP energy per Si atom -12397.856541 kJ/mol
# Density = 2.022372 g / cm^3
# Si number density = 20.269859 Si / 1000 Ang^3
#
#
#
# Elastic Constant Matrix: (Units=GPa)
#
#
# Indices 1 2 3 4 5 6 
#
# 1 85.4148 18.0167 31.6638 0.0000 -7.5200 0.0000
# 2 18.0167 58.4235 35.0261 0.0000 -11.3207 0.0000
# 3 31.6638 35.0261 134.3259 0.0000 -15.4116 0.0000
# 4 0.0000 0.0000 0.0000 34.0088 0.0000 -8.4755
# 5 -7.5200 -11.3207 -15.4116 0.0000 35.7433 0.0000
# 6 0.0000 0.0000 0.0000 -8.4755 0.0000 31.0677
#
#
#
# Elastic Compliance Matrix: (Units=1/GPa)
#
#
# Indices 1 2 3 4 5 6 
#
# 1 0.013186 -0.002466 -0.002353 0.000000 0.000979 0.000000
# 2 -0.002466 0.021416 -0.004507 0.000000 0.004321 0.000000
# 3 -0.002353 -0.004507 0.009420 0.000000 0.002139 0.000000
# 4 0.000000 0.000000 0.000000 0.031549 0.000000 0.008607
# 5 0.000979 0.004321 0.002139 0.000000 0.030474 0.000000
# 6 0.000000 0.000000 0.000000 0.008607 0.000000 0.034536
#
#
# Mechanical properties :
#
#
# Convention : Reuss Voigt Hill
#
# Bulk Modulus (GPa) = 39.41714 49.73080 44.57397
# Shear Modulus (GPa) = 29.81680 33.06114 31.43897
#
# Velocity S-wave (km/s) = 3.83951 4.04301 3.94257
# Velocity P-wave (km/s) = 6.25653 6.81044 6.53936
#
# Compressibility (1/GPa) = 0.02536967
#
# Stress axis : x y z
#
# Youngs Moduli (GPa) = 75.83705 46.69325 106.15754
#
# Poissons Ratio (x) = 0.11515 0.24979
# Poissons Ratio (y) = 0.18702 0.47849
# Poissons Ratio (z) = 0.17844 0.21046
#
# Static dielectric constant tensor:
#      x y z
#    x 3.773340 0.000000 -0.364410 
#    y 0.000000 3.578210 0.000000 
#    z -0.364410 0.000000 3.684280 
# 
# 
# High freq. dielectric constant tensor:
#      x y z
#    x 1.795130 0.000000 -0.007370 
#    y 0.000000 1.782730 0.000000 
#    z -0.007370 0.000000 1.801640 
# 
# From -- ./inp_files/192190.got.cif
#   From: 2010.06.25/outbox.cif.g09.slc.cpg/sg15_97_cif.got.tgz:192190.got - 2010.06.28 07:06:18.
