data_PCOD8143320
_publ_section_title
;
Structure prediction by ZEFSAII (Michael W. Deem and Ramdas Pophale) SiO2 
 PCOD8143320
Probable space group: C 2/C
;
_chemical_formula_sum "Si O2"
_cell_formula_units_Z 48
_cell_length_a 9.783291
_cell_length_b 14.055741
_cell_length_c 30.360664
_cell_angle_alpha 90.000000
_cell_angle_beta 145.489310
_cell_angle_gamma 90.000000
_cell_volume 2365.352570
_symmetry_space_group_name_H-M "C 2/C"
_symmetry_group_IT_number 15
_symmetry_cell_setting 'monoclinic'
loop_
_space_group_symop_operation_xyz
x,y,z
-x,y,1/2-z
-x,-y,-z
x,-y,1/2+z
1/2+x,1/2+y,z
1/2-x,1/2+y,1/2-z
1/2-x,1/2-y,-z
1/2+x,1/2-y,1/2+z
loop_
_atom_site_type_symbol
_atom_site_label
_atom_site_fract_x
_atom_site_fract_y
_atom_site_fract_z
Si Si1 0.356737 0.148224 0.531441
Si Si2 0.520828 0.105132 0.486680
Si Si3 0.793056 0.543749 0.227489
Si Si4 0.953254 0.181374 0.186857
Si Si5 0.969614 0.967515 0.068721
Si Si6 0.576935 0.109156 0.854352
O O1 0.250000 0.250000 0.500000
O O2 0.538037 0.158531 0.537950
O O3 0.491298 0.130815 0.613196
O O4 0.146164 0.069560 0.472664
O O5 0.299120 0.138146 0.397297
O O6 0.761666 0.112491 0.520951
O O7 0.500000 0.000000 0.500000
O O8 0.668322 0.634960 0.215917
O O9 0.611407 0.477871 0.152001
O O10 0.000000 0.583547 0.250000
O O11 0.898836 0.474183 0.292587
O O12 0.957315 0.295126 0.182932
O O13 0.000000 0.155211 0.250000
O O14 0.146628 0.928623 0.077504
#
# Coordination Sequence:
#
# PCOD8143320 Si02
#       6
#     8   8   8   8   8   8
#     4  11  20  40  64  93 123 163 209 255 306 363
#     4  10  21  40  65  92 126 160 206 262 308 365
#     4  10  22  42  65  87 129 164 209 259 310 372
#     4  12  24  43  64  92 127 166 208 257 315 371
#     4  10  21  41  63  94 125 163 205 257 314 367
#     4  11  24  42  64  93 127 168 205 259 311 373
#
# _framework density 20.292957000000001
#
# number of rings (size 3 to 8) (size 9 to 14) (size 15 to 20)
#    0.000    1.333    5.000    2.000    4.667    0.667 
#    0.000    7.500    0.000    0.000    0.000    0.000 
#    0.000    0.000    0.000    0.000    0.000    0.000 
#
# Total GULP energy -297370.327321 kJ/mol
# GULP energy per Si atom -12390.430305 kJ/mol
# Density = 2.024677 g / cm^3
# Si number density = 20.292957 Si / 1000 Ang^3
#
#
#
# Elastic Constant Matrix: (Units=GPa)
#
#
# Indices 1 2 3 4 5 6 
#
# 1 95.2098 32.8423 54.6129 0.0000 -8.3633 0.0000
# 2 32.8423 94.0069 17.3973 0.0000 13.7447 0.0000
# 3 54.6129 17.3973 85.3706 -0.0001 -4.6151 0.0000
# 4 0.0000 0.0000 -0.0001 33.7682 -0.0001 -0.6108
# 5 -8.3633 13.7447 -4.6151 -0.0001 41.9270 0.0000
# 6 0.0000 0.0000 0.0000 -0.6108 0.0000 32.1840
#
#
#
# Elastic Compliance Matrix: (Units=1/GPa)
#
#
# Indices 1 2 3 4 5 6 
#
# 1 0.018857 -0.005222 -0.010767 0.000000 0.004288 0.000000
# 2 -0.005222 0.013171 0.000369 0.000000 -0.005319 0.000000
# 3 -0.010767 0.000369 0.018514 0.000000 -0.000231 0.000000
# 4 0.000000 0.000000 0.000000 0.029624 0.000000 0.000562
# 5 0.004288 -0.005319 -0.000231 0.000000 0.026425 0.000000
# 6 0.000000 0.000000 0.000000 0.000562 0.000000 0.031082
#
#
# Mechanical properties :
#
#
# Convention : Reuss Voigt Hill
#
# Bulk Modulus (GPa) = 51.80900 53.81025 52.80963
# Shear Modulus (GPa) = 28.51465 32.89148 30.70307
#
# Velocity S-wave (km/s) = 3.75260 4.03032 3.89394
# Velocity P-wave (km/s) = 6.66048 6.94495 6.80420
#
# Compressibility (1/GPa) = 0.01930167
#
# Stress axis : x y z
#
# Youngs Moduli (GPa) = 53.02932 75.92201 54.01334
#
# Poissons Ratio (x) = 0.39650 0.58158
# Poissons Ratio (y) = 0.27694 -0.01994
# Poissons Ratio (z) = 0.57098 -0.02803
#
# Static dielectric constant tensor:
#      x y z
#    x 0.843290 0.000000 -1.454360 
#    y 0.000000 3.565170 0.000000 
#    z -1.454360 0.000000 3.106990 
# 
# 
# High freq. dielectric constant tensor:
#      x y z
#    x 1.800970 0.000000 -0.011150 
#    y 0.000000 1.793030 0.000000 
#    z -0.011150 0.000000 1.790530 
# 
# From -- ./inp_files/308126.got.cif
#   From: 2010.06.25/outbox.cif.g09.slc.cpg/sg15_155_cif.got.tgz:308126.got - 2010.06.28 07:06:18.
