data_PCOD8143069
_publ_section_title
;
Structure prediction by ZEFSAII (Michael W. Deem and Ramdas Pophale) SiO2 
 PCOD8143069
Probable space group: C 2/C
;
_chemical_formula_sum "Si O2"
_cell_formula_units_Z 60
_cell_length_a 27.720291
_cell_length_b 12.571008
_cell_length_c 8.950996
_cell_angle_alpha 90.000000
_cell_angle_beta 94.248865
_cell_angle_gamma 90.000000
_cell_volume 3110.598912
_symmetry_space_group_name_H-M "C 2/C"
_symmetry_group_IT_number 15
_symmetry_cell_setting 'monoclinic'
loop_
_space_group_symop_operation_xyz
x,y,z
-x,y,1/2-z
-x,-y,-z
x,-y,1/2+z
1/2+x,1/2+y,z
1/2-x,1/2+y,1/2-z
1/2-x,1/2-y,-z
1/2+x,1/2-y,1/2+z
loop_
_atom_site_type_symbol
_atom_site_label
_atom_site_fract_x
_atom_site_fract_y
_atom_site_fract_z
Si Si1 0.923857 0.178461 0.265333
Si Si2 0.000000 0.747174 0.250000
Si Si3 0.487718 0.379440 0.520292
Si Si4 0.955283 0.560243 0.067586
Si Si5 0.315935 0.364908 0.782489
Si Si6 0.707443 0.883092 0.253320
Si Si7 0.765667 0.996780 0.517818
Si Si8 0.900671 0.412375 0.269331
O O1 0.942558 0.119680 0.121870
O O2 0.873945 0.127456 0.311063
O O3 0.914148 0.297628 0.209446
O O4 0.964755 0.178410 0.402488
O O5 0.971846 0.823431 0.361091
O O6 0.966046 0.674435 0.140892
O O7 0.500000 0.500000 0.500000
O O8 0.936769 0.492329 0.200079
O O9 0.910777 0.579159 0.947291
O O10 0.000000 0.500000 0.000000
O O11 0.296604 0.243950 0.767784
O O12 0.300891 0.428707 0.631017
O O13 0.295377 0.418945 0.926548
O O14 0.655403 0.936855 0.270291
O O15 0.739120 0.911791 0.405121
O O16 0.728556 0.935000 0.108112
#
# Coordination Sequence:
#
# PCOD8143069 Si02
#       8
#     8   4   8   8   8   8   8   8
#     4  10  23  40  60  84 121 156 197 244 300 343
#     4  12  22  38  60  88 114 164 204 236 298 346
#     4  11  24  42  60  81 121 160 203 251 290 339
#     4  12  22  35  58  88 124 159 197 240 293 358
#     4  10  22  39  64  91 121 155 200 247 297 365
#     4  10  21  40  61  91 121 158 196 245 308 354
#     4  10  21  40  65  87 121 155 201 246 307 355
#     4  11  22  37  59  88 123 157 195 243 295 363
#
# _framework density 19.288889999999999
#
# number of rings (size 3 to 8) (size 9 to 14) (size 15 to 20)
#    0.000    1.333    2.667    3.200    3.733    0.000 
#    0.000    0.000    2.933    0.000    0.000    0.000 
#    0.000    0.000    0.000    0.000    0.000    0.000 
#
# Total GULP energy -371960.550656 kJ/mol
# GULP energy per Si atom -12398.685022 kJ/mol
# Density = 1.924499 g / cm^3
# Si number density = 19.288890 Si / 1000 Ang^3
#
#
#
# Elastic Constant Matrix: (Units=GPa)
#
#
# Indices 1 2 3 4 5 6 
#
# 1 92.9152 36.2131 31.4852 0.0000 -14.1353 0.0000
# 2 36.2131 103.1696 43.6004 0.0000 -17.5282 0.0000
# 3 31.4852 43.6004 111.9035 0.0000 -14.3625 0.0000
# 4 0.0000 0.0000 0.0000 36.8033 0.0000 -1.5703
# 5 -14.1353 -17.5282 -14.3625 0.0000 27.9712 0.0000
# 6 0.0000 0.0000 0.0000 -1.5703 0.0000 20.6877
#
#
#
# Elastic Compliance Matrix: (Units=1/GPa)
#
#
# Indices 1 2 3 4 5 6 
#
# 1 0.013241 -0.003171 -0.002019 0.000000 0.003667 0.000000
# 2 -0.003171 0.013146 -0.003617 0.000000 0.004778 0.000000
# 3 -0.002019 -0.003617 0.011232 0.000000 0.002481 0.000000
# 4 0.000000 0.000000 0.000000 0.027260 0.000000 0.002069
# 5 0.003667 0.004778 0.002481 0.000000 0.041872 0.000000
# 6 0.000000 0.000000 0.000000 0.002069 0.000000 0.048495
#
#
# Mechanical properties :
#
#
# Convention : Reuss Voigt Hill
#
# Bulk Modulus (GPa) = 49.98784 58.95397 54.47091
# Shear Modulus (GPa) = 27.85091 30.20509 29.02800
#
# Velocity S-wave (km/s) = 3.80397 3.96148 3.88352
# Velocity P-wave (km/s) = 6.72794 7.18014 6.95772
#
# Compressibility (1/GPa) = 0.02000486
#
# Stress axis : x y z
#
# Youngs Moduli (GPa) = 75.52569 76.06820 89.03271
#
# Poissons Ratio (x) = 0.24122 0.17977
# Poissons Ratio (y) = 0.23950 0.32199
# Poissons Ratio (z) = 0.15250 0.27510
#
# Static dielectric constant tensor:
#      x y z
#    x 3.414290 0.000000 -0.102170 
#    y 0.000000 3.584780 0.000000 
#    z -0.102170 0.000000 3.604920 
# 
# 
# High freq. dielectric constant tensor:
#      x y z
#    x 1.744460 0.000000 -0.002010 
#    y 0.000000 1.762660 0.000000 
#    z -0.002010 0.000000 1.764790 
# 
# From -- ./inp_files/65507.got.cif
#   From: 2010.06.25/outbox.cif.g09.slc.cpg/sg15_33_cif.got.tgz:65507.got - 2010.06.28 07:06:18.
