data_PCOD8143632
_publ_section_title
;
Structure prediction by ZEFSAII (Michael W. Deem and Ramdas Pophale) SiO2 
 PCOD8143632
Probable space group: C 2/C
;
_chemical_formula_sum "Si O2"
_cell_formula_units_Z 52
_cell_length_a 26.273442
_cell_length_b 15.187442
_cell_length_c 16.205301
_cell_angle_alpha 90.000000
_cell_angle_beta 156.988876
_cell_angle_gamma 90.000000
_cell_volume 2527.756911
_symmetry_space_group_name_H-M "C 2/C"
_symmetry_group_IT_number 15
_symmetry_cell_setting 'monoclinic'
loop_
_space_group_symop_operation_xyz
x,y,z
-x,y,1/2-z
-x,-y,-z
x,-y,1/2+z
1/2+x,1/2+y,z
1/2-x,1/2+y,1/2-z
1/2-x,1/2-y,-z
1/2+x,1/2-y,1/2+z
loop_
_atom_site_type_symbol
_atom_site_label
_atom_site_fract_x
_atom_site_fract_y
_atom_site_fract_z
Si Si1 0.919911 0.500301 0.797196
Si Si2 0.000000 0.564098 0.250000
Si Si3 0.262218 0.324001 0.132827
Si Si4 0.286436 0.361299 0.989201
Si Si5 0.017069 0.135818 0.409934
Si Si6 0.500000 0.783467 0.250000
Si Si7 0.231144 0.347320 0.505081
Si Si8 0.000000 0.992887 0.250000
O O1 0.004299 0.497066 0.838595
O O2 0.850420 0.406931 0.699282
O O3 0.824009 0.585450 0.647423
O O4 0.000000 0.500000 0.000000
O O5 0.129979 0.622074 0.445703
O O6 0.228211 0.220977 0.095126
O O7 0.366562 0.360381 0.352452
O O8 0.333355 0.330756 0.149896
O O9 0.379009 0.431775 0.086875
O O10 0.877199 0.121494 0.247538
O O11 0.019506 0.225365 0.360651
O O12 0.042026 0.052409 0.389510
O O13 0.629489 0.843975 0.430043
O O14 0.250000 0.250000 0.500000
#
# Coordination Sequence:
#
# PCOD8143632 Si02
#       8
#     8   4   8   8   8   4   8   4
#     4  11  24  41  67  95 134 181 219 278 341 401
#     4  10  24  44  66  94 136 168 230 276 326 416
#     4  10  23  45  64  96 133 180 218 279 340 404
#     4  10  23  43  63  93 132 169 232 272 328 416
#     4  10  22  40  66  95 133 169 219 279 341 391
#     4   9  21  38  61  95 132 172 212 266 340 411
#     4  10  21  41  61  96 137 166 217 279 324 409
#     4  11  21  42  67  99 130 170 222 284 336 403
#
# _framework density 20.571598999999999
#
# number of rings (size 3 to 8) (size 9 to 14) (size 15 to 20)
#    0.000    1.846    1.538    0.923    6.462    0.615 
#    8.308    0.000    0.000    0.000    0.000    0.000 
#    0.000    0.000    0.000    0.000    0.000    0.000 
#
# Total GULP energy -322220.066718 kJ/mol
# GULP energy per Si atom -12393.079489 kJ/mol
# Density = 2.052478 g / cm^3
# Si number density = 20.571599 Si / 1000 Ang^3
#
#
#
# Elastic Constant Matrix: (Units=GPa)
#
#
# Indices 1 2 3 4 5 6 
#
# 1 119.5017 44.0502 74.3462 0.0000 7.5587 0.0000
# 2 44.0502 113.2995 57.8672 0.0000 -12.6723 0.0000
# 3 74.3462 57.8672 160.7755 0.0000 -2.2176 0.0000
# 4 0.0000 0.0000 0.0000 -47.3808 0.0000 55.8200
# 5 7.5587 -12.6723 -2.2176 0.0000 27.2272 0.0000
# 6 0.0000 0.0000 0.0000 55.8200 0.0000 6.2421
#
#
#
# Elastic Compliance Matrix: (Units=1/GPa)
#
#
# Indices 1 2 3 4 5 6 
#
# 1 0.012930 -0.003116 -0.004932 0.000000 -0.005442 0.000000
# 2 -0.003116 0.012208 -0.002866 0.000000 0.006314 0.000000
# 3 -0.004932 -0.002866 0.009543 0.000000 0.000813 0.000000
# 4 0.000000 0.000000 0.000000 -0.001830 0.000000 0.016362
# 5 -0.005442 0.006314 0.000813 0.000000 0.041243 0.000000
# 6 0.000000 0.000000 0.000000 0.016362 0.000000 0.013888
#
#
# Mechanical properties :
#
#
# Convention : Reuss Voigt Hill
#
# Bulk Modulus (GPa) = 77.81058 82.90043 80.35550
# Shear Modulus (GPa) = 43.82319 11.70524 27.76422
#
# Velocity S-wave (km/s) = 4.62050 2.38796 3.67773
# Velocity P-wave (km/s) = 8.14688 6.92742 7.56177
#
# Compressibility (1/GPa) = 0.01285172
#
# Stress axis : x y z
#
# Youngs Moduli (GPa) = 77.34192 81.91630 104.78573
#
# Poissons Ratio (x) = 0.25529 0.51684
# Poissons Ratio (y) = 0.24103 0.30028
# Poissons Ratio (z) = 0.38147 0.23474
#
# Static dielectric constant tensor:
#      x y z
#    x 4.428830 0.000000 0.276660 
#    y 0.000000 4.211350 0.000000 
#    z 0.276660 0.000000 3.646270 
# 
# 
# High freq. dielectric constant tensor:
#      x y z
#    x 1.803420 0.000000 0.018910 
#    y 0.000000 1.822570 0.000000 
#    z 0.018910 0.000000 1.791500 
# 
# From -- ./inp_files/144352.got.cif
#   From: 2010.06.25/outbox.cif.g09.slc.cpg/sg15_73_cif.got.tgz:144352.got - 2010.06.28 07:06:18.
