data_PCOD8143394
_publ_section_title
;
Structure prediction by ZEFSAII (Michael W. Deem and Ramdas Pophale) SiO2 
 PCOD8143394
Probable space group: C 2/C
;
_chemical_formula_sum "Si O2"
_cell_formula_units_Z 52
_cell_length_a 35.117053
_cell_length_b 5.285002
_cell_length_c 13.976359
_cell_angle_alpha 90.000000
_cell_angle_beta 111.869989
_cell_angle_gamma 90.000000
_cell_volume 2407.243271
_symmetry_space_group_name_H-M "C 2/C"
_symmetry_group_IT_number 15
_symmetry_cell_setting 'monoclinic'
loop_
_space_group_symop_operation_xyz
x,y,z
-x,y,1/2-z
-x,-y,-z
x,-y,1/2+z
1/2+x,1/2+y,z
1/2-x,1/2+y,1/2-z
1/2-x,1/2-y,-z
1/2+x,1/2-y,1/2+z
loop_
_atom_site_type_symbol
_atom_site_label
_atom_site_fract_x
_atom_site_fract_y
_atom_site_fract_z
Si Si1 0.963544 0.334456 0.573978
Si Si2 0.500000 0.474386 0.750000
Si Si3 0.767979 0.029343 0.385828
Si Si4 0.044824 0.373117 0.144797
Si Si5 0.102260 0.534986 0.858882
Si Si6 0.280812 0.471958 0.676924
Si Si7 0.345681 0.469655 0.092925
O O1 0.945356 0.259631 0.452081
O O2 0.934524 0.543181 0.596612
O O3 0.010719 0.411574 0.601687
O O4 0.965520 0.117430 0.655510
O O5 0.472158 0.332329 0.799155
O O6 0.745687 0.293531 0.388212
O O7 0.783760 0.021128 0.292756
O O8 0.807594 0.006194 0.487032
O O9 0.737946 0.792702 0.378184
O O10 0.085483 0.484276 0.233585
O O11 0.131546 0.295333 0.903232
O O12 0.124656 0.797186 0.899180
O O13 0.327337 0.505315 0.682738
#
# Coordination Sequence:
#
# PCOD8143394 Si02
#       7
#     8   4   8   8   8   8   8
#     4  11  24  42  67  92 125 176 227 281 333 388
#     4  12  18  44  68  96 122 158 234 292 320 396
#     4  10  21  40  66  93 123 165 219 266 310 384
#     4  11  24  42  67  92 125 176 227 281 333 388
#     4  12  25  43  60  96 138 170 213 275 328 411
#     4  10  21  40  66  93 123 165 219 266 310 384
#     4  12  25  39  65  92 135 172 205 266 337 391
#
# _framework density 21.601474
#
# number of rings (size 3 to 8) (size 9 to 14) (size 15 to 20)
#    0.000    0.923    3.077    4.154    0.000    2.462 
#    0.000    0.000    0.000    0.000    0.000    0.000 
#    0.000    0.000    0.000    0.000    0.000    0.000 
#
# Total GULP energy -322327.200759 kJ/mol
# GULP energy per Si atom -12397.200029 kJ/mol
# Density = 2.155231 g / cm^3
# Si number density = 21.601474 Si / 1000 Ang^3
#
#
#
# Elastic Constant Matrix: (Units=GPa)
#
#
# Indices 1 2 3 4 5 6 
#
# 1 55.6469 12.0372 11.0727 0.0000 -4.0778 0.0000
# 2 12.0372 104.1896 15.2694 0.0000 -3.5384 0.0000
# 3 11.0727 15.2694 89.3098 0.0000 -31.7126 0.0000
# 4 0.0000 0.0000 0.0000 72.0046 0.0000 -36.6274
# 5 -4.0778 -3.5384 -31.7126 0.0000 20.8365 0.0000
# 6 0.0000 0.0000 0.0000 -36.6274 0.0000 69.1070
#
#
#
# Elastic Compliance Matrix: (Units=1/GPa)
#
#
# Indices 1 2 3 4 5 6 
#
# 1 0.018780 -0.001888 -0.001772 0.000000 0.000658 0.000000
# 2 -0.001888 0.010070 -0.002201 0.000000 -0.002010 0.000000
# 3 -0.001772 -0.002201 0.025104 0.000000 0.037487 0.000000
# 4 0.000000 0.000000 0.000000 0.019014 0.000000 0.010078
# 5 0.000658 -0.002010 0.037487 0.000000 0.104835 0.000000
# 6 0.000000 0.000000 0.000000 0.010078 0.000000 0.019812
#
#
# Mechanical properties :
#
#
# Convention : Reuss Voigt Hill
#
# Bulk Modulus (GPa) = 23.67854 36.21163 29.94509
# Shear Modulus (GPa) = 22.37995 46.44076 34.41036
#
# Velocity S-wave (km/s) = 3.22225 4.64172 3.99552
# Velocity P-wave (km/s) = 4.98289 6.74739 5.93112
#
# Compressibility (1/GPa) = 0.04223233
#
# Stress axis : x y z
#
# Youngs Moduli (GPa) = 53.24936 99.30170 39.83390
#
# Poissons Ratio (x) = 0.18744 0.07059
# Poissons Ratio (y) = 0.10051 0.08769
# Poissons Ratio (z) = 0.09436 0.21859
#
# Static dielectric constant tensor:
#      x y z
#    x 4.164800 0.000000 -0.024890 
#    y 0.000000 3.995700 0.000000 
#    z -0.024890 0.000000 4.292480 
# 
# 
# High freq. dielectric constant tensor:
#      x y z
#    x 1.845540 0.000000 -0.007980 
#    y 0.000000 1.852620 0.000000 
#    z -0.007980 0.000000 1.862130 
# 
# From -- ./inp_files/180181.got.cif
#   From: 2010.06.25/outbox.cif.g09.slc.cpg/sg15_91_cif.got.tgz:180181.got - 2010.06.28 07:06:18.
