data_PCOD8143072
_publ_section_title
;
Structure prediction by ZEFSAII (Michael W. Deem and Ramdas Pophale) SiO2 
 PCOD8143072
Probable space group: C 2/C
;
_chemical_formula_sum "Si O2"
_cell_formula_units_Z 48
_cell_length_a 10.878915
_cell_length_b 9.369110
_cell_length_c 22.104797
_cell_angle_alpha 90.000000
_cell_angle_beta 101.916343
_cell_angle_gamma 90.000000
_cell_volume 2204.495145
_symmetry_space_group_name_H-M "C 2/C"
_symmetry_group_IT_number 15
_symmetry_cell_setting 'monoclinic'
loop_
_space_group_symop_operation_xyz
x,y,z
-x,y,1/2-z
-x,-y,-z
x,-y,1/2+z
1/2+x,1/2+y,z
1/2-x,1/2+y,1/2-z
1/2-x,1/2-y,-z
1/2+x,1/2-y,1/2+z
loop_
_atom_site_type_symbol
_atom_site_label
_atom_site_fract_x
_atom_site_fract_y
_atom_site_fract_z
Si Si1 0.304787 0.949751 0.536543
Si Si2 0.712831 0.918813 0.191111
Si Si3 0.858472 0.211790 0.213673
Si Si4 0.649284 0.350704 0.411373
Si Si5 0.556021 0.463338 0.569902
Si Si6 0.468383 0.169565 0.609317
O O1 0.373108 0.800735 0.558911
O O2 0.243271 0.944571 0.463568
O O3 0.204933 0.985134 0.579946
O O4 0.404639 0.077521 0.549531
O O5 0.711841 0.828844 0.252668
O O6 0.794072 0.834218 0.149369
O O7 0.568857 0.931244 0.153820
O O8 0.771972 0.072617 0.208772
O O9 0.865284 0.270171 0.145977
O O10 0.000000 0.175994 0.250000
O O11 0.515078 0.432574 0.390074
O O12 0.500000 0.500000 0.500000
O O13 0.538813 0.298276 0.583984
#
# Coordination Sequence:
#
# PCOD8143072 Si02
#       6
#     8   8   8   8   8   8
#     4  10  23  40  64  96 133 167 202 258 319 384
#     4  11  23  45  66  91 127 164 217 266 318 370
#     4  10  25  45  65  89 125 168 213 270 318 373
#     4  10  21  41  63  94 131 167 209 256 316 381
#     4  10  21  40  61  91 131 168 202 250 309 379
#     4  11  23  42  67  94 129 165 211 263 317 383
#
# _framework density 21.773693999999999
#
# number of rings (size 3 to 8) (size 9 to 14) (size 15 to 20)
#    0.000    1.667    3.333    0.000    2.333    4.667 
#    3.000    0.000    0.000    0.000    0.000    0.000 
#    0.000    0.000    0.000    0.000    0.000    0.000 
#
# Total GULP energy -297560.767192 kJ/mol
# GULP energy per Si atom -12398.365300 kJ/mol
# Density = 2.172414 g / cm^3
# Si number density = 21.773694 Si / 1000 Ang^3
#
#
#
# Elastic Constant Matrix: (Units=GPa)
#
#
# Indices 1 2 3 4 5 6 
#
# 1 67.3461 39.0034 0.8676 0.0000 -4.4774 0.0000
# 2 39.0034 88.4958 13.1867 0.0000 12.7303 0.0000
# 3 0.8676 13.1867 59.5093 0.0000 -12.4335 0.0000
# 4 0.0000 0.0000 0.0000 33.8755 0.0000 -4.1740
# 5 -4.4774 12.7303 -12.4335 0.0000 31.9250 0.0000
# 6 0.0000 0.0000 0.0000 -4.1740 0.0000 38.8469
#
#
#
# Elastic Compliance Matrix: (Units=1/GPa)
#
#
# Indices 1 2 3 4 5 6 
#
# 1 0.022271 -0.011821 0.004280 0.000000 0.009504 0.000000
# 2 -0.011821 0.019195 -0.006560 0.000000 -0.011867 0.000000
# 3 0.004280 -0.006560 0.020539 0.000000 0.011215 0.000000
# 4 0.000000 0.000000 0.000000 0.029916 0.000000 0.003214
# 5 0.009504 -0.011867 0.011215 0.000000 0.041756 0.000000
# 6 0.000000 0.000000 0.000000 0.003214 0.000000 0.026087
#
#
# Mechanical properties :
#
#
# Convention : Reuss Voigt Hill
#
# Bulk Modulus (GPa) = 29.58315 35.71850 32.65082
# Shear Modulus (GPa) = 25.09618 31.74904 28.42261
#
# Velocity S-wave (km/s) = 3.39867 3.82270 3.61690
# Velocity P-wave (km/s) = 5.38678 5.99367 5.69831
#
# Compressibility (1/GPa) = 0.03380303
#
# Stress axis : x y z
#
# Youngs Moduli (GPa) = 44.90053 52.09825 48.68865
#
# Poissons Ratio (x) = 0.61585 -0.20841
# Poissons Ratio (y) = 0.53076 0.31942
# Poissons Ratio (z) = -0.19219 0.34178
#
# Static dielectric constant tensor:
#      x y z
#    x 4.788390 0.000000 0.128210 
#    y 0.000000 3.720950 0.000000 
#    z 0.128210 0.000000 4.298510 
# 
# 
# High freq. dielectric constant tensor:
#      x y z
#    x 1.859660 0.000000 -0.018840 
#    y 0.000000 1.851360 0.000000 
#    z -0.018840 0.000000 1.844170 
# 
# From -- ./inp_files/267652.got.cif
#   From: 2010.06.25/outbox.cif.g09.slc.cpg/sg15_134_cif.got.tgz:267652.got - 2010.06.28 07:06:18.
