data_PCOD8143176
_publ_section_title
;
Structure prediction by ZEFSAII (Michael W. Deem and Ramdas Pophale) SiO2 
 PCOD8143176
Probable space group: C 2/C
;
_chemical_formula_sum "Si O2"
_cell_formula_units_Z 48
_cell_length_a 9.359349
_cell_length_b 10.292135
_cell_length_c 24.670564
_cell_angle_alpha 90.000000
_cell_angle_beta 89.986020
_cell_angle_gamma 90.000000
_cell_volume 2376.458208
_symmetry_space_group_name_H-M "C 2/C"
_symmetry_group_IT_number 15
_symmetry_cell_setting 'monoclinic'
loop_
_space_group_symop_operation_xyz
x,y,z
-x,y,1/2-z
-x,-y,-z
x,-y,1/2+z
1/2+x,1/2+y,z
1/2-x,1/2+y,1/2-z
1/2-x,1/2-y,-z
1/2+x,1/2-y,1/2+z
loop_
_atom_site_type_symbol
_atom_site_label
_atom_site_fract_x
_atom_site_fract_y
_atom_site_fract_z
Si Si1 0.360288 0.296521 0.279028
Si Si2 0.754001 0.280641 0.563153
Si Si3 0.748924 0.979768 0.116148
Si Si4 0.048498 0.987439 0.061265
Si Si5 0.166271 0.487242 0.739799
Si Si6 0.573337 0.220436 0.099458
O O1 0.500000 0.352435 0.250000
O O2 0.247326 0.414616 0.280685
O O3 0.408998 0.250156 0.337602
O O4 0.299967 0.165769 0.248652
O O5 0.750000 0.250000 0.500000
O O6 0.657054 0.402020 0.578692
O O7 0.911249 0.314526 0.584378
O O8 0.689009 0.155262 0.592974
O O9 0.670672 0.097094 0.084624
O O10 0.917302 0.990743 0.103559
O O11 0.718012 0.977471 0.179670
O O12 0.124922 0.846906 0.066089
O O13 0.000000 0.000000 0.000000
O O14 0.000000 0.513373 0.750000
#
# Coordination Sequence:
#
# PCOD8143176 Si02
#       6
#     8   8   8   8   8   8
#     4  10  21  40  63  92 126 161 204 256 318 373
#     4  11  22  42  62  88 129 167 207 261 309 360
#     4  10  23  41  62  95 123 162 214 254 313 381
#     4  11  22  41  60  87 126 165 212 255 305 366
#     4  10  23  41  64  93 128 158 205 258 315 380
#     4  10  23  39  61  93 125 164 211 259 311 370
#
# _framework density 20.198125000000001
#
# number of rings (size 3 to 8) (size 9 to 14) (size 15 to 20)
#    0.000    1.667    3.333    2.000    0.000   11.333 
#    0.000    0.000    0.000    0.000    0.000    0.000 
#    0.000    0.000    0.000    0.000    0.000    0.000 
#
# Total GULP energy -297537.998036 kJ/mol
# GULP energy per Si atom -12397.416585 kJ/mol
# Density = 2.015215 g / cm^3
# Si number density = 20.198125 Si / 1000 Ang^3
#
#
#
# Elastic Constant Matrix: (Units=GPa)
#
#
# Indices 1 2 3 4 5 6 
#
# 1 87.3890 55.8589 19.6828 0.0000 7.9277 0.0000
# 2 55.8589 147.6510 4.6854 0.0000 20.5756 0.0000
# 3 19.6828 4.6854 55.4030 0.0000 2.1986 0.0000
# 4 0.0000 0.0000 0.0000 36.1949 0.0000 8.2414
# 5 7.9277 20.5756 2.1986 0.0000 36.2882 0.0000
# 6 0.0000 0.0000 0.0000 8.2414 0.0000 41.6155
#
#
#
# Elastic Compliance Matrix: (Units=1/GPa)
#
#
# Indices 1 2 3 4 5 6 
#
# 1 0.016543 -0.006113 -0.005367 0.000000 0.000177 0.000000
# 2 -0.006113 0.009624 0.001525 0.000000 -0.004214 0.000000
# 3 -0.005367 0.001525 0.019863 0.000000 -0.000896 0.000000
# 4 0.000000 0.000000 0.000000 0.028933 0.000000 -0.005730
# 5 0.000177 -0.004214 -0.000896 0.000000 0.029962 0.000000
# 6 0.000000 0.000000 0.000000 -0.005730 0.000000 0.025164
#
#
# Mechanical properties :
#
#
# Convention : Reuss Voigt Hill
#
# Bulk Modulus (GPa) = 38.28493 50.09968 44.19230
# Shear Modulus (GPa) = 31.50464 36.83411 34.16937
#
# Velocity S-wave (km/s) = 3.95369 4.27504 4.11750
# Velocity P-wave (km/s) = 6.31174 7.01612 6.67323
#
# Compressibility (1/GPa) = 0.02611994
#
# Stress axis : x y z
#
# Youngs Moduli (GPa) = 60.44729 103.90472 50.34491
#
# Poissons Ratio (x) = 0.63517 0.27022
# Poissons Ratio (y) = 0.36951 -0.07678
# Poissons Ratio (z) = 0.32444 -0.15846
#
# Static dielectric constant tensor:
#      x y z
#    x 3.593430 0.000000 0.038780 
#    y 0.000000 3.920070 0.000000 
#    z 0.038780 0.000000 3.634360 
# 
# 
# High freq. dielectric constant tensor:
#      x y z
#    x 1.777630 0.000000 -0.000600 
#    y 0.000000 1.811480 0.000000 
#    z -0.000600 0.000000 1.788560 
# 
# From -- ./inp_files/263166.got.cif
#   From: 2010.06.25/outbox.cif.g09.slc.cpg/sg15_132_cif.got.tgz:263166.got - 2010.06.28 07:06:18.
