data_PCOD8143966
_publ_section_title
;
Structure prediction by ZEFSAII (Michael W. Deem and Ramdas Pophale) SiO2 
 PCOD8143966
Probable space group: C 2/C
;
_chemical_formula_sum "Si O2"
_cell_formula_units_Z 56
_cell_length_a 23.453776
_cell_length_b 6.590776
_cell_length_c 17.371375
_cell_angle_alpha 90.000000
_cell_angle_beta 98.200996
_cell_angle_gamma 90.000000
_cell_volume 2657.782591
_symmetry_space_group_name_H-M "C 2/C"
_symmetry_group_IT_number 15
_symmetry_cell_setting 'monoclinic'
loop_
_space_group_symop_operation_xyz
x,y,z
-x,y,1/2-z
-x,-y,-z
x,-y,1/2+z
1/2+x,1/2+y,z
1/2-x,1/2+y,1/2-z
1/2-x,1/2-y,-z
1/2+x,1/2-y,1/2+z
loop_
_atom_site_type_symbol
_atom_site_label
_atom_site_fract_x
_atom_site_fract_y
_atom_site_fract_z
Si Si1 0.801244 0.534822 0.943673
Si Si2 0.495653 0.315897 0.556508
Si Si3 0.964530 0.881102 0.317195
Si Si4 0.710513 0.149391 0.388796
Si Si5 0.743631 0.251176 0.826288
Si Si6 0.162720 0.086560 0.759912
Si Si7 0.927076 0.566014 0.438438
O O1 0.773635 0.746310 0.908907
O O2 0.756780 0.356333 0.911585
O O3 0.860114 0.474901 0.912750
O O4 0.812367 0.556920 0.036093
O O5 0.500000 0.500000 0.500000
O O6 0.500472 0.423155 0.641346
O O7 0.437752 0.189052 0.521794
O O8 0.547124 0.158585 0.553299
O O9 0.901612 0.957320 0.279838
O O10 0.956418 0.694120 0.374743
O O11 0.000000 0.802201 0.250000
O O12 0.663665 0.306156 0.344742
O O13 0.716566 0.967614 0.330887
O O14 0.803149 0.237118 0.790508
O O15 0.696199 0.374051 0.769118
#
# Coordination Sequence:
#
# PCOD8143966 Si02
#       7
#     8   8   8   8   8   8   8
#     4  10  22  39  64  91 125 164 209 263 323 383
#     4   9  22  40  61  90 117 165 221 262 313 382
#     4  11  25  42  62  95 132 169 217 268 325 385
#     4  10  23  38  58  97 128 157 212 264 317 383
#     4  11  21  39  62  93 125 167 211 255 328 384
#     4  11  23  37  63  93 127 168 209 263 317 389
#     4  10  21  41  68  88 121 173 215 267 324 386
#
# _framework density 21.070194999999998
#
# number of rings (size 3 to 8) (size 9 to 14) (size 15 to 20)
#    0.000    1.714    2.857    0.429    2.000    6.286 
#    0.000    0.000    0.000    0.000    0.000    0.000 
#    0.000    0.000    0.000    0.000    0.000    0.000 
#
# Total GULP energy -346941.727401 kJ/mol
# GULP energy per Si atom -12390.775979 kJ/mol
# Density = 2.102224 g / cm^3
# Si number density = 21.070195 Si / 1000 Ang^3
#
#
#
# Elastic Constant Matrix: (Units=GPa)
#
#
# Indices 1 2 3 4 5 6 
#
# 1 80.8620 41.9800 35.8857 0.0000 4.6990 0.0000
# 2 41.9800 113.0906 41.4518 0.0000 -0.0804 0.0000
# 3 35.8857 41.4518 107.3635 0.0000 4.2435 0.0000
# 4 0.0000 0.0000 0.0000 25.7977 0.0000 -3.6749
# 5 4.6990 -0.0804 4.2435 0.0000 26.4084 0.0000
# 6 0.0000 0.0000 0.0000 -3.6749 0.0000 20.3407
#
#
#
# Elastic Compliance Matrix: (Units=1/GPa)
#
#
# Indices 1 2 3 4 5 6 
#
# 1 0.016618 -0.004857 -0.003585 0.000000 -0.002396 0.000000
# 2 -0.004857 0.011731 -0.002960 0.000000 0.001376 0.000000
# 3 -0.003585 -0.002960 0.011705 0.000000 -0.001252 0.000000
# 4 0.000000 0.000000 0.000000 0.039787 0.000000 0.007188
# 5 -0.002396 0.001376 -0.001252 0.000000 0.038498 0.000000
# 6 0.000000 0.000000 0.000000 0.007188 0.000000 0.050461
#
#
# Mechanical properties :
#
#
# Convention : Reuss Voigt Hill
#
# Bulk Modulus (GPa) = 57.96831 59.99457 58.98144
# Shear Modulus (GPa) = 25.33511 26.64261 25.98886
#
# Velocity S-wave (km/s) = 3.47135 3.55980 3.51585
# Velocity P-wave (km/s) = 6.60596 6.74030 6.67347
#
# Compressibility (1/GPa) = 0.01725081
#
# Stress axis : x y z
#
# Youngs Moduli (GPa) = 60.17521 85.24190 85.43489
#
# Poissons Ratio (x) = 0.41398 0.30627
# Poissons Ratio (y) = 0.29224 0.25292
# Poissons Ratio (z) = 0.21572 0.25235
#
# Static dielectric constant tensor:
#      x y z
#    x 3.455620 0.000000 0.214940 
#    y 0.000000 3.967920 0.000000 
#    z 0.214940 0.000000 4.140040 
# 
# 
# High freq. dielectric constant tensor:
#      x y z
#    x 1.791170 0.000000 0.019720 
#    y 0.000000 1.838730 0.000000 
#    z 0.019720 0.000000 1.836830 
# 
# From -- ./inp_files/221314.got.cif
#   From: 2010.06.25/outbox.cif.g09.slc.cpg/sg15_111_cif.got.tgz:221314.got - 2010.06.28 07:06:18.
