data_PCOD8143949
_publ_section_title
;
Structure prediction by ZEFSAII (Michael W. Deem and Ramdas Pophale) SiO2 
 PCOD8143949
Probable space group: C 2/C
;
_chemical_formula_sum "Si O2"
_cell_formula_units_Z 48
_cell_length_a 8.731824
_cell_length_b 23.616197
_cell_length_c 11.174871
_cell_angle_alpha 90.000000
_cell_angle_beta 99.607894
_cell_angle_gamma 90.000000
_cell_volume 2272.074144
_symmetry_space_group_name_H-M "C 2/C"
_symmetry_group_IT_number 15
_symmetry_cell_setting 'monoclinic'
loop_
_space_group_symop_operation_xyz
x,y,z
-x,y,1/2-z
-x,-y,-z
x,-y,1/2+z
1/2+x,1/2+y,z
1/2-x,1/2+y,1/2-z
1/2-x,1/2-y,-z
1/2+x,1/2-y,1/2+z
loop_
_atom_site_type_symbol
_atom_site_label
_atom_site_fract_x
_atom_site_fract_y
_atom_site_fract_z
Si Si1 0.193667 0.151822 0.935477
Si Si2 0.676874 0.174162 0.297927
Si Si3 0.335280 0.370841 0.435805
Si Si4 0.317955 0.217765 0.726999
Si Si5 0.316163 0.551403 0.718189
Si Si6 0.821264 0.075260 0.190451
O O1 0.222187 0.192345 0.826435
O O2 0.244971 0.088293 0.902922
O O3 0.013543 0.147154 0.945591
O O4 0.291256 0.178529 0.056329
O O5 0.500000 0.189588 0.250000
O O6 0.783989 0.215245 0.230229
O O7 0.717738 0.110166 0.269262
O O8 0.242988 0.311918 0.402555
O O9 0.267098 0.417703 0.334559
O O10 0.298689 0.397790 0.558016
O O11 0.500000 0.206762 0.750000
O O12 0.500000 0.549000 0.750000
O O13 0.252076 0.488185 0.690930
O O14 0.000000 0.077069 0.250000
#
# Coordination Sequence:
#
# PCOD8143949 Si02
#       6
#     8   8   8   8   8   8
#     4  10  21  43  66  92 125 168 206 258 310 372
#     4  12  26  42  61  92 129 165 211 259 318 370
#     4  10  21  41  67  94 130 162 211 256 312 373
#     4  11  25  43  67  91 121 166 211 261 316 374
#     4   8  19  36  66  95 124 164 207 254 306 365
#     4  11  22  38  65  99 125 167 210 259 304 369
#
# _framework density 21.126071
#
# number of rings (size 3 to 8) (size 9 to 14) (size 15 to 20)
#    0.000    1.667    1.667    3.500    4.667    2.667 
#    0.000    4.167    0.000    0.000    0.000    0.000 
#    0.000    0.000    0.000    0.000    0.000    0.000 
#
# Total GULP energy -297502.470960 kJ/mol
# GULP energy per Si atom -12395.936290 kJ/mol
# Density = 2.107799 g / cm^3
# Si number density = 21.126071 Si / 1000 Ang^3
#
#
#
# Elastic Constant Matrix: (Units=GPa)
#
#
# Indices 1 2 3 4 5 6 
#
# 1 45.4114 0.4983 10.2550 0.0000 10.6078 0.0000
# 2 0.4983 116.0365 29.1806 0.0000 11.3736 0.0000
# 3 10.2550 29.1806 100.8186 0.0000 19.1207 0.0000
# 4 0.0000 0.0000 0.0000 27.7748 0.0000 3.9335
# 5 10.6078 11.3736 19.1207 0.0000 24.3553 0.0000
# 6 0.0000 0.0000 0.0000 3.9335 0.0000 28.4728
#
#
#
# Elastic Compliance Matrix: (Units=1/GPa)
#
#
# Indices 1 2 3 4 5 6 
#
# 1 0.024679 0.001144 -0.000824 0.000000 -0.010636 0.000000
# 2 0.001144 0.009492 -0.002266 0.000000 -0.003152 0.000000
# 3 -0.000824 -0.002266 0.012207 0.000000 -0.008166 0.000000
# 4 0.000000 0.000000 0.000000 0.036722 0.000000 -0.005073
# 5 -0.010636 -0.003152 -0.008166 0.000000 0.053574 0.000000
# 6 0.000000 0.000000 0.000000 -0.005073 0.000000 0.035822
#
#
# Mechanical properties :
#
#
# Convention : Reuss Voigt Hill
#
# Bulk Modulus (GPa) = 23.53749 38.01492 30.77620
# Shear Modulus (GPa) = 26.23968 30.94275 28.59122
#
# Velocity S-wave (km/s) = 3.52810 3.83125 3.68280
# Velocity P-wave (km/s) = 5.26899 6.13227 5.71695
#
# Compressibility (1/GPa) = 0.04248541
#
# Stress axis : x y z
#
# Youngs Moduli (GPa) = 40.52045 105.35394 81.91834
#
# Poissons Ratio (x) = -0.12050 0.06752
# Poissons Ratio (y) = -0.04635 0.18562
# Poissons Ratio (z) = 0.03340 0.23872
#
# Static dielectric constant tensor:
#      x y z
#    x 3.453420 0.000000 -0.001640 
#    y 0.000000 4.288060 0.000000 
#    z -0.001640 0.000000 3.901770 
# 
# 
# High freq. dielectric constant tensor:
#      x y z
#    x 1.800960 0.000000 -0.004960 
#    y 0.000000 1.844430 0.000000 
#    z -0.004960 0.000000 1.829890 
# 
# From -- ./inp_files/79117.got.cif
#   From: 2010.06.25/outbox.cif.g09.slc.cpg/sg15_40_cif.got.tgz:79117.got - 2010.06.28 07:06:18.
