data_PCOD8143500
_publ_section_title
;
Structure prediction by ZEFSAII (Michael W. Deem and Ramdas Pophale) SiO2 
 PCOD8143500
Probable space group: C 2/C
;
_chemical_formula_sum "Si O2"
_cell_formula_units_Z 64
_cell_length_a 26.448167
_cell_length_b 9.639404
_cell_length_c 14.271131
_cell_angle_alpha 90.000000
_cell_angle_beta 55.602805
_cell_angle_gamma 90.000000
_cell_volume 3002.150106
_symmetry_space_group_name_H-M "C 2/C"
_symmetry_group_IT_number 15
_symmetry_cell_setting 'monoclinic'
loop_
_space_group_symop_operation_xyz
x,y,z
-x,y,1/2-z
-x,-y,-z
x,-y,1/2+z
1/2+x,1/2+y,z
1/2-x,1/2+y,1/2-z
1/2-x,1/2-y,-z
1/2+x,1/2-y,1/2+z
loop_
_atom_site_type_symbol
_atom_site_label
_atom_site_fract_x
_atom_site_fract_y
_atom_site_fract_z
Si Si1 0.517333 0.175276 0.630660
Si Si2 0.504978 0.508027 0.139893
Si Si3 0.858535 0.457118 0.563575
Si Si4 0.770898 0.621554 0.920354
Si Si5 0.196343 0.166628 0.821719
Si Si6 0.884557 0.344416 0.196728
Si Si7 0.096658 0.057166 0.395416
Si Si8 0.240276 0.377688 0.441153
O O1 0.500000 0.119873 0.750000
O O2 0.534336 0.338065 0.613966
O O3 0.574044 0.083725 0.539756
O O4 0.457637 0.153028 0.629542
O O5 0.500000 0.445164 0.250000
O O6 0.437675 0.509994 0.163912
O O7 0.548207 0.411854 0.029955
O O8 0.818084 0.320857 0.626470
O O9 0.865256 0.527140 0.655628
O O10 0.826723 0.566193 0.524037
O O11 0.748589 0.611574 0.836337
O O12 0.845696 0.632952 0.834096
O O13 0.750000 0.750000 0.000000
O O14 0.738802 0.499342 0.011823
O O15 0.218481 0.156183 0.691649
O O16 0.138635 0.065870 0.888985
O O17 0.865816 0.197659 0.166707
O O18 0.250000 0.250000 0.500000
#
# Coordination Sequence:
#
# PCOD8143500 Si02
#       8
#     8   8   8   8   8   8   8   8
#     4  10  21  40  68  98 130 185 237 288 353 431
#     4   9  19  40  65  96 133 176 234 290 344 418
#     4  12  24  46  68  98 140 186 232 297 363 428
#     4  12  25  45  73 104 140 189 239 286 361 433
#     4  12  26  45  71  98 142 186 236 292 357 426
#     4  11  24  41  69  99 143 180 236 295 357 424
#     4  10  22  39  66  98 132 179 231 287 354 415
#     4  12  28  45  70 104 141 183 235 296 351 430
#
# _framework density 21.318055999999999
#
# number of rings (size 3 to 8) (size 9 to 14) (size 15 to 20)
#    0.000    1.000    3.750    2.625    1.750    2.000 
#    0.000    0.625    0.000    0.000    0.000    0.000 
#    0.000    0.000    0.000    0.000    0.000    0.000 
#
# Total GULP energy -396506.956652 kJ/mol
# GULP energy per Si atom -12390.842395 kJ/mol
# Density = 2.126954 g / cm^3
# Si number density = 21.318056 Si / 1000 Ang^3
#
#
#
# Elastic Constant Matrix: (Units=GPa)
#
#
# Indices 1 2 3 4 5 6 
#
# 1 82.5040 39.5761 50.6932 0.0000 2.2956 0.0000
# 2 39.5761 99.3869 37.9809 0.0000 0.0149 0.0000
# 3 50.6932 37.9809 139.2673 0.0000 5.4720 0.0000
# 4 0.0000 0.0000 0.0000 29.9788 0.0000 5.5216
# 5 2.2956 0.0149 5.4720 0.0000 37.9144 0.0000
# 6 0.0000 0.0000 0.0000 5.5216 0.0000 37.8686
#
#
#
# Elastic Compliance Matrix: (Units=1/GPa)
#
#
# Indices 1 2 3 4 5 6 
#
# 1 0.017671 -0.005117 -0.005023 0.000000 -0.000343 0.000000
# 2 -0.005117 0.012721 -0.001628 0.000000 0.000540 0.000000
# 3 -0.005023 -0.001628 0.009495 0.000000 -0.001066 0.000000
# 4 0.000000 0.000000 0.000000 0.034277 0.000000 -0.004998
# 5 -0.000343 0.000540 -0.001066 0.000000 0.026550 0.000000
# 6 0.000000 0.000000 0.000000 -0.004998 0.000000 0.027136
#
#
# Mechanical properties :
#
#
# Convention : Reuss Voigt Hill
#
# Bulk Modulus (GPa) = 61.15942 64.18431 62.67187
# Shear Modulus (GPa) = 31.88022 34.01288 32.94655
#
# Velocity S-wave (km/s) = 3.87131 3.99870 3.93552
# Velocity P-wave (km/s) = 6.98097 7.17585 7.07908
#
# Compressibility (1/GPa) = 0.01635071
#
# Stress axis : x y z
#
# Youngs Moduli (GPa) = 56.58913 78.60799 105.32101
#
# Poissons Ratio (x) = 0.40224 0.52906
# Poissons Ratio (y) = 0.28957 0.17146
# Poissons Ratio (z) = 0.28427 0.12797
#
# Static dielectric constant tensor:
#      x y z
#    x 4.147440 0.000000 -0.033900 
#    y 0.000000 3.800500 0.000000 
#    z -0.033900 0.000000 4.073290 
# 
# 
# High freq. dielectric constant tensor:
#      x y z
#    x 1.839870 0.000000 0.006550 
#    y 0.000000 1.827400 0.000000 
#    z 0.006550 0.000000 1.849380 
# 
# From -- ./inp_files/181126.got.cif
#   From: 2010.06.25/outbox.cif.g09.slc.cpg/sg15_91_cif.got.tgz:181126.got - 2010.06.28 07:06:18.
