data_PCOD8143824
_publ_section_title
;
Structure prediction by ZEFSAII (Michael W. Deem and Ramdas Pophale) SiO2 
 PCOD8143824
Probable space group: C 2/C
;
_chemical_formula_sum "Si O2"
_cell_formula_units_Z 64
_cell_length_a 28.193419
_cell_length_b 16.079630
_cell_length_c 11.675916
_cell_angle_alpha 90.000000
_cell_angle_beta 32.032602
_cell_angle_gamma 90.000000
_cell_volume 2807.499511
_symmetry_space_group_name_H-M "C 2/C"
_symmetry_group_IT_number 15
_symmetry_cell_setting 'monoclinic'
loop_
_space_group_symop_operation_xyz
x,y,z
-x,y,1/2-z
-x,-y,-z
x,-y,1/2+z
1/2+x,1/2+y,z
1/2-x,1/2+y,1/2-z
1/2-x,1/2-y,-z
1/2+x,1/2-y,1/2+z
loop_
_atom_site_type_symbol
_atom_site_label
_atom_site_fract_x
_atom_site_fract_y
_atom_site_fract_z
Si Si1 0.621271 0.835199 0.934269
Si Si2 0.092039 0.188532 0.507362
Si Si3 0.284269 0.430837 0.135102
Si Si4 0.438878 0.143633 0.701577
Si Si5 0.694077 0.610983 0.492338
Si Si6 0.912754 0.615039 0.502044
Si Si7 0.913418 0.164720 0.230357
Si Si8 0.103002 0.854410 0.410127
O O1 0.703521 0.866853 0.690660
O O2 0.613792 0.734920 0.949981
O O3 0.627698 0.869284 0.053252
O O4 0.537835 0.878176 0.042452
O O5 0.173665 0.160150 0.418253
O O6 0.098235 0.287233 0.486817
O O7 0.099509 0.137269 0.374112
O O8 0.000000 0.158585 0.750000
O O9 0.318181 0.513078 0.001349
O O10 0.176547 0.428227 0.366897
O O11 0.334037 0.422378 0.156018
O O12 0.320720 0.354265 0.984118
O O13 0.418888 0.091379 0.625925
O O14 0.436272 0.239251 0.673210
O O15 0.632859 0.648123 0.717310
O O16 0.000000 0.584598 0.250000
O O17 0.997369 0.120578 0.124409
#
# Coordination Sequence:
#
# PCOD8143824 Si02
#       8
#     8   8   8   8   8   8   8   8
#     4  10  21  41  68  95 123 162 225 271 311 375
#     4  10  21  41  65  95 122 162 218 268 316 371
#     4  12  27  41  62  95 133 176 208 255 332 396
#     4   9  20  40  69  96 116 162 221 275 315 362
#     4  12  27  39  63  97 131 170 214 263 320 392
#     4  10  24  43  67  93 129 171 218 273 321 373
#     4  10  21  41  65  93 127 161 211 261 323 386
#     4  11  23  44  67  92 129 173 211 266 321 380
#
# _framework density 22.796085999999999
#
# number of rings (size 3 to 8) (size 9 to 14) (size 15 to 20)
#    0.000    1.500    2.500    1.500    7.000    2.500 
#    2.250    0.625    0.000    0.000    0.000    0.000 
#    0.000    0.000    0.000    0.000    0.000    0.000 
#
# Total GULP energy -396669.088282 kJ/mol
# GULP energy per Si atom -12395.909009 kJ/mol
# Density = 2.274420 g / cm^3
# Si number density = 22.796086 Si / 1000 Ang^3
#
#
#
# Elastic Constant Matrix: (Units=GPa)
#
#
# Indices 1 2 3 4 5 6 
#
# 1 97.0057 -1.7765 15.1585 0.0000 13.8764 0.0000
# 2 -1.7765 17.8357 -6.2884 0.0000 2.5916 0.0000
# 3 15.1585 -6.2884 92.7499 0.0000 -2.8583 0.0000
# 4 0.0000 0.0000 0.0000 12.9138 0.0000 1.3665
# 5 13.8764 2.5916 -2.8583 0.0000 36.8622 0.0000
# 6 0.0000 0.0000 0.0000 1.3665 0.0000 7.6364
#
#
#
# Elastic Compliance Matrix: (Units=1/GPa)
#
#
# Indices 1 2 3 4 5 6 
#
# 1 0.011265 0.001100 -0.001904 0.000000 -0.004466 0.000000
# 2 0.001100 0.058068 0.003627 0.000000 -0.004215 0.000000
# 3 -0.001904 0.003627 0.011380 0.000000 0.001344 0.000000
# 4 0.000000 0.000000 0.000000 0.078931 0.000000 -0.014125
# 5 -0.004466 -0.004215 0.001344 0.000000 0.029210 0.000000
# 6 0.000000 0.000000 0.000000 -0.014125 0.000000 0.133479
#
#
# Mechanical properties :
#
#
# Convention : Reuss Voigt Hill
#
# Bulk Modulus (GPa) = 11.57955 24.64207 18.11081
# Shear Modulus (GPa) = 14.47284 24.84899 19.66091
#
# Velocity S-wave (km/s) = 2.52242 3.30518 2.93997
# Velocity P-wave (km/s) = 3.68431 5.03973 4.41435
#
# Compressibility (1/GPa) = 0.08635912
#
# Stress axis : x y z
#
# Youngs Moduli (GPa) = 88.76922 17.22112 87.87156
#
# Poissons Ratio (x) = -0.01894 0.16732
# Poissons Ratio (y) = -0.09761 -0.31874
# Poissons Ratio (z) = 0.16903 -0.06247
#
# Static dielectric constant tensor:
#      x y z
#    x 4.472290 0.000000 0.064540 
#    y 0.000000 3.591520 0.000000 
#    z 0.064540 0.000000 4.078640 
# 
# 
# High freq. dielectric constant tensor:
#      x y z
#    x 1.913330 0.000000 0.003910 
#    y 0.000000 1.862170 0.000000 
#    z 0.003910 0.000000 1.906020 
# 
# From -- ./inp_files/127299.got.cif
#   From: 2010.06.25/outbox.cif.g09.slc.cpg/sg15_64_cif.got.tgz:127299.got - 2010.06.28 07:06:18.
