data_PCOD8143975
_publ_section_title
;
Structure prediction by ZEFSAII (Michael W. Deem and Ramdas Pophale) SiO2 
 PCOD8143975
Probable space group: C 2/C
;
_chemical_formula_sum "Si O2"
_cell_formula_units_Z 60
_cell_length_a 14.480895
_cell_length_b 9.497392
_cell_length_c 20.886995
_cell_angle_alpha 90.000000
_cell_angle_beta 101.499502
_cell_angle_gamma 90.000000
_cell_volume 2814.940410
_symmetry_space_group_name_H-M "C 2/C"
_symmetry_group_IT_number 15
_symmetry_cell_setting 'monoclinic'
loop_
_space_group_symop_operation_xyz
x,y,z
-x,y,1/2-z
-x,-y,-z
x,-y,1/2+z
1/2+x,1/2+y,z
1/2-x,1/2+y,1/2-z
1/2-x,1/2-y,-z
1/2+x,1/2-y,1/2+z
loop_
_atom_site_type_symbol
_atom_site_label
_atom_site_fract_x
_atom_site_fract_y
_atom_site_fract_z
Si Si1 0.328881 0.105746 0.389868
Si Si2 0.176430 0.248313 0.432091
Si Si3 0.313670 0.916326 0.264285
Si Si4 0.900412 0.510301 0.021281
Si Si5 0.356219 0.598359 0.269070
Si Si6 0.049215 0.041684 0.353955
Si Si7 0.000000 0.450700 0.750000
Si Si8 0.477887 0.222592 0.118787
O O1 0.241003 0.216807 0.377790
O O2 0.421334 0.203019 0.401542
O O3 0.321510 0.992640 0.333528
O O4 0.323594 0.010553 0.454469
O O5 0.250000 0.250000 0.500000
O O6 0.117292 0.392666 0.425580
O O7 0.096462 0.126604 0.419388
O O8 0.303791 0.748598 0.267950
O O9 0.219652 0.980481 0.218771
O O10 0.409188 0.948266 0.239043
O O11 0.897770 0.655393 0.061102
O O12 0.000000 0.500000 0.000000
O O13 0.442573 0.595270 0.330529
O O14 0.392374 0.562437 0.203133
O O15 0.051154 0.881139 0.375025
O O16 0.986654 0.351139 0.688010
#
# Coordination Sequence:
#
# PCOD8143975 Si02
#       8
#     8   8   8   8   8   8   4   8
#     4   9  20  41  67  92 131 172 223 267 333 395
#     4  10  21  41  68  93 132 178 217 272 331 395
#     4  11  24  41  65  96 129 174 218 274 334 409
#     4   9  20  39  68  93 124 174 223 262 324 395
#     4  11  26  40  67  94 134 172 221 272 337 400
#     4  11  24  42  63  97 135 170 220 275 336 389
#     4  10  22  36  66  96 136 174 216 262 352 402
#     4  10  22  39  65  96 134 171 219 280 328 399
#
# _framework density 21.314838000000002
#
# number of rings (size 3 to 8) (size 9 to 14) (size 15 to 20)
#    0.000    1.867    1.333    1.600   13.067    0.000 
#    0.000    8.667    2.933    0.000    0.000    0.000 
#    0.000    0.000    0.000    0.000    0.000    0.000 
#
# Total GULP energy -371683.201945 kJ/mol
# GULP energy per Si atom -12389.440065 kJ/mol
# Density = 2.126632 g / cm^3
# Si number density = 21.314838 Si / 1000 Ang^3
#
#
#
# Elastic Constant Matrix: (Units=GPa)
#
#
# Indices 1 2 3 4 5 6 
#
# 1 127.1273 58.8921 30.8917 0.0000 6.3863 0.0000
# 2 58.8921 154.7056 32.5403 0.0000 -3.6100 0.0000
# 3 30.8917 32.5403 70.3309 0.0000 7.8827 0.0000
# 4 0.0000 0.0000 0.0000 24.1623 0.0000 -0.0830
# 5 6.3863 -3.6100 7.8827 0.0000 28.3661 0.0000
# 6 0.0000 0.0000 0.0000 -0.0830 0.0000 35.8204
#
#
#
# Elastic Compliance Matrix: (Units=1/GPa)
#
#
# Indices 1 2 3 4 5 6 
#
# 1 0.010173 -0.003351 -0.002697 0.000000 -0.001967 0.000000
# 2 -0.003351 0.008364 -0.002686 0.000000 0.002565 0.000000
# 3 -0.002697 -0.002686 0.017150 0.000000 -0.004500 0.000000
# 4 0.000000 0.000000 0.000000 0.041387 0.000000 0.000096
# 5 -0.001967 0.002565 -0.004500 0.000000 0.037273 0.000000
# 6 0.000000 0.000000 0.000000 0.000096 0.000000 0.027917
#
#
# Mechanical properties :
#
#
# Convention : Reuss Voigt Hill
#
# Bulk Modulus (GPa) = 54.88645 66.31244 60.59945
# Shear Modulus (GPa) = 30.15574 32.99240 31.57407
#
# Velocity S-wave (km/s) = 3.76543 3.93855 3.85297
# Velocity P-wave (km/s) = 6.68662 7.20149 6.94882
#
# Compressibility (1/GPa) = 0.01821943
#
# Stress axis : x y z
#
# Youngs Moduli (GPa) = 98.30155 119.55614 58.30845
#
# Poissons Ratio (x) = 0.40064 0.15728
# Poissons Ratio (y) = 0.32941 0.15659
# Poissons Ratio (z) = 0.26515 0.32107
#
# Static dielectric constant tensor:
#      x y z
#    x 4.352120 0.000000 0.080750 
#    y 0.000000 3.966300 0.000000 
#    z 0.080750 0.000000 4.105980 
# 
# 
# High freq. dielectric constant tensor:
#      x y z
#    x 1.844870 0.000000 0.010030 
#    y 0.000000 1.830090 0.000000 
#    z 0.010030 0.000000 1.832490 
# 
# From -- ./inp_files/272796.got.cif
#   From: 2010.06.25/outbox.cif.g09.slc.cpg/sg15_137_cif.got.tgz:272796.got - 2010.06.28 07:06:18.
