data_PCOD8143989
_publ_section_title
;
Structure prediction by ZEFSAII (Michael W. Deem and Ramdas Pophale) SiO2 
 PCOD8143989
Probable space group: C 2/C
;
_chemical_formula_sum "Si O2"
_cell_formula_units_Z 64
_cell_length_a 16.110818
_cell_length_b 14.512466
_cell_length_c 17.508145
_cell_angle_alpha 90.000000
_cell_angle_beta 45.588784
_cell_angle_gamma 90.000000
_cell_volume 2924.161119
_symmetry_space_group_name_H-M "C 2/C"
_symmetry_group_IT_number 15
_symmetry_cell_setting 'monoclinic'
loop_
_space_group_symop_operation_xyz
x,y,z
-x,y,1/2-z
-x,-y,-z
x,-y,1/2+z
1/2+x,1/2+y,z
1/2-x,1/2+y,1/2-z
1/2-x,1/2-y,-z
1/2+x,1/2-y,1/2+z
loop_
_atom_site_type_symbol
_atom_site_label
_atom_site_fract_x
_atom_site_fract_y
_atom_site_fract_z
Si Si1 0.870551 0.551591 0.998286
Si Si2 0.273873 0.175574 0.809048
Si Si3 0.531608 0.278288 0.419709
Si Si4 0.498370 0.765869 0.105429
Si Si5 0.212163 0.492720 0.784210
Si Si6 0.473181 0.514390 0.604580
Si Si7 0.668724 0.614909 0.029559
Si Si8 0.512787 0.895497 0.831057
O O1 0.968772 0.628632 0.930070
O O2 0.747474 0.593133 0.051225
O O3 0.912256 0.466904 0.919503
O O4 0.858460 0.519838 0.092600
O O5 0.165621 0.241490 0.858048
O O6 0.389118 0.238478 0.733935
O O7 0.251848 0.120179 0.901717
O O8 0.291443 0.100439 0.732019
O O9 0.464565 0.279991 0.544955
O O10 0.522187 0.376011 0.382281
O O11 0.487048 0.199717 0.391966
O O12 0.603639 0.712807 0.079969
O O13 0.348734 0.466758 0.703245
O O14 0.142736 0.432982 0.765348
O O15 0.500000 0.500000 0.500000
O O16 0.572927 0.465567 0.588905
O O17 0.500000 0.875456 0.750000
#
# Coordination Sequence:
#
# PCOD8143989 Si02
#       8
#     8   8   8   8   8   8   8   8
#     4  12  25  42  66 101 140 171 232 281 344 410
#     4  10  21  41  68  97 131 176 226 274 338 410
#     4  10  23  42  65 101 133 174 233 274 333 408
#     4  11  21  40  70  97 136 173 220 284 344 406
#     4  11  22  42  70  94 132 182 220 281 340 396
#     4  11  22  45  73  93 136 184 228 276 334 414
#     4  11  25  43  65 105 135 178 228 279 343 407
#     4  12  25  43  70 100 134 180 227 285 338 406
#
# _framework density 21.886617999999999
#
# number of rings (size 3 to 8) (size 9 to 14) (size 15 to 20)
#    0.000    1.000    6.250    2.250    1.750    0.500 
#    4.500    1.875    0.000    0.000    0.000    0.000 
#    0.000    0.000    0.000    0.000    0.000    0.000 
#
# Total GULP energy -396817.649120 kJ/mol
# GULP energy per Si atom -12400.551535 kJ/mol
# Density = 2.183680 g / cm^3
# Si number density = 21.886618 Si / 1000 Ang^3
#
#
#
# Elastic Constant Matrix: (Units=GPa)
#
#
# Indices 1 2 3 4 5 6 
#
# 1 78.0261 12.7593 31.4035 0.0000 3.7623 0.0000
# 2 12.7593 91.4130 25.5616 0.0000 0.1550 0.0000
# 3 31.4035 25.5616 92.3640 0.0000 -23.8766 0.0000
# 4 0.0000 0.0000 0.0000 28.0682 0.0000 -3.3914
# 5 3.7623 0.1550 -23.8766 0.0000 28.2897 0.0000
# 6 0.0000 0.0000 0.0000 -3.3914 0.0000 34.6193
#
#
#
# Elastic Compliance Matrix: (Units=1/GPa)
#
#
# Indices 1 2 3 4 5 6 
#
# 1 0.016403 -0.000087 -0.007824 0.000000 -0.008784 0.000000
# 2 -0.000087 0.012155 -0.004283 0.000000 -0.003670 0.000000
# 3 -0.007824 -0.004283 0.019118 0.000000 0.017200 0.000000
# 4 0.000000 0.000000 0.000000 0.036054 0.000000 0.003532
# 5 -0.008784 -0.003670 0.017200 0.000000 0.051054 0.000000
# 6 0.000000 0.000000 0.000000 0.003532 0.000000 0.029232
#
#
# Mechanical properties :
#
#
# Convention : Reuss Voigt Hill
#
# Bulk Modulus (GPa) = 42.93830 44.58353 43.76091
# Shear Modulus (GPa) = 25.48856 31.00069 28.24463
#
# Velocity S-wave (km/s) = 3.41629 3.76762 3.59625
# Velocity P-wave (km/s) = 5.93485 6.27225 6.10588
#
# Compressibility (1/GPa) = 0.02328923
#
# Stress axis : x y z
#
# Youngs Moduli (GPa) = 60.96534 82.26791 52.30581
#
# Poissons Ratio (x) = 0.00715 0.40922
# Poissons Ratio (y) = 0.00530 0.22403
# Poissons Ratio (z) = 0.47697 0.35237
#
# Static dielectric constant tensor:
#      x y z
#    x 4.776420 0.000000 -0.759930 
#    y 0.000000 5.148250 0.000000 
#    z -0.759930 0.000000 4.397710 
# 
# 
# High freq. dielectric constant tensor:
#      x y z
#    x 1.843240 0.000000 -0.011370 
#    y 0.000000 1.867160 0.000000 
#    z -0.011370 0.000000 1.864470 
# 
# From -- ./inp_files/205710.got.cif
#   From: 2010.06.25/outbox.cif.g09.slc.cpg/sg15_103_cif.got.tgz:205710.got - 2010.06.28 07:06:18.
