data_PCOD8143724
_publ_section_title
;
Structure prediction by ZEFSAII (Michael W. Deem and Ramdas Pophale) SiO2 
 PCOD8143724
Probable space group: C 2/C
;
_chemical_formula_sum "Si O2"
_cell_formula_units_Z 56
_cell_length_a 12.116619
_cell_length_b 14.209675
_cell_length_c 29.180996
_cell_angle_alpha 90.000000
_cell_angle_beta 30.337972
_cell_angle_gamma 90.000000
_cell_volume 2537.714919
_symmetry_space_group_name_H-M "C 2/C"
_symmetry_group_IT_number 15
_symmetry_cell_setting 'monoclinic'
loop_
_space_group_symop_operation_xyz
x,y,z
-x,y,1/2-z
-x,-y,-z
x,-y,1/2+z
1/2+x,1/2+y,z
1/2-x,1/2+y,1/2-z
1/2-x,1/2-y,-z
1/2+x,1/2-y,1/2+z
loop_
_atom_site_type_symbol
_atom_site_label
_atom_site_fract_x
_atom_site_fract_y
_atom_site_fract_z
Si Si1 0.003093 0.219467 0.092248
Si Si2 0.737682 0.892717 0.151826
Si Si3 0.848717 0.482843 0.902577
Si Si4 0.205647 0.405438 0.319624
Si Si5 0.453193 0.481570 0.907714
Si Si6 0.373782 0.705094 0.035123
Si Si7 0.298272 0.401336 0.387049
O O1 0.888391 0.303667 0.160977
O O2 0.896457 0.200862 0.081309
O O3 0.966099 0.123259 0.134418
O O4 0.250000 0.250000 0.000000
O O5 0.500000 0.848831 0.250000
O O6 0.700020 0.976923 0.129823
O O7 0.850930 0.942143 0.155676
O O8 0.895603 0.812511 0.073872
O O9 0.807803 0.370781 0.916115
O O10 0.092407 0.509229 0.832283
O O11 0.676516 0.531559 0.998323
O O12 0.159028 0.421404 0.390942
O O13 0.454709 0.397801 0.217992
O O14 0.284353 0.514740 0.928847
O O15 0.281015 0.808503 0.057031
#
# Coordination Sequence:
#
# PCOD8143724 Si02
#       7
#     8   8   8   8   8   8   8
#     4  11  19  38  66  94 120 167 216 260 309 380
#     4  11  21  35  63  97 128 161 211 271 324 367
#     4  11  20  39  63  91 124 162 213 268 318 376
#     4  10  22  40  61  90 131 164 214 271 306 375
#     4  11  21  38  64  93 124 164 211 258 323 374
#     4  10  21  41  63  95 128 168 215 258 321 384
#     4  10  24  40  60  94 127 171 214 256 320 381
#
# _framework density 22.067097
#
# number of rings (size 3 to 8) (size 9 to 14) (size 15 to 20)
#    0.000    1.429    4.286    1.714    0.000    5.143 
#    0.000    0.000    3.143    3.429    0.000    0.000 
#    0.000    0.000    0.000    0.000    0.000    0.000 
#
# Total GULP energy -347107.553182 kJ/mol
# GULP energy per Si atom -12396.698328 kJ/mol
# Density = 2.201687 g / cm^3
# Si number density = 22.067097 Si / 1000 Ang^3
#
#
#
# Elastic Constant Matrix: (Units=GPa)
#
#
# Indices 1 2 3 4 5 6 
#
# 1 74.6194 47.9363 1.8056 -0.0267 -3.7318 -0.1245
# 2 47.9363 110.0019 25.8459 -0.0005 -5.8022 0.0515
# 3 1.8056 25.8459 81.1378 0.1349 -8.6002 0.6565
# 4 -0.0267 -0.0005 0.1349 26.5185 -0.0604 0.7185
# 5 -3.7318 -5.8022 -8.6002 -0.0604 26.6893 -0.1642
# 6 -0.1245 0.0515 0.6565 0.7185 -0.1642 86.2109
#
#
#
# Elastic Compliance Matrix: (Units=1/GPa)
#
#
# Indices 1 2 3 4 5 6 
#
# 1 0.019097 -0.008840 0.002558 0.000009 0.001573 0.000016
# 2 -0.008840 0.013954 -0.004201 0.000013 0.000444 0.000012
# 3 0.002558 -0.004201 0.014027 -0.000057 0.003964 -0.000093
# 4 0.000009 0.000013 -0.000057 0.037718 0.000069 -0.000314
# 5 0.001573 0.000444 0.003964 0.000069 0.039062 0.000046
# 6 0.000016 0.000012 -0.000093 -0.000314 0.000046 0.011603
#
#
# Mechanical properties :
#
#
# Convention : Reuss Voigt Hill
#
# Bulk Modulus (GPa) = 38.29913 46.32607 42.31260
# Shear Modulus (GPa) = 30.27880 40.56182 35.42031
#
# Velocity S-wave (km/s) = 3.70824 4.29197 4.01074
# Velocity P-wave (km/s) = 5.97730 6.75279 6.37685
#
# Compressibility (1/GPa) = 0.02611025
#
# Stress axis : x y z
#
# Youngs Moduli (GPa) = 52.36400 71.66640 71.29102
#
# Poissons Ratio (x) = 0.63353 -0.18233
# Poissons Ratio (y) = 0.46290 0.29950
# Poissons Ratio (z) = -0.13392 0.30108
#
# Static dielectric constant tensor:
#      x y z
#    x 3.583490 0.001700 -0.373930 
#    y 0.001700 3.825080 0.000380 
#    z -0.373930 0.000380 3.757890 
# 
# 
# High freq. dielectric constant tensor:
#      x y z
#    x 1.873960 0.000000 -0.007840 
#    y 0.000000 1.853510 0.000000 
#    z -0.007840 0.000000 1.857880 
# 
# From -- ./inp_files/311327.got.cif
#   From: 2010.06.25/outbox.cif.g09.slc.cpg/sg15_156_cif.got.tgz:311327.got - 2010.06.28 07:06:18.
