data_PCOD8143546
_publ_section_title
;
Structure prediction by ZEFSAII (Michael W. Deem and Ramdas Pophale) SiO2 
 PCOD8143546
Probable space group: C 2/C
;
_chemical_formula_sum "Si O2"
_cell_formula_units_Z 52
_cell_length_a 5.180111
_cell_length_b 29.365979
_cell_length_c 15.142501
_cell_angle_alpha 90.000000
_cell_angle_beta 103.551273
_cell_angle_gamma 90.000000
_cell_volume 2239.335618
_symmetry_space_group_name_H-M "C 2/C"
_symmetry_group_IT_number 15
_symmetry_cell_setting 'monoclinic'
loop_
_space_group_symop_operation_xyz
x,y,z
-x,y,1/2-z
-x,-y,-z
x,-y,1/2+z
1/2+x,1/2+y,z
1/2-x,1/2+y,1/2-z
1/2-x,1/2-y,-z
1/2+x,1/2-y,1/2+z
loop_
_atom_site_type_symbol
_atom_site_label
_atom_site_fract_x
_atom_site_fract_y
_atom_site_fract_z
Si Si1 0.667588 0.316928 0.340617
Si Si2 0.109565 0.260288 0.581100
Si Si3 0.196783 0.097699 0.469666
Si Si4 0.318738 0.849332 0.524145
Si Si5 0.056227 0.008626 0.352823
Si Si6 0.439715 0.049870 0.646712
Si Si7 0.000000 0.749445 0.750000
O O1 0.500000 0.342114 0.250000
O O2 0.478506 0.288804 0.391419
O O3 0.800496 0.354167 0.415107
O O4 0.868528 0.282070 0.313391
O O5 0.250000 0.250000 0.500000
O O6 0.300312 0.280222 0.675240
O O7 0.865854 0.295954 0.552012
O O8 0.420517 0.122231 0.427703
O O9 0.131239 0.049827 0.421645
O O10 0.318201 0.089981 0.577083
O O11 0.941565 0.130779 0.450169
O O12 0.000000 0.026883 0.250000
O O13 0.290976 0.971005 0.373796
O O14 0.782289 0.989189 0.368026
O O15 0.500000 0.069240 0.750000
#
# Coordination Sequence:
#
# PCOD8143546 Si02
#       7
#     8   8   8   8   8   8   4
#     4  10  23  41  66  92 120 173 230 275 327 387
#     4  11  22  43  68  90 128 171 236 273 325 393
#     4  12  25  40  62  99 134 169 207 258 343 394
#     4  12  26  40  64  93 139 171 202 275 340 389
#     4  10  21  42  68  91 124 172 220 264 305 382
#     4  10  21  40  70  94 123 166 220 266 310 382
#     4  10  22  40  70  92 112 168 244 278 314 390
#
# _framework density 23.221174000000001
#
# number of rings (size 3 to 8) (size 9 to 14) (size 15 to 20)
#    0.000    1.231    1.538    4.154    4.308    1.231 
#    1.385    0.000    0.000    0.000    0.000    0.000 
#    0.000    0.000    0.000    0.000    0.000    0.000 
#
# Total GULP energy -322290.615953 kJ/mol
# GULP energy per Si atom -12395.792921 kJ/mol
# Density = 2.316832 g / cm^3
# Si number density = 23.221174 Si / 1000 Ang^3
#
#
#
# Elastic Constant Matrix: (Units=GPa)
#
#
# Indices 1 2 3 4 5 6 
#
# 1 120.7330 18.0283 32.4871 0.0000 7.7353 0.0000
# 2 18.0283 45.6426 5.9391 0.0000 3.1034 0.0000
# 3 32.4871 5.9391 84.1015 0.0000 11.6774 0.0000
# 4 0.0000 0.0000 0.0000 28.5796 0.0000 8.0764
# 5 7.7353 3.1034 11.6774 0.0000 38.5369 0.0000
# 6 0.0000 0.0000 0.0000 8.0764 0.0000 31.4802
#
#
#
# Elastic Compliance Matrix: (Units=1/GPa)
#
#
# Indices 1 2 3 4 5 6 
#
# 1 0.009751 -0.003360 -0.003440 0.000000 -0.000644 0.000000
# 2 -0.003360 0.023339 -0.000191 0.000000 -0.001147 0.000000
# 3 -0.003440 -0.000191 0.013712 0.000000 -0.003449 0.000000
# 4 0.000000 0.000000 0.000000 0.037725 0.000000 -0.009679
# 5 -0.000644 -0.001147 -0.003449 0.000000 0.027216 0.000000
# 6 0.000000 0.000000 0.000000 -0.009679 0.000000 0.034249
#
#
# Mechanical properties :
#
#
# Convention : Reuss Voigt Hill
#
# Bulk Modulus (GPa) = 30.46916 40.37624 35.42270
# Shear Modulus (GPa) = 29.25430 32.65419 30.95424
#
# Velocity S-wave (km/s) = 3.55323 3.75403 3.65501
# Velocity P-wave (km/s) = 5.47574 6.01796 5.75324
#
# Compressibility (1/GPa) = 0.03282007
#
# Stress axis : x y z
#
# Youngs Moduli (GPa) = 102.54887 42.84593 72.93096
#
# Poissons Ratio (x) = 0.14397 0.25089
# Poissons Ratio (y) = 0.34459 0.01392
# Poissons Ratio (z) = 0.35277 0.00818
#
# Static dielectric constant tensor:
#      x y z
#    x 4.261010 0.000000 0.673620 
#    y 0.000000 3.748480 0.000000 
#    z 0.673620 0.000000 4.343360 
# 
# 
# High freq. dielectric constant tensor:
#      x y z
#    x 1.938020 0.000000 0.015760 
#    y 0.000000 1.888320 0.000000 
#    z 0.015760 0.000000 1.929410 
# 
# From -- ./inp_files/130877.got.cif
#   From: 2010.06.25/outbox.cif.g09.slc.cpg/sg15_66_cif.got.tgz:130877.got - 2010.06.28 07:06:18.
