data_PCOD8143328
_publ_section_title
;
Structure prediction by ZEFSAII (Michael W. Deem and Ramdas Pophale) SiO2 
 PCOD8143328
Probable space group: C 2/C
;
_chemical_formula_sum "Si O2"
_cell_formula_units_Z 40
_cell_length_a 5.119663
_cell_length_b 17.543792
_cell_length_c 19.604505
_cell_angle_alpha 90.000000
_cell_angle_beta 78.023796
_cell_angle_gamma 90.000000
_cell_volume 1722.516613
_symmetry_space_group_name_H-M "C 2/C"
_symmetry_group_IT_number 15
_symmetry_cell_setting 'monoclinic'
loop_
_space_group_symop_operation_xyz
x,y,z
-x,y,1/2-z
-x,-y,-z
x,-y,1/2+z
1/2+x,1/2+y,z
1/2-x,1/2+y,1/2-z
1/2-x,1/2-y,-z
1/2+x,1/2-y,1/2+z
loop_
_atom_site_type_symbol
_atom_site_label
_atom_site_fract_x
_atom_site_fract_y
_atom_site_fract_z
Si Si1 0.122864 0.218147 0.577441
Si Si2 0.203539 0.340997 0.296108
Si Si3 0.936211 0.628126 0.085560
Si Si4 0.293829 0.986336 0.706187
Si Si5 0.491886 0.589886 0.494556
O O1 0.250000 0.250000 0.500000
O O2 0.318536 0.206857 0.631965
O O3 0.999036 0.134599 0.567099
O O4 0.905511 0.283007 0.610167
O O5 0.500000 0.335380 0.250000
O O6 0.121939 0.427967 0.318772
O O7 0.000000 0.308331 0.250000
O O8 0.792703 0.569793 0.142877
O O9 0.788256 0.616691 0.021811
O O10 0.252339 0.611834 0.064719
O O11 0.500000 0.953010 0.750000
O O12 0.000000 0.986284 0.750000
O O13 0.500000 0.500000 0.500000
#
# Coordination Sequence:
#
# PCOD8143328 Si02
#       5
#     8   8   8   8   8
#     4  10  24  44  66  98 136 173 217 274 335 398
#     4  10  23  42  67  94 126 171 222 271 326 395
#     4  11  23  40  62  94 128 166 212 271 330 385
#     4  10  21  40  65  93 126 171 224 274 327 399
#     4  11  23  40  65  93 127 171 217 266 322 391
#
# _framework density 23.221838000000002
#
# number of rings (size 3 to 8) (size 9 to 14) (size 15 to 20)
#    0.000    1.600    0.000    3.600    0.000   12.000 
#    0.000    2.000    0.000    0.000    0.000    0.000 
#    0.000    0.000    0.000    0.000    0.000    0.000 
#
# Total GULP energy -247874.358305 kJ/mol
# GULP energy per Si atom -12393.717915 kJ/mol
# Density = 2.316898 g / cm^3
# Si number density = 23.221838 Si / 1000 Ang^3
#
#
#
# Elastic Constant Matrix: (Units=GPa)
#
#
# Indices 1 2 3 4 5 6 
#
# 1 99.9261 34.2000 36.1989 0.0000 30.5252 0.0000
# 2 34.2000 162.8847 62.3675 0.0000 24.1502 0.0000
# 3 36.1989 62.3675 136.5946 0.0000 40.4457 0.0000
# 4 0.0000 0.0000 0.0000 47.5005 0.0000 3.8967
# 5 30.5252 24.1502 40.4457 0.0000 46.0019 0.0000
# 6 0.0000 0.0000 0.0000 3.8967 0.0000 31.4700
#
#
#
# Elastic Compliance Matrix: (Units=1/GPa)
#
#
# Indices 1 2 3 4 5 6 
#
# 1 0.012944 -0.001393 -0.000632 0.000000 -0.007302 0.000000
# 2 -0.001393 0.007643 -0.002983 0.000000 -0.000466 0.000000
# 3 -0.000632 -0.002983 0.011171 0.000000 -0.007836 0.000000
# 4 0.000000 0.000000 0.000000 0.021268 0.000000 -0.002634
# 5 -0.007302 -0.000466 -0.007836 0.000000 0.033718 0.000000
# 6 0.000000 0.000000 0.000000 -0.002634 0.000000 0.032102
#
#
# Mechanical properties :
#
#
# Convention : Reuss Voigt Hill
#
# Bulk Modulus (GPa) = 45.99458 73.88201 59.93830
# Shear Modulus (GPa) = 36.73546 42.77042 39.75294
#
# Velocity S-wave (km/s) = 3.98167 4.29630 4.14197
# Velocity P-wave (km/s) = 6.40218 7.51636 6.98153
#
# Compressibility (1/GPa) = 0.02174169
#
# Stress axis : x y z
#
# Youngs Moduli (GPa) = 77.25752 130.84113 89.52132
#
# Poissons Ratio (x) = 0.18227 0.05658
# Poissons Ratio (y) = 0.10763 0.26700
# Poissons Ratio (z) = 0.04883 0.39024
#
# Static dielectric constant tensor:
#      x y z
#    x 4.142410 0.000000 0.304900 
#    y 0.000000 5.210860 0.000000 
#    z 0.304900 0.000000 4.109890 
# 
# 
# High freq. dielectric constant tensor:
#      x y z
#    x 1.916340 0.000000 0.019600 
#    y 0.000000 1.933610 0.000000 
#    z 0.019600 0.000000 1.906760 
# 
# From -- ./inp_files/184334.got.cif
#   From: 2010.06.25/outbox.cif.g09.slc.cpg/sg15_93_cif.got.tgz:184334.got - 2010.06.28 07:06:18.
