data_PCOD8143436
_publ_section_title
;
Structure prediction by ZEFSAII (Michael W. Deem and Ramdas Pophale) SiO2 
 PCOD8143436
Probable space group: C 2/C
;
_chemical_formula_sum "Si O2"
_cell_formula_units_Z 52
_cell_length_a 9.410348
_cell_length_b 25.879005
_cell_length_c 10.654518
_cell_angle_alpha 90.000000
_cell_angle_beta 76.428398
_cell_angle_gamma 90.000000
_cell_volume 2522.248801
_symmetry_space_group_name_H-M "C 2/C"
_symmetry_group_IT_number 15
_symmetry_cell_setting 'monoclinic'
loop_
_space_group_symop_operation_xyz
x,y,z
-x,y,1/2-z
-x,-y,-z
x,-y,1/2+z
1/2+x,1/2+y,z
1/2-x,1/2+y,1/2-z
1/2-x,1/2-y,-z
1/2+x,1/2-y,1/2+z
loop_
_atom_site_type_symbol
_atom_site_label
_atom_site_fract_x
_atom_site_fract_y
_atom_site_fract_z
Si Si1 0.220578 0.850092 0.637238
Si Si2 0.597670 0.060562 0.850325
Si Si3 0.065450 0.823193 0.909239
Si Si4 0.415151 0.943295 0.642359
Si Si5 0.768425 0.844423 0.370130
Si Si6 0.500000 0.271719 0.250000
Si Si7 0.512631 0.784910 0.997398
O O1 0.189282 0.822905 0.777179
O O2 0.277108 0.907028 0.653815
O O3 0.332734 0.814252 0.535556
O O4 0.071070 0.860422 0.592215
O O5 0.500000 0.077009 0.750000
O O6 0.742803 0.097096 0.825239
O O7 0.646271 0.001136 0.825379
O O8 0.514590 0.064563 0.999610
O O9 0.134748 0.841673 0.024464
O O10 0.989383 0.766620 0.919298
O O11 0.500000 0.925578 0.750000
O O12 0.858407 0.808900 0.252289
O O13 0.605669 0.824207 0.424665
O O14 0.536506 0.233484 0.129712
#
# Coordination Sequence:
#
# PCOD8143436 Si02
#       7
#     8   8   8   8   8   4   8
#     4  11  21  37  60  88 118 161 202 252 300 352
#     4  10  22  40  63  95 118 151 208 259 300 357
#     4  10  23  36  54  90 127 153 200 248 300 364
#     4  10  21  40  67  91 117 155 208 257 298 357
#     4  11  21  40  59  84 121 164 196 248 310 356
#     4  10  22  34  56  86 124 154 200 248 302 368
#     4  11  20  37  59  84 116 166 208 240 291 360
#
# _framework density 20.616522
#
# number of rings (size 3 to 8) (size 9 to 14) (size 15 to 20)
#    0.000    1.538    1.538    5.077    1.077    2.462 
#    5.538    2.308    0.000    0.000    0.000    0.000 
#    0.000    0.000    0.000    0.000    0.000    0.000 
#
# Total GULP energy -322289.955071 kJ/mol
# GULP energy per Si atom -12395.767503 kJ/mol
# Density = 2.056960 g / cm^3
# Si number density = 20.616522 Si / 1000 Ang^3
#
#
#
# Elastic Constant Matrix: (Units=GPa)
#
#
# Indices 1 2 3 4 5 6 
#
# 1 101.3026 46.3561 17.9681 0.0000 -1.7904 0.0000
# 2 46.3561 103.9157 10.7942 0.0000 0.1983 0.0000
# 3 17.9681 10.7942 70.0568 0.0000 3.1258 0.0000
# 4 0.0000 0.0000 0.0000 16.7690 0.0000 4.8100
# 5 -1.7904 0.1983 3.1258 0.0000 39.1995 0.0000
# 6 0.0000 0.0000 0.0000 4.8100 0.0000 28.9182
#
#
#
# Elastic Compliance Matrix: (Units=1/GPa)
#
#
# Indices 1 2 3 4 5 6 
#
# 1 0.012827 -0.005466 -0.002484 0.000000 0.000812 0.000000
# 2 -0.005466 0.012109 -0.000452 0.000000 -0.000275 0.000000
# 3 -0.002484 -0.000452 0.015039 0.000000 -0.001310 0.000000
# 4 0.000000 0.000000 0.000000 0.062622 0.000000 -0.010416
# 5 0.000812 -0.000275 -0.001310 0.000000 0.025653 0.000000
# 6 0.000000 0.000000 0.000000 -0.010416 0.000000 0.036313
#
#
# Mechanical properties :
#
#
# Convention : Reuss Voigt Hill
#
# Bulk Modulus (GPa) = 43.15398 47.27911 45.21655
# Shear Modulus (GPa) = 26.44235 30.32112 28.38173
#
# Velocity S-wave (km/s) = 3.58520 3.83916 3.71435
# Velocity P-wave (km/s) = 6.17377 6.52952 6.35413
#
# Compressibility (1/GPa) = 0.02317283
#
# Stress axis : x y z
#
# Youngs Moduli (GPa) = 77.95753 82.58408 66.49250
#
# Poissons Ratio (x) = 0.45139 0.16517
# Poissons Ratio (y) = 0.42610 0.03003
# Poissons Ratio (z) = 0.19365 0.03729
#
# Static dielectric constant tensor:
#      x y z
#    x 3.575880 0.000000 -0.119090 
#    y 0.000000 3.900730 0.000000 
#    z -0.119090 0.000000 3.914440 
# 
# 
# High freq. dielectric constant tensor:
#      x y z
#    x 1.795480 0.000000 -0.001430 
#    y 0.000000 1.805990 0.000000 
#    z -0.001430 0.000000 1.813230 
# 
# From -- ./inp_files/80702.got.cif
#   From: 2010.06.25/outbox.cif.g09.slc.cpg/sg15_41_cif.got.tgz:80702.got - 2010.06.28 07:06:18.
