data_PCOD8143792
_publ_section_title
;
Structure prediction by ZEFSAII (Michael W. Deem and Ramdas Pophale) SiO2 
 PCOD8143792
Probable space group: C 2/C
;
_chemical_formula_sum "Si O2"
_cell_formula_units_Z 44
_cell_length_a 12.458428
_cell_length_b 13.483947
_cell_length_c 11.614203
_cell_angle_alpha 90.000000
_cell_angle_beta 97.759017
_cell_angle_gamma 90.000000
_cell_volume 1933.193252
_symmetry_space_group_name_H-M "C 2/C"
_symmetry_group_IT_number 15
_symmetry_cell_setting 'monoclinic'
loop_
_space_group_symop_operation_xyz
x,y,z
-x,y,1/2-z
-x,-y,-z
x,-y,1/2+z
1/2+x,1/2+y,z
1/2-x,1/2+y,1/2-z
1/2-x,1/2-y,-z
1/2+x,1/2-y,1/2+z
loop_
_atom_site_type_symbol
_atom_site_label
_atom_site_fract_x
_atom_site_fract_y
_atom_site_fract_z
Si Si1 0.144877 0.286296 0.628166
Si Si2 0.526531 0.951415 0.878795
Si Si3 0.848417 0.115751 0.043840
Si Si4 0.801633 0.269493 0.343755
Si Si5 0.500000 0.696941 0.250000
Si Si6 0.742900 0.588388 0.017841
O O1 0.116978 0.186896 0.554787
O O2 0.229520 0.355441 0.572391
O O3 0.194422 0.252695 0.755947
O O4 0.034139 0.345590 0.631392
O O5 0.500000 0.005170 0.750000
O O6 0.655595 0.939991 0.887964
O O7 0.500000 0.000000 0.000000
O O8 0.941322 0.123445 0.152939
O O9 0.841432 0.001950 0.002501
O O10 0.788042 0.377312 0.399543
O O11 0.820980 0.181487 0.438448
O O12 0.911044 0.273232 0.285761
#
# Coordination Sequence:
#
# PCOD8143792 Si02
#       6
#     8   8   8   8   4   8
#     4  10  21  41  64  99 135 184 223 288 354 424
#     4  12  24  43  71 108 145 184 237 297 358 431
#     4  10  22  40  66  94 137 175 232 282 351 415
#     4  10  23  42  69  93 134 180 234 287 355 424
#     4  10  22  44  64  94 134 182 232 282 344 440
#     4  11  23  43  66 100 135 179 230 297 351 419
#
# _framework density 22.760269999999998
#
# number of rings (size 3 to 8) (size 9 to 14) (size 15 to 20)
#    0.000    1.455    3.636    1.091    0.000    5.091 
#    6.545    3.636    2.000    0.000    0.000    0.000 
#    0.000    0.000    0.000    0.000    0.000    0.000 
#
# Total GULP energy -272731.634099 kJ/mol
# GULP energy per Si atom -12396.892459 kJ/mol
# Density = 2.270847 g / cm^3
# Si number density = 22.760270 Si / 1000 Ang^3
#
#
#
# Elastic Constant Matrix: (Units=GPa)
#
#
# Indices 1 2 3 4 5 6 
#
# 1 70.7090 26.1547 33.2750 0.0000 17.5171 0.0000
# 2 26.1547 111.7573 56.0396 0.0000 14.7259 0.0000
# 3 33.2750 56.0396 148.7386 0.0000 9.0805 0.0000
# 4 0.0000 0.0000 0.0000 20.5945 0.0000 -3.4291
# 5 17.5171 14.7259 9.0805 0.0000 28.9499 0.0000
# 6 0.0000 0.0000 0.0000 -3.4291 0.0000 26.4700
#
#
#
# Elastic Compliance Matrix: (Units=1/GPa)
#
#
# Indices 1 2 3 4 5 6 
#
# 1 0.018459 -0.001597 -0.002952 0.000000 -0.009431 0.000000
# 2 -0.001597 0.011747 -0.003836 0.000000 -0.003806 0.000000
# 3 -0.002952 -0.003836 0.008769 0.000000 0.000987 0.000000
# 4 0.000000 0.000000 0.000000 0.049627 0.000000 0.006429
# 5 -0.009431 -0.003806 0.000987 0.000000 0.041875 0.000000
# 6 0.000000 0.000000 0.000000 0.006429 0.000000 0.038611
#
#
# Mechanical properties :
#
#
# Convention : Reuss Voigt Hill
#
# Bulk Modulus (GPa) = 45.03734 62.46037 53.74885
# Shear Modulus (GPa) = 25.87195 29.58526 27.72860
#
# Velocity S-wave (km/s) = 3.37518 3.60927 3.49419
# Velocity P-wave (km/s) = 5.91775 6.69861 6.32025
#
# Compressibility (1/GPa) = 0.02220380
#
# Stress axis : x y z
#
# Youngs Moduli (GPa) = 54.17490 85.12971 114.04210
#
# Poissons Ratio (x) = 0.13595 0.33666
# Poissons Ratio (y) = 0.08652 0.43749
# Poissons Ratio (z) = 0.15993 0.32657
#
# Static dielectric constant tensor:
#      x y z
#    x 3.997580 0.000000 -0.033770 
#    y 0.000000 3.819110 0.000000 
#    z -0.033770 0.000000 4.494750 
# 
# 
# High freq. dielectric constant tensor:
#      x y z
#    x 1.894890 0.000000 0.006040 
#    y 0.000000 1.878270 0.000000 
#    z 0.006040 0.000000 1.912560 
# 
# From -- ./inp_files/86177.got.cif
#   From: 2010.06.25/outbox.cif.g09.slc.cpg/sg15_44_cif.got.tgz:86177.got - 2010.06.28 07:06:18.
