data_PCOD8143556
_publ_section_title
;
Structure prediction by ZEFSAII (Michael W. Deem and Ramdas Pophale) SiO2 
 PCOD8143556
Probable space group: C 2/C
;
_chemical_formula_sum "Si O2"
_cell_formula_units_Z 56
_cell_length_a 27.858717
_cell_length_b 5.653147
_cell_length_c 14.876639
_cell_angle_alpha 90.000000
_cell_angle_beta 109.413872
_cell_angle_gamma 90.000000
_cell_volume 2209.700413
_symmetry_space_group_name_H-M "C 2/C"
_symmetry_group_IT_number 15
_symmetry_cell_setting 'monoclinic'
loop_
_space_group_symop_operation_xyz
x,y,z
-x,y,1/2-z
-x,-y,-z
x,-y,1/2+z
1/2+x,1/2+y,z
1/2-x,1/2+y,1/2-z
1/2-x,1/2-y,-z
1/2+x,1/2-y,1/2+z
loop_
_atom_site_type_symbol
_atom_site_label
_atom_site_fract_x
_atom_site_fract_y
_atom_site_fract_z
Si Si1 0.640374 0.329421 0.855314
Si Si2 0.037187 0.659750 0.857521
Si Si3 0.759244 0.631103 0.639526
Si Si4 0.385240 0.373383 0.329803
Si Si5 0.814560 0.489354 0.841957
Si Si6 0.999394 0.838601 0.142543
Si Si7 0.663018 0.396894 0.535696
O O1 0.594863 0.160836 0.858343
O O2 0.692649 0.181033 0.894927
O O3 0.630785 0.418371 0.748034
O O4 0.644761 0.561100 0.922346
O O5 0.000000 0.650713 0.750000
O O6 0.029494 0.406699 0.906045
O O7 0.025588 0.907927 0.905709
O O8 0.775418 0.630085 0.754103
O O9 0.725356 0.409417 0.584537
O O10 0.717678 0.837641 0.607617
O O11 0.444428 0.318036 0.362066
O O12 0.369043 0.422549 0.422365
O O13 0.351282 0.139767 0.290742
O O14 0.850323 0.642487 0.930874
O O15 0.000000 0.851970 0.250000
#
# Coordination Sequence:
#
# PCOD8143556 Si02
#       7
#     8   8   8   8   8   8   8
#     4  12  24  45  73 102 140 190 234 302 360 427
#     4  10  22  42  68 109 139 180 249 289 356 441
#     4  11  22  42  66  99 137 186 231 289 358 428
#     4  11  24  44  71 100 138 190 228 296 372 422
#     4  11  22  42  68  96 137 181 236 289 356 438
#     4  10  21  40  71 101 139 188 241 293 353 441
#     4  11  26  45  66 107 140 180 249 288 357 442
#
# _framework density 25.3428
#
# number of rings (size 3 to 8) (size 9 to 14) (size 15 to 20)
#    0.000    1.143    5.714    1.286    6.000    0.571 
#   10.286    1.429    0.000    0.000    0.000    0.000 
#    0.000    0.000    0.000    0.000    0.000    0.000 
#
# Total GULP energy -346910.975741 kJ/mol
# GULP energy per Si atom -12389.677705 kJ/mol
# Density = 2.528512 g / cm^3
# Si number density = 25.342800 Si / 1000 Ang^3
#
#
#
# Elastic Constant Matrix: (Units=GPa)
#
#
# Indices 1 2 3 4 5 6 
#
# 1 217.7794 48.8282 5.2474 0.0000 7.6714 0.0000
# 2 48.8282 136.0304 -11.1950 0.0000 1.1655 0.0000
# 3 5.2474 -11.1950 39.6187 0.0000 -5.9784 0.0000
# 4 0.0000 0.0000 0.0000 11.2046 0.0000 1.9491
# 5 7.6714 1.1655 -5.9784 0.0000 11.1545 0.0000
# 6 0.0000 0.0000 0.0000 1.9491 0.0000 27.6637
#
#
#
# Elastic Compliance Matrix: (Units=1/GPa)
#
#
# Indices 1 2 3 4 5 6 
#
# 1 0.005243 -0.002003 -0.001929 0.000000 -0.004431 0.000000
# 2 -0.002003 0.008293 0.002922 0.000000 0.002077 0.000000
# 3 -0.001929 0.002922 0.028806 0.000000 0.016460 0.000000
# 4 0.000000 0.000000 0.000000 0.090356 0.000000 -0.006366
# 5 -0.004431 0.002077 0.016460 0.000000 0.101302 0.000000
# 6 0.000000 0.000000 0.000000 -0.006366 0.000000 0.036597
#
#
# Mechanical properties :
#
#
# Convention : Reuss Voigt Hill
#
# Bulk Modulus (GPa) = 24.80032 53.24331 39.02181
# Shear Modulus (GPa) = 17.47901 33.37444 25.42673
#
# Velocity S-wave (km/s) = 2.62907 3.63288 3.17095
# Velocity P-wave (km/s) = 4.36156 6.21707 5.37006
#
# Compressibility (1/GPa) = 0.04032206
#
# Stress axis : x y z
#
# Youngs Moduli (GPa) = 190.71484 120.58463 34.71554
#
# Poissons Ratio (x) = 0.24152 0.06697
# Poissons Ratio (y) = 0.38199 -0.10144
# Poissons Ratio (z) = 0.36790 -0.35235
#
# Static dielectric constant tensor:
#      x y z
#    x 4.899890 0.000000 -0.625630 
#    y 0.000000 5.346580 0.000000 
#    z -0.625630 0.000000 6.236870 
# 
# 
# High freq. dielectric constant tensor:
#      x y z
#    x 2.021740 0.000000 0.004840 
#    y 0.000000 2.013890 0.000000 
#    z 0.004840 0.000000 1.975680 
# 
# From -- ./inp_files/221310.got.cif
#   From: 2010.06.25/outbox.cif.g09.slc.cpg/sg15_111_cif.got.tgz:221310.got - 2010.06.28 07:06:18.
