data_PCOD8143342
_publ_section_title
;
Structure prediction by ZEFSAII (Michael W. Deem and Ramdas Pophale) SiO2 
 PCOD8143342
Probable space group: C 2/C
;
_chemical_formula_sum "Si O2"
_cell_formula_units_Z 40
_cell_length_a 29.858760
_cell_length_b 7.685261
_cell_length_c 24.042333
_cell_angle_alpha 90.000000
_cell_angle_beta 16.915929
_cell_angle_gamma 90.000000
_cell_volume 1605.286336
_symmetry_space_group_name_H-M "C 2/C"
_symmetry_group_IT_number 15
_symmetry_cell_setting 'monoclinic'
loop_
_space_group_symop_operation_xyz
x,y,z
-x,y,1/2-z
-x,-y,-z
x,-y,1/2+z
1/2+x,1/2+y,z
1/2-x,1/2+y,1/2-z
1/2-x,1/2-y,-z
1/2+x,1/2-y,1/2+z
loop_
_atom_site_type_symbol
_atom_site_label
_atom_site_fract_x
_atom_site_fract_y
_atom_site_fract_z
Si Si1 0.334867 0.583280 0.322191
Si Si2 0.512352 0.781464 0.889470
Si Si3 0.628014 0.900988 0.642480
Si Si4 0.300568 0.901847 0.731346
Si Si5 0.854647 0.740912 0.052580
O O1 0.393237 0.393770 0.234637
O O2 0.221567 0.571475 0.510586
O O3 0.237384 0.657862 0.387766
O O4 0.475677 0.708616 0.170489
O O5 0.550140 0.924243 0.795933
O O6 0.559144 0.858691 0.893765
O O7 0.331778 0.742346 0.103168
O O8 0.500000 0.846257 0.750000
O O9 0.750000 0.750000 0.500000
O O10 0.366538 0.893909 0.590012
O O11 0.233754 0.090746 0.820607
#
# Coordination Sequence:
#
# PCOD8143342 Si02
#       5
#     8   8   8   8   8
#     4  10  23  42  64  94 132 171 217 266 321 384
#     4  10  21  40  65  95 125 168 217 264 323 385
#     4  10  21  41  69  95 127 169 217 267 317 384
#     4  11  23  39  66  97 132 169 214 266 321 388
#     4  11  24  42  64  97 133 171 215 267 324 384
#
# _framework density 24.917672
#
# number of rings (size 3 to 8) (size 9 to 14) (size 15 to 20)
#    0.000    1.600    0.000    4.800    0.000    9.600 
#    0.000    4.000    0.000    0.000    0.000    0.000 
#    0.000    0.000    0.000    0.000    0.000    0.000 
#
# Total GULP energy -248076.515394 kJ/mol
# GULP energy per Si atom -12403.825770 kJ/mol
# Density = 2.486096 g / cm^3
# Si number density = 24.917672 Si / 1000 Ang^3
#
#
#
# Elastic Constant Matrix: (Units=GPa)
#
#
# Indices 1 2 3 4 5 6 
#
# 1 110.0020 23.5992 45.4619 0.0093 -3.2834 -0.0013
# 2 23.5992 54.2152 16.0077 -0.0061 -2.8178 -0.0024
# 3 45.4619 16.0077 116.3163 0.0017 3.9965 -0.0024
# 4 0.0093 -0.0061 0.0017 28.8693 -0.0003 -2.4128
# 5 -3.2834 -2.8178 3.9965 -0.0003 57.8760 0.0001
# 6 -0.0013 -0.0024 -0.0024 -2.4128 0.0001 44.1207
#
#
#
# Elastic Compliance Matrix: (Units=1/GPa)
#
#
# Indices 1 2 3 4 5 6 
#
# 1 0.011600 -0.003819 -0.004034 -0.000004 0.000751 0.000000
# 2 -0.003819 0.020557 -0.001367 0.000006 0.000879 0.000001
# 3 -0.004034 -0.001367 0.010397 0.000000 -0.001013 0.000000
# 4 -0.000004 0.000006 0.000000 0.034798 0.000000 0.001903
# 5 0.000751 0.000879 -0.001013 0.000000 0.017434 0.000000
# 6 0.000000 0.000001 0.000000 0.001903 0.000000 0.022769
#
#
# Mechanical properties :
#
#
# Convention : Reuss Voigt Hill
#
# Bulk Modulus (GPa) = 41.46984 50.07455 45.77220
# Shear Modulus (GPa) = 34.71483 39.20418 36.95950
#
# Velocity S-wave (km/s) = 3.73658 3.97085 3.85550
# Velocity P-wave (km/s) = 5.94096 6.41585 6.18296
#
# Compressibility (1/GPa) = 0.02411391
#
# Stress axis : x y z
#
# Youngs Moduli (GPa) = 86.20989 48.64630 96.18383
#
# Poissons Ratio (x) = 0.18578 0.38799
# Poissons Ratio (y) = 0.32924 0.13144
# Poissons Ratio (z) = 0.34776 0.06648
#
# Static dielectric constant tensor:
#      x y z
#    x 4.524880 0.000230 0.719460 
#    y 0.000230 4.726090 -0.000350 
#    z 0.719460 -0.000350 4.715510 
# 
# 
# High freq. dielectric constant tensor:
#      x y z
#    x 1.992340 0.000000 -0.002250 
#    y 0.000000 2.002960 0.000000 
#    z -0.002250 0.000000 2.021140 
# 
# From -- ./inp_files/284262.got.cif
#   From: 2010.06.25/outbox.cif.g09.slc.cpg/sg15_143_cif.got.tgz:284262.got - 2010.06.28 07:06:18.
