data_PCOD8143518
_publ_section_title
;
Structure prediction by ZEFSAII (Michael W. Deem and Ramdas Pophale) SiO2 
 PCOD8143518
Probable space group: C 2/C
;
_chemical_formula_sum "Si O2"
_cell_formula_units_Z 44
_cell_length_a 20.597493
_cell_length_b 14.279246
_cell_length_c 11.095826
_cell_angle_alpha 90.000000
_cell_angle_beta 34.308631
_cell_angle_gamma 90.000000
_cell_volume 1839.454978
_symmetry_space_group_name_H-M "C 2/C"
_symmetry_group_IT_number 15
_symmetry_cell_setting 'monoclinic'
loop_
_space_group_symop_operation_xyz
x,y,z
-x,y,1/2-z
-x,-y,-z
x,-y,1/2+z
1/2+x,1/2+y,z
1/2-x,1/2+y,1/2-z
1/2-x,1/2-y,-z
1/2+x,1/2-y,1/2+z
loop_
_atom_site_type_symbol
_atom_site_label
_atom_site_fract_x
_atom_site_fract_y
_atom_site_fract_z
Si Si1 0.589963 0.732068 0.740758
Si Si2 0.507774 0.398444 0.932422
Si Si3 0.687959 0.634109 0.959200
Si Si4 0.755114 0.294491 0.794113
Si Si5 0.378091 0.007794 0.118251
Si Si6 0.000000 0.400639 0.750000
O O1 0.491023 0.669553 0.953437
O O2 0.626941 0.691444 0.550268
O O3 0.691356 0.728478 0.683785
O O4 0.546060 0.838237 0.790430
O O5 0.400984 0.393878 0.006957
O O6 0.500000 0.500000 0.000000
O O7 0.624314 0.366669 0.685582
O O8 0.741566 0.735997 0.837206
O O9 0.785852 0.556260 0.827648
O O10 0.828737 0.388783 0.670962
O O11 0.396270 0.965321 0.956729
O O12 0.500000 0.000000 0.000000
#
# Coordination Sequence:
#
# PCOD8143518 Si02
#       6
#     8   8   8   8   8   4
#     4  10  21  40  69  93 133 186 236 296 359 420
#     4  10  22  41  72 102 139 185 248 298 351 433
#     4  10  23  44  68 103 143 183 244 297 364 426
#     4  10  21  42  68  94 139 186 231 300 352 424
#     4  12  25  43  69 106 143 189 240 295 362 439
#     4  12  24  42  66 104 140 184 242 288 370 428
#
# _framework density 23.920128999999999
#
# number of rings (size 3 to 8) (size 9 to 14) (size 15 to 20)
#    0.000    1.455    3.636    1.091    0.000    7.273 
#    0.000    0.909    0.000    0.000    0.000    0.000 
#    0.000    0.000    0.000    0.000    0.000    0.000 
#
# Total GULP energy -272567.325700 kJ/mol
# GULP energy per Si atom -12389.423895 kJ/mol
# Density = 2.386569 g / cm^3
# Si number density = 23.920129 Si / 1000 Ang^3
#
#
#
# Elastic Constant Matrix: (Units=GPa)
#
#
# Indices 1 2 3 4 5 6 
#
# 1 39.0776 18.2361 30.0840 0.0000 4.9035 0.0000
# 2 18.2361 154.1575 102.8957 0.0000 12.1925 0.0000
# 3 30.0840 102.8957 240.4551 0.0000 17.2319 0.0000
# 4 0.0000 0.0000 0.0000 55.9369 0.0000 0.7696
# 5 4.9035 12.1925 17.2319 0.0000 30.1296 0.0000
# 6 0.0000 0.0000 0.0000 0.7696 0.0000 28.7966
#
#
#
# Elastic Compliance Matrix: (Units=1/GPa)
#
#
# Indices 1 2 3 4 5 6 
#
# 1 0.028709 -0.001288 -0.002860 0.000000 -0.002515 0.000000
# 2 -0.001288 0.009205 -0.003677 0.000000 -0.001413 0.000000
# 3 -0.002860 -0.003677 0.006204 0.000000 -0.001595 0.000000
# 4 0.000000 0.000000 0.000000 0.017884 0.000000 -0.000478
# 5 -0.002515 -0.001413 -0.001595 0.000000 0.035083 0.000000
# 6 0.000000 0.000000 0.000000 -0.000478 0.000000 0.034739
#
#
# Mechanical properties :
#
#
# Convention : Reuss Voigt Hill
#
# Bulk Modulus (GPa) = 35.12703 81.79133 58.45918
# Shear Modulus (GPa) = 31.85448 41.80424 36.82936
#
# Velocity S-wave (km/s) = 3.65321 4.18504 3.92813
# Velocity P-wave (km/s) = 5.70189 7.59081 6.71312
#
# Compressibility (1/GPa) = 0.02846811
#
# Stress axis : x y z
#
# Youngs Moduli (GPa) = 34.83240 108.63657 161.17903
#
# Poissons Ratio (x) = 0.13992 0.46105
# Poissons Ratio (y) = 0.04486 0.59260
# Poissons Ratio (z) = 0.09964 0.39942
#
# Static dielectric constant tensor:
#      x y z
#    x 4.124370 0.000000 0.066830 
#    y 0.000000 5.267680 0.000000 
#    z 0.066830 0.000000 4.990540 
# 
# 
# High freq. dielectric constant tensor:
#      x y z
#    x 1.943780 0.000000 -0.000100 
#    y 0.000000 1.943970 0.000000 
#    z -0.000100 0.000000 1.970620 
# 
# From -- ./inp_files/123271.got.cif
#   From: 2010.06.25/outbox.cif.g09.slc.cpg/sg15_62_cif.got.tgz:123271.got - 2010.06.28 07:06:18.
