data_PCOD8143544
_publ_section_title
;
Structure prediction by ZEFSAII (Michael W. Deem and Ramdas Pophale) SiO2 
 PCOD8143544
Probable space group: C 2/C
;
_chemical_formula_sum "Si O2"
_cell_formula_units_Z 48
_cell_length_a 11.944561
_cell_length_b 14.492266
_cell_length_c 23.381859
_cell_angle_alpha 90.000000
_cell_angle_beta 34.816453
_cell_angle_gamma 90.000000
_cell_volume 2310.910391
_symmetry_space_group_name_H-M "C 2/C"
_symmetry_group_IT_number 15
_symmetry_cell_setting 'monoclinic'
loop_
_space_group_symop_operation_xyz
x,y,z
-x,y,1/2-z
-x,-y,-z
x,-y,1/2+z
1/2+x,1/2+y,z
1/2-x,1/2+y,1/2-z
1/2-x,1/2-y,-z
1/2+x,1/2-y,1/2+z
loop_
_atom_site_type_symbol
_atom_site_label
_atom_site_fract_x
_atom_site_fract_y
_atom_site_fract_z
Si Si1 0.000000 0.325974 0.750000
Si Si2 0.580821 0.009520 0.604206
Si Si3 0.274299 0.314001 0.542527
Si Si4 0.500000 0.110983 0.750000
Si Si5 0.296292 0.340694 0.943150
Si Si6 0.813437 0.252560 0.628845
Si Si7 0.248382 0.611051 0.246850
O O1 0.863311 0.268805 0.850309
O O2 0.847323 0.386104 0.776298
O O3 0.605559 0.054150 0.656134
O O4 0.654094 0.077533 0.523630
O O5 0.717033 0.918437 0.550534
O O6 0.349322 0.984928 0.688567
O O7 0.250000 0.250000 0.500000
O O8 0.496553 0.304446 0.470941
O O9 0.657356 0.177103 0.713828
O O10 0.259659 0.318159 0.892221
O O11 0.517996 0.380542 0.855313
O O12 0.250000 0.250000 0.000000
O O13 0.846169 0.311922 0.672215
#
# Coordination Sequence:
#
# PCOD8143544 Si02
#       7
#     4   8   8   4   8   8   8
#     4  10  21  40  70  93 138 184 227 282 348 419
#     4  11  25  43  68 104 141 186 237 290 354 428
#     4  11  23  45  68 103 141 184 230 291 355 422
#     4  12  25  42  68 107 130 186 237 292 350 413
#     4  12  24  45  71 106 139 189 232 293 359 424
#     4  12  23  45  74  97 142 182 229 294 359 418
#     4  11  23  45  66 103 142 179 234 290 349 423
#
# _framework density 20.771035999999999
#
# number of rings (size 3 to 8) (size 9 to 14) (size 15 to 20)
#    0.000    0.667    6.667    3.000    2.333    1.333 
#    0.000    0.000    0.000    0.000    0.000    0.000 
#    0.000    0.000    0.000    0.000    0.000    0.000 
#
# Total GULP energy -297321.942389 kJ/mol
# GULP energy per Si atom -12388.414266 kJ/mol
# Density = 2.072376 g / cm^3
# Si number density = 20.771036 Si / 1000 Ang^3
#
#
#
# Elastic Constant Matrix: (Units=GPa)
#
#
# Indices 1 2 3 4 5 6 
#
# 1 94.5443 45.7065 39.6777 0.0003 -10.0970 0.0004
# 2 45.7065 118.0567 62.9586 -0.0013 2.0945 0.0003
# 3 39.6777 62.9586 143.4907 -0.0058 -13.9193 0.0010
# 4 0.0003 -0.0013 -0.0058 44.6292 -0.0002 -13.7612
# 5 -10.0970 2.0945 -13.9193 -0.0002 47.2085 0.0001
# 6 0.0004 0.0003 0.0010 -13.7612 0.0001 22.4757
#
#
#
# Elastic Compliance Matrix: (Units=1/GPa)
#
#
# Indices 1 2 3 4 5 6 
#
# 1 0.013699 -0.004529 -0.001541 -0.000001 0.002677 0.000000
# 2 -0.004529 0.012738 -0.004617 0.000000 -0.002895 0.000000
# 3 -0.001541 -0.004617 0.009686 0.000001 0.002731 0.000000
# 4 -0.000001 0.000000 0.000001 0.027622 0.000000 0.016912
# 5 0.002677 -0.002895 0.002731 0.000000 0.022689 0.000000
# 6 0.000000 0.000000 0.000000 0.016912 0.000000 0.054847
#
#
# Mechanical properties :
#
#
# Convention : Reuss Voigt Hill
#
# Bulk Modulus (GPa) = 67.80769 72.53081 70.16925
# Shear Modulus (GPa) = 29.83786 36.71261 33.27523
#
# Velocity S-wave (km/s) = 3.79425 4.20871 4.00684
# Velocity P-wave (km/s) = 7.20495 7.65589 7.43384
#
# Compressibility (1/GPa) = 0.01474759
#
# Stress axis : x y z
#
# Youngs Moduli (GPa) = 72.99601 78.50629 103.24096
#
# Poissons Ratio (x) = 0.35559 0.15911
# Poissons Ratio (y) = 0.33063 0.47669
# Poissons Ratio (z) = 0.11250 0.36249
#
# Static dielectric constant tensor:
#      x y z
#    x 4.038900 -0.000120 -0.296380 
#    y -0.000120 3.494620 0.000090 
#    z -0.296380 0.000090 4.633730 
# 
# 
# High freq. dielectric constant tensor:
#      x y z
#    x 1.812410 0.000000 -0.003050 
#    y 0.000000 1.798120 0.000000 
#    z -0.003050 0.000000 1.839150 
# 
# From -- ./inp_files/238970.got.cif
#   From: 2010.06.25/outbox.cif.g09.slc.cpg/sg15_120_cif.got.tgz:238970.got - 2010.06.28 07:06:18.
