data_PCOD8143289
_publ_section_title
;
Structure prediction by ZEFSAII (Michael W. Deem and Ramdas Pophale) SiO2 
 PCOD8143289
Probable space group: C 2/C
;
_chemical_formula_sum "Si O2"
_cell_formula_units_Z 60
_cell_length_a 26.981075
_cell_length_b 8.649627
_cell_length_c 20.331077
_cell_angle_alpha 90.000000
_cell_angle_beta 37.626775
_cell_angle_gamma 90.000000
_cell_volume 2896.767219
_symmetry_space_group_name_H-M "C 2/C"
_symmetry_group_IT_number 15
_symmetry_cell_setting 'monoclinic'
loop_
_space_group_symop_operation_xyz
x,y,z
-x,y,1/2-z
-x,-y,-z
x,-y,1/2+z
1/2+x,1/2+y,z
1/2-x,1/2+y,1/2-z
1/2-x,1/2-y,-z
1/2+x,1/2-y,1/2+z
loop_
_atom_site_type_symbol
_atom_site_label
_atom_site_fract_x
_atom_site_fract_y
_atom_site_fract_z
Si Si1 0.500000 0.313376 0.250000
Si Si2 0.908155 0.465176 0.897810
Si Si3 0.630589 0.596105 0.814012
Si Si4 0.844413 0.097270 0.563784
Si Si5 0.205021 0.562103 0.374601
Si Si6 0.425325 0.111951 0.744543
Si Si7 0.180487 0.438678 0.749213
Si Si8 0.518188 0.548557 0.335948
O O1 0.570832 0.209576 0.143933
O O2 0.544762 0.422348 0.254879
O O3 0.883738 0.562257 0.857654
O O4 0.985079 0.541050 0.853036
O O5 0.837852 0.455864 0.025640
O O6 0.616014 0.606235 0.906314
O O7 0.700637 0.475100 0.722870
O O8 0.655238 0.763777 0.759145
O O9 0.547339 0.526851 0.873497
O O10 0.803321 0.261917 0.592748
O O11 0.920380 0.068430 0.435786
O O12 0.775188 0.965761 0.630250
O O13 0.169044 0.527374 0.339414
O O14 0.433639 0.295807 0.731662
O O15 0.375415 0.053525 0.733991
#
# Coordination Sequence:
#
# PCOD8143289 Si02
#       8
#     4   8   8   8   8   8   8   8
#     4  10  24  38  60  88 124 160 206 256 306 358
#     4  10  21  42  63  92 122 163 205 258 310 366
#     4  10  22  40  61  93 127 159 204 258 302 371
#     4  10  22  40  63  91 125 163 204 252 314 363
#     4  10  21  41  66  91 125 163 206 253 314 361
#     4  10  21  40  65  86 127 158 210 253 300 371
#     4  10  22  42  63  96 126 160 205 259 306 367
#     4  12  22  41  62  92 123 166 207 253 307 367
#
# _framework density 20.712745000000002
#
# number of rings (size 3 to 8) (size 9 to 14) (size 15 to 20)
#    0.000    1.867    1.333    3.600    1.867    1.600 
#    4.800    2.667    0.000    0.000    0.000    0.000 
#    0.000    0.000    0.000    0.000    0.000    0.000 
#
# Total GULP energy -371956.194996 kJ/mol
# GULP energy per Si atom -12398.539833 kJ/mol
# Density = 2.066560 g / cm^3
# Si number density = 20.712745 Si / 1000 Ang^3
#
#
#
# Elastic Constant Matrix: (Units=GPa)
#
#
# Indices 1 2 3 4 5 6 
#
# 1 55.9849 38.1633 22.6578 0.0099 4.4063 -0.0152
# 2 38.1633 141.6684 26.2648 -0.0356 0.7585 0.0235
# 3 22.6578 26.2648 70.3478 -0.0419 5.2726 0.0369
# 4 0.0099 -0.0356 -0.0419 24.3811 0.0111 -1.0738
# 5 4.4063 0.7585 5.2726 0.0111 19.5655 -0.0051
# 6 -0.0152 0.0235 0.0369 -1.0738 -0.0051 41.8259
#
#
#
# Elastic Compliance Matrix: (Units=1/GPa)
#
#
# Indices 1 2 3 4 5 6 
#
# 1 0.024078 -0.005458 -0.005436 -0.000025 -0.003746 0.000016
# 2 -0.005458 0.008825 -0.001637 0.000011 0.001328 -0.000005
# 3 -0.005436 -0.001637 0.016820 0.000030 -0.003245 -0.000016
# 4 -0.000025 0.000011 0.000030 0.041062 -0.000026 0.001054
# 5 -0.003746 0.001328 -0.003245 -0.000026 0.052777 0.000006
# 6 0.000016 -0.000005 -0.000016 0.001054 0.000006 0.023936
#
#
# Mechanical properties :
#
#
# Convention : Reuss Voigt Hill
#
# Bulk Modulus (GPa) = 40.54981 49.13032 44.84007
# Shear Modulus (GPa) = 24.90278 29.21550 27.05914
#
# Velocity S-wave (km/s) = 3.47117 3.75975 3.61834
# Velocity P-wave (km/s) = 5.97370 6.52832 6.25716
#
# Compressibility (1/GPa) = 0.02466103
#
# Stress axis : x y z
#
# Youngs Moduli (GPa) = 41.53224 113.30925 59.45196
#
# Poissons Ratio (x) = 0.61847 0.32320
# Poissons Ratio (y) = 0.22669 0.09730
# Poissons Ratio (z) = 0.22579 0.18544
#
# Static dielectric constant tensor:
#      x y z
#    x 3.723230 0.000000 0.130940 
#    y 0.000000 3.850790 0.000020 
#    z 0.130940 0.000020 3.525790 
# 
# 
# High freq. dielectric constant tensor:
#      x y z
#    x 1.807670 0.000000 0.006880 
#    y 0.000000 1.821680 0.000000 
#    z 0.006880 0.000000 1.795810 
# 
# From -- ./inp_files/257187.got.cif
#   From: 2010.06.25/outbox.cif.g09.slc.cpg/sg15_129_cif.got.tgz:257187.got - 2010.06.28 07:06:18.
