data_PCOD8143386
_publ_section_title
;
Structure prediction by ZEFSAII (Michael W. Deem and Ramdas Pophale) SiO2 
 PCOD8143386
Probable space group: C 2/C
;
_chemical_formula_sum "Si O2"
_cell_formula_units_Z 60
_cell_length_a 26.911324
_cell_length_b 8.435149
_cell_length_c 12.272106
_cell_angle_alpha 90.000000
_cell_angle_beta 108.335815
_cell_angle_gamma 90.000000
_cell_volume 2644.343856
_symmetry_space_group_name_H-M "C 2/C"
_symmetry_group_IT_number 15
_symmetry_cell_setting 'monoclinic'
loop_
_space_group_symop_operation_xyz
x,y,z
-x,y,1/2-z
-x,-y,-z
x,-y,1/2+z
1/2+x,1/2+y,z
1/2-x,1/2+y,1/2-z
1/2-x,1/2-y,-z
1/2+x,1/2-y,1/2+z
loop_
_atom_site_type_symbol
_atom_site_label
_atom_site_fract_x
_atom_site_fract_y
_atom_site_fract_z
Si Si1 0.689690 0.512180 0.494786
Si Si2 0.000000 0.903517 0.750000
Si Si3 0.908632 0.215904 0.052876
Si Si4 0.160395 0.802219 0.662018
Si Si5 0.238480 0.285632 0.642527
Si Si6 0.919234 0.065007 0.835419
Si Si7 0.325112 0.262515 0.179003
Si Si8 0.163091 0.522610 0.504515
O O1 0.631163 0.578282 0.437350
O O2 0.695511 0.407909 0.606743
O O3 0.729295 0.656571 0.540542
O O4 0.705983 0.402756 0.404501
O O5 0.042880 0.785993 0.831173
O O6 0.025500 0.023156 0.680202
O O7 0.930658 0.167723 0.950446
O O8 0.881364 0.387792 0.035245
O O9 0.199160 0.777597 0.792573
O O10 0.143864 0.643419 0.586091
O O11 0.109061 0.895633 0.663100
O O12 0.203003 0.255036 0.724669
O O13 0.218994 0.453467 0.581898
O O14 0.884520 0.179418 0.735607
O O15 0.327481 0.104409 0.106745
#
# Coordination Sequence:
#
# PCOD8143386 Si02
#       8
#     8   4   8   8   8   8   8   8
#     4   9  19  38  63  93 129 171 235 264 318 410
#     4  12  24  42  78  96 124 170 240 276 336 408
#     4  10  21  44  65  99 130 166 218 288 339 393
#     4  10  21  40  66  91 136 182 217 274 330 395
#     4  11  21  42  62  98 144 181 223 275 328 396
#     4  11  23  45  70  93 129 178 228 278 330 401
#     4  11  21  41  68  92 133 185 218 273 333 392
#     4  10  23  38  67 101 141 172 220 275 344 400
#
# _framework density 22.68994
#
# number of rings (size 3 to 8) (size 9 to 14) (size 15 to 20)
#    0.000    1.600    5.333    1.200    0.000    3.200 
#    0.000    3.333    0.000    2.400    0.000    0.000 
#    0.000    0.000    0.000    0.000    0.000    0.000 
#
# Total GULP energy -371938.294952 kJ/mol
# GULP energy per Si atom -12397.943165 kJ/mol
# Density = 2.263830 g / cm^3
# Si number density = 22.689940 Si / 1000 Ang^3
#
#
#
# Elastic Constant Matrix: (Units=GPa)
#
#
# Indices 1 2 3 4 5 6 
#
# 1 72.5743 36.8671 33.8519 0.0000 -5.2391 0.0000
# 2 36.8671 132.4087 55.1103 0.0000 -3.0967 0.0000
# 3 33.8519 55.1103 104.5230 0.0000 15.0568 0.0000
# 4 0.0000 0.0000 0.0000 49.1552 0.0000 -2.8845
# 5 -5.2391 -3.0967 15.0568 0.0000 39.1418 0.0000
# 6 0.0000 0.0000 0.0000 -2.8845 0.0000 31.9246
#
#
#
# Elastic Compliance Matrix: (Units=1/GPa)
#
#
# Indices 1 2 3 4 5 6 
#
# 1 0.017767 -0.002841 -0.004834 0.000000 0.004013 0.000000
# 2 -0.002841 0.010448 -0.004926 0.000000 0.002341 0.000000
# 3 -0.004834 -0.004926 0.014694 0.000000 -0.006689 0.000000
# 4 0.000000 0.000000 0.000000 0.020452 0.000000 0.001848
# 5 0.004013 0.002341 -0.006689 0.000000 0.028844 0.000000
# 6 0.000000 0.000000 0.000000 0.001848 0.000000 0.031491
#
#
# Mechanical properties :
#
#
# Convention : Reuss Voigt Hill
#
# Bulk Modulus (GPa) = 56.47704 62.35161 59.41433
# Shear Modulus (GPa) = 32.29957 36.28943 34.29450
#
# Velocity S-wave (km/s) = 3.77705 4.00354 3.89194
# Velocity P-wave (km/s) = 6.63071 6.99361 6.81458
#
# Compressibility (1/GPa) = 0.01770631
#
# Stress axis : x y z
#
# Youngs Moduli (GPa) = 56.28476 95.70759 68.05530
#
# Poissons Ratio (x) = 0.27190 0.32900
# Poissons Ratio (y) = 0.15990 0.33525
# Poissons Ratio (z) = 0.27210 0.47148
#
# Static dielectric constant tensor:
#      x y z
#    x 3.804470 0.000000 -0.127700 
#    y 0.000000 4.330660 0.000000 
#    z -0.127700 0.000000 4.461940 
# 
# 
# High freq. dielectric constant tensor:
#      x y z
#    x 1.873370 0.000000 -0.014690 
#    y 0.000000 1.899350 0.000000 
#    z -0.014690 0.000000 1.921840 
# 
# From -- ./inp_files/125958.got.cif
#   From: 2010.06.25/outbox.cif.g09.slc.cpg/sg15_63_cif.got.tgz:125958.got - 2010.06.28 07:06:18.
