data_PCOD8143493
_publ_section_title
;
Structure prediction by ZEFSAII (Michael W. Deem and Ramdas Pophale) SiO2 
 PCOD8143493
Probable space group: C 2/C
;
_chemical_formula_sum "Si O2"
_cell_formula_units_Z 56
_cell_length_a 10.854518
_cell_length_b 8.920436
_cell_length_c 29.894342
_cell_angle_alpha 90.000000
_cell_angle_beta 120.671080
_cell_angle_gamma 90.000000
_cell_volume 2489.657175
_symmetry_space_group_name_H-M "C 2/C"
_symmetry_group_IT_number 15
_symmetry_cell_setting 'monoclinic'
loop_
_space_group_symop_operation_xyz
x,y,z
-x,y,1/2-z
-x,-y,-z
x,-y,1/2+z
1/2+x,1/2+y,z
1/2-x,1/2+y,1/2-z
1/2-x,1/2-y,-z
1/2+x,1/2-y,1/2+z
loop_
_atom_site_type_symbol
_atom_site_label
_atom_site_fract_x
_atom_site_fract_y
_atom_site_fract_z
Si Si1 0.890147 0.350772 0.960133
Si Si2 0.340338 0.872279 0.220950
Si Si3 0.706756 0.142446 0.531777
Si Si4 0.624364 0.840593 0.718226
Si Si5 0.692402 0.235239 0.363765
Si Si6 0.407652 0.035904 0.871378
Si Si7 0.287668 0.906560 0.111437
O O1 0.793776 0.459705 0.974940
O O2 0.917716 0.444054 0.919359
O O3 0.818420 0.190817 0.938442
O O4 0.040722 0.317453 0.012596
O O5 0.500000 0.804244 0.250000
O O6 0.239601 0.793742 0.239353
O O7 0.283676 0.842175 0.160828
O O8 0.347544 0.050459 0.234157
O O9 0.750000 0.250000 0.500000
O O10 0.819662 0.171489 0.592383
O O11 0.461273 0.778475 0.689022
O O12 0.652260 0.927718 0.677647
O O13 0.800899 0.322621 0.351939
O O14 0.761385 0.078228 0.392575
O O15 0.559196 0.101349 0.883886
#
# Coordination Sequence:
#
# PCOD8143493 Si02
#       7
#     8   8   8   8   8   8   8
#     4  10  22  42  65  95 130 171 216 264 320 386
#     4  12  25  43  65  93 126 169 215 264 323 380
#     4  10  21  40  68  95 129 172 216 263 323 386
#     4  11  25  43  64  92 129 166 214 269 317 386
#     4  10  23  42  65  96 132 170 211 268 326 378
#     4  10  21  43  64  92 134 166 211 269 319 382
#     4  11  23  41  65  94 131 169 212 265 321 375
#
# _framework density 22.493057
#
# number of rings (size 3 to 8) (size 9 to 14) (size 15 to 20)
#    0.000    1.429    4.286    1.714    2.000    2.857 
#    2.571   10.000    0.000    0.000    0.000    0.000 
#    0.000    0.000    0.000    0.000    0.000    0.000 
#
# Total GULP energy -346937.670131 kJ/mol
# GULP energy per Si atom -12390.631076 kJ/mol
# Density = 2.244186 g / cm^3
# Si number density = 22.493057 Si / 1000 Ang^3
#
#
#
# Elastic Constant Matrix: (Units=GPa)
#
#
# Indices 1 2 3 4 5 6 
#
# 1 91.4781 47.5739 9.8662 0.0000 3.0191 0.0000
# 2 47.5739 83.0621 -2.3912 0.0000 23.8427 0.0000
# 3 9.8662 -2.3912 39.7753 0.0000 11.9300 0.0000
# 4 0.0000 0.0000 0.0000 43.6169 0.0000 4.1949
# 5 3.0191 23.8427 11.9300 0.0000 32.8082 0.0000
# 6 0.0000 0.0000 0.0000 4.1949 0.0000 44.2916
#
#
#
# Elastic Compliance Matrix: (Units=1/GPa)
#
#
# Indices 1 2 3 4 5 6 
#
# 1 0.019284 -0.014898 -0.009421 0.000000 0.012478 0.000000
# 2 -0.014898 0.027565 0.012290 0.000000 -0.023131 0.000000
# 3 -0.009421 0.012290 0.034386 0.000000 -0.020568 0.000000
# 4 0.000000 0.000000 0.000000 0.023138 0.000000 -0.002191
# 5 0.012478 -0.023131 -0.020568 0.000000 0.053621 0.000000
# 6 0.000000 0.000000 0.000000 -0.002191 0.000000 0.022785
#
#
# Mechanical properties :
#
#
# Convention : Reuss Voigt Hill
#
# Bulk Modulus (GPa) = 17.48952 36.04593 26.76773
# Shear Modulus (GPa) = 22.33185 34.76113 28.54649
#
# Velocity S-wave (km/s) = 3.15434 3.93544 3.56634
# Velocity P-wave (km/s) = 4.58900 6.05891 5.37445
#
# Compressibility (1/GPa) = 0.05717709
#
# Stress axis : x y z
#
# Youngs Moduli (GPa) = 51.85774 36.27770 29.08140
#
# Poissons Ratio (x) = 0.54045 0.27399
# Poissons Ratio (y) = 0.77256 -0.35741
# Poissons Ratio (z) = 0.48857 -0.44586
#
# Static dielectric constant tensor:
#      x y z
#    x 4.015630 0.000000 -0.048080 
#    y 0.000000 4.219060 0.000000 
#    z -0.048080 0.000000 4.150920 
# 
# 
# High freq. dielectric constant tensor:
#      x y z
#    x 1.874690 0.000000 -0.007010 
#    y 0.000000 1.886220 0.000000 
#    z -0.007010 0.000000 1.895150 
# 
# From -- ./inp_files/310371.got.cif
#   From: 2010.06.25/outbox.cif.g09.slc.cpg/sg15_156_cif.got.tgz:310371.got - 2010.06.28 07:06:18.
