data_PCOD8143011
_publ_section_title
;
Structure prediction by ZEFSAII (Michael W. Deem and Ramdas Pophale) SiO2 
 PCOD8143011
Probable space group: C 2/C
;
_chemical_formula_sum "Si O2"
_cell_formula_units_Z 60
_cell_length_a 15.843430
_cell_length_b 9.184417
_cell_length_c 24.534571
_cell_angle_alpha 90.000000
_cell_angle_beta 124.536821
_cell_angle_gamma 90.000000
_cell_volume 2940.905271
_symmetry_space_group_name_H-M "C 2/C"
_symmetry_group_IT_number 15
_symmetry_cell_setting 'monoclinic'
loop_
_space_group_symop_operation_xyz
x,y,z
-x,y,1/2-z
-x,-y,-z
x,-y,1/2+z
1/2+x,1/2+y,z
1/2-x,1/2+y,1/2-z
1/2-x,1/2-y,-z
1/2+x,1/2-y,1/2+z
loop_
_atom_site_type_symbol
_atom_site_label
_atom_site_fract_x
_atom_site_fract_y
_atom_site_fract_z
Si Si1 0.740525 0.154049 0.185668
Si Si2 0.877918 0.656968 0.251818
Si Si3 0.236529 0.138221 0.869120
Si Si4 0.418476 0.636436 0.921966
Si Si5 0.964930 0.126266 0.644216
Si Si6 0.931357 0.804952 0.933751
Si Si7 0.000000 0.411551 0.250000
Si Si8 0.956536 0.193034 0.317567
O O1 0.668188 0.100068 0.208175
O O2 0.685664 0.286752 0.134366
O O3 0.845913 0.210781 0.249320
O O4 0.756963 0.025926 0.149068
O O5 0.794986 0.757087 0.191991
O O6 0.902291 0.513814 0.225812
O O7 0.980565 0.751195 0.299263
O O8 0.156635 0.143324 0.890190
O O9 0.347708 0.195005 0.928868
O O10 0.508002 0.646027 0.909148
O O11 0.388744 0.469323 0.922067
O O12 0.464370 0.710555 0.993113
O O13 0.002655 0.968740 0.678305
O O14 0.956032 0.763225 0.880584
O O15 0.028118 0.309825 0.312371
#
# Coordination Sequence:
#
# PCOD8143011 Si02
#       8
#     8   8   8   8   8   8   4   8
#     4  11  23  37  63  90 118 158 206 246 305 363
#     4  11  22  35  54  90 122 152 192 251 296 360
#     4  12  21  36  61  88 119 158 194 252 300 361
#     4   9  23  43  63  86 119 164 203 249 296 365
#     4  10  21  40  59  86 126 155 193 244 316 352
#     4  10  22  41  66  85 122 160 206 245 303 358
#     4  12  24  32  56  92 126 150 194 250 308 344
#     4  11  22  38  62  90 122 158 197 250 305 364
#
# _framework density 20.401879000000001
#
# number of rings (size 3 to 8) (size 9 to 14) (size 15 to 20)
#    0.000    1.333    4.000    1.600    1.867    1.067 
#    0.000    0.000    2.933    3.200    0.000    0.000 
#    0.000    0.000    0.000    0.000    0.000    0.000 
#
# Total GULP energy -372070.751408 kJ/mol
# GULP energy per Si atom -12402.358380 kJ/mol
# Density = 2.035544 g / cm^3
# Si number density = 20.401879 Si / 1000 Ang^3
#
#
#
# Elastic Constant Matrix: (Units=GPa)
#
#
# Indices 1 2 3 4 5 6 
#
# 1 82.7693 31.6721 22.3365 0.0000 -5.3106 0.0000
# 2 31.6721 81.5621 30.2437 0.0000 -9.1848 0.0000
# 3 22.3365 30.2437 100.0325 0.0000 -4.1461 0.0000
# 4 0.0000 0.0000 0.0000 22.7247 0.0000 -0.6519
# 5 -5.3106 -9.1848 -4.1461 0.0000 15.7153 0.0000
# 6 0.0000 0.0000 0.0000 -0.6519 0.0000 39.4388
#
#
#
# Elastic Compliance Matrix: (Units=1/GPa)
#
#
# Indices 1 2 3 4 5 6 
#
# 1 0.014488 -0.004806 -0.001714 0.000000 0.001635 0.000000
# 2 -0.004806 0.016220 -0.003544 0.000000 0.006921 0.000000
# 3 -0.001714 -0.003544 0.011467 0.000000 0.000375 0.000000
# 4 0.000000 0.000000 0.000000 0.044026 0.000000 0.000728
# 5 0.001635 0.006921 0.000375 0.000000 0.068329 0.000000
# 6 0.000000 0.000000 0.000000 0.000728 0.000000 0.025368
#
#
# Mechanical properties :
#
#
# Convention : Reuss Voigt Hill
#
# Bulk Modulus (GPa) = 45.35927 48.09651 46.72789
# Shear Modulus (GPa) = 24.11083 27.58320 25.84702
#
# Velocity S-wave (km/s) = 3.44145 3.68094 3.56321
# Velocity P-wave (km/s) = 6.17030 6.45689 6.31522
#
# Compressibility (1/GPa) = 0.02204621
#
# Stress axis : x y z
#
# Youngs Moduli (GPa) = 69.02042 61.65039 87.21028
#
# Poissons Ratio (x) = 0.29632 0.14950
# Poissons Ratio (y) = 0.33174 0.30907
# Poissons Ratio (z) = 0.11832 0.21849
#
# Static dielectric constant tensor:
#      x y z
#    x 3.787910 0.000000 -0.097700 
#    y 0.000000 3.754490 0.000000 
#    z -0.097700 0.000000 3.507220 
# 
# 
# High freq. dielectric constant tensor:
#      x y z
#    x 1.802530 0.000000 -0.007990 
#    y 0.000000 1.805040 0.000000 
#    z -0.007990 0.000000 1.769300 
# 
# From -- ./inp_files/298395.got.cif
#   From: 2010.06.25/outbox.cif.g09.slc.cpg/sg15_150_cif.got.tgz:298395.got - 2010.06.28 07:06:18.
