data_PCOD8143380
_publ_section_title
;
Structure prediction by ZEFSAII (Michael W. Deem and Ramdas Pophale) SiO2 
 PCOD8143380
Probable space group: C 2/C
;
_chemical_formula_sum "Si O2"
_cell_formula_units_Z 56
_cell_length_a 11.813087
_cell_length_b 12.876387
_cell_length_c 17.925814
_cell_angle_alpha 90.000000
_cell_angle_beta 106.122296
_cell_angle_gamma 90.000000
_cell_volume 2619.455746
_symmetry_space_group_name_H-M "C 2/C"
_symmetry_group_IT_number 15
_symmetry_cell_setting 'monoclinic'
loop_
_space_group_symop_operation_xyz
x,y,z
-x,y,1/2-z
-x,-y,-z
x,-y,1/2+z
1/2+x,1/2+y,z
1/2-x,1/2+y,1/2-z
1/2-x,1/2-y,-z
1/2+x,1/2-y,1/2+z
loop_
_atom_site_type_symbol
_atom_site_label
_atom_site_fract_x
_atom_site_fract_y
_atom_site_fract_z
Si Si1 0.936676 0.702143 0.658530
Si Si2 0.638155 0.423353 0.448997
Si Si3 0.327417 0.256692 0.416111
Si Si4 0.870503 0.530630 0.449113
Si Si5 0.530192 0.247487 0.340925
Si Si6 0.517586 0.628334 0.446122
Si Si7 0.006302 0.520386 0.338740
O O1 0.802888 0.737090 0.640011
O O2 0.008684 0.781365 0.618476
O O3 0.930572 0.585529 0.622037
O O4 0.000000 0.704424 0.750000
O O5 0.775086 0.454569 0.468652
O O6 0.625164 0.330405 0.386988
O O7 0.552490 0.520295 0.411838
O O8 0.600400 0.384417 0.524948
O O9 0.340622 0.149097 0.464067
O O10 0.407696 0.267088 0.359015
O O11 0.367793 0.344237 0.482319
O O12 0.000000 0.500000 0.500000
O O13 0.879549 0.523215 0.359273
O O14 0.500000 0.264627 0.250000
O O15 0.574969 0.129311 0.367307
O O16 0.000000 0.509354 0.250000
#
# Coordination Sequence:
#
# PCOD8143380 Si02
#       7
#     8   8   8   8   8   8   8
#     4  11  22  38  67  96 126 166 226 268 321 387
#     4  10  22  39  65  96 126 165 218 264 319 389
#     4  10  21  40  66  90 125 180 213 264 324 385
#     4  11  22  39  65  93 126 170 212 259 322 386
#     4   9  20  41  64  87 128 169 209 264 333 384
#     4  10  21  41  66  95 127 167 219 266 322 377
#     4   9  21  40  60  88 124 167 211 252 318 386
#
# _framework density 21.378487
#
# number of rings (size 3 to 8) (size 9 to 14) (size 15 to 20)
#    0.000    2.000    1.429    1.286    2.000    2.857 
#    0.000   17.143    3.143    0.000    0.000    0.000 
#    0.000    0.000    0.000    0.000    0.000    0.000 
#
# Total GULP energy -346927.532000 kJ/mol
# GULP energy per Si atom -12390.269000 kJ/mol
# Density = 2.132983 g / cm^3
# Si number density = 21.378487 Si / 1000 Ang^3
#
#
#
# Elastic Constant Matrix: (Units=GPa)
#
#
# Indices 1 2 3 4 5 6 
#
# 1 120.7769 49.2125 39.0294 0.0000 2.7879 0.0000
# 2 49.2125 180.8978 47.2288 0.0000 1.4967 0.0000
# 3 39.0294 47.2288 69.8048 0.0000 -8.5728 0.0000
# 4 0.0000 0.0000 0.0000 35.8238 0.0000 -1.9359
# 5 2.7879 1.4967 -8.5728 0.0000 33.8549 0.0000
# 6 0.0000 0.0000 0.0000 -1.9359 0.0000 33.9608
#
#
#
# Elastic Compliance Matrix: (Units=1/GPa)
#
#
# Indices 1 2 3 4 5 6 
#
# 1 0.010619 -0.001522 -0.005167 0.000000 -0.002116 0.000000
# 2 -0.001522 0.007006 -0.004037 0.000000 -0.001207 0.000000
# 3 -0.005167 -0.004037 0.020663 0.000000 0.005836 0.000000
# 4 0.000000 0.000000 0.000000 0.028001 0.000000 0.001596
# 5 -0.002116 -0.001207 0.005836 0.000000 0.031243 0.000000
# 6 0.000000 0.000000 0.000000 0.001596 0.000000 0.029537
#
#
# Mechanical properties :
#
#
# Convention : Reuss Voigt Hill
#
# Bulk Modulus (GPa) = 59.40134 71.38008 65.39071
# Shear Modulus (GPa) = 32.43952 36.46179 34.45066
#
# Velocity S-wave (km/s) = 3.89960 4.13429 4.01866
# Velocity P-wave (km/s) = 6.93698 7.50007 7.22401
#
# Compressibility (1/GPa) = 0.01683464
#
# Stress axis : x y z
#
# Youngs Moduli (GPa) = 94.17493 142.73161 48.39570
#
# Poissons Ratio (x) = 0.21727 0.25006
# Poissons Ratio (y) = 0.14336 0.19539
# Poissons Ratio (z) = 0.48660 0.57626
#
# Static dielectric constant tensor:
#      x y z
#    x 3.933270 0.000000 -0.582200 
#    y 0.000000 4.530490 0.000000 
#    z -0.582200 0.000000 3.836810 
# 
# 
# High freq. dielectric constant tensor:
#      x y z
#    x 1.829050 0.000000 -0.036620 
#    y 0.000000 1.865980 0.000000 
#    z -0.036620 0.000000 1.819940 
# 
# From -- ./inp_files/237628.got.cif
#   From: 2010.06.25/outbox.cif.g09.slc.cpg/sg15_119_cif.got.tgz:237628.got - 2010.06.28 07:06:18.
