data_PCOD8143346
_publ_section_title
;
Structure prediction by ZEFSAII (Michael W. Deem and Ramdas Pophale) SiO2 
 PCOD8143346
Probable space group: C 2/C
;
_chemical_formula_sum "Si O2"
_cell_formula_units_Z 48
_cell_length_a 9.850404
_cell_length_b 23.390439
_cell_length_c 11.928831
_cell_angle_alpha 90.000000
_cell_angle_beta 123.698471
_cell_angle_gamma 90.000000
_cell_volume 2286.637958
_symmetry_space_group_name_H-M "C 2/C"
_symmetry_group_IT_number 15
_symmetry_cell_setting 'monoclinic'
loop_
_space_group_symop_operation_xyz
x,y,z
-x,y,1/2-z
-x,-y,-z
x,-y,1/2+z
1/2+x,1/2+y,z
1/2-x,1/2+y,1/2-z
1/2-x,1/2-y,-z
1/2+x,1/2-y,1/2+z
loop_
_atom_site_type_symbol
_atom_site_label
_atom_site_fract_x
_atom_site_fract_y
_atom_site_fract_z
Si Si1 0.821571 0.587327 0.127281
Si Si2 0.194677 0.464851 0.327089
Si Si3 0.682628 0.333040 0.736106
Si Si4 0.303986 0.393286 0.175816
Si Si5 0.328015 0.799104 0.224748
Si Si6 0.322055 0.363290 0.530960
O O1 0.729453 0.528082 0.117050
O O2 0.780510 0.645419 0.173987
O O3 0.000000 0.571679 0.250000
O O4 0.791778 0.598924 0.983752
O O5 0.258613 0.446788 0.233703
O O6 0.268940 0.423037 0.454600
O O7 0.000000 0.460658 0.250000
O O8 0.666574 0.265055 0.729115
O O9 0.510891 0.364170 0.646393
O O10 0.770279 0.352570 0.892534
O O11 0.500000 0.387967 0.250000
O O12 0.228038 0.336423 0.195311
O O13 0.500000 0.819221 0.250000
O O14 0.202436 0.810063 0.065519
#
# Coordination Sequence:
#
# PCOD8143346 Si02
#       6
#     8   8   8   8   8   8
#     4  11  27  41  64 102 134 170 216 274 334 381
#     4  10  24  45  71  91 128 177 221 262 326 396
#     4  11  24  38  64 101 127 166 220 275 314 382
#     4  11  25  44  67  96 135 178 213 265 338 393
#     4  11  23  42  69  93 128 177 221 261 322 392
#     4  10  21  40  65  96 124 163 225 268 313 378
#
# _framework density 20.991517999999999
#
# number of rings (size 3 to 8) (size 9 to 14) (size 15 to 20)
#    0.000    1.333    1.667    4.500    7.000    5.333 
#    0.000    0.000    0.000    0.000    0.000    0.000 
#    0.000    0.000    0.000    0.000    0.000    0.000 
#
# Total GULP energy -297399.920651 kJ/mol
# GULP energy per Si atom -12391.663360 kJ/mol
# Density = 2.094374 g / cm^3
# Si number density = 20.991518 Si / 1000 Ang^3
#
#
#
# Elastic Constant Matrix: (Units=GPa)
#
#
# Indices 1 2 3 4 5 6 
#
# 1 111.7951 61.9268 48.8822 0.0000 -23.3144 0.0000
# 2 61.9268 116.9001 65.6684 0.0000 -11.5723 0.0000
# 3 48.8822 65.6684 164.8135 0.0000 -31.5366 0.0000
# 4 0.0000 0.0000 0.0000 35.2620 0.0000 -10.8496
# 5 -23.3144 -11.5723 -31.5366 0.0000 39.9969 0.0000
# 6 0.0000 0.0000 0.0000 -10.8496 0.0000 41.1604
#
#
#
# Elastic Compliance Matrix: (Units=1/GPa)
#
#
# Indices 1 2 3 4 5 6 
#
# 1 0.014024 -0.006626 -0.000379 0.000000 0.005958 0.000000
# 2 -0.006626 0.014155 -0.004275 0.000000 -0.003138 0.000000
# 3 -0.000379 -0.004275 0.008955 0.000000 0.005603 0.000000
# 4 0.000000 0.000000 0.000000 0.030862 0.000000 0.008135
# 5 0.005958 -0.003138 0.005603 0.000000 0.031985 0.000000
# 6 0.000000 0.000000 0.000000 0.008135 0.000000 0.026440
#
#
# Mechanical properties :
#
#
# Convention : Reuss Voigt Hill
#
# Bulk Modulus (GPa) = 68.61649 82.94039 75.77844
# Shear Modulus (GPa) = 32.50115 37.75260 35.12688
#
# Velocity S-wave (km/s) = 3.93911 4.24544 4.09514
# Velocity P-wave (km/s) = 7.31078 7.97677 7.65102
#
# Compressibility (1/GPa) = 0.01457376
#
# Stress axis : x y z
#
# Youngs Moduli (GPa) = 71.30766 70.64399 111.66335
#
# Poissons Ratio (x) = 0.46810 0.04232
# Poissons Ratio (y) = 0.47250 0.47739
# Poissons Ratio (z) = 0.02703 0.30202
#
# Static dielectric constant tensor:
#      x y z
#    x 3.621150 0.000000 -0.055010 
#    y 0.000000 3.877960 0.000000 
#    z -0.055010 0.000000 4.108630 
# 
# 
# High freq. dielectric constant tensor:
#      x y z
#    x 1.813340 0.000000 -0.006080 
#    y 0.000000 1.829820 0.000000 
#    z -0.006080 0.000000 1.840900 
# 
# From -- ./inp_files/80953.got.cif
#   From: 2010.06.25/outbox.cif.g09.slc.cpg/sg15_41_cif.got.tgz:80953.got - 2010.06.28 07:06:18.
