data_PCOD8143085
_publ_section_title
;
Structure prediction by ZEFSAII (Michael W. Deem and Ramdas Pophale) SiO2 
 PCOD8143085
Probable space group: C 2/C
;
_chemical_formula_sum "Si O2"
_cell_formula_units_Z 56
_cell_length_a 12.636916
_cell_length_b 9.544669
_cell_length_c 22.616162
_cell_angle_alpha 90.000000
_cell_angle_beta 119.759617
_cell_angle_gamma 90.000000
_cell_volume 2368.091038
_symmetry_space_group_name_H-M "C 2/C"
_symmetry_group_IT_number 15
_symmetry_cell_setting 'monoclinic'
loop_
_space_group_symop_operation_xyz
x,y,z
-x,y,1/2-z
-x,-y,-z
x,-y,1/2+z
1/2+x,1/2+y,z
1/2-x,1/2+y,1/2-z
1/2-x,1/2-y,-z
1/2+x,1/2-y,1/2+z
loop_
_atom_site_type_symbol
_atom_site_label
_atom_site_fract_x
_atom_site_fract_y
_atom_site_fract_z
Si Si1 0.487027 0.275619 0.464598
Si Si2 0.967024 0.624434 0.676345
Si Si3 0.125002 0.887425 0.312156
Si Si4 0.207146 0.218995 0.219784
Si Si5 0.243291 0.164040 0.362717
Si Si6 0.866347 0.066349 0.410232
Si Si7 0.628486 0.861571 0.903627
O O1 0.372423 0.170100 0.432859
O O2 0.436497 0.420381 0.422322
O O3 0.536102 0.311395 0.544135
O O4 0.598811 0.206230 0.459002
O O5 0.836926 0.703118 0.640254
O O6 0.963769 0.490960 0.632328
O O7 0.000000 0.565230 0.750000
O O8 0.067761 0.734634 0.685161
O O9 0.211150 0.845626 0.281365
O O10 0.102200 0.757367 0.348156
O O11 0.000000 0.944004 0.250000
O O12 0.183039 0.016801 0.364545
O O13 0.261367 0.164518 0.296531
O O14 0.203294 0.093526 0.170603
O O15 0.765308 0.075136 0.435142
#
# Coordination Sequence:
#
# PCOD8143085 Si02
#       7
#     8   8   8   8   8   8   8
#     4  11  23  43  69  92 133 178 215 272 336 392
#     4  10  21  40  61  95 134 169 211 272 328 391
#     4  11  23  37  60 100 126 164 217 266 326 395
#     4  10  23  39  65  90 133 167 211 273 326 384
#     4  11  23  39  65  96 132 168 221 264 334 388
#     4  10  24  44  63 100 131 170 225 270 328 401
#     4  11  22  40  66  94 129 171 223 267 328 395
#
# _framework density 23.647739000000001
#
# number of rings (size 3 to 8) (size 9 to 14) (size 15 to 20)
#    0.000    1.429    1.429    3.857    6.000    2.286 
#    0.000    8.571    0.000    0.000    0.000    0.000 
#    0.000    0.000    0.000    0.000    0.000    0.000 
#
# Total GULP energy -347173.807746 kJ/mol
# GULP energy per Si atom -12399.064562 kJ/mol
# Density = 2.359392 g / cm^3
# Si number density = 23.647739 Si / 1000 Ang^3
#
#
#
# Elastic Constant Matrix: (Units=GPa)
#
#
# Indices 1 2 3 4 5 6 
#
# 1 72.7657 -0.7725 2.2560 0.0000 6.1252 0.0000
# 2 -0.7725 85.1961 -8.5432 0.0000 -4.7916 0.0000
# 3 2.2560 -8.5432 29.0628 0.0000 9.2493 0.0000
# 4 0.0000 0.0000 0.0000 29.7179 0.0000 5.8508
# 5 6.1252 -4.7916 9.2493 0.0000 29.2542 0.0000
# 6 0.0000 0.0000 0.0000 5.8508 0.0000 23.8434
#
#
#
# Elastic Compliance Matrix: (Units=1/GPa)
#
#
# Indices 1 2 3 4 5 6 
#
# 1 0.013990 -0.000054 -0.000185 0.000000 -0.002879 0.000000
# 2 -0.000054 0.012118 0.003259 0.000000 0.000966 0.000000
# 3 -0.000185 0.003259 0.039136 0.000000 -0.011801 0.000000
# 4 0.000000 0.000000 0.000000 0.035358 0.000000 -0.008676
# 5 -0.002879 0.000966 -0.011801 0.000000 0.038675 0.000000
# 6 0.000000 0.000000 0.000000 -0.008676 0.000000 0.044069
#
#
# Mechanical properties :
#
#
# Convention : Reuss Voigt Hill
#
# Bulk Modulus (GPa) = 14.02820 19.21169 16.61995
# Shear Modulus (GPa) = 24.86705 29.50204 27.18455
#
# Velocity S-wave (km/s) = 3.24630 3.53592 3.39420
# Velocity P-wave (km/s) = 4.47172 4.98117 4.73330
#
# Compressibility (1/GPa) = 0.07128496
#
# Stress axis : x y z
#
# Youngs Moduli (GPa) = 71.47807 82.52012 25.55165
#
# Poissons Ratio (x) = 0.00443 0.00474
# Poissons Ratio (y) = 0.00384 -0.08327
# Poissons Ratio (z) = 0.01325 -0.26894
#
# Static dielectric constant tensor:
#      x y z
#    x 4.452830 0.000000 0.080060 
#    y 0.000000 4.124780 0.000000 
#    z 0.080060 0.000000 4.094640 
# 
# 
# High freq. dielectric constant tensor:
#      x y z
#    x 1.940370 0.000000 0.018870 
#    y 0.000000 1.940420 0.000000 
#    z 0.018870 0.000000 1.913580 
# 
# From -- ./inp_files/242818.got.cif
#   From: 2010.06.25/outbox.cif.g09.slc.cpg/sg15_122_cif.got.tgz:242818.got - 2010.06.28 07:06:18.
