data_PCOD8143089
_publ_section_title
;
Structure prediction by ZEFSAII (Michael W. Deem and Ramdas Pophale) SiO2 
 PCOD8143089
Probable space group: C 2/C
;
_chemical_formula_sum "Si O2"
_cell_formula_units_Z 56
_cell_length_a 8.648292
_cell_length_b 18.456336
_cell_length_c 27.488627
_cell_angle_alpha 90.000000
_cell_angle_beta 38.414518
_cell_angle_gamma 90.000000
_cell_volume 2726.230825
_symmetry_space_group_name_H-M "C 2/C"
_symmetry_group_IT_number 15
_symmetry_cell_setting 'monoclinic'
loop_
_space_group_symop_operation_xyz
x,y,z
-x,y,1/2-z
-x,-y,-z
x,-y,1/2+z
1/2+x,1/2+y,z
1/2-x,1/2+y,1/2-z
1/2-x,1/2-y,-z
1/2+x,1/2-y,1/2+z
loop_
_atom_site_type_symbol
_atom_site_label
_atom_site_fract_x
_atom_site_fract_y
_atom_site_fract_z
Si Si1 0.274038 0.341787 0.411350
Si Si2 0.023757 0.805494 0.983225
Si Si3 0.641610 0.431894 0.022783
Si Si4 0.633830 0.994121 0.121042
Si Si5 0.463588 0.139675 0.314561
Si Si6 0.272246 0.766781 0.269751
Si Si7 0.031113 0.655390 0.870001
O O1 0.245477 0.414577 0.451519
O O2 0.563621 0.320607 0.341770
O O3 0.210056 0.358513 0.371355
O O4 0.093764 0.278011 0.475749
O O5 0.182491 0.837171 0.898754
O O6 0.731178 0.815191 0.044239
O O7 0.086240 0.852024 0.015396
O O8 0.394263 0.480877 0.084697
O O9 0.834781 0.475806 0.941758
O O10 0.483522 0.919757 0.156013
O O11 0.486446 0.054652 0.188029
O O12 0.500000 0.158808 0.250000
O O13 0.661664 0.185690 0.296805
O O14 0.500000 0.770662 0.250000
O O15 0.354057 0.786228 0.194839
#
# Coordination Sequence:
#
# PCOD8143089 Si02
#       7
#     8   8   8   8   8   8   8
#     4  11  21  35  60  89 117 153 196 243 287 335
#     4   9  19  37  60  87 115 151 193 240 291 341
#     4   9  18  35  58  83 116 155 195 235 286 348
#     4   9  20  37  56  83 119 157 191 235 292 350
#     4  10  21  40  62  85 115 150 193 242 292 345
#     4  11  23  40  60  84 115 152 193 241 294 347
#     4  11  22  38  60  88 121 153 195 241 287 345
#
# _framework density 20.541181000000002
#
# number of rings (size 3 to 8) (size 9 to 14) (size 15 to 20)
#    0.000    2.000    0.000    5.571    0.000    4.571 
#    0.000    2.857    0.000    0.000    0.000    0.000 
#    0.000    0.000    0.000    0.000    0.000    0.000 
#
# Total GULP energy -347189.122608 kJ/mol
# GULP energy per Si atom -12399.611522 kJ/mol
# Density = 2.049443 g / cm^3
# Si number density = 20.541181 Si / 1000 Ang^3
#
#
#
# Elastic Constant Matrix: (Units=GPa)
#
#
# Indices 1 2 3 4 5 6 
#
# 1 99.7226 21.1487 37.2866 0.0182 5.6768 0.0214
# 2 21.1487 91.6280 30.0399 0.0292 -3.3673 0.0110
# 3 37.2866 30.0399 85.7029 -0.0046 0.7141 0.0481
# 4 0.0182 0.0292 -0.0046 30.5921 0.0232 3.0668
# 5 5.6768 -3.3673 0.7141 0.0232 31.9788 -0.0506
# 6 0.0214 0.0110 0.0481 3.0668 -0.0506 23.9182
#
#
#
# Elastic Compliance Matrix: (Units=1/GPa)
#
#
# Indices 1 2 3 4 5 6 
#
# 1 0.012245 -0.001318 -0.004847 -0.000005 -0.002204 -0.000005
# 2 -0.001318 0.012535 -0.003834 -0.000014 0.001640 0.000008
# 3 -0.004847 -0.003834 0.015120 0.000011 0.000119 -0.000026
# 4 -0.000005 -0.000014 0.000011 0.033114 -0.000032 -0.004246
# 5 -0.002204 0.001640 0.000119 -0.000032 0.031832 0.000072
# 6 -0.000005 0.000008 -0.000026 -0.004246 0.000072 0.042354
#
#
# Mechanical properties :
#
#
# Convention : Reuss Voigt Hill
#
# Bulk Modulus (GPa) = 50.24655 50.44488 50.34572
# Shear Modulus (GPa) = 28.76334 29.86969 29.31652
#
# Velocity S-wave (km/s) = 3.74609 3.81745 3.78194
# Velocity P-wave (km/s) = 6.57460 6.63640 6.60557
#
# Compressibility (1/GPa) = 0.01990186
#
# Stress axis : x y z
#
# Youngs Moduli (GPa) = 81.66457 79.77582 66.13817
#
# Poissons Ratio (x) = 0.10516 0.32058
# Poissons Ratio (y) = 0.10765 0.25356
# Poissons Ratio (z) = 0.39583 0.30585
#
# Static dielectric constant tensor:
#      x y z
#    x 3.481740 0.000000 -0.027630 
#    y 0.000000 3.809140 0.000040 
#    z -0.027630 0.000040 3.701430 
# 
# 
# High freq. dielectric constant tensor:
#      x y z
#    x 1.786850 0.000000 0.005780 
#    y 0.000000 1.805200 0.000000 
#    z 0.005780 0.000000 1.798850 
# 
# From -- ./inp_files/289712.got.cif
#   From: 2010.06.25/outbox.cif.g09.slc.cpg/sg15_145_cif.got.tgz:289712.got - 2010.06.28 07:06:18.
