data_PCOD8143676
_publ_section_title
;
Structure prediction by ZEFSAII (Michael W. Deem and Ramdas Pophale) SiO2 
 PCOD8143676
Probable space group: C 2/C
;
_chemical_formula_sum "Si O2"
_cell_formula_units_Z 60
_cell_length_a 21.656779
_cell_length_b 23.496770
_cell_length_c 8.730670
_cell_angle_alpha 90.000000
_cell_angle_beta 138.995121
_cell_angle_gamma 90.000000
_cell_volume 2914.976514
_symmetry_space_group_name_H-M "C 2/C"
_symmetry_group_IT_number 15
_symmetry_cell_setting 'monoclinic'
loop_
_space_group_symop_operation_xyz
x,y,z
-x,y,1/2-z
-x,-y,-z
x,-y,1/2+z
1/2+x,1/2+y,z
1/2-x,1/2+y,1/2-z
1/2-x,1/2-y,-z
1/2+x,1/2-y,1/2+z
loop_
_atom_site_type_symbol
_atom_site_label
_atom_site_fract_x
_atom_site_fract_y
_atom_site_fract_z
Si Si1 0.000000 0.541435 0.750000
Si Si2 0.220680 0.345259 0.620810
Si Si3 0.908070 0.630731 0.352771
Si Si4 0.458608 0.444153 0.840920
Si Si5 0.050453 0.719386 0.682130
Si Si6 0.061299 0.830983 0.513400
Si Si7 0.655825 0.955716 0.990882
Si Si8 0.255585 0.955828 0.022638
O O1 0.073840 0.500910 0.803435
O O2 0.953306 0.580146 0.534277
O O3 0.179765 0.343309 0.716490
O O4 0.158269 0.302741 0.398126
O O5 0.329469 0.328182 0.828869
O O6 0.212737 0.408887 0.540784
O O7 0.869421 0.606641 0.119917
O O8 0.987635 0.677198 0.459540
O O9 0.500000 0.434551 0.750000
O O10 0.475425 0.390046 0.982612
O O11 0.348157 0.448778 0.606662
O O12 0.500000 0.500000 0.000000
O O13 0.045881 0.782450 0.609390
O O14 0.000000 0.718086 0.750000
O O15 0.000000 0.818010 0.250000
O O16 0.742436 0.982283 0.055476
O O17 0.674318 0.950347 0.204139
#
# Coordination Sequence:
#
# PCOD8143676 Si02
#       8
#     4   8   8   8   8   8   8   8
#     4  12  20  36  58  88 134 164 202 236 312 370
#     4  10  21  41  63  86 121 165 203 252 313 367
#     4  11  21  38  61  89 128 169 205 248 310 373
#     4  11  24  43  66  90 119 161 208 259 315 364
#     4  10  21  42  66  87 122 163 206 253 308 371
#     4  11  25  42  65  93 122 158 209 263 309 364
#     4  12  23  33  56  92 130 165 199 247 302 381
#     4  11  22  37  57  87 124 160 206 249 306 370
#
# _framework density 20.583355999999998
#
# number of rings (size 3 to 8) (size 9 to 14) (size 15 to 20)
#    0.000    1.067    4.667    2.400    1.867    5.333 
#    0.000    2.667    0.000    0.000    0.000    0.000 
#    0.000    0.000    0.000    0.000    0.000    0.000 
#
# Total GULP energy -372022.871392 kJ/mol
# GULP energy per Si atom -12400.762380 kJ/mol
# Density = 2.053651 g / cm^3
# Si number density = 20.583356 Si / 1000 Ang^3
#
#
#
# Elastic Constant Matrix: (Units=GPa)
#
#
# Indices 1 2 3 4 5 6 
#
# 1 57.8008 13.0864 23.8677 0.0000 15.9086 0.0000
# 2 13.0864 107.6676 34.8057 0.0000 12.2337 0.0000
# 3 23.8677 34.8057 84.3837 0.0000 3.1253 0.0000
# 4 0.0000 0.0000 0.0000 30.4669 0.0000 -5.1171
# 5 15.9086 12.2337 3.1253 0.0000 25.5092 0.0000
# 6 0.0000 0.0000 0.0000 -5.1171 0.0000 29.6004
#
#
#
# Elastic Compliance Matrix: (Units=1/GPa)
#
#
# Indices 1 2 3 4 5 6 
#
# 1 0.023786 0.000868 -0.006551 0.000000 -0.014447 0.000000
# 2 0.000868 0.011319 -0.004715 0.000000 -0.005392 0.000000
# 3 -0.006551 -0.004715 0.015483 0.000000 0.004449 0.000000
# 4 0.000000 0.000000 0.000000 0.033804 0.000000 0.005844
# 5 -0.014447 -0.005392 0.004449 0.000000 0.050252 0.000000
# 6 0.000000 0.000000 0.000000 0.005844 0.000000 0.034794
#
#
# Mechanical properties :
#
#
# Convention : Reuss Voigt Hill
#
# Bulk Modulus (GPa) = 33.56403 43.70797 38.63600
# Shear Modulus (GPa) = 24.97957 28.98814 26.98385
#
# Velocity S-wave (km/s) = 3.48743 3.75684 3.62464
# Velocity P-wave (km/s) = 5.70596 6.33239 6.02732
#
# Compressibility (1/GPa) = 0.02979380
#
# Stress axis : x y z
#
# Youngs Moduli (GPa) = 42.04222 88.34614 64.58560
#
# Poissons Ratio (x) = -0.07671 0.42308
# Poissons Ratio (y) = -0.03650 0.30450
# Poissons Ratio (z) = 0.27541 0.41652
#
# Static dielectric constant tensor:
#      x y z
#    x 3.907050 0.000000 0.193150 
#    y 0.000000 3.828220 0.000000 
#    z 0.193150 0.000000 3.794100 
# 
# 
# High freq. dielectric constant tensor:
#      x y z
#    x 1.812930 0.000000 0.008930 
#    y 0.000000 1.801140 0.000000 
#    z 0.008930 0.000000 1.801670 
# 
# From -- ./inp_files/58793.got.cif
#   From: 2010.06.25/outbox.cif.g09.slc.cpg/sg15_30_cif.got.tgz:58793.got - 2010.06.28 07:06:18.
