data_PCOD8143808
_publ_section_title
;
Structure prediction by ZEFSAII (Michael W. Deem and Ramdas Pophale) SiO2 
 PCOD8143808
Probable space group: C 2/C
;
_chemical_formula_sum "Si O2"
_cell_formula_units_Z 40
_cell_length_a 17.086228
_cell_length_b 5.408627
_cell_length_c 18.337162
_cell_angle_alpha 90.000000
_cell_angle_beta 88.041860
_cell_angle_gamma 90.000000
_cell_volume 1693.603233
_symmetry_space_group_name_H-M "C 2/C"
_symmetry_group_IT_number 15
_symmetry_cell_setting 'monoclinic'
loop_
_space_group_symop_operation_xyz
x,y,z
-x,y,1/2-z
-x,-y,-z
x,-y,1/2+z
1/2+x,1/2+y,z
1/2-x,1/2+y,1/2-z
1/2-x,1/2-y,-z
1/2+x,1/2-y,1/2+z
loop_
_atom_site_type_symbol
_atom_site_label
_atom_site_fract_x
_atom_site_fract_y
_atom_site_fract_z
Si Si1 0.673185 0.545036 0.314766
Si Si2 0.978400 0.313798 0.169479
Si Si3 0.472354 0.189213 0.060605
Si Si4 0.901955 0.077214 0.433251
Si Si5 0.256915 0.454618 0.845108
O O1 0.579098 0.573262 0.330266
O O2 0.688810 0.551291 0.228125
O O3 0.701744 0.288362 0.348908
O O4 0.711488 0.786437 0.350580
O O5 0.934872 0.547633 0.131762
O O6 0.000000 0.392756 0.250000
O O7 0.057979 0.279089 0.121283
O O8 0.550101 0.329508 0.084447
O O9 0.408706 0.362073 0.020171
O O10 0.500000 0.000000 0.000000
O O11 0.811353 0.051861 0.415125
#
# Coordination Sequence:
#
# PCOD8143808 Si02
#       5
#     8   8   8   8   8
#     4  10  23  39  59  97 133 164 215 272 324 389
#     4  11  22  38  64  98 125 164 218 275 325 378
#     4   9  22  39  64  91 129 163 223 264 319 388
#     4  10  21  41  65  89 125 177 217 262 325 390
#     4  10  22  40  63  89 134 175 209 262 336 388
#
# _framework density 23.618281
#
# number of rings (size 3 to 8) (size 9 to 14) (size 15 to 20)
#    0.000    2.000    2.000    0.000    8.400    2.400 
#    0.000    2.000    0.000    0.000    0.000    0.000 
#    0.000    0.000    0.000    0.000    0.000    0.000 
#
# Total GULP energy -247888.098143 kJ/mol
# GULP energy per Si atom -12394.404907 kJ/mol
# Density = 2.356452 g / cm^3
# Si number density = 23.618281 Si / 1000 Ang^3
#
#
#
# Elastic Constant Matrix: (Units=GPa)
#
#
# Indices 1 2 3 4 5 6 
#
# 1 66.5553 15.4941 25.8976 0.0000 21.3293 0.0000
# 2 15.4941 120.2621 31.6643 0.0000 17.2938 0.0000
# 3 25.8976 31.6643 111.4743 0.0000 29.7069 0.0000
# 4 0.0000 0.0000 0.0000 15.9308 0.0000 -1.1220
# 5 21.3293 17.2938 29.7069 0.0000 35.6904 0.0000
# 6 0.0000 0.0000 0.0000 -1.1220 0.0000 29.1608
#
#
#
# Elastic Compliance Matrix: (Units=1/GPa)
#
#
# Indices 1 2 3 4 5 6 
#
# 1 0.018893 -0.000616 -0.001651 0.000000 -0.009618 0.000000
# 2 -0.000616 0.009241 -0.001782 0.000000 -0.002626 0.000000
# 3 -0.001651 -0.001782 0.012037 0.000000 -0.008169 0.000000
# 4 0.000000 0.000000 0.000000 0.062942 0.000000 0.002422
# 5 -0.009618 -0.002626 -0.008169 0.000000 0.041839 0.000000
# 6 0.000000 0.000000 0.000000 0.002422 0.000000 0.034386
#
#
# Mechanical properties :
#
#
# Convention : Reuss Voigt Hill
#
# Bulk Modulus (GPa) = 31.17834 49.37820 40.27827
# Shear Modulus (GPa) = 25.23610 31.17212 28.20411
#
# Velocity S-wave (km/s) = 3.27234 3.63689 3.45942
# Velocity P-wave (km/s) = 5.24473 6.21193 5.74871
#
# Compressibility (1/GPa) = 0.03207354
#
# Stress axis : x y z
#
# Youngs Moduli (GPa) = 52.92849 108.20837 83.07423
#
# Poissons Ratio (x) = 0.06669 0.13716
# Poissons Ratio (y) = 0.03262 0.14803
# Poissons Ratio (z) = 0.08739 0.19282
#
# Static dielectric constant tensor:
#      x y z
#    x 1.657850 0.000000 -0.175300 
#    y 0.000000 22.505230 0.000000 
#    z -0.175300 0.000000 4.541330 
# 
# 
# High freq. dielectric constant tensor:
#      x y z
#    x 1.913170 0.000000 0.005890 
#    y 0.000000 1.947120 0.000000 
#    z 0.005890 0.000000 1.936260 
# 
# From -- ./inp_files/207979.got.cif
#   From: 2010.06.25/outbox.cif.g09.slc.cpg/sg15_104_cif.got.tgz:207979.got - 2010.06.28 07:06:18.
