data_PCOD8143361
_publ_section_title
;
Structure prediction by ZEFSAII (Michael W. Deem and Ramdas Pophale) SiO2 
 PCOD8143361
Probable space group: C 2/C
;
_chemical_formula_sum "Si O2"
_cell_formula_units_Z 52
_cell_length_a 22.199480
_cell_length_b 11.508009
_cell_length_c 8.704867
_cell_angle_alpha 90.000000
_cell_angle_beta 88.323302
_cell_angle_gamma 90.000000
_cell_volume 2222.896020
_symmetry_space_group_name_H-M "C 2/C"
_symmetry_group_IT_number 15
_symmetry_cell_setting 'monoclinic'
loop_
_space_group_symop_operation_xyz
x,y,z
-x,y,1/2-z
-x,-y,-z
x,-y,1/2+z
1/2+x,1/2+y,z
1/2-x,1/2+y,1/2-z
1/2-x,1/2-y,-z
1/2+x,1/2-y,1/2+z
loop_
_atom_site_type_symbol
_atom_site_label
_atom_site_fract_x
_atom_site_fract_y
_atom_site_fract_z
Si Si1 0.000000 0.319478 0.750000
Si Si2 0.249206 0.086833 0.796605
Si Si3 0.591906 0.916181 0.975854
Si Si4 0.170535 0.980765 0.564136
Si Si5 0.397289 0.707641 0.956066
Si Si6 0.361118 0.252754 0.786432
Si Si7 0.844784 0.588514 0.328722
O O1 0.032479 0.402119 0.874363
O O2 0.043939 0.233767 0.651294
O O3 0.293923 0.196640 0.783151
O O4 0.225284 0.055580 0.630293
O O5 0.284196 0.978351 0.872103
O O6 0.192152 0.097504 0.916876
O O7 0.647770 0.925230 0.854596
O O8 0.599078 0.802880 0.081998
O O9 0.596818 0.030797 0.084546
O O10 0.146095 0.889976 0.690462
O O11 0.116392 0.070559 0.530806
O O12 0.342003 0.775709 0.874042
O O13 0.399234 0.762757 0.126915
#
# Coordination Sequence:
#
# PCOD8143361 Si02
#       7
#     4   8   8   8   8   8   8
#     4  10  26  46  74  98 132 184 228 292 344 390
#     4  11  23  39  67  99 138 180 217 270 347 403
#     4  10  22  42  69  99 136 172 231 280 339 397
#     4  12  25  40  65 100 138 184 227 268 335 417
#     4  11  25  44  66  97 137 178 235 285 332 401
#     4  11  24  44  66  98 138 179 225 284 329 415
#     4  10  21  40  66 101 138 174 219 280 334 412
#
# _framework density 23.392906
#
# number of rings (size 3 to 8) (size 9 to 14) (size 15 to 20)
#    0.000    1.231    1.538    5.077    6.462    4.308 
#    0.000    3.077    0.000    0.000    0.000    0.000 
#    0.000    0.000    0.000    0.000    0.000    0.000 
#
# Total GULP energy -322187.619562 kJ/mol
# GULP energy per Si atom -12391.831522 kJ/mol
# Density = 2.333966 g / cm^3
# Si number density = 23.392906 Si / 1000 Ang^3
#
#
#
# Elastic Constant Matrix: (Units=GPa)
#
#
# Indices 1 2 3 4 5 6 
#
# 1 47.5794 -0.6429 16.8377 0.0000 -1.5359 0.0000
# 2 -0.6429 94.0198 22.4331 0.0000 -7.2449 0.0000
# 3 16.8377 22.4331 142.4896 0.0000 -10.2718 0.0000
# 4 0.0000 0.0000 0.0000 34.6752 0.0000 3.2617
# 5 -1.5359 -7.2449 -10.2718 0.0000 41.8671 0.0000
# 6 0.0000 0.0000 0.0000 3.2617 0.0000 15.8742
#
#
#
# Elastic Compliance Matrix: (Units=1/GPa)
#
#
# Indices 1 2 3 4 5 6 
#
# 1 0.021996 0.000818 -0.002708 0.000000 0.000284 0.000000
# 2 0.000818 0.011176 -0.001746 0.000000 0.001536 0.000000
# 3 -0.002708 -0.001746 0.007720 0.000000 0.001493 0.000000
# 4 0.000000 0.000000 0.000000 0.029407 0.000000 -0.006042
# 5 0.000284 0.001536 0.001493 0.000000 0.024528 0.000000
# 6 0.000000 0.000000 0.000000 -0.006042 0.000000 0.064237
#
#
# Mechanical properties :
#
#
# Convention : Reuss Voigt Hill
#
# Bulk Modulus (GPa) = 29.74133 40.14939 34.94536
# Shear Modulus (GPa) = 28.16233 34.84735 31.50484
#
# Velocity S-wave (km/s) = 3.47347 3.86379 3.67382
# Velocity P-wave (km/s) = 5.36918 6.09143 5.74167
#
# Compressibility (1/GPa) = 0.03362325
#
# Stress axis : x y z
#
# Youngs Moduli (GPa) = 45.46302 89.47345 129.52650
#
# Poissons Ratio (x) = -0.07322 0.35070
# Poissons Ratio (y) = -0.03720 0.22610
# Poissons Ratio (z) = 0.12309 0.15618
#
# Static dielectric constant tensor:
#      x y z
#    x 3.810920 0.000000 0.012290 
#    y 0.000000 4.015290 0.000000 
#    z 0.012290 0.000000 4.384500 
# 
# 
# High freq. dielectric constant tensor:
#      x y z
#    x 1.885810 0.000000 -0.000790 
#    y 0.000000 1.919360 0.000000 
#    z -0.000790 0.000000 1.955270 
# 
# From -- ./inp_files/65129.got.cif
#   From: 2010.06.25/outbox.cif.g09.slc.cpg/sg15_33_cif.got.tgz:65129.got - 2010.06.28 07:06:18.
