data_PCOD8143173
_publ_section_title
;
Structure prediction by ZEFSAII (Michael W. Deem and Ramdas Pophale) SiO2 
 PCOD8143173
Probable space group: C 2/C
;
_chemical_formula_sum "Si O2"
_cell_formula_units_Z 60
_cell_length_a 11.920989
_cell_length_b 27.322042
_cell_length_c 9.141253
_cell_angle_alpha 90.000000
_cell_angle_beta 73.557946
_cell_angle_gamma 90.000000
_cell_volume 2855.604103
_symmetry_space_group_name_H-M "C 2/C"
_symmetry_group_IT_number 15
_symmetry_cell_setting 'monoclinic'
loop_
_space_group_symop_operation_xyz
x,y,z
-x,y,1/2-z
-x,-y,-z
x,-y,1/2+z
1/2+x,1/2+y,z
1/2-x,1/2+y,1/2-z
1/2-x,1/2-y,-z
1/2+x,1/2-y,1/2+z
loop_
_atom_site_type_symbol
_atom_site_label
_atom_site_fract_x
_atom_site_fract_y
_atom_site_fract_z
Si Si1 0.234230 0.098413 0.731790
Si Si2 0.500000 0.206784 0.750000
Si Si3 0.081205 0.475788 0.353484
Si Si4 0.312293 0.151807 0.978345
Si Si5 0.371178 0.620260 0.030143
Si Si6 0.376768 0.699727 0.245002
Si Si7 0.926099 0.951298 0.000397
Si Si8 0.751572 0.437658 0.684502
O O1 0.354072 0.074597 0.623805
O O2 0.258139 0.142036 0.837711
O O3 0.157275 0.120690 0.630508
O O4 0.170040 0.053058 0.836441
O O5 0.441071 0.175253 0.902841
O O6 0.604446 0.241541 0.776487
O O7 0.177283 0.516557 0.284138
O O8 0.000000 0.461347 0.250000
O O9 0.000000 0.500000 0.500000
O O10 0.227029 0.187641 0.101771
O O11 0.327733 0.100225 0.057616
O O12 0.354551 0.675776 0.094507
O O13 0.281580 0.586720 0.151163
O O14 0.499530 0.598485 0.012089
O O15 0.500000 0.675435 0.250000
O O16 0.864172 0.953526 0.864302
O O17 0.000000 0.000000 0.000000
#
# Coordination Sequence:
#
# PCOD8143173 Si02
#       8
#     8   4   8   8   8   8   8   8
#     4  11  24  36  59  91 124 161 208 256 306 370
#     4  10  22  38  72  88 116 160 220 258 320 388
#     4  12  24  39  56  81 121 167 210 249 289 348
#     4  10  21  40  63  92 119 160 212 261 307 385
#     4  11  20  37  58  89 123 154 190 253 316 372
#     4   9  20  38  65  90 117 156 201 252 332 379
#     4  11  21  36  59  87 125 164 205 246 306 374
#     4  10  22  38  58  86 121 164 208 248 299 367
#
# _framework density 21.011316999999998
#
# number of rings (size 3 to 8) (size 9 to 14) (size 15 to 20)
#    0.400    1.067    0.000    7.600    2.800    1.067 
#    0.000    0.667    0.000    3.200    0.000    0.000 
#    0.000    0.000    0.000    0.000    0.000    0.000 
#
# Total GULP energy -371783.269240 kJ/mol
# GULP energy per Si atom -12392.775641 kJ/mol
# Density = 2.096349 g / cm^3
# Si number density = 21.011317 Si / 1000 Ang^3
#
#
#
# Elastic Constant Matrix: (Units=GPa)
#
#
# Indices 1 2 3 4 5 6 
#
# 1 72.2545 26.8105 19.8748 0.0000 -4.8655 0.0000
# 2 26.8105 80.9847 14.8264 0.0000 -8.7819 0.0000
# 3 19.8748 14.8264 78.4623 0.0000 -4.8258 0.0000
# 4 0.0000 0.0000 0.0000 23.9864 0.0000 -9.9820
# 5 -4.8655 -8.7819 -4.8258 0.0000 39.4755 0.0000
# 6 0.0000 0.0000 0.0000 -9.9820 0.0000 30.3761
#
#
#
# Elastic Compliance Matrix: (Units=1/GPa)
#
#
# Indices 1 2 3 4 5 6 
#
# 1 0.016563 -0.004827 -0.003248 0.000000 0.000571 0.000000
# 2 -0.004827 0.014461 -0.001359 0.000000 0.002456 0.000000
# 3 -0.003248 -0.001359 0.013886 0.000000 0.000995 0.000000
# 4 0.000000 0.000000 0.000000 0.048295 0.000000 0.015870
# 5 0.000571 0.002456 0.000995 0.000000 0.026070 0.000000
# 6 0.000000 0.000000 0.000000 0.015870 0.000000 0.038136
#
#
# Mechanical properties :
#
#
# Convention : Reuss Voigt Hill
#
# Bulk Modulus (GPa) = 38.39968 39.41388 38.90678
# Shear Modulus (GPa) = 27.03302 30.11359 28.57331
#
# Velocity S-wave (km/s) = 3.59080 3.78988 3.69168
# Velocity P-wave (km/s) = 5.95879 6.16036 6.06041
#
# Compressibility (1/GPa) = 0.02604188
#
# Stress axis : x y z
#
# Youngs Moduli (GPa) = 60.37604 69.15133 72.01629
#
# Poissons Ratio (x) = 0.33377 0.23393
# Poissons Ratio (y) = 0.29142 0.09786
# Poissons Ratio (z) = 0.19612 0.09397
#
# Static dielectric constant tensor:
#      x y z
#    x 3.830160 0.000000 -0.370960 
#    y 0.000000 2.913260 0.000000 
#    z -0.370960 0.000000 3.872250 
# 
# 
# High freq. dielectric constant tensor:
#      x y z
#    x 1.811450 0.000000 -0.022460 
#    y 0.000000 1.812500 0.000000 
#    z -0.022460 0.000000 1.825880 
# 
# From -- ./inp_files/35653.got.cif
#   From: 2010.06.25/outbox.cif.g09.slc.cpg/sg15_18_cif.got.tgz:35653.got - 2010.06.28 07:06:18.
