data_PCOD8143432
_publ_section_title
;
Structure prediction by ZEFSAII (Michael W. Deem and Ramdas Pophale) SiO2 
 PCOD8143432
Probable space group: C 2/C
;
_chemical_formula_sum "Si O2"
_cell_formula_units_Z 36
_cell_length_a 14.346048
_cell_length_b 23.380216
_cell_length_c 8.128911
_cell_angle_alpha 90.000000
_cell_angle_beta 37.056480
_cell_angle_gamma 90.000000
_cell_volume 1643.023339
_symmetry_space_group_name_H-M "C 2/C"
_symmetry_group_IT_number 15
_symmetry_cell_setting 'monoclinic'
loop_
_space_group_symop_operation_xyz
x,y,z
-x,y,1/2-z
-x,-y,-z
x,-y,1/2+z
1/2+x,1/2+y,z
1/2-x,1/2+y,1/2-z
1/2-x,1/2-y,-z
1/2+x,1/2-y,1/2+z
loop_
_atom_site_type_symbol
_atom_site_label
_atom_site_fract_x
_atom_site_fract_y
_atom_site_fract_z
Si Si1 0.791729 0.451216 0.880378
Si Si2 0.379754 0.823602 0.299211
Si Si3 0.444850 0.298401 0.643960
Si Si4 0.136884 0.566137 0.845941
Si Si5 0.000000 0.872369 0.250000
O O1 0.761980 0.519209 0.896385
O O2 0.953705 0.438081 0.560099
O O3 0.817686 0.440892 0.032368
O O4 0.650488 0.412672 0.012713
O O5 0.500000 0.855231 0.250000
O O6 0.471075 0.770133 0.085051
O O7 0.239185 0.803358 0.610970
O O8 0.312346 0.869432 0.266479
O O9 0.500000 0.318167 0.750000
O O10 0.521915 0.333594 0.384066
#
# Coordination Sequence:
#
# PCOD8143432 Si02
#       5
#     8   8   8   8   4
#     4  10  24  39  62  93 123 168 213 256 325 365
#     4  10  21  40  67  89 123 172 207 257 318 381
#     4  10  23  42  64  96 128 163 209 263 325 375
#     4  10  22  42  61  88 126 168 214 259 304 394
#     4  12  24  42  64 102 130 162 212 274 318 380
#
# _framework density 21.910826
#
# number of rings (size 3 to 8) (size 9 to 14) (size 15 to 20)
#    0.000    1.778    0.000    2.667    9.333    2.667 
#    2.000   12.222    0.000    0.000    0.000    0.000 
#    0.000    0.000    0.000    0.000    0.000    0.000 
#
# Total GULP energy -223009.681009 kJ/mol
# GULP energy per Si atom -12389.426723 kJ/mol
# Density = 2.186096 g / cm^3
# Si number density = 21.910826 Si / 1000 Ang^3
#
#
#
# Elastic Constant Matrix: (Units=GPa)
#
#
# Indices 1 2 3 4 5 6 
#
# 1 92.5800 58.6039 26.5293 0.0000 16.5657 0.0000
# 2 58.6039 153.6939 52.1355 0.0000 19.1485 0.0000
# 3 26.5293 52.1355 62.0394 0.0000 11.6148 0.0000
# 4 0.0000 0.0000 0.0000 35.7427 0.0000 -0.5573
# 5 16.5657 19.1485 11.6148 0.0000 28.8513 0.0000
# 6 0.0000 0.0000 0.0000 -0.5573 0.0000 35.5074
#
#
#
# Elastic Compliance Matrix: (Units=1/GPa)
#
#
# Indices 1 2 3 4 5 6 
#
# 1 0.015050 -0.004551 -0.001686 0.000000 -0.004942 0.000000
# 2 -0.004551 0.010759 -0.006757 0.000000 -0.001808 0.000000
# 3 -0.001686 -0.006757 0.023250 0.000000 -0.003907 0.000000
# 4 0.000000 0.000000 0.000000 0.027985 0.000000 0.000439
# 5 -0.004942 -0.001808 -0.003907 0.000000 0.040271 0.000000
# 6 0.000000 0.000000 0.000000 0.000439 0.000000 0.028170
#
#
# Mechanical properties :
#
#
# Convention : Reuss Voigt Hill
#
# Bulk Modulus (GPa) = 43.34533 64.76119 54.05326
# Shear Modulus (GPa) = 27.90787 31.42326 29.66557
#
# Velocity S-wave (km/s) = 3.57277 3.79112 3.68356
# Velocity P-wave (km/s) = 6.07002 6.98458 6.54329
#
# Compressibility (1/GPa) = 0.02307054
#
# Stress axis : x y z
#
# Youngs Moduli (GPa) = 66.44696 92.94585 43.01167
#
# Poissons Ratio (x) = 0.42298 0.07252
# Poissons Ratio (y) = 0.30239 0.29063
# Poissons Ratio (z) = 0.11203 0.62803
#
# Static dielectric constant tensor:
#      x y z
#    x 3.888650 0.000000 -0.204030 
#    y 0.000000 4.386780 0.000000 
#    z -0.204030 0.000000 3.843650 
# 
# 
# High freq. dielectric constant tensor:
#      x y z
#    x 1.865260 0.000000 -0.007450 
#    y 0.000000 1.875050 0.000000 
#    z -0.007450 0.000000 1.834300 
# 
# From -- ./inp_files/41183.got.cif
#   From: 2010.06.25/outbox.cif.g09.slc.cpg/sg15_21_cif.got.tgz:41183.got - 2010.06.28 07:06:18.
