data_PCOD8143137
_publ_section_title
;
Structure prediction by ZEFSAII (Michael W. Deem and Ramdas Pophale) SiO2 
 PCOD8143137
Probable space group: C 2/C
;
_chemical_formula_sum "Si O2"
_cell_formula_units_Z 64
_cell_length_a 29.775732
_cell_length_b 20.934333
_cell_length_c 15.173880
_cell_angle_alpha 90.000000
_cell_angle_beta 160.775328
_cell_angle_gamma 90.000000
_cell_volume 3114.402214
_symmetry_space_group_name_H-M "C 2/C"
_symmetry_group_IT_number 15
_symmetry_cell_setting 'monoclinic'
loop_
_space_group_symop_operation_xyz
x,y,z
-x,y,1/2-z
-x,-y,-z
x,-y,1/2+z
1/2+x,1/2+y,z
1/2-x,1/2+y,1/2-z
1/2-x,1/2-y,-z
1/2+x,1/2-y,1/2+z
loop_
_atom_site_type_symbol
_atom_site_label
_atom_site_fract_x
_atom_site_fract_y
_atom_site_fract_z
Si Si1 0.474817 0.774107 0.603384
Si Si2 0.882227 0.073545 0.174905
Si Si3 0.010377 0.153563 0.977887
Si Si4 0.150420 0.526039 0.268248
Si Si5 0.862324 0.522650 0.450311
Si Si6 0.721422 0.885501 0.218351
Si Si7 0.567799 0.533623 0.970053
Si Si8 0.726954 0.857117 0.030093
O O1 0.500000 0.750666 0.750000
O O2 0.425609 0.714506 0.453176
O O3 0.356642 0.826562 0.382715
O O4 0.610412 0.803767 0.812466
O O5 0.900028 0.134863 0.270918
O O6 0.852591 0.098008 0.020963
O O7 0.020614 0.031140 0.432636
O O8 0.757678 0.031206 0.981335
O O9 0.856537 0.171152 0.719537
O O10 0.006136 0.093672 0.905340
O O11 0.163265 0.554927 0.192714
O O12 0.174175 0.579111 0.385590
O O13 0.000000 0.500000 0.000000
O O14 0.880144 0.446363 0.470058
O O15 0.731910 0.536776 0.270597
O O16 0.000000 0.550265 0.750000
O O17 0.771839 0.871342 0.213541
O O18 0.500000 0.532798 0.750000
#
# Coordination Sequence:
#
# PCOD8143137 Si02
#       8
#     8   8   8   8   8   8   8   8
#     4  10  23  44  63  86 119 172 218 257 314 381
#     4  11  24  37  61  96 128 165 205 267 329 376
#     4  12  25  37  62  95 128 163 208 270 316 380
#     4  11  22  35  59  95 128 161 213 265 316 375
#     4  11  22  37  63  94 129 171 205 259 328 384
#     4  10  21  40  63  87 123 167 216 259 311 379
#     4  12  22  41  62  95 134 166 206 260 328 386
#     4  11  21  39  64  89 123 166 220 262 307 382
#
# _framework density 20.549689999999998
#
# number of rings (size 3 to 8) (size 9 to 14) (size 15 to 20)
#    0.000    1.000    3.750    5.250    3.500    0.500 
#    0.000    0.000    0.000    0.000    0.000    0.000 
#    0.000    0.000    0.000    0.000    0.000    0.000 
#
# Total GULP energy -396847.847649 kJ/mol
# GULP energy per Si atom -12401.495239 kJ/mol
# Density = 2.050292 g / cm^3
# Si number density = 20.549690 Si / 1000 Ang^3
#
#
#
# Elastic Constant Matrix: (Units=GPa)
#
#
# Indices 1 2 3 4 5 6 
#
# 1 110.6224 54.9581 44.3810 0.0000 7.2721 0.0000
# 2 54.9581 88.8599 35.4532 0.0000 -14.4890 0.0000
# 3 44.3810 35.4532 103.4013 0.0000 15.3446 0.0000
# 4 0.0000 0.0000 0.0000 23.5022 0.0000 -5.0313
# 5 7.2721 -14.4890 15.3446 0.0000 34.5521 0.0000
# 6 0.0000 0.0000 0.0000 -5.0313 0.0000 39.5087
#
#
#
# Elastic Compliance Matrix: (Units=1/GPa)
#
#
# Indices 1 2 3 4 5 6 
#
# 1 0.015015 -0.009332 -0.002350 0.000000 -0.006030 0.000000
# 2 -0.009332 0.021276 -0.005251 0.000000 0.013218 0.000000
# 3 -0.002350 -0.005251 0.013632 0.000000 -0.007761 0.000000
# 4 0.000000 0.000000 0.000000 0.043742 0.000000 0.005570
# 5 -0.006030 0.013218 -0.007761 0.000000 0.039200 0.000000
# 6 0.000000 0.000000 0.000000 0.005570 0.000000 0.026020
#
#
# Mechanical properties :
#
#
# Convention : Reuss Voigt Hill
#
# Bulk Modulus (GPa) = 62.28019 63.60758 62.94388
# Shear Modulus (GPa) = 25.23934 30.71870 27.97902
#
# Velocity S-wave (km/s) = 3.50838 3.87052 3.69389
# Velocity P-wave (km/s) = 6.83993 7.14107 6.99212
#
# Compressibility (1/GPa) = 0.01605647
#
# Stress axis : x y z
#
# Youngs Moduli (GPa) = 66.59839 47.00217 73.35762
#
# Poissons Ratio (x) = 0.43864 0.17241
# Poissons Ratio (y) = 0.62151 0.38518
# Poissons Ratio (z) = 0.15652 0.24680
#
# Static dielectric constant tensor:
#      x y z
#    x 4.179260 0.000000 0.021460 
#    y 0.000000 3.500730 0.000000 
#    z 0.021460 0.000000 3.669650 
# 
# 
# High freq. dielectric constant tensor:
#      x y z
#    x 1.825810 0.000000 0.001510 
#    y 0.000000 1.772660 0.000000 
#    z 0.001510 0.000000 1.803410 
# 
# From -- ./inp_files/183146.got.cif
#   From: 2010.06.25/outbox.cif.g09.slc.cpg/sg15_92_cif.got.tgz:183146.got - 2010.06.28 07:06:18.
