data_PCOD8143412
_publ_section_title
;
Structure prediction by ZEFSAII (Michael W. Deem and Ramdas Pophale) SiO2 
 PCOD8143412
Probable space group: C 2/C
;
_chemical_formula_sum "Si O2"
_cell_formula_units_Z 48
_cell_length_a 16.447439
_cell_length_b 27.056568
_cell_length_c 8.958756
_cell_angle_alpha 90.000000
_cell_angle_beta 146.718506
_cell_angle_gamma 90.000000
_cell_volume 2187.738826
_symmetry_space_group_name_H-M "C 2/C"
_symmetry_group_IT_number 15
_symmetry_cell_setting 'monoclinic'
loop_
_space_group_symop_operation_xyz
x,y,z
-x,y,1/2-z
-x,-y,-z
x,-y,1/2+z
1/2+x,1/2+y,z
1/2-x,1/2+y,1/2-z
1/2-x,1/2-y,-z
1/2+x,1/2-y,1/2+z
loop_
_atom_site_type_symbol
_atom_site_label
_atom_site_fract_x
_atom_site_fract_y
_atom_site_fract_z
Si Si1 0.118950 0.199344 0.555581
Si Si2 0.333345 0.457765 0.301121
Si Si3 0.654246 0.192041 0.148936
Si Si4 0.684561 0.553837 0.392521
Si Si5 0.326742 0.842364 0.131543
Si Si6 0.376784 0.369756 0.179824
O O1 0.149017 0.250486 0.688321
O O2 0.257898 0.174787 0.683101
O O3 0.052683 0.160000 0.571744
O O4 0.000000 0.212049 0.250000
O O5 0.264212 0.508656 0.132751
O O6 0.264386 0.453363 0.358367
O O7 0.508870 0.448372 0.592867
O O8 0.287493 0.416706 0.108224
O O9 0.764017 0.167206 0.431794
O O10 0.714088 0.193291 0.069887
O O11 0.503016 0.160369 0.926981
O O12 0.765691 0.604814 0.475640
O O13 0.500000 0.387670 0.250000
#
# Coordination Sequence:
#
# PCOD8143412 Si02
#       6
#     8   8   8   8   8   8
#     4  12  23  44  67  96 129 179 225 269 330 394
#     4  10  22  39  65 100 128 165 224 271 330 384
#     4  11  26  42  66  97 133 176 221 274 331 398
#     4  10  21  40  66  96 129 172 213 277 328 392
#     4  11  23  44  69  91 136 175 218 271 336 396
#     4  12  26  41  66 100 135 171 224 280 326 396
#
# _framework density 21.940462
#
# number of rings (size 3 to 8) (size 9 to 14) (size 15 to 20)
#    0.000    1.000    3.333    4.000    9.333    0.667 
#    0.000    0.833    0.000    0.000    0.000    0.000 
#    0.000    0.000    0.000    0.000    0.000    0.000 
#
# Total GULP energy -297372.448264 kJ/mol
# GULP energy per Si atom -12390.518678 kJ/mol
# Density = 2.189052 g / cm^3
# Si number density = 21.940462 Si / 1000 Ang^3
#
#
#
# Elastic Constant Matrix: (Units=GPa)
#
#
# Indices 1 2 3 4 5 6 
#
# 1 91.5255 15.3330 12.8517 0.0000 -14.4234 0.0000
# 2 15.3330 115.5765 25.8780 0.0000 0.8140 0.0000
# 3 12.8517 25.8780 53.3181 0.0000 -6.8640 0.0000
# 4 0.0000 0.0000 0.0000 30.9019 0.0000 -11.3334
# 5 -14.4234 0.8140 -6.8640 0.0000 25.8587 0.0000
# 6 0.0000 0.0000 0.0000 -11.3334 0.0000 36.0732
#
#
#
# Elastic Compliance Matrix: (Units=1/GPa)
#
#
# Indices 1 2 3 4 5 6 
#
# 1 0.012396 -0.001359 -0.001484 0.000000 0.006563 0.000000
# 2 -0.001359 0.009921 -0.004789 0.000000 -0.002341 0.000000
# 3 -0.001484 -0.004789 0.022106 0.000000 0.005191 0.000000
# 4 0.000000 0.000000 0.000000 0.036575 0.000000 0.011491
# 5 0.006563 -0.002341 0.005191 0.000000 0.043784 0.000000
# 6 0.000000 0.000000 0.000000 0.011491 0.000000 0.031332
#
#
# Mechanical properties :
#
#
# Convention : Reuss Voigt Hill
#
# Bulk Modulus (GPa) = 34.29327 40.94950 37.62139
# Shear Modulus (GPa) = 27.60951 32.32390 29.96671
#
# Velocity S-wave (km/s) = 3.55122 3.84246 3.69971
# Velocity P-wave (km/s) = 5.69903 6.19601 5.95271
#
# Compressibility (1/GPa) = 0.02916024
#
# Stress axis : x y z
#
# Youngs Moduli (GPa) = 80.67031 100.79275 45.23711
#
# Poissons Ratio (x) = 0.13693 0.06711
# Poissons Ratio (y) = 0.10960 0.21665
# Poissons Ratio (z) = 0.11968 0.48273
#
# Static dielectric constant tensor:
#      x y z
#    x 4.125160 0.000000 -0.268100 
#    y 0.000000 4.120740 0.000000 
#    z -0.268100 0.000000 3.718210 
# 
# 
# High freq. dielectric constant tensor:
#      x y z
#    x 1.859460 0.000000 -0.029010 
#    y 0.000000 1.876790 0.000000 
#    z -0.029010 0.000000 1.840120 
# 
# From -- ./inp_files/43918.got.cif
#   From: 2010.06.25/outbox.cif.g09.slc.cpg/sg15_22_cif.got.tgz:43918.got - 2010.06.28 07:06:18.
