data_PCOD8143039
_publ_section_title
;
Structure prediction by ZEFSAII (Michael W. Deem and Ramdas Pophale) SiO2 
 PCOD8143039
Probable space group: C 2/C
;
_chemical_formula_sum "Si O2"
_cell_formula_units_Z 64
_cell_length_a 12.810996
_cell_length_b 11.694579
_cell_length_c 19.650276
_cell_angle_alpha 90.000000
_cell_angle_beta 108.339987
_cell_angle_gamma 90.000000
_cell_volume 2794.452084
_symmetry_space_group_name_H-M "C 2/C"
_symmetry_group_IT_number 15
_symmetry_cell_setting 'monoclinic'
loop_
_space_group_symop_operation_xyz
x,y,z
-x,y,1/2-z
-x,-y,-z
x,-y,1/2+z
1/2+x,1/2+y,z
1/2-x,1/2+y,1/2-z
1/2-x,1/2-y,-z
1/2+x,1/2-y,1/2+z
loop_
_atom_site_type_symbol
_atom_site_label
_atom_site_fract_x
_atom_site_fract_y
_atom_site_fract_z
Si Si1 0.145530 0.396396 0.666655
Si Si2 0.611010 0.714044 0.411842
Si Si3 0.334432 0.100275 0.484778
Si Si4 0.752607 0.364248 0.456635
Si Si5 0.584611 0.661984 0.707186
Si Si6 0.382286 0.675933 0.233489
Si Si7 0.680620 0.141281 0.682350
Si Si8 0.978038 0.013323 0.575461
O O1 0.126835 0.374815 0.583387
O O2 0.077193 0.298907 0.691286
O O3 0.275624 0.403948 0.715182
O O4 0.108560 0.525339 0.676104
O O5 0.583131 0.830212 0.448019
O O6 0.712050 0.649272 0.470140
O O7 0.636258 0.750107 0.339491
O O8 0.516541 0.616345 0.394386
O O9 0.335137 0.963654 0.502032
O O10 0.750000 0.250000 0.500000
O O11 0.791494 0.329116 0.389633
O O12 0.633271 0.419874 0.429548
O O13 0.500000 0.631620 0.750000
O O14 0.707599 0.633581 0.752786
O O15 0.567955 0.587244 0.635202
O O16 0.500000 0.608536 0.250000
O O17 0.394510 0.759014 0.301163
O O18 0.000000 0.000000 0.500000
#
# Coordination Sequence:
#
# PCOD8143039 Si02
#       8
#     8   8   8   8   8   8   8   8
#     4   9  20  38  61  84 121 163 203 254 324 382
#     4   9  18  34  58  89 118 153 208 256 313 372
#     4   8  16  36  60  80 121 161 197 257 314 372
#     4  10  21  40  60  90 130 169 213 265 323 392
#     4  11  22  39  64  93 127 166 216 267 325 389
#     4  10  22  36  58  89 118 153 204 256 309 371
#     4  10  22  42  60  89 125 170 209 259 329 382
#     4  11  23  38  63  97 125 165 220 272 322 390
#
# _framework density 22.902521
#
# number of rings (size 3 to 8) (size 9 to 14) (size 15 to 20)
#    0.000    2.250    1.250    1.500    1.750    4.500 
#    6.750    1.250    0.000    3.750    0.000    0.000 
#    0.000    0.000    0.000    0.000    0.000    0.000 
#
# Total GULP energy -396461.893345 kJ/mol
# GULP energy per Si atom -12389.434167 kJ/mol
# Density = 2.285039 g / cm^3
# Si number density = 22.902521 Si / 1000 Ang^3
#
#
#
# Elastic Constant Matrix: (Units=GPa)
#
#
# Indices 1 2 3 4 5 6 
#
# 1 48.6251 20.1306 5.3995 0.0000 -11.3783 0.0000
# 2 20.1306 149.9819 71.9947 0.0000 -19.5357 0.0000
# 3 5.3995 71.9947 91.7105 0.0000 -28.8920 0.0000
# 4 0.0000 0.0000 0.0000 36.5943 0.0000 -7.0518
# 5 -11.3783 -19.5357 -28.8920 0.0000 30.6262 0.0000
# 6 0.0000 0.0000 0.0000 -7.0518 0.0000 19.1327
#
#
#
# Elastic Compliance Matrix: (Units=1/GPa)
#
#
# Indices 1 2 3 4 5 6 
#
# 1 0.024548 -0.004568 0.005828 0.000000 0.011704 0.000000
# 2 -0.004568 0.011602 -0.010020 0.000000 -0.003749 0.000000
# 3 0.005828 -0.010020 0.024324 0.000000 0.018721 0.000000
# 4 0.000000 0.000000 0.000000 0.029416 0.000000 0.010842
# 5 0.011704 -0.003749 0.018721 0.000000 0.052269 0.000000
# 6 0.000000 0.000000 0.000000 0.010842 0.000000 0.056262
#
#
# Mechanical properties :
#
#
# Convention : Reuss Voigt Hill
#
# Bulk Modulus (GPa) = 23.28037 53.92969 38.60503
# Shear Modulus (GPa) = 21.71453 30.12351 25.91902
#
# Velocity S-wave (km/s) = 3.08251 3.63063 3.36774
# Velocity P-wave (km/s) = 4.78082 6.41669 5.65818
#
# Compressibility (1/GPa) = 0.04295464
#
# Stress axis : x y z
#
# Youngs Moduli (GPa) = 40.73610 86.19145 41.11108
#
# Poissons Ratio (x) = 0.39371 -0.23959
# Poissons Ratio (y) = 0.18608 0.41193
# Poissons Ratio (z) = -0.23740 0.86364
#
# Static dielectric constant tensor:
#      x y z
#    x 4.058300 0.000000 -0.058490 
#    y 0.000000 4.487670 0.000000 
#    z -0.058490 0.000000 4.242130 
# 
# 
# High freq. dielectric constant tensor:
#      x y z
#    x 1.877580 0.000000 -0.000700 
#    y 0.000000 1.908960 0.000000 
#    z -0.000700 0.000000 1.910720 
# 
# From -- ./inp_files/243752.got.cif
#   From: 2010.06.25/outbox.cif.g09.slc.cpg/sg15_122_cif.got.tgz:243752.got - 2010.06.28 07:06:18.
