data_PCOD8143873
_publ_section_title
;
Structure prediction by ZEFSAII (Michael W. Deem and Ramdas Pophale) SiO2 
 PCOD8143873
Probable space group: C 2/C
;
_chemical_formula_sum "Si O2"
_cell_formula_units_Z 48
_cell_length_a 17.131215
_cell_length_b 14.592989
_cell_length_c 17.790702
_cell_angle_alpha 90.000000
_cell_angle_beta 31.745365
_cell_angle_gamma 90.000000
_cell_volume 2340.081926
_symmetry_space_group_name_H-M "C 2/C"
_symmetry_group_IT_number 15
_symmetry_cell_setting 'monoclinic'
loop_
_space_group_symop_operation_xyz
x,y,z
-x,y,1/2-z
-x,-y,-z
x,-y,1/2+z
1/2+x,1/2+y,z
1/2-x,1/2+y,1/2-z
1/2-x,1/2-y,-z
1/2+x,1/2-y,1/2+z
loop_
_atom_site_type_symbol
_atom_site_label
_atom_site_fract_x
_atom_site_fract_y
_atom_site_fract_z
Si Si1 0.144805 0.661666 0.078398
Si Si2 0.666397 0.302219 0.503519
Si Si3 0.896550 0.629788 0.559628
Si Si4 0.665701 0.484172 0.585889
Si Si5 0.294589 0.940354 0.633590
Si Si6 0.850470 0.766389 0.718663
O O1 0.000000 0.668145 0.250000
O O2 0.250000 0.750000 0.000000
O O3 0.080864 0.651914 0.046393
O O4 0.247053 0.573939 0.014667
O O5 0.750000 0.250000 0.500000
O O6 0.657276 0.411485 0.524873
O O7 0.732729 0.284833 0.367310
O O8 0.504883 0.257230 0.634742
O O9 0.777207 0.547416 0.669300
O O10 0.838117 0.720827 0.647094
O O11 0.042788 0.596961 0.482402
O O12 0.500000 0.510854 0.750000
O O13 0.759629 0.432453 0.573603
O O14 0.182090 0.874072 0.769672
#
# Coordination Sequence:
#
# PCOD8143873 Si02
#       6
#     8   8   8   8   8   8
#     4  11  27  47  71  95 125 176 226 279 332 383
#     4  12  22  36  64 100 136 172 216 266 334 397
#     4  10  24  43  68  92 133 170 224 271 328 400
#     4  11  21  42  67  98 138 168 216 276 323 397
#     4  10  21  41  66  90 131 176 210 266 332 379
#     4  12  22  40  63  98 132 179 215 271 334 392
#
# _framework density 20.512101000000001
#
# number of rings (size 3 to 8) (size 9 to 14) (size 15 to 20)
#    0.000    1.000    5.000    1.000    2.333    5.333 
#    0.000    0.833    0.000    0.000    0.000    0.000 
#    0.000    0.000    0.000    0.000    0.000    0.000 
#
# Total GULP energy -297486.694602 kJ/mol
# GULP energy per Si atom -12395.278942 kJ/mol
# Density = 2.046541 g / cm^3
# Si number density = 20.512101 Si / 1000 Ang^3
#
#
#
# Elastic Constant Matrix: (Units=GPa)
#
#
# Indices 1 2 3 4 5 6 
#
# 1 87.2618 48.5674 41.1189 0.0026 1.9252 -0.0013
# 2 48.5674 153.7724 71.2121 0.0022 9.1168 -0.0012
# 3 41.1189 71.2121 121.8302 0.0042 -5.5040 -0.0026
# 4 0.0026 0.0022 0.0042 40.9454 -0.0022 -0.7114
# 5 1.9252 9.1168 -5.5040 -0.0022 29.4923 0.0011
# 6 -0.0013 -0.0012 -0.0026 -0.7114 0.0011 38.3808
#
#
#
# Elastic Compliance Matrix: (Units=1/GPa)
#
#
# Indices 1 2 3 4 5 6 
#
# 1 0.014711 -0.003155 -0.003147 0.000000 -0.000572 0.000000
# 2 -0.003155 0.010027 -0.004969 0.000000 -0.003821 0.000000
# 3 -0.003147 -0.004969 0.012357 -0.000001 0.004048 0.000000
# 4 0.000000 0.000000 -0.000001 0.024431 0.000002 0.000453
# 5 -0.000572 -0.003821 0.004048 0.000002 0.035881 -0.000001
# 6 0.000000 0.000000 0.000000 0.000453 -0.000001 0.026063
#
#
# Mechanical properties :
#
#
# Convention : Reuss Voigt Hill
#
# Bulk Modulus (GPa) = 68.70794 76.07349 72.39071
# Shear Modulus (GPa) = 33.14243 35.22810 34.18527
#
# Velocity S-wave (km/s) = 4.02400 4.14868 4.08682
# Velocity P-wave (km/s) = 7.42692 7.75348 7.59195
#
# Compressibility (1/GPa) = 0.01455436
#
# Stress axis : x y z
#
# Youngs Moduli (GPa) = 67.97499 99.72803 80.92271
#
# Poissons Ratio (x) = 0.31466 0.25465
# Poissons Ratio (y) = 0.21447 0.40209
# Poissons Ratio (z) = 0.21390 0.49553
#
# Static dielectric constant tensor:
#      x y z
#    x 3.893410 0.000000 -0.249940 
#    y 0.000000 4.162010 0.000000 
#    z -0.249940 0.000000 3.857900 
# 
# 
# High freq. dielectric constant tensor:
#      x y z
#    x 1.809680 0.000000 -0.016720 
#    y 0.000000 1.819240 0.000000 
#    z -0.016720 0.000000 1.782900 
# 
# From -- ./inp_files/66430.got.cif
#   From: 2010.06.25/outbox.cif.g09.slc.cpg/sg15_34_cif.got.tgz:66430.got - 2010.06.28 07:06:18.
