data_PCOD8143638
_publ_section_title
;
Structure prediction by ZEFSAII (Michael W. Deem and Ramdas Pophale) SiO2 
 PCOD8143638
Probable space group: C 2/C
;
_chemical_formula_sum "Si O2"
_cell_formula_units_Z 56
_cell_length_a 31.634807
_cell_length_b 8.483161
_cell_length_c 13.749586
_cell_angle_alpha 90.000000
_cell_angle_beta 45.403745
_cell_angle_gamma 90.000000
_cell_volume 2627.461688
_symmetry_space_group_name_H-M "C 2/C"
_symmetry_group_IT_number 15
_symmetry_cell_setting 'monoclinic'
loop_
_space_group_symop_operation_xyz
x,y,z
-x,y,1/2-z
-x,-y,-z
x,-y,1/2+z
1/2+x,1/2+y,z
1/2-x,1/2+y,1/2-z
1/2-x,1/2-y,-z
1/2+x,1/2-y,1/2+z
loop_
_atom_site_type_symbol
_atom_site_label
_atom_site_fract_x
_atom_site_fract_y
_atom_site_fract_z
Si Si1 0.917318 0.084066 0.539496
Si Si2 0.226179 0.564047 0.326035
Si Si3 0.822008 0.927664 0.815610
Si Si4 0.515014 0.704433 0.617976
Si Si5 0.867921 0.374891 0.131019
Si Si6 0.681551 0.592926 0.947422
Si Si7 0.055201 0.614718 0.408208
O O1 0.883997 0.060983 0.489755
O O2 0.944024 0.259891 0.503723
O O3 0.871465 0.053914 0.703107
O O4 0.970684 0.958725 0.460344
O O5 0.257599 0.518473 0.378287
O O6 0.172398 0.445001 0.390135
O O7 0.274781 0.545602 0.160598
O O8 0.203435 0.742325 0.366897
O O9 0.834390 0.759376 0.744616
O O10 0.820506 0.907549 0.933179
O O11 0.500000 0.660204 0.750000
O O12 0.571776 0.818850 0.517893
O O13 0.454622 0.781496 0.672753
O O14 0.884608 0.511952 0.183127
O O15 0.000000 0.500000 0.500000
#
# Coordination Sequence:
#
# PCOD8143638 Si02
#       7
#     8   8   8   8   8   8   8
#     4  10  22  42  66  93 125 164 214 261 308 385
#     4  11  21  39  63  93 130 159 208 259 306 384
#     4  10  23  41  66  91 129 173 205 251 322 384
#     4  10  23  41  62  90 125 163 214 264 313 369
#     4  10  21  41  63  90 128 165 207 266 310 375
#     4  11  23  41  65  93 127 168 208 254 318 380
#     4  10  21  41  62  86 124 161 205 266 317 355
#
# _framework density 21.313345000000002
#
# number of rings (size 3 to 8) (size 9 to 14) (size 15 to 20)
#    0.000    1.714    2.857    0.857    2.000    1.143 
#    0.000    5.000    0.000    0.000    0.000    0.000 
#    0.000    0.000    0.000    0.000    0.000    0.000 
#
# Total GULP energy -347018.760561 kJ/mol
# GULP energy per Si atom -12393.527163 kJ/mol
# Density = 2.126484 g / cm^3
# Si number density = 21.313345 Si / 1000 Ang^3
#
#
#
# Elastic Constant Matrix: (Units=GPa)
#
#
# Indices 1 2 3 4 5 6 
#
# 1 122.5872 57.8901 43.4885 0.0000 12.4945 0.0001
# 2 57.8901 111.8872 31.5186 -0.0002 5.3582 0.0006
# 3 43.4885 31.5186 83.0594 0.0000 20.3506 0.0000
# 4 0.0000 -0.0002 0.0000 9.5441 0.0000 4.1462
# 5 12.4945 5.3582 20.3506 0.0000 26.8967 0.0000
# 6 0.0001 0.0006 0.0000 4.1462 0.0000 40.9940
#
#
#
# Elastic Compliance Matrix: (Units=1/GPa)
#
#
# Indices 1 2 3 4 5 6 
#
# 1 0.012149 -0.005069 -0.004054 0.000000 -0.001567 0.000000
# 2 -0.005069 0.012148 -0.002381 0.000000 0.001736 0.000000
# 3 -0.004054 -0.002381 0.017785 0.000000 -0.011099 0.000000
# 4 0.000000 0.000000 0.000000 0.109592 0.000000 -0.011084
# 5 -0.001567 0.001736 -0.011099 0.000000 0.045959 0.000000
# 6 0.000000 0.000000 0.000000 -0.011084 0.000000 0.025515
#
#
# Mechanical properties :
#
#
# Convention : Reuss Voigt Hill
#
# Bulk Modulus (GPa) = 52.42631 64.81423 58.62027
# Shear Modulus (GPa) = 19.80099 27.79606 23.79853
#
# Velocity S-wave (km/s) = 3.05133 3.61524 3.34519
# Velocity P-wave (km/s) = 6.08814 6.92118 6.51798
#
# Compressibility (1/GPa) = 0.01907439
#
# Stress axis : x y z
#
# Youngs Moduli (GPa) = 82.31207 82.31934 56.22730
#
# Poissons Ratio (x) = 0.41727 0.22792
# Poissons Ratio (y) = 0.41723 0.13389
# Poissons Ratio (z) = 0.33366 0.19602
#
# Static dielectric constant tensor:
#      x y z
#    x 4.400410 0.000000 -0.071000 
#    y 0.000000 4.200190 0.000000 
#    z -0.071000 0.000000 3.357380 
# 
# 
# High freq. dielectric constant tensor:
#      x y z
#    x 1.865170 0.000000 -0.001770 
#    y 0.000000 1.849560 0.000000 
#    z -0.001770 0.000000 1.786040 
# 
# From -- ./inp_files/125847.got.cif
#   From: 2010.06.25/outbox.cif.g09.slc.cpg/sg15_63_cif.got.tgz:125847.got - 2010.06.28 07:06:18.
