data_PCOD8143516
_publ_section_title
;
Structure prediction by ZEFSAII (Michael W. Deem and Ramdas Pophale) SiO2 
 PCOD8143516
Probable space group: C 2/C
;
_chemical_formula_sum "Si O2"
_cell_formula_units_Z 40
_cell_length_a 27.220251
_cell_length_b 9.265044
_cell_length_c 18.543645
_cell_angle_alpha 90.000000
_cell_angle_beta 24.556857
_cell_angle_gamma 90.000000
_cell_volume 1943.596497
_symmetry_space_group_name_H-M "C 2/C"
_symmetry_group_IT_number 15
_symmetry_cell_setting 'monoclinic'
loop_
_space_group_symop_operation_xyz
x,y,z
-x,y,1/2-z
-x,-y,-z
x,-y,1/2+z
1/2+x,1/2+y,z
1/2-x,1/2+y,1/2-z
1/2-x,1/2-y,-z
1/2+x,1/2-y,1/2+z
loop_
_atom_site_type_symbol
_atom_site_label
_atom_site_fract_x
_atom_site_fract_y
_atom_site_fract_z
Si Si1 0.495375 0.628426 0.406827
Si Si2 0.611073 0.577680 0.555585
Si Si3 0.149943 0.788683 0.578464
Si Si4 0.726804 0.388356 0.692922
Si Si5 0.760471 0.205233 0.778639
O O1 0.432185 0.479225 0.465945
O O2 0.526049 0.709198 0.288884
O O3 0.610195 0.588889 0.299823
O O4 0.403308 0.722092 0.577430
O O5 0.500000 0.638674 0.750000
O O6 0.674314 0.447781 0.513891
O O7 0.709555 0.702690 0.413919
O O8 0.250000 0.750000 0.500000
O O9 0.160004 0.667268 0.503547
O O10 0.697480 0.265439 0.790975
O O11 0.770135 0.537652 0.669907
#
# Coordination Sequence:
#
# PCOD8143516 Si02
#       5
#     8   8   8   8   8
#     4  10  21  40  69  79 123 165 196 238 314 355
#     4  10  21  41  61  85 123 167 195 245 305 356
#     4   9  19  40  65  87 116 162 201 238 308 363
#     4  11  22  39  64  93 117 160 201 249 302 355
#     4  12  22  38  64  90 123 155 206 250 295 362
#
# _framework density 20.580403
#
# number of rings (size 3 to 8) (size 9 to 14) (size 15 to 20)
#    0.000    1.600    4.000    0.600    0.000    0.000 
#    3.600   18.000    0.000    0.000    0.000    0.000 
#    0.000    0.000    0.000    0.000    0.000    0.000 
#
# Total GULP energy -247806.212650 kJ/mol
# GULP energy per Si atom -12390.310632 kJ/mol
# Density = 2.053356 g / cm^3
# Si number density = 20.580403 Si / 1000 Ang^3
#
#
#
# Elastic Constant Matrix: (Units=GPa)
#
#
# Indices 1 2 3 4 5 6 
#
# 1 69.3752 53.4108 27.6204 0.0003 12.2372 -0.0001
# 2 53.4108 140.9014 92.1821 0.0007 18.4924 -0.0003
# 3 27.6204 92.1821 153.3566 0.0007 14.8678 -0.0003
# 4 0.0003 0.0007 0.0007 41.9212 -0.0003 3.3040
# 5 12.2372 18.4924 14.8678 -0.0003 23.8881 0.0001
# 6 -0.0001 -0.0003 -0.0003 3.3040 0.0001 22.6315
#
#
#
# Elastic Compliance Matrix: (Units=1/GPa)
#
#
# Indices 1 2 3 4 5 6 
#
# 1 0.021202 -0.008525 0.001829 0.000000 -0.005400 0.000000
# 2 -0.008525 0.015709 -0.007611 0.000000 -0.003057 0.000000
# 3 0.001829 -0.007611 0.010946 0.000000 -0.001858 0.000000
# 4 0.000000 0.000000 0.000000 0.024132 0.000001 -0.003523
# 5 -0.005400 -0.003057 -0.001858 0.000001 0.048151 0.000000
# 6 0.000000 0.000000 0.000000 -0.003523 0.000000 0.044701
#
#
# Mechanical properties :
#
#
# Convention : Reuss Voigt Hill
#
# Bulk Modulus (GPa) = 51.96390 78.89554 65.42972
# Shear Modulus (GPa) = 25.01641 30.38281 27.69961
#
# Velocity S-wave (km/s) = 3.49025 3.84643 3.67266
# Velocity P-wave (km/s) = 6.44566 7.62530 7.06016
#
# Compressibility (1/GPa) = 0.01924413
#
# Stress axis : x y z
#
# Youngs Moduli (GPa) = 47.16581 63.65713 91.35448
#
# Poissons Ratio (x) = 0.54267 -0.16711
# Poissons Ratio (y) = 0.40208 0.69530
# Poissons Ratio (z) = -0.08628 0.48449
#
# Static dielectric constant tensor:
#      x y z
#    x 3.809560 0.000000 0.325450 
#    y 0.000000 3.816910 0.000000 
#    z 0.325450 0.000000 4.891480 
# 
# 
# High freq. dielectric constant tensor:
#      x y z
#    x 1.804040 0.000000 0.020660 
#    y 0.000000 1.777400 0.000000 
#    z 0.020660 0.000000 1.824820 
# 
# From -- ./inp_files/158762.got.cif
#   From: 2010.06.25/outbox.cif.g09.slc.cpg/sg15_80_cif.got.tgz:158762.got - 2010.06.28 07:06:18.
