data_PCOD8143924
_publ_section_title
;
Structure prediction by ZEFSAII (Michael W. Deem and Ramdas Pophale) SiO2 
 PCOD8143924
Probable space group: C 2/C
;
_chemical_formula_sum "Si O2"
_cell_formula_units_Z 44
_cell_length_a 11.918044
_cell_length_b 13.254017
_cell_length_c 22.216590
_cell_angle_alpha 90.000000
_cell_angle_beta 141.924209
_cell_angle_gamma 90.000000
_cell_volume 2164.243859
_symmetry_space_group_name_H-M "C 2/C"
_symmetry_group_IT_number 15
_symmetry_cell_setting 'monoclinic'
loop_
_space_group_symop_operation_xyz
x,y,z
-x,y,1/2-z
-x,-y,-z
x,-y,1/2+z
1/2+x,1/2+y,z
1/2-x,1/2+y,1/2-z
1/2-x,1/2-y,-z
1/2+x,1/2-y,1/2+z
loop_
_atom_site_type_symbol
_atom_site_label
_atom_site_fract_x
_atom_site_fract_y
_atom_site_fract_z
Si Si1 0.983529 0.589890 0.172898
Si Si2 0.208033 0.773078 0.210792
Si Si3 0.743795 0.530092 0.412027
Si Si4 0.342129 0.357749 0.033629
Si Si5 0.407698 0.929770 0.369785
Si Si6 0.000000 0.177829 0.250000
O O1 0.000000 0.594474 0.250000
O O2 0.097678 0.678977 0.190281
O O3 0.060733 0.485307 0.180263
O O4 0.765933 0.591777 0.067361
O O5 0.309162 0.825392 0.310434
O O6 0.346154 0.746290 0.215780
O O7 0.059294 0.848056 0.116944
O O8 0.690900 0.425698 0.421279
O O9 0.788720 0.502037 0.362072
O O10 0.580227 0.609779 0.338226
O O11 0.905453 0.589104 0.514764
O O12 0.250000 0.250000 0.000000
#
# Coordination Sequence:
#
# PCOD8143924 Si02
#       6
#     8   8   8   8   8   4
#     4  10  22  41  63  93 125 158 213 260 312 373
#     4  11  24  38  64  94 126 167 211 256 320 374
#     4  10  21  41  67  88 127 166 215 259 308 379
#     4   9  21  39  64  94 118 163 212 260 305 366
#     4  10  22  40  64  92 124 169 205 260 316 374
#     4  12  24  40  62  94 134 164 210 260 314 388
#
# _framework density 20.330425999999999
#
# number of rings (size 3 to 8) (size 9 to 14) (size 15 to 20)
#    0.000    1.818    1.818    1.091    8.909    0.727 
#    0.000    0.909    0.000    0.000    0.000    0.000 
#    0.000    0.000    0.000    0.000    0.000    0.000 
#
# Total GULP energy -272678.416317 kJ/mol
# GULP energy per Si atom -12394.473469 kJ/mol
# Density = 2.028415 g / cm^3
# Si number density = 20.330426 Si / 1000 Ang^3
#
#
#
# Elastic Constant Matrix: (Units=GPa)
#
#
# Indices 1 2 3 4 5 6 
#
# 1 107.6447 16.8512 61.9461 0.0000 -0.2737 0.0000
# 2 16.8512 55.3062 49.7033 0.0000 7.0889 0.0000
# 3 61.9461 49.7033 131.7403 0.0000 10.2802 0.0000
# 4 0.0000 0.0000 0.0000 37.6916 0.0000 -0.6380
# 5 -0.2737 7.0889 10.2802 0.0000 33.6941 0.0000
# 6 0.0000 0.0000 0.0000 -0.6380 0.0000 29.5104
#
#
#
# Elastic Compliance Matrix: (Units=1/GPa)
#
#
# Indices 1 2 3 4 5 6 
#
# 1 0.013034 0.002166 -0.007087 0.000000 0.001813 0.000000
# 2 0.002166 0.027953 -0.011378 0.000000 -0.002392 0.000000
# 3 -0.007087 -0.011378 0.015400 0.000000 -0.002362 0.000000
# 4 0.000000 0.000000 0.000000 0.026541 0.000000 0.000574
# 5 0.001813 -0.002392 -0.002362 0.000000 0.030918 0.000000
# 6 0.000000 0.000000 0.000000 0.000574 0.000000 0.033899
#
#
# Mechanical properties :
#
#
# Convention : Reuss Voigt Hill
#
# Bulk Modulus (GPa) = 42.03747 61.29915 51.66831
# Shear Modulus (GPa) = 26.55723 31.25859 28.90791
#
# Velocity S-wave (km/s) = 3.61817 3.92539 3.77490
# Velocity P-wave (km/s) = 6.17874 7.12473 6.66853
#
# Compressibility (1/GPa) = 0.02378830
#
# Stress axis : x y z
#
# Youngs Moduli (GPa) = 76.72324 35.77417 64.93422
#
# Poissons Ratio (x) = -0.07747 0.46020
# Poissons Ratio (y) = -0.16615 0.73881
# Poissons Ratio (z) = 0.54375 0.40703
#
# Static dielectric constant tensor:
#      x y z
#    x 3.443880 0.000000 0.260360 
#    y 0.000000 3.630990 0.000000 
#    z 0.260360 0.000000 4.180170 
# 
# 
# High freq. dielectric constant tensor:
#      x y z
#    x 1.772220 0.000000 0.008980 
#    y 0.000000 1.787900 0.000000 
#    z 0.008980 0.000000 1.817190 
# 
# From -- ./inp_files/143898.got.cif
#   From: 2010.06.25/outbox.cif.g09.slc.cpg/sg15_72_cif.got.tgz:143898.got - 2010.06.28 07:06:18.
