data_PCOD8143117
_publ_section_title
;
Structure prediction by ZEFSAII (Michael W. Deem and Ramdas Pophale) SiO2 
 PCOD8143117
Probable space group: C 2/C
;
_chemical_formula_sum "Si O2"
_cell_formula_units_Z 60
_cell_length_a 19.482907
_cell_length_b 18.998481
_cell_length_c 9.147546
_cell_angle_alpha 90.000000
_cell_angle_beta 121.998309
_cell_angle_gamma 90.000000
_cell_volume 2871.479572
_symmetry_space_group_name_H-M "C 2/C"
_symmetry_group_IT_number 15
_symmetry_cell_setting 'monoclinic'
loop_
_space_group_symop_operation_xyz
x,y,z
-x,y,1/2-z
-x,-y,-z
x,-y,1/2+z
1/2+x,1/2+y,z
1/2-x,1/2+y,1/2-z
1/2-x,1/2-y,-z
1/2+x,1/2-y,1/2+z
loop_
_atom_site_type_symbol
_atom_site_label
_atom_site_fract_x
_atom_site_fract_y
_atom_site_fract_z
Si Si1 0.000000 0.485841 0.250000
Si Si2 0.885248 0.878700 0.280675
Si Si3 0.158551 0.960882 0.792725
Si Si4 0.259164 0.034927 0.126680
Si Si5 0.967602 0.161597 0.361480
Si Si6 0.918657 0.767871 0.088161
Si Si7 0.710345 0.846361 0.074161
Si Si8 0.897099 0.446574 0.389061
O O1 0.950160 0.435076 0.302902
O O2 0.052514 0.538206 0.408166
O O3 0.953324 0.870926 0.476965
O O4 0.910543 0.843504 0.155978
O O5 0.801706 0.840016 0.240270
O O6 0.878951 0.961293 0.246101
O O7 0.194247 0.942265 0.674642
O O8 0.093334 0.901042 0.754448
O O9 0.227430 0.967119 0.996876
O O10 0.340167 0.013728 0.301636
O O11 0.281010 0.101730 0.053481
O O12 0.927687 0.219326 0.424038
O O13 0.000000 0.198947 0.250000
O O14 0.000000 0.730956 0.250000
O O15 0.835489 0.725002 0.026192
O O16 0.654442 0.876859 0.140413
#
# Coordination Sequence:
#
# PCOD8143117 Si02
#       8
#     4   8   8   8   8   8   8   8
#     4  10  22  34  56  86 122 158 204 266 304 362
#     4  10  21  40  62  93 123 160 209 257 302 374
#     4  11  21  35  64  94 128 158 200 254 326 354
#     4  11  20  37  61  97 126 158 201 264 303 380
#     4  11  23  39  61  89 128 162 206 258 313 367
#     4  10  24  43  63  86 123 169 218 251 295 380
#     4  11  22  38  68  86 125 163 211 249 313 362
#     4  11  20  37  58  88 123 155 208 255 314 362
#
# _framework density 20.895150999999998
#
# number of rings (size 3 to 8) (size 9 to 14) (size 15 to 20)
#    0.000    1.333    4.000    3.200    0.933    1.600 
#    1.200    0.667    2.933    0.000    0.000    0.000 
#    0.000    0.000    0.000    0.000    0.000    0.000 
#
# Total GULP energy -371819.386398 kJ/mol
# GULP energy per Si atom -12393.979547 kJ/mol
# Density = 2.084759 g / cm^3
# Si number density = 20.895151 Si / 1000 Ang^3
#
#
#
# Elastic Constant Matrix: (Units=GPa)
#
#
# Indices 1 2 3 4 5 6 
#
# 1 114.3915 29.8612 48.7121 0.0000 -10.0150 0.0000
# 2 29.8612 57.3306 20.2831 0.0000 -0.1924 0.0000
# 3 48.7121 20.2831 99.5356 0.0000 -8.6438 0.0000
# 4 0.0000 0.0000 0.0000 13.6205 0.0000 2.3447
# 5 -10.0150 -0.1924 -8.6438 0.0000 48.4379 0.0000
# 6 0.0000 0.0000 0.0000 2.3447 0.0000 42.8242
#
#
#
# Elastic Compliance Matrix: (Units=1/GPa)
#
#
# Indices 1 2 3 4 5 6 
#
# 1 0.012161 -0.004605 -0.004872 0.000000 0.001627 0.000000
# 2 -0.004605 0.020560 -0.002043 0.000000 -0.001235 0.000000
# 3 -0.004872 -0.002043 0.012960 0.000000 0.001297 0.000000
# 4 0.000000 0.000000 0.000000 0.074117 0.000000 -0.004058
# 5 0.001627 -0.001235 0.001297 0.000000 0.021208 0.000000
# 6 0.000000 0.000000 0.000000 -0.004058 0.000000 0.023573
#
#
# Mechanical properties :
#
#
# Convention : Reuss Voigt Hill
#
# Bulk Modulus (GPa) = 44.16836 52.10786 48.13811
# Shear Modulus (GPa) = 25.61905 32.46994 29.04449
#
# Velocity S-wave (km/s) = 3.50534 3.94629 3.73233
# Velocity P-wave (km/s) = 6.12921 6.76433 6.45458
#
# Compressibility (1/GPa) = 0.02264064
#
# Stress axis : x y z
#
# Youngs Moduli (GPa) = 82.22940 48.63801 77.16082
#
# Poissons Ratio (x) = 0.22398 0.37592
# Poissons Ratio (y) = 0.37868 0.15766
# Poissons Ratio (z) = 0.40061 0.09938
#
# Static dielectric constant tensor:
#      x y z
#    x 4.276280 0.000000 0.177760 
#    y 0.000000 3.323340 0.000000 
#    z 0.177760 0.000000 4.201970 
# 
# 
# High freq. dielectric constant tensor:
#      x y z
#    x 1.843020 0.000000 0.004160 
#    y 0.000000 1.774140 0.000000 
#    z 0.004160 0.000000 1.825890 
# 
# From -- ./inp_files/62738.got.cif
#   From: 2010.06.25/outbox.cif.g09.slc.cpg/sg15_32_cif.got.tgz:62738.got - 2010.06.28 07:06:18.
