data_PCOD8143854
_publ_section_title
;
Structure prediction by ZEFSAII (Michael W. Deem and Ramdas Pophale) SiO2 
 PCOD8143854
Probable space group: C 2/C
;
_chemical_formula_sum "Si O2"
_cell_formula_units_Z 44
_cell_length_a 16.896519
_cell_length_b 10.339764
_cell_length_c 13.763981
_cell_angle_alpha 90.000000
_cell_angle_beta 54.355918
_cell_angle_gamma 90.000000
_cell_volume 1954.145456
_symmetry_space_group_name_H-M "C 2/C"
_symmetry_group_IT_number 15
_symmetry_cell_setting 'monoclinic'
loop_
_space_group_symop_operation_xyz
x,y,z
-x,y,1/2-z
-x,-y,-z
x,-y,1/2+z
1/2+x,1/2+y,z
1/2-x,1/2+y,1/2-z
1/2-x,1/2-y,-z
1/2+x,1/2-y,1/2+z
loop_
_atom_site_type_symbol
_atom_site_label
_atom_site_fract_x
_atom_site_fract_y
_atom_site_fract_z
Si Si1 0.500000 0.953892 0.750000
Si Si2 0.276208 0.352326 0.269653
Si Si3 0.220618 0.060744 0.072517
Si Si4 0.372310 0.275728 0.010806
Si Si5 0.693882 0.849478 0.604719
Si Si6 0.950071 0.394573 0.102805
O O1 0.582377 0.860011 0.646771
O O2 0.554555 0.045231 0.787049
O O3 0.315491 0.462217 0.317130
O O4 0.333299 0.365823 0.127304
O O5 0.301139 0.205825 0.289202
O O6 0.159616 0.361260 0.347846
O O7 0.307085 0.146352 0.055125
O O8 0.135328 0.150877 0.088400
O O9 0.257866 0.988331 0.948315
O O10 0.484834 0.236178 0.945834
O O11 0.750000 0.750000 0.500000
O O12 0.000000 0.500000 0.000000
#
# Coordination Sequence:
#
# PCOD8143854 Si02
#       6
#     4   8   8   8   8   8
#     4  12  22  40  72  94 130 176 228 272 320 394
#     4  11  24  39  73  98 131 176 221 273 348 390
#     4  10  22  42  61  99 134 173 215 279 335 395
#     4  11  23  41  70  96 138 168 223 283 333 391
#     4  10  21  41  65  99 135 173 219 276 333 396
#     4  12  23  42  67 104 123 171 234 274 312 408
#
# _framework density 22.516235999999999
#
# number of rings (size 3 to 8) (size 9 to 14) (size 15 to 20)
#    0.000    1.091    3.636    3.273    5.091    0.000 
#    0.000    0.909   20.000    0.000    0.000    0.000 
#    0.000    0.000    0.000    0.000    0.000    0.000 
#
# Total GULP energy -272644.162116 kJ/mol
# GULP energy per Si atom -12392.916460 kJ/mol
# Density = 2.246499 g / cm^3
# Si number density = 22.516236 Si / 1000 Ang^3
#
#
#
# Elastic Constant Matrix: (Units=GPa)
#
#
# Indices 1 2 3 4 5 6 
#
# 1 96.7395 44.8593 34.9722 0.0000 -4.8079 0.0000
# 2 44.8593 91.0232 37.0065 0.0000 3.5917 0.0000
# 3 34.9722 37.0065 86.0208 0.0000 -2.6765 0.0000
# 4 0.0000 0.0000 0.0000 26.1472 0.0000 12.9099
# 5 -4.8079 3.5917 -2.6765 0.0000 42.7100 0.0000
# 6 0.0000 0.0000 0.0000 12.9099 0.0000 43.9202
#
#
#
# Elastic Compliance Matrix: (Units=1/GPa)
#
#
# Indices 1 2 3 4 5 6 
#
# 1 0.014297 -0.005795 -0.003261 0.000000 0.001892 0.000000
# 2 -0.005795 0.015758 -0.004494 0.000000 -0.002259 0.000000
# 3 -0.003261 -0.004494 0.014913 0.000000 0.000945 0.000000
# 4 0.000000 0.000000 0.000000 0.044738 0.000000 -0.013150
# 5 0.001892 -0.002259 0.000945 0.000000 0.023876 0.000000
# 6 0.000000 0.000000 0.000000 -0.013150 0.000000 0.026634
#
#
# Mechanical properties :
#
#
# Convention : Reuss Voigt Hill
#
# Bulk Modulus (GPa) = 55.95929 56.38439 56.17184
# Shear Modulus (GPa) = 28.85643 33.01852 30.93748
#
# Velocity S-wave (km/s) = 3.58380 3.83356 3.71078
# Velocity P-wave (km/s) = 6.48319 6.68512 6.58493
#
# Compressibility (1/GPa) = 0.01787013
#
# Stress axis : x y z
#
# Youngs Moduli (GPa) = 69.94427 63.45867 67.05448
#
# Poissons Ratio (x) = 0.36775 0.21864
# Poissons Ratio (y) = 0.40534 0.30131
# Poissons Ratio (z) = 0.22806 0.28515
#
# Static dielectric constant tensor:
#      x y z
#    x 4.570290 0.000000 0.372540 
#    y 0.000000 4.977360 0.000000 
#    z 0.372540 0.000000 4.146430 
# 
# 
# High freq. dielectric constant tensor:
#      x y z
#    x 1.883970 0.000000 0.015860 
#    y 0.000000 1.887190 0.000000 
#    z 0.015860 0.000000 1.883770 
# 
# From -- ./inp_files/160726.got.cif
#   From: 2010.06.25/outbox.cif.g09.slc.cpg/sg15_81_cif.got.tgz:160726.got - 2010.06.28 07:06:18.
