data_PCOD8143916
_publ_section_title
;
Structure prediction by ZEFSAII (Michael W. Deem and Ramdas Pophale) SiO2 
 PCOD8143916
Probable space group: C 2/C
;
_chemical_formula_sum "Si O2"
_cell_formula_units_Z 48
_cell_length_a 26.174239
_cell_length_b 8.628340
_cell_length_c 10.563899
_cell_angle_alpha 90.000000
_cell_angle_beta 77.026817
_cell_angle_gamma 90.000000
_cell_volume 2324.857644
_symmetry_space_group_name_H-M "C 2/C"
_symmetry_group_IT_number 15
_symmetry_cell_setting 'monoclinic'
loop_
_space_group_symop_operation_xyz
x,y,z
-x,y,1/2-z
-x,-y,-z
x,-y,1/2+z
1/2+x,1/2+y,z
1/2-x,1/2+y,1/2-z
1/2-x,1/2-y,-z
1/2+x,1/2-y,1/2+z
loop_
_atom_site_type_symbol
_atom_site_label
_atom_site_fract_x
_atom_site_fract_y
_atom_site_fract_z
Si Si1 0.114254 0.308930 0.322534
Si Si2 0.818955 0.583615 0.169869
Si Si3 0.000885 0.621395 0.609066
Si Si4 0.335869 0.564966 0.049990
Si Si5 0.718299 0.603711 0.688923
Si Si6 0.111659 0.776884 0.551685
O O1 0.132550 0.488572 0.293207
O O2 0.142401 0.234263 0.428645
O O3 0.128843 0.216746 0.187911
O O4 0.052385 0.283329 0.377402
O O5 0.779028 0.447486 0.149300
O O6 0.791170 0.713005 0.275510
O O7 0.844369 0.668234 0.035983
O O8 0.052153 0.725516 0.562988
O O9 0.000000 0.543903 0.750000
O O10 0.000000 0.500000 0.500000
O O11 0.304017 0.502106 0.187385
O O12 0.303036 0.570630 0.939275
O O13 0.385018 0.449995 0.004104
#
# Coordination Sequence:
#
# PCOD8143916 Si02
#       6
#     8   8   8   8   8   8
#     4  11  23  41  69  93 133 171 215 273 325 387
#     4  11  25  41  68  95 132 169 222 267 333 385
#     4  10  21  41  66  99 130 169 217 266 322 386
#     4  11  24  45  64  96 134 170 221 262 330 385
#     4  11  26  41  67  97 128 174 220 270 321 396
#     4  10  23  43  65  96 133 170 216 271 327 380
#
# _framework density 20.646425000000001
#
# number of rings (size 3 to 8) (size 9 to 14) (size 15 to 20)
#    0.000    1.333    3.333    1.000    4.667    3.333 
#    0.000    0.000    0.000    0.000    0.000    0.000 
#    0.000    0.000    0.000    0.000    0.000    0.000 
#
# Total GULP energy -297366.468363 kJ/mol
# GULP energy per Si atom -12390.269515 kJ/mol
# Density = 2.059943 g / cm^3
# Si number density = 20.646425 Si / 1000 Ang^3
#
#
#
# Elastic Constant Matrix: (Units=GPa)
#
#
# Indices 1 2 3 4 5 6 
#
# 1 119.1912 50.0121 51.8327 0.0000 1.4012 0.0000
# 2 50.0121 101.3645 44.8588 0.0000 -5.9143 0.0000
# 3 51.8327 44.8588 113.9941 0.0000 10.9968 0.0000
# 4 0.0000 0.0000 0.0000 25.6429 0.0000 6.4174
# 5 1.4012 -5.9143 10.9968 0.0000 31.7615 0.0000
# 6 0.0000 0.0000 0.0000 6.4174 0.0000 26.4152
#
#
#
# Elastic Compliance Matrix: (Units=1/GPa)
#
#
# Indices 1 2 3 4 5 6 
#
# 1 0.011745 -0.004156 -0.003704 0.000000 -0.000010 0.000000
# 2 -0.004156 0.013925 -0.003991 0.000000 0.004158 0.000000
# 3 -0.003704 -0.003991 0.012500 0.000000 -0.004908 0.000000
# 4 0.000000 0.000000 0.000000 0.041522 0.000000 -0.010087
# 5 -0.000010 0.004158 -0.004908 0.000000 0.033959 0.000000
# 6 0.000000 0.000000 0.000000 -0.010087 0.000000 0.040308
#
#
# Mechanical properties :
#
#
# Convention : Reuss Voigt Hill
#
# Bulk Modulus (GPa) = 69.11793 69.77298 69.44545
# Shear Modulus (GPa) = 27.39995 29.28700 28.34348
#
# Velocity S-wave (km/s) = 3.64690 3.77039 3.70916
# Velocity P-wave (km/s) = 7.16120 7.26788 7.21473
#
# Compressibility (1/GPa) = 0.01446803
#
# Stress axis : x y z
#
# Youngs Moduli (GPa) = 85.14605 71.81440 79.99715
#
# Poissons Ratio (x) = 0.29847 0.29629
# Poissons Ratio (y) = 0.35387 0.31927
# Poissons Ratio (z) = 0.31536 0.28661
#
# Static dielectric constant tensor:
#      x y z
#    x 3.680230 0.000000 -0.004750 
#    y 0.000000 3.753490 0.000000 
#    z -0.004750 0.000000 3.856590 
# 
# 
# High freq. dielectric constant tensor:
#      x y z
#    x 1.812070 0.000000 -0.007320 
#    y 0.000000 1.801240 0.000000 
#    z -0.007320 0.000000 1.822110 
# 
# From -- ./inp_files/116429.got.cif
#   From: 2010.06.25/outbox.cif.g09.slc.cpg/sg15_59_cif.got.tgz:116429.got - 2010.06.28 07:06:18.
