data_PCOD8143498
_publ_section_title
;
Structure prediction by ZEFSAII (Michael W. Deem and Ramdas Pophale) SiO2 
 PCOD8143498
Probable space group: C 2/C
;
_chemical_formula_sum "Si O2"
_cell_formula_units_Z 64
_cell_length_a 19.478191
_cell_length_b 11.411531
_cell_length_c 27.916247
_cell_angle_alpha 90.000000
_cell_angle_beta 28.667718
_cell_angle_gamma 90.000000
_cell_volume 2976.773100
_symmetry_space_group_name_H-M "C 2/C"
_symmetry_group_IT_number 15
_symmetry_cell_setting 'monoclinic'
loop_
_space_group_symop_operation_xyz
x,y,z
-x,y,1/2-z
-x,-y,-z
x,-y,1/2+z
1/2+x,1/2+y,z
1/2-x,1/2+y,1/2-z
1/2-x,1/2-y,-z
1/2+x,1/2-y,1/2+z
loop_
_atom_site_type_symbol
_atom_site_label
_atom_site_fract_x
_atom_site_fract_y
_atom_site_fract_z
Si Si1 0.913089 0.906585 0.755051
Si Si2 0.156840 0.749408 0.427225
Si Si3 0.996442 0.627413 0.353548
Si Si4 0.872706 0.175794 0.449969
Si Si5 0.730279 0.578954 0.460023
Si Si6 0.612410 0.328149 0.222467
Si Si7 0.579736 0.220085 0.006109
Si Si8 0.121011 0.550458 0.710248
O O1 0.748926 0.868628 0.864449
O O2 0.000000 0.883826 0.750000
O O3 0.983573 0.826458 0.670051
O O4 0.918149 0.042856 0.737458
O O5 0.095800 0.764781 0.518180
O O6 0.257954 0.857407 0.350648
O O7 0.020700 0.748271 0.476715
O O8 0.096180 0.734112 0.274718
O O9 0.055896 0.501595 0.299102
O O10 0.833816 0.642948 0.434469
O O11 0.993898 0.625496 0.413070
O O12 0.750000 0.250000 0.500000
O O13 0.822119 0.042721 0.486262
O O14 0.599085 0.663917 0.527302
O O15 0.816231 0.559402 0.357780
O O16 0.500000 0.296104 0.250000
O O17 0.770883 0.328807 0.104036
O O18 0.000000 0.610703 0.750000
#
# Coordination Sequence:
#
# PCOD8143498 Si02
#       8
#     8   8   8   8   8   8   8   8
#     4  11  24  43  69  97 134 177 227 283 336 400
#     4  11  26  45  64 101 141 177 224 276 343 414
#     4  11  21  40  69 100 125 175 228 276 338 391
#     4  11  24  43  72  98 134 182 234 276 333 405
#     4  10  21  40  68  98 126 175 230 279 327 395
#     4  11  23  43  66  98 136 171 228 286 332 408
#     4  12  25  41  67 101 143 175 216 283 352 411
#     4   9  19  40  70  92 126 169 231 283 312 388
#
# _framework density 21.499791999999999
#
# number of rings (size 3 to 8) (size 9 to 14) (size 15 to 20)
#    0.000    1.250    3.750    1.875    7.000    3.500 
#    4.500    0.000    0.000    0.000    0.000    0.000 
#    0.000    0.000    0.000    0.000    0.000    0.000 
#
# Total GULP energy -396879.892318 kJ/mol
# GULP energy per Si atom -12402.496635 kJ/mol
# Density = 2.145086 g / cm^3
# Si number density = 21.499792 Si / 1000 Ang^3
#
#
#
# Elastic Constant Matrix: (Units=GPa)
#
#
# Indices 1 2 3 4 5 6 
#
# 1 134.8553 34.5258 57.4442 -0.0001 2.0062 0.0007
# 2 34.5258 55.9807 18.9200 -0.0013 -4.1520 -0.0001
# 3 57.4442 18.9200 110.0057 -0.0003 8.4273 -0.0010
# 4 -0.0001 -0.0013 -0.0003 27.3928 -0.0004 12.6082
# 5 2.0062 -4.1520 8.4273 -0.0004 32.7466 -0.0005
# 6 0.0007 -0.0001 -0.0010 12.6082 -0.0005 12.3540
#
#
#
# Elastic Compliance Matrix: (Units=1/GPa)
#
#
# Indices 1 2 3 4 5 6 
#
# 1 0.010714 -0.005016 -0.004726 0.000000 -0.000076 -0.000001
# 2 -0.005016 0.021672 -0.001369 0.000002 0.003408 -0.000001
# 3 -0.004726 -0.001369 0.012022 -0.000001 -0.002978 0.000002
# 4 0.000000 0.000002 -0.000001 0.068846 0.000000 -0.070263
# 5 -0.000076 0.003408 -0.002978 0.000000 0.031741 0.000001
# 6 -0.000001 -0.000001 0.000002 -0.070263 0.000001 0.152655
#
#
# Mechanical properties :
#
#
# Convention : Reuss Voigt Hill
#
# Bulk Modulus (GPa) = 45.07438 58.06909 51.57174
# Shear Modulus (GPa) = 15.27800 27.16211 21.22006
#
# Velocity S-wave (km/s) = 2.66862 3.55824 3.14505
# Velocity P-wave (km/s) = 5.52322 6.62942 6.10144
#
# Compressibility (1/GPa) = 0.02218555
#
# Stress axis : x y z
#
# Youngs Moduli (GPa) = 93.33656 46.14160 83.18065
#
# Poissons Ratio (x) = 0.23145 0.39313
# Poissons Ratio (y) = 0.46818 0.11389
# Poissons Ratio (z) = 0.44113 0.06317
#
# Static dielectric constant tensor:
#      x y z
#    x 3.646690 0.000000 0.242720 
#    y 0.000000 3.858660 0.000000 
#    z 0.242720 0.000000 4.084150 
# 
# 
# High freq. dielectric constant tensor:
#      x y z
#    x 1.818030 0.000000 0.018640 
#    y 0.000000 1.849330 0.000000 
#    z 0.018640 0.000000 1.849590 
# 
# From -- ./inp_files/316168.got.cif
#   From: 2010.06.25/outbox.cif.g09.slc.cpg/sg15_159_cif.got.tgz:316168.got - 2010.06.28 07:06:18.
