data_PCOD8143588
_publ_section_title
;
Structure prediction by ZEFSAII (Michael W. Deem and Ramdas Pophale) SiO2 
 PCOD8143588
Probable space group: C 2/C
;
_chemical_formula_sum "Si O2"
_cell_formula_units_Z 64
_cell_length_a 21.260451
_cell_length_b 16.293574
_cell_length_c 18.927506
_cell_angle_alpha 90.000000
_cell_angle_beta 151.389571
_cell_angle_gamma 90.000000
_cell_volume 3139.664344
_symmetry_space_group_name_H-M "C 2/C"
_symmetry_group_IT_number 15
_symmetry_cell_setting 'monoclinic'
loop_
_space_group_symop_operation_xyz
x,y,z
-x,y,1/2-z
-x,-y,-z
x,-y,1/2+z
1/2+x,1/2+y,z
1/2-x,1/2+y,1/2-z
1/2-x,1/2-y,-z
1/2+x,1/2-y,1/2+z
loop_
_atom_site_type_symbol
_atom_site_label
_atom_site_fract_x
_atom_site_fract_y
_atom_site_fract_z
Si Si1 0.296288 0.498940 0.786939
Si Si2 0.241550 0.708804 0.567311
Si Si3 0.336257 0.968132 0.487732
Si Si4 0.150235 0.370841 0.418674
Si Si5 0.443227 0.940599 0.883981
Si Si6 0.488579 0.243605 0.406473
Si Si7 0.015125 0.128973 0.473667
Si Si8 0.392578 0.305538 0.582295
O O1 0.210262 0.533075 0.638596
O O2 0.213177 0.455357 0.767582
O O3 0.396807 0.434883 0.852518
O O4 0.355375 0.579463 0.879837
O O5 0.250000 0.750000 0.500000
O O6 0.224966 0.611420 0.534939
O O7 0.369083 0.726953 0.739785
O O8 0.116691 0.744759 0.484399
O O9 0.294333 0.050395 0.485728
O O10 0.495779 0.961791 0.633786
O O11 0.256827 0.356348 0.461042
O O12 0.149658 0.289768 0.466800
O O13 0.000000 0.389814 0.250000
O O14 0.466775 0.844416 0.921515
O O15 0.500000 0.000000 0.000000
O O16 0.514198 0.304029 0.496382
O O17 0.035372 0.170007 0.418020
O O18 0.500000 0.317780 0.750000
#
# Coordination Sequence:
#
# PCOD8143588 Si02
#       8
#     8   8   8   8   8   8   8   8
#     4  10  21  41  59  99 128 163 217 261 321 381
#     4  11  24  45  67  93 131 169 218 269 317 387
#     4  10  21  41  64  91 128 165 214 264 326 377
#     4  10  23  42  64  95 128 168 224 260 320 396
#     4   9  21  37  61  92 129 160 204 266 312 379
#     4  11  23  44  65 101 127 169 220 260 329 379
#     4  11  23  39  70  91 132 172 211 271 313 393
#     4  10  23  45  63  96 133 172 218 261 327 392
#
# _framework density 20.384345
#
# number of rings (size 3 to 8) (size 9 to 14) (size 15 to 20)
#    0.000    1.750    1.250    1.875    5.250    2.000 
#   11.250    0.000    0.000    0.000    0.000    0.000 
#    0.000    0.000    0.000    0.000    0.000    0.000 
#
# Total GULP energy -396619.470524 kJ/mol
# GULP energy per Si atom -12394.358454 kJ/mol
# Density = 2.033795 g / cm^3
# Si number density = 20.384345 Si / 1000 Ang^3
#
#
#
# Elastic Constant Matrix: (Units=GPa)
#
#
# Indices 1 2 3 4 5 6 
#
# 1 112.3136 62.2221 36.5588 0.0009 -5.4743 -0.0020
# 2 62.2221 138.8508 26.7920 0.0005 -10.7947 -0.0013
# 3 36.5588 26.7920 68.2761 0.0001 5.8664 -0.0020
# 4 0.0009 0.0005 0.0001 21.4360 0.0005 0.3762
# 5 -5.4743 -10.7947 5.8664 0.0005 29.4257 -0.0013
# 6 -0.0020 -0.0013 -0.0020 0.3762 -0.0013 35.0423
#
#
#
# Elastic Compliance Matrix: (Units=1/GPa)
#
#
# Indices 1 2 3 4 5 6 
#
# 1 0.013446 -0.004830 -0.005460 0.000000 0.001818 0.000000
# 2 -0.004830 0.009905 -0.001562 0.000000 0.003046 0.000000
# 3 -0.005460 -0.001562 0.018639 0.000000 -0.005305 0.000000
# 4 0.000000 0.000000 0.000000 0.046659 -0.000001 -0.000501
# 5 0.001818 0.003046 -0.005305 -0.000001 0.036497 0.000001
# 6 0.000000 0.000000 0.000000 -0.000501 0.000001 0.028542
#
#
# Mechanical properties :
#
#
# Convention : Reuss Voigt Hill
#
# Bulk Modulus (GPa) = 54.69258 63.39849 59.04553
# Shear Modulus (GPa) = 27.24975 30.10532 28.67753
#
# Velocity S-wave (km/s) = 3.66019 3.84719 3.75486
# Velocity P-wave (km/s) = 6.68966 7.13468 6.91575
#
# Compressibility (1/GPa) = 0.01828402
#
# Stress axis : x y z
#
# Youngs Moduli (GPa) = 74.37356 100.96114 53.65133
#
# Poissons Ratio (x) = 0.48768 0.29295
# Poissons Ratio (y) = 0.35925 0.08380
# Poissons Ratio (z) = 0.40610 0.15770
#
# Static dielectric constant tensor:
#      x y z
#    x 3.743070 0.000000 0.354700 
#    y 0.000000 3.842610 0.000000 
#    z 0.354700 0.000000 3.703950 
# 
# 
# High freq. dielectric constant tensor:
#      x y z
#    x 1.801320 0.000000 0.023080 
#    y 0.000000 1.812070 0.000000 
#    z 0.023080 0.000000 1.790710 
# 
# From -- ./inp_files/216173.got.cif
#   From: 2010.06.25/outbox.cif.g09.slc.cpg/sg15_109_cif.got.tgz:216173.got - 2010.06.28 07:06:18.
