data_PCOD8143476
_publ_section_title
;
Structure prediction by ZEFSAII (Michael W. Deem and Ramdas Pophale) SiO2 
 PCOD8143476
Probable space group: C 2/C
;
_chemical_formula_sum "Si O2"
_cell_formula_units_Z 44
_cell_length_a 9.426797
_cell_length_b 18.107670
_cell_length_c 18.029821
_cell_angle_alpha 90.000000
_cell_angle_beta 136.678974
_cell_angle_gamma 90.000000
_cell_volume 2111.525380
_symmetry_space_group_name_H-M "C 2/C"
_symmetry_group_IT_number 15
_symmetry_cell_setting 'monoclinic'
loop_
_space_group_symop_operation_xyz
x,y,z
-x,y,1/2-z
-x,-y,-z
x,-y,1/2+z
1/2+x,1/2+y,z
1/2-x,1/2+y,1/2-z
1/2-x,1/2-y,-z
1/2+x,1/2-y,1/2+z
loop_
_atom_site_type_symbol
_atom_site_label
_atom_site_fract_x
_atom_site_fract_y
_atom_site_fract_z
Si Si1 0.701441 0.052206 0.863565
Si Si2 0.804352 0.313957 0.464968
Si Si3 0.290303 0.183095 0.311297
Si Si4 0.500000 0.193595 0.750000
Si Si5 0.000000 0.261007 0.750000
Si Si6 0.883839 0.968668 0.067428
Si Si7 0.000000 0.058316 0.250000
O O1 0.500000 0.013175 0.750000
O O2 0.649699 0.139841 0.855719
O O3 0.887004 0.041494 0.876645
O O4 0.747038 0.018232 0.960597
O O5 0.750000 0.250000 0.500000
O O6 0.692312 0.292736 0.345267
O O7 0.721322 0.390104 0.465458
O O8 0.055460 0.317013 0.558177
O O9 0.424616 0.185253 0.287116
O O10 0.158280 0.108536 0.263460
O O11 0.142672 0.254569 0.253497
O O12 0.881473 0.007174 0.146502
#
# Coordination Sequence:
#
# PCOD8143476 Si02
#       7
#     8   8   8   4   4   8   4
#     4   9  22  41  70  92 131 180 217 269 325 399
#     4  10  22  40  63  94 123 167 217 273 319 389
#     4  10  23  41  64  98 128 172 225 268 327 395
#     4   9  20  42  66  93 132 166 222 273 328 390
#     4  10  21  40  68  88 129 176 220 274 323 388
#     4  11  23  42  64 101 134 174 223 267 335 397
#     4  11  27  42  62 101 141 168 218 277 337 392
#
# _framework density 20.838017000000001
#
# number of rings (size 3 to 8) (size 9 to 14) (size 15 to 20)
#    0.545    1.455    0.000    2.727    2.545    9.455 
#    1.636    3.636    0.000    0.000    0.000    0.000 
#    0.000    0.000    0.000    0.000    0.000    0.000 
#
# Total GULP energy -272681.554598 kJ/mol
# GULP energy per Si atom -12394.616118 kJ/mol
# Density = 2.079059 g / cm^3
# Si number density = 20.838017 Si / 1000 Ang^3
#
#
#
# Elastic Constant Matrix: (Units=GPa)
#
#
# Indices 1 2 3 4 5 6 
#
# 1 87.7269 45.5217 43.9647 -0.0001 0.2868 0.0000
# 2 45.5217 148.1488 51.0758 0.0000 -5.3542 0.0000
# 3 43.9647 51.0758 125.1514 -0.0001 2.5441 0.0000
# 4 -0.0001 0.0000 -0.0001 17.2108 -0.0001 5.2002
# 5 0.2868 -5.3542 2.5441 -0.0001 32.8271 0.0000
# 6 0.0000 0.0000 0.0000 5.2002 0.0000 18.4191
#
#
#
# Elastic Compliance Matrix: (Units=1/GPa)
#
#
# Indices 1 2 3 4 5 6 
#
# 1 0.015085 -0.003286 -0.003951 0.000000 -0.000362 0.000000
# 2 -0.003286 0.008649 -0.002408 0.000000 0.001626 0.000000
# 3 -0.003951 -0.002408 0.010385 0.000000 -0.001163 0.000000
# 4 0.000000 0.000000 0.000000 0.063522 0.000000 -0.017934
# 5 -0.000362 0.001626 -0.001163 0.000000 0.030821 0.000000
# 6 0.000000 0.000000 0.000000 -0.017934 0.000000 0.059355
#
#
# Mechanical properties :
#
#
# Convention : Reuss Voigt Hill
#
# Bulk Modulus (GPa) = 67.43955 71.35015 69.39485
# Shear Modulus (GPa) = 23.57936 28.38907 25.98421
#
# Velocity S-wave (km/s) = 3.36751 3.69503 3.53507
# Velocity P-wave (km/s) = 6.89595 7.24700 7.07365
#
# Compressibility (1/GPa) = 0.01482809
#
# Stress axis : x y z
#
# Youngs Moduli (GPa) = 66.28902 115.62318 96.29520
#
# Poissons Ratio (x) = 0.37997 0.38045
# Poissons Ratio (y) = 0.21784 0.23191
# Poissons Ratio (z) = 0.26190 0.27845
#
# Static dielectric constant tensor:
#      x y z
#    x 3.542760 0.000000 0.350150 
#    y 0.000000 3.764480 0.000000 
#    z 0.350150 0.000000 4.297450 
# 
# 
# High freq. dielectric constant tensor:
#      x y z
#    x 1.799320 0.000000 0.019010 
#    y 0.000000 1.823780 0.000000 
#    z 0.019010 0.000000 1.824540 
# 
# From -- ./inp_files/191205.got.cif
#   From: 2010.06.25/outbox.cif.g09.slc.cpg/sg15_96_cif.got.tgz:191205.got - 2010.06.28 07:06:18.
