data_PCOD8143351
_publ_section_title
;
Structure prediction by ZEFSAII (Michael W. Deem and Ramdas Pophale) SiO2 
 PCOD8143351
Probable space group: C 2/C
;
_chemical_formula_sum "Si O2"
_cell_formula_units_Z 60
_cell_length_a 8.938711
_cell_length_b 19.306690
_cell_length_c 16.419443
_cell_angle_alpha 90.000000
_cell_angle_beta 85.433857
_cell_angle_gamma 90.000000
_cell_volume 2824.623308
_symmetry_space_group_name_H-M "C 2/C"
_symmetry_group_IT_number 15
_symmetry_cell_setting 'monoclinic'
loop_
_space_group_symop_operation_xyz
x,y,z
-x,y,1/2-z
-x,-y,-z
x,-y,1/2+z
1/2+x,1/2+y,z
1/2-x,1/2+y,1/2-z
1/2-x,1/2-y,-z
1/2+x,1/2-y,1/2+z
loop_
_atom_site_type_symbol
_atom_site_label
_atom_site_fract_x
_atom_site_fract_y
_atom_site_fract_z
Si Si1 0.848796 0.888595 0.218921
Si Si2 0.894102 0.521038 0.683965
Si Si3 0.768342 0.109617 0.377059
Si Si4 0.689238 0.339630 0.445242
Si Si5 0.022368 0.352540 0.422948
Si Si6 0.014846 0.294418 0.909515
Si Si7 0.000000 0.162930 0.250000
Si Si8 0.747312 0.760922 0.314883
O O1 0.712484 0.932559 0.256342
O O2 0.870850 0.892556 0.120661
O O3 0.824057 0.807176 0.241433
O O4 0.000000 0.918707 0.250000
O O5 0.806125 0.464354 0.636068
O O6 0.000000 0.487752 0.750000
O O7 0.977308 0.569551 0.613668
O O8 0.808719 0.119105 0.470186
O O9 0.650261 0.169138 0.353750
O O10 0.922909 0.114300 0.320595
O O11 0.859330 0.318452 0.410753
O O12 0.581687 0.272645 0.453848
O O13 0.042554 0.349956 0.520148
O O14 0.159821 0.310067 0.380766
O O15 0.878465 0.278749 0.856264
O O16 0.129471 0.207900 0.284258
#
# Coordination Sequence:
#
# PCOD8143351 Si02
#       8
#     8   8   8   8   8   8   4   8
#     4  11  22  41  71  94 130 178 221 267 326 402
#     4  11  25  45  67  90 129 184 236 265 323 399
#     4  11  27  43  65  93 133 180 223 277 336 390
#     4  11  21  43  67 103 134 171 214 275 344 399
#     4  10  21  40  65  97 135 172 215 275 332 396
#     4  11  22  39  70 104 136 166 219 277 345 403
#     4  12  26  42  62  94 142 168 220 278 352 388
#     4  11  22  37  68 101 132 170 216 270 344 400
#
# _framework density 21.241769999999999
#
# number of rings (size 3 to 8) (size 9 to 14) (size 15 to 20)
#    0.000    1.067    2.667    5.200    4.667    2.133 
#    0.000    0.667    0.000    0.000    0.000    0.000 
#    0.000    0.000    0.000    0.000    0.000    0.000 
#
# Total GULP energy -371935.878886 kJ/mol
# GULP energy per Si atom -12397.862630 kJ/mol
# Density = 2.119342 g / cm^3
# Si number density = 21.241770 Si / 1000 Ang^3
#
#
#
# Elastic Constant Matrix: (Units=GPa)
#
#
# Indices 1 2 3 4 5 6 
#
# 1 109.5713 27.0379 62.4916 0.0000 14.8665 0.0000
# 2 27.0379 80.0926 55.4364 0.0000 13.0933 0.0000
# 3 62.4916 55.4364 130.6407 0.0000 10.1048 0.0000
# 4 0.0000 0.0000 0.0000 10.7345 0.0000 8.1164
# 5 14.8665 13.0933 10.1048 0.0000 41.3963 0.0000
# 6 0.0000 0.0000 0.0000 8.1164 0.0000 20.7625
#
#
#
# Elastic Compliance Matrix: (Units=1/GPa)
#
#
# Indices 1 2 3 4 5 6 
#
# 1 0.012962 0.000392 -0.006113 0.000000 -0.003287 0.000000
# 2 0.000392 0.018307 -0.007642 0.000000 -0.004066 0.000000
# 3 -0.006113 -0.007642 0.013724 0.000000 0.001262 0.000000
# 4 0.000000 0.000000 0.000000 0.132246 0.000000 -0.051697
# 5 -0.003287 -0.004066 0.001262 0.000000 0.026315 0.000000
# 6 0.000000 0.000000 0.000000 -0.051697 0.000000 0.068373
#
#
# Mechanical properties :
#
#
# Convention : Reuss Voigt Hill
#
# Bulk Modulus (GPa) = 54.73801 67.80404 61.27102
# Shear Modulus (GPa) = 16.40744 26.26791 21.33767
#
# Velocity S-wave (km/s) = 2.78225 3.52037 3.17285
# Velocity P-wave (km/s) = 6.01217 6.96516 6.50614
#
# Compressibility (1/GPa) = 0.01826884
#
# Stress axis : x y z
#
# Youngs Moduli (GPa) = 77.15015 54.62400 72.86751
#
# Poissons Ratio (x) = -0.02144 0.44540
# Poissons Ratio (y) = -0.03028 0.55683
# Poissons Ratio (z) = 0.47158 0.41742
#
# Static dielectric constant tensor:
#      x y z
#    x 4.099580 0.000000 -0.115860 
#    y 0.000000 3.621820 0.000000 
#    z -0.115860 0.000000 4.023880 
# 
# 
# High freq. dielectric constant tensor:
#      x y z
#    x 1.844940 0.000000 -0.000890 
#    y 0.000000 1.804780 0.000000 
#    z -0.000890 0.000000 1.845690 
# 
# From -- ./inp_files/190993.got.cif
#   From: 2010.06.25/outbox.cif.g09.slc.cpg/sg15_96_cif.got.tgz:190993.got - 2010.06.28 07:06:18.
