data_PCOD8143129
_publ_section_title
;
Structure prediction by ZEFSAII (Michael W. Deem and Ramdas Pophale) SiO2 
 PCOD8143129
Probable space group: C 2/C
;
_chemical_formula_sum "Si O2"
_cell_formula_units_Z 64
_cell_length_a 16.484352
_cell_length_b 15.539631
_cell_length_c 14.280374
_cell_angle_alpha 90.000000
_cell_angle_beta 125.410162
_cell_angle_gamma 90.000000
_cell_volume 2981.419693
_symmetry_space_group_name_H-M "C 2/C"
_symmetry_group_IT_number 15
_symmetry_cell_setting 'monoclinic'
loop_
_space_group_symop_operation_xyz
x,y,z
-x,y,1/2-z
-x,-y,-z
x,-y,1/2+z
1/2+x,1/2+y,z
1/2-x,1/2+y,1/2-z
1/2-x,1/2-y,-z
1/2+x,1/2-y,1/2+z
loop_
_atom_site_type_symbol
_atom_site_label
_atom_site_fract_x
_atom_site_fract_y
_atom_site_fract_z
Si Si1 0.727577 0.135460 0.895090
Si Si2 0.595204 0.216827 0.380310
Si Si3 0.383075 0.513937 0.925297
Si Si4 0.405666 0.036972 0.835609
Si Si5 0.791049 0.113749 0.499488
Si Si6 0.474085 0.865851 0.946046
Si Si7 0.719223 0.501939 0.827352
Si Si8 0.775050 0.678836 0.394019
O O1 0.646547 0.070977 0.794132
O O2 0.721788 0.229645 0.843560
O O3 0.838678 0.093785 0.957313
O O4 0.697772 0.152790 0.981485
O O5 0.500000 0.212685 0.250000
O O6 0.680108 0.148965 0.405390
O O7 0.639651 0.311925 0.412647
O O8 0.558249 0.195887 0.460138
O O9 0.356941 0.537180 0.800621
O O10 0.500000 0.500000 0.000000
O O11 0.331538 0.426281 0.929452
O O12 0.454373 0.942536 0.856598
O O13 0.329594 0.029366 0.871469
O O14 0.490318 0.101583 0.928131
O O15 0.797521 0.037839 0.580307
O O16 0.373836 0.813331 0.897527
O O17 0.704696 0.398531 0.812833
#
# Coordination Sequence:
#
# PCOD8143129 Si02
#       8
#     8   8   8   8   8   8   8   8
#     4  10  22  42  62  94 127 175 219 268 336 391
#     4  11  27  41  70 102 136 174 223 282 343 409
#     4  11  26  42  69  96 128 185 228 268 337 412
#     4   9  20  38  65  92 126 169 211 269 329 391
#     4  11  25  48  66  99 142 176 226 284 340 408
#     4  10  21  40  62  99 125 163 220 271 333 401
#     4  10  21  43  67  91 130 176 213 275 338 389
#     4  10  22  39  65  92 132 168 215 279 326 393
#
# _framework density 21.466283000000001
#
# number of rings (size 3 to 8) (size 9 to 14) (size 15 to 20)
#    0.000    1.750    2.500    0.000    8.750    2.500 
#    0.000    0.000    0.000    0.000    0.000    0.000 
#    0.000    0.000    0.000    0.000    0.000    0.000 
#
# Total GULP energy -396609.963448 kJ/mol
# GULP energy per Si atom -12394.061358 kJ/mol
# Density = 2.141742 g / cm^3
# Si number density = 21.466283 Si / 1000 Ang^3
#
#
#
# Elastic Constant Matrix: (Units=GPa)
#
#
# Indices 1 2 3 4 5 6 
#
# 1 78.7824 32.5982 18.5702 0.0000 12.1607 0.0000
# 2 32.5982 94.2850 16.4173 0.0000 8.9359 0.0000
# 3 18.5702 16.4173 80.1242 0.0000 11.0670 0.0000
# 4 0.0000 0.0000 0.0000 24.5622 0.0000 -0.2312
# 5 12.1607 8.9359 11.0670 0.0000 29.9343 0.0000
# 6 0.0000 0.0000 0.0000 -0.2312 0.0000 24.9081
#
#
#
# Elastic Compliance Matrix: (Units=1/GPa)
#
#
# Indices 1 2 3 4 5 6 
#
# 1 0.015784 -0.004688 -0.002113 0.000000 -0.004232 0.000000
# 2 -0.004688 0.012584 -0.001303 0.000000 -0.001370 0.000000
# 3 -0.002113 -0.001303 0.013768 0.000000 -0.003843 0.000000
# 4 0.000000 0.000000 0.000000 0.040717 0.000000 0.000378
# 5 -0.004232 -0.001370 -0.003843 0.000000 0.036955 0.000000
# 6 0.000000 0.000000 0.000000 0.000378 0.000000 0.040151
#
#
# Mechanical properties :
#
#
# Convention : Reuss Voigt Hill
#
# Bulk Modulus (GPa) = 38.56811 43.15143 40.85977
# Shear Modulus (GPa) = 27.05479 28.25463 27.65471
#
# Velocity S-wave (km/s) = 3.55398 3.63193 3.59316
# Velocity P-wave (km/s) = 5.90312 6.14276 6.02413
#
# Compressibility (1/GPa) = 0.02592816
#
# Stress axis : x y z
#
# Youngs Moduli (GPa) = 63.35369 79.46753 72.63183
#
# Poissons Ratio (x) = 0.37257 0.15349
# Poissons Ratio (y) = 0.29702 0.09460
# Poissons Ratio (z) = 0.13388 0.10351
#
# Static dielectric constant tensor:
#      x y z
#    x 3.923530 0.000000 0.051150 
#    y 0.000000 4.022310 0.000000 
#    z 0.051150 0.000000 3.627010 
# 
# 
# High freq. dielectric constant tensor:
#      x y z
#    x 1.839150 0.000000 -0.004000 
#    y 0.000000 1.847550 0.000000 
#    z -0.004000 0.000000 1.830160 
# 
# From -- ./inp_files/162568.got.cif
#   From: 2010.06.25/outbox.cif.g09.slc.cpg/sg15_82_cif.got.tgz:162568.got - 2010.06.28 07:06:18.
