data_PCOD8143946
_publ_section_title
;
Structure prediction by ZEFSAII (Michael W. Deem and Ramdas Pophale) SiO2 
 PCOD8143946
Probable space group: C 2/C
;
_chemical_formula_sum "Si O2"
_cell_formula_units_Z 60
_cell_length_a 8.233661
_cell_length_b 30.951494
_cell_length_c 11.840908
_cell_angle_alpha 90.000000
_cell_angle_beta 92.342920
_cell_angle_gamma 90.000000
_cell_volume 3015.063105
_symmetry_space_group_name_H-M "C 2/C"
_symmetry_group_IT_number 15
_symmetry_cell_setting 'monoclinic'
loop_
_space_group_symop_operation_xyz
x,y,z
-x,y,1/2-z
-x,-y,-z
x,-y,1/2+z
1/2+x,1/2+y,z
1/2-x,1/2+y,1/2-z
1/2-x,1/2-y,-z
1/2+x,1/2-y,1/2+z
loop_
_atom_site_type_symbol
_atom_site_label
_atom_site_fract_x
_atom_site_fract_y
_atom_site_fract_z
Si Si1 0.345106 0.061142 0.001687
Si Si2 0.187166 0.915030 0.268387
Si Si3 0.810620 0.821066 0.231698
Si Si4 0.500000 0.677397 0.250000
Si Si5 0.861399 0.744381 0.611245
Si Si6 0.161089 0.641130 0.330021
Si Si7 0.388429 0.021211 0.639837
Si Si8 0.337028 0.205959 0.983682
O O1 0.341025 0.101634 0.083929
O O2 0.303591 0.019527 0.077374
O O3 0.219910 0.069667 0.897274
O O4 0.518734 0.051058 0.948837
O O5 0.260048 0.868057 0.233294
O O6 0.243453 0.950033 0.180885
O O7 0.000000 0.909524 0.250000
O O8 0.729500 0.779436 0.288501
O O9 0.781282 0.822533 0.096425
O O10 0.000000 0.815664 0.250000
O O11 0.563481 0.709017 0.351828
O O12 0.342094 0.647037 0.277309
O O13 0.750000 0.750000 0.500000
O O14 0.998501 0.710933 0.580800
O O15 0.127283 0.685152 0.394942
O O16 0.000000 0.634486 0.250000
O O17 0.500000 0.006768 0.750000
O O18 0.250000 0.250000 0.000000
#
# Coordination Sequence:
#
# PCOD8143946 Si02
#       8
#     8   8   8   4   8   8   8   8
#     4  10  21  41  67  94 126 171 212 258 330 401
#     4  10  22  39  63  97 129 160 215 270 320 389
#     4  11  23  39  62  92 123 166 216 267 323 383
#     4  12  26  46  60  96 138 166 226 278 322 396
#     4  12  24  40  64  90 124 171 217 268 328 377
#     4  12  26  45  65  96 131 176 221 273 333 394
#     4   9  20  40  67  94 128 163 209 264 323 399
#     4  12  22  40  64  86 123 166 217 266 319 379
#
# _framework density 19.900079999999999
#
# number of rings (size 3 to 8) (size 9 to 14) (size 15 to 20)
#    0.000    1.067    4.000    2.000    1.867    2.667 
#    3.600    0.000    0.000    0.000    0.000    0.000 
#    0.000    0.000    0.000    0.000    0.000    0.000 
#
# Total GULP energy -371685.803148 kJ/mol
# GULP energy per Si atom -12389.526772 kJ/mol
# Density = 1.985479 g / cm^3
# Si number density = 19.900080 Si / 1000 Ang^3
#
#
#
# Elastic Constant Matrix: (Units=GPa)
#
#
# Indices 1 2 3 4 5 6 
#
# 1 88.4160 39.4191 40.1615 0.0000 2.3595 0.0000
# 2 39.4191 118.7171 48.2766 0.0000 -5.7789 0.0000
# 3 40.1615 48.2766 102.4233 0.0000 1.9237 0.0000
# 4 0.0000 0.0000 0.0000 48.8000 0.0000 -5.0321
# 5 2.3595 -5.7789 1.9237 0.0000 32.8564 0.0000
# 6 0.0000 0.0000 0.0000 -5.0321 0.0000 19.6944
#
#
#
# Elastic Compliance Matrix: (Units=1/GPa)
#
#
# Indices 1 2 3 4 5 6 
#
# 1 0.014704 -0.003235 -0.004215 0.000000 -0.001378 0.000000
# 2 -0.003235 0.011283 -0.004096 0.000000 0.002457 0.000000
# 3 -0.004215 -0.004096 0.013369 0.000000 -0.001200 0.000000
# 4 0.000000 0.000000 0.000000 0.021046 0.000000 0.005377
# 5 -0.001378 0.002457 -0.001200 0.000000 0.031037 0.000000
# 6 0.000000 0.000000 0.000000 0.005377 0.000000 0.052150
#
#
# Mechanical properties :
#
#
# Convention : Reuss Voigt Hill
#
# Bulk Modulus (GPa) = 61.48452 62.80784 62.14618
# Shear Modulus (GPa) = 29.05267 32.38345 30.71806
#
# Velocity S-wave (km/s) = 3.82504 4.03836 3.93315
# Velocity P-wave (km/s) = 7.10434 7.30579 7.20577
#
# Compressibility (1/GPa) = 0.01626426
#
# Stress axis : x y z
#
# Youngs Moduli (GPa) = 68.00921 88.63094 74.80010
#
# Poissons Ratio (x) = 0.28677 0.31526
# Poissons Ratio (y) = 0.22004 0.30634
# Poissons Ratio (z) = 0.28664 0.36299
#
# Static dielectric constant tensor:
#      x y z
#    x 3.601600 0.000000 0.167620 
#    y 0.000000 3.562630 0.000000 
#    z 0.167620 0.000000 4.242600 
# 
# 
# High freq. dielectric constant tensor:
#      x y z
#    x 1.774330 0.000000 0.007080 
#    y 0.000000 1.781720 0.000000 
#    z 0.007080 0.000000 1.789070 
# 
# From -- ./inp_files/81386.got.cif
#   From: 2010.06.25/outbox.cif.g09.slc.cpg/sg15_41_cif.got.tgz:81386.got - 2010.06.28 07:06:18.
