data_PCOD8143590
_publ_section_title
;
Structure prediction by ZEFSAII (Michael W. Deem and Ramdas Pophale) SiO2 
 PCOD8143590
Probable space group: C 2/C
;
_chemical_formula_sum "Si O2"
_cell_formula_units_Z 36
_cell_length_a 8.717332
_cell_length_b 22.907794
_cell_length_c 12.551539
_cell_angle_alpha 90.000000
_cell_angle_beta 133.844339
_cell_angle_gamma 90.000000
_cell_volume 1807.732807
_symmetry_space_group_name_H-M "C 2/C"
_symmetry_group_IT_number 15
_symmetry_cell_setting 'monoclinic'
loop_
_space_group_symop_operation_xyz
x,y,z
-x,y,1/2-z
-x,-y,-z
x,-y,1/2+z
1/2+x,1/2+y,z
1/2-x,1/2+y,1/2-z
1/2-x,1/2-y,-z
1/2+x,1/2-y,1/2+z
loop_
_atom_site_type_symbol
_atom_site_label
_atom_site_fract_x
_atom_site_fract_y
_atom_site_fract_z
Si Si1 0.808686 0.410682 0.298139
Si Si2 0.000000 0.997789 0.250000
Si Si3 0.151887 0.783194 0.228668
Si Si4 0.794906 0.085529 0.996314
Si Si5 0.054894 0.788080 0.945672
O O1 0.703144 0.457569 0.324871
O O2 0.748790 0.345736 0.307168
O O3 0.725372 0.423473 0.139504
O O4 0.060511 0.416490 0.433612
O O5 0.057442 0.036160 0.380859
O O6 0.337904 0.736917 0.293303
O O7 0.000000 0.760723 0.250000
O O8 0.022455 0.787392 0.057266
O O9 0.908628 0.146522 0.077712
O O10 0.250000 0.750000 0.000000
#
# Coordination Sequence:
#
# PCOD8143590 Si02
#       5
#     8   4   8   8   8
#     4  10  21  41  60  85 121 162 194 239 302 356
#     4  12  22  38  64  86 122 152 204 248 288 348
#     4  11  22  39  61  90 123 159 196 249 306 353
#     4  10  23  38  61  91 115 157 204 242 292 355
#     4  11  22  38  64  88 121 156 203 246 296 364
#
# _framework density 19.914446999999999
#
# number of rings (size 3 to 8) (size 9 to 14) (size 15 to 20)
#    0.000    1.333    3.333    2.667    3.111    0.000 
#    0.000    0.000    4.889    0.000    0.000    0.000 
#    0.000    0.000    0.000    0.000    0.000    0.000 
#
# Total GULP energy -223273.969093 kJ/mol
# GULP energy per Si atom -12404.109394 kJ/mol
# Density = 1.986912 g / cm^3
# Si number density = 19.914447 Si / 1000 Ang^3
#
#
#
# Elastic Constant Matrix: (Units=GPa)
#
#
# Indices 1 2 3 4 5 6 
#
# 1 98.0752 35.5428 11.6510 0.0000 14.0520 0.0000
# 2 35.5428 128.4785 33.9901 0.0000 10.3441 0.0000
# 3 11.6510 33.9901 65.3553 0.0000 10.8914 0.0000
# 4 0.0000 0.0000 0.0000 34.5444 0.0000 4.8146
# 5 14.0520 10.3441 10.8914 0.0000 28.3956 0.0000
# 6 0.0000 0.0000 0.0000 4.8146 0.0000 33.8001
#
#
#
# Elastic Compliance Matrix: (Units=1/GPa)
#
#
# Indices 1 2 3 4 5 6 
#
# 1 0.011951 -0.002972 0.000235 0.000000 -0.004922 0.000000
# 2 -0.002972 0.009832 -0.004521 0.000000 -0.000377 0.000000
# 3 0.000235 -0.004521 0.018540 0.000000 -0.005581 0.000000
# 4 0.000000 0.000000 0.000000 0.029535 0.000000 -0.004207
# 5 -0.004922 -0.000377 -0.005581 0.000000 0.039930 0.000000
# 6 0.000000 0.000000 0.000000 -0.004207 0.000000 0.030185
#
#
# Mechanical properties :
#
#
# Convention : Reuss Voigt Hill
#
# Bulk Modulus (GPa) = 38.74778 50.47518 44.61148
# Shear Modulus (GPa) = 30.65793 33.39635 32.02714
#
# Velocity S-wave (km/s) = 3.92788 4.09955 4.01463
# Velocity P-wave (km/s) = 6.33011 6.91444 6.62872
#
# Compressibility (1/GPa) = 0.02580793
#
# Stress axis : x y z
#
# Youngs Moduli (GPa) = 83.67834 101.70904 53.93669
#
# Poissons Ratio (x) = 0.30229 -0.01270
# Poissons Ratio (y) = 0.24870 0.24384
# Poissons Ratio (z) = -0.01970 0.45980
#
# Static dielectric constant tensor:
#      x y z
#    x 3.551350 0.000000 0.039900 
#    y 0.000000 3.674970 0.000000 
#    z 0.039900 0.000000 3.526060 
# 
# 
# High freq. dielectric constant tensor:
#      x y z
#    x 1.782190 0.000000 0.000500 
#    y 0.000000 1.781190 0.000000 
#    z 0.000500 0.000000 1.769500 
# 
# From -- ./inp_files/22501.got.cif
#   From: 2010.06.25/outbox.cif.g09.slc.cpg/sg15_12_cif.got.tgz:22501.got - 2010.06.28 07:06:18.
