data_PCOD8143598
_publ_section_title
;
Structure prediction by ZEFSAII (Michael W. Deem and Ramdas Pophale) SiO2 
 PCOD8143598
Probable space group: C 2/C
;
_chemical_formula_sum "Si O2"
_cell_formula_units_Z 40
_cell_length_a 14.086695
_cell_length_b 25.445542
_cell_length_c 11.294963
_cell_angle_alpha 90.000000
_cell_angle_beta 30.062696
_cell_angle_gamma 90.000000
_cell_volume 2028.138988
_symmetry_space_group_name_H-M "C 2/C"
_symmetry_group_IT_number 15
_symmetry_cell_setting 'monoclinic'
loop_
_space_group_symop_operation_xyz
x,y,z
-x,y,1/2-z
-x,-y,-z
x,-y,1/2+z
1/2+x,1/2+y,z
1/2-x,1/2+y,1/2-z
1/2-x,1/2-y,-z
1/2+x,1/2-y,1/2+z
loop_
_atom_site_type_symbol
_atom_site_label
_atom_site_fract_x
_atom_site_fract_y
_atom_site_fract_z
Si Si1 0.482395 0.445487 0.452723
Si Si2 0.779754 0.310900 0.482011
Si Si3 0.184790 0.806747 0.118264
Si Si4 0.797043 0.417420 0.934742
Si Si5 0.450779 0.658287 0.490842
O O1 0.500000 0.500000 0.500000
O O2 0.273118 0.431513 0.623513
O O3 0.539366 0.401882 0.485409
O O4 0.641321 0.445661 0.181661
O O5 0.750000 0.250000 0.500000
O O6 0.690981 0.340218 0.466164
O O7 0.664991 0.324770 0.725535
O O8 0.000000 0.326650 0.250000
O O9 0.136079 0.804720 0.310920
O O10 0.000000 0.825103 0.250000
O O11 0.250000 0.750000 0.000000
O O12 0.323140 0.854624 0.933954
O O13 0.000000 0.442664 0.750000
#
# Coordination Sequence:
#
# PCOD8143598 Si02
#       5
#     8   8   8   8   8
#     4  10  22  43  65  86 123 164 205 267 316 359
#     4  11  23  39  60  87 126 171 204 252 300 370
#     4  11  22  37  61  95 126 167 201 253 321 376
#     4  10  21  41  60  93 129 154 206 261 311 383
#     4  10  23  41  60  89 125 161 213 249 312 372
#
# _framework density 19.722515000000001
#
# number of rings (size 3 to 8) (size 9 to 14) (size 15 to 20)
#    0.000    1.600    6.000    0.600    2.800    7.200 
#    0.000    2.000    0.000    0.000    0.000    0.000 
#    0.000    0.000    0.000    0.000    0.000    0.000 
#
# Total GULP energy -247823.468747 kJ/mol
# GULP energy per Si atom -12391.173437 kJ/mol
# Density = 1.967763 g / cm^3
# Si number density = 19.722515 Si / 1000 Ang^3
#
#
#
# Elastic Constant Matrix: (Units=GPa)
#
#
# Indices 1 2 3 4 5 6 
#
# 1 130.9790 49.0479 59.6238 0.0020 -11.1004 -0.0002
# 2 49.0479 122.1755 44.5266 0.0154 15.8174 -0.0015
# 3 59.6238 44.5266 107.5696 0.0488 -13.8145 -0.0234
# 4 0.0020 0.0154 0.0488 20.4628 -0.0113 3.7951
# 5 -11.1004 15.8174 -13.8145 -0.0113 44.9532 0.0030
# 6 -0.0002 -0.0015 -0.0234 3.7951 0.0030 26.6424
#
#
#
# Elastic Compliance Matrix: (Units=1/GPa)
#
#
# Indices 1 2 3 4 5 6 
#
# 1 0.011069 -0.003105 -0.004538 0.000015 0.002431 -0.000006
# 2 -0.003105 0.011623 -0.003867 -0.000002 -0.006045 -0.000002
# 3 -0.004538 -0.003867 0.013995 -0.000030 0.004541 0.000016
# 4 0.000015 -0.000002 -0.000030 0.050195 0.000008 -0.007150
# 5 0.002431 -0.006045 0.004541 0.000008 0.026368 0.000000
# 6 -0.000006 -0.000002 0.000016 -0.007150 0.000000 0.038553
#
#
# Mechanical properties :
#
#
# Convention : Reuss Voigt Hill
#
# Bulk Modulus (GPa) = 73.15858 74.12452 73.64155
# Shear Modulus (GPa) = 27.87395 32.24673 30.06034
#
# Velocity S-wave (km/s) = 3.76347 4.04793 3.90829
# Velocity P-wave (km/s) = 7.48729 7.71446 7.60172
#
# Compressibility (1/GPa) = 0.01366894
#
# Stress axis : x y z
#
# Youngs Moduli (GPa) = 90.33986 86.03591 71.45196
#
# Poissons Ratio (x) = 0.26711 0.32426
# Poissons Ratio (y) = 0.28047 0.27628
# Poissons Ratio (z) = 0.40998 0.33267
#
# Static dielectric constant tensor:
#      x y z
#    x 0.666840 0.000320 3.564440 
#    y 0.000320 3.557340 -0.000330 
#    z 3.564440 -0.000330 -0.417130 
# 
# 
# High freq. dielectric constant tensor:
#      x y z
#    x 1.780240 0.000000 -0.002690 
#    y 0.000000 1.755960 0.000000 
#    z -0.002690 0.000000 1.768430 
# 
# From -- ./inp_files/100575.got.cif
#   From: 2010.06.25/outbox.cif.g09.slc.cpg/sg15_51_cif.got.tgz:100575.got - 2010.06.28 07:06:18.
