data_PCOD8143795
_publ_section_title
;
Structure prediction by ZEFSAII (Michael W. Deem and Ramdas Pophale) SiO2 
 PCOD8143795
Probable space group: C 2/C
;
_chemical_formula_sum "Si O2"
_cell_formula_units_Z 56
_cell_length_a 5.843815
_cell_length_b 28.590529
_cell_length_c 17.899048
_cell_angle_alpha 90.000000
_cell_angle_beta 57.296671
_cell_angle_gamma 90.000000
_cell_volume 2516.471793
_symmetry_space_group_name_H-M "C 2/C"
_symmetry_group_IT_number 15
_symmetry_cell_setting 'monoclinic'
loop_
_space_group_symop_operation_xyz
x,y,z
-x,y,1/2-z
-x,-y,-z
x,-y,1/2+z
1/2+x,1/2+y,z
1/2-x,1/2+y,1/2-z
1/2-x,1/2-y,-z
1/2+x,1/2-y,1/2+z
loop_
_atom_site_type_symbol
_atom_site_label
_atom_site_fract_x
_atom_site_fract_y
_atom_site_fract_z
Si Si1 0.799761 0.840129 0.476598
Si Si2 0.910340 0.990256 0.932386
Si Si3 0.764265 0.180468 0.152117
Si Si4 0.730029 0.216520 0.846551
Si Si5 0.085822 0.571807 0.945393
Si Si6 0.828491 0.912847 0.702674
Si Si7 0.596365 0.130769 0.650570
O O1 0.704995 0.824374 0.574796
O O2 0.796561 0.795936 0.421127
O O3 0.588220 0.880134 0.490999
O O4 0.084862 0.867174 0.420301
O O5 0.136825 0.960135 0.850337
O O6 0.859576 0.040053 0.900228
O O7 0.644102 0.958605 0.975090
O O8 0.000000 0.000000 0.000000
O O9 0.500000 0.183502 0.250000
O O10 0.903851 0.231602 0.136326
O O11 0.946847 0.135996 0.146503
O O12 0.508179 0.181217 0.855660
O O13 0.000000 0.210901 0.750000
O O14 0.026705 0.586118 0.870904
O O15 0.500000 0.906037 0.750000
O O16 0.000000 0.918702 0.750000
O O17 0.500000 0.120171 0.750000
#
# Coordination Sequence:
#
# PCOD8143795 Si02
#       7
#     8   8   8   8   8   8   8
#     4  11  22  43  66  99 140 178 229 293 355 423
#     4  11  24  47  69  96 132 178 230 292 359 432
#     4  10  23  42  69  99 135 184 236 285 354 425
#     4  10  21  41  65 100 136 183 229 286 346 429
#     4  10  24  40  72  96 130 176 229 284 358 425
#     4  11  27  48  71 103 143 186 236 301 356 428
#     4  11  22  40  65  97 139 178 225 287 351 419
#
# _framework density 22.253381000000001
#
# number of rings (size 3 to 8) (size 9 to 14) (size 15 to 20)
#    0.000    1.429    1.429    3.000    8.000    1.143 
#    7.714    0.000    0.000    0.000    0.000    0.000 
#    0.000    0.000    0.000    0.000    0.000    0.000 
#
# Total GULP energy -346872.795575 kJ/mol
# GULP energy per Si atom -12388.314128 kJ/mol
# Density = 2.220273 g / cm^3
# Si number density = 22.253381 Si / 1000 Ang^3
#
#
#
# Elastic Constant Matrix: (Units=GPa)
#
#
# Indices 1 2 3 4 5 6 
#
# 1 83.0372 17.4686 30.6141 0.0000 15.9608 0.0000
# 2 17.4686 129.4298 37.2762 0.0000 10.0734 0.0000
# 3 30.6141 37.2762 140.1202 0.0000 28.2512 0.0000
# 4 0.0000 0.0000 0.0000 57.0542 0.0000 -19.6536
# 5 15.9608 10.0734 28.2512 0.0000 31.7713 0.0000
# 6 0.0000 0.0000 0.0000 -19.6536 0.0000 44.0925
#
#
#
# Elastic Compliance Matrix: (Units=1/GPa)
#
#
# Indices 1 2 3 4 5 6 
#
# 1 0.013872 -0.000973 -0.001741 0.000000 -0.005112 0.000000
# 2 -0.000973 0.008453 -0.001943 0.000000 -0.000464 0.000000
# 3 -0.001741 -0.001943 0.009423 0.000000 -0.006888 0.000000
# 4 0.000000 0.000000 0.000000 0.020707 0.000000 0.009230
# 5 -0.005112 -0.000464 -0.006888 0.000000 0.040315 0.000000
# 6 0.000000 0.000000 0.000000 0.009230 0.000000 0.026794
#
#
# Mechanical properties :
#
#
# Convention : Reuss Voigt Hill
#
# Bulk Modulus (GPa) = 44.57492 58.14502 51.35997
# Shear Modulus (GPa) = 36.66900 44.39881 40.53390
#
# Velocity S-wave (km/s) = 4.06371 4.47155 4.27250
# Velocity P-wave (km/s) = 6.48787 7.26946 6.88976
#
# Compressibility (1/GPa) = 0.02243414
#
# Stress axis : x y z
#
# Youngs Moduli (GPa) = 72.08745 118.29964 106.12588
#
# Poissons Ratio (x) = 0.11509 0.18480
# Poissons Ratio (y) = 0.07013 0.20617
# Poissons Ratio (z) = 0.12553 0.22982
#
# Static dielectric constant tensor:
#      x y z
#    x 4.027620 0.000000 0.055660 
#    y 0.000000 4.813520 0.000000 
#    z 0.055660 0.000000 4.147700 
# 
# 
# High freq. dielectric constant tensor:
#      x y z
#    x 1.864260 0.000000 0.012290 
#    y 0.000000 1.905630 0.000000 
#    z 0.012290 0.000000 1.871330 
# 
# From -- ./inp_files/186088.got.cif
#   From: 2010.06.25/outbox.cif.g09.slc.cpg/sg15_94_cif.got.tgz:186088.got - 2010.06.28 07:06:18.
