data_PCOD8143350
_publ_section_title
;
Structure prediction by ZEFSAII (Michael W. Deem and Ramdas Pophale) SiO2 
 PCOD8143350
Probable space group: C 2/C
;
_chemical_formula_sum "Si O2"
_cell_formula_units_Z 40
_cell_length_a 8.369037
_cell_length_b 17.887945
_cell_length_c 12.134295
_cell_angle_alpha 90.000000
_cell_angle_beta 76.908027
_cell_angle_gamma 90.000000
_cell_volume 1769.346466
_symmetry_space_group_name_H-M "C 2/C"
_symmetry_group_IT_number 15
_symmetry_cell_setting 'monoclinic'
loop_
_space_group_symop_operation_xyz
x,y,z
-x,y,1/2-z
-x,-y,-z
x,-y,1/2+z
1/2+x,1/2+y,z
1/2-x,1/2+y,1/2-z
1/2-x,1/2-y,-z
1/2+x,1/2-y,1/2+z
loop_
_atom_site_type_symbol
_atom_site_label
_atom_site_fract_x
_atom_site_fract_y
_atom_site_fract_z
Si Si1 0.843281 0.420417 0.851656
Si Si2 0.624976 0.876580 0.413109
Si Si3 0.192132 0.254915 0.695399
Si Si4 0.339371 0.442686 0.200484
Si Si5 0.714774 0.808926 0.100920
O O1 0.768282 0.338679 0.844760
O O2 0.697114 0.479264 0.854469
O O3 0.000000 0.435132 0.750000
O O4 0.892368 0.423763 0.972182
O O5 0.745883 0.804206 0.406869
O O6 0.688001 0.929841 0.306603
O O7 0.446343 0.852237 0.405775
O O8 0.302077 0.239916 0.786242
O O9 0.000000 0.242366 0.750000
O O10 0.500000 0.447639 0.250000
O O11 0.349865 0.374550 0.108712
O O12 0.750000 0.750000 0.000000
#
# Coordination Sequence:
#
# PCOD8143350 Si02
#       5
#     8   8   8   8   8
#     4  11  24  42  66  95 129 173 220 261 322 394
#     4  11  23  42  67  92 130 172 213 271 325 379
#     4  10  21  40  65  97 132 169 218 268 320 387
#     4  11  26  45  64  96 134 167 213 272 327 381
#     4  11  22  39  66  94 127 169 212 259 315 381
#
# _framework density 22.607218
#
# number of rings (size 3 to 8) (size 9 to 14) (size 15 to 20)
#    0.000    1.200    0.000    9.000    0.000    8.800 
#    0.000    2.000    0.000    0.000    0.000    0.000 
#    0.000    0.000    0.000    0.000    0.000    0.000 
#
# Total GULP energy -247855.512602 kJ/mol
# GULP energy per Si atom -12392.775630 kJ/mol
# Density = 2.255576 g / cm^3
# Si number density = 22.607218 Si / 1000 Ang^3
#
#
#
# Elastic Constant Matrix: (Units=GPa)
#
#
# Indices 1 2 3 4 5 6 
#
# 1 112.7266 42.9644 51.6908 0.0000 31.7594 0.0000
# 2 42.9644 122.5474 52.9303 0.0000 21.2040 0.0000
# 3 51.6908 52.9303 130.6978 0.0000 20.4033 0.0000
# 4 0.0000 0.0000 0.0000 21.6521 0.0000 6.0343
# 5 31.7594 21.2040 20.4033 0.0000 35.8407 0.0000
# 6 0.0000 0.0000 0.0000 6.0343 0.0000 25.5252
#
#
#
# Elastic Compliance Matrix: (Units=1/GPa)
#
#
# Indices 1 2 3 4 5 6 
#
# 1 0.013618 -0.001794 -0.003228 0.000000 -0.009168 0.000000
# 2 -0.001794 0.010655 -0.003150 0.000000 -0.002921 0.000000
# 3 -0.003228 -0.003150 0.010389 0.000000 -0.001190 0.000000
# 4 0.000000 0.000000 0.000000 0.049442 0.000000 -0.011688
# 5 -0.009168 -0.002921 -0.001190 0.000000 0.038431 0.000000
# 6 0.000000 0.000000 0.000000 -0.011688 0.000000 0.041940
#
#
# Mechanical properties :
#
#
# Convention : Reuss Voigt Hill
#
# Bulk Modulus (GPa) = 54.58763 73.46031 64.02397
# Shear Modulus (GPa) = 26.74862 31.16269 28.95566
#
# Velocity S-wave (km/s) = 3.44348 3.71676 3.58273
# Velocity P-wave (km/s) = 6.32524 7.14030 6.74509
#
# Compressibility (1/GPa) = 0.01831917
#
# Stress axis : x y z
#
# Youngs Moduli (GPa) = 73.43197 93.85486 96.25240
#
# Poissons Ratio (x) = 0.16835 0.31072
# Poissons Ratio (y) = 0.13172 0.30315
# Poissons Ratio (z) = 0.23705 0.29560
#
# Static dielectric constant tensor:
#      x y z
#    x 3.864900 0.000000 0.165830 
#    y 0.000000 4.481980 0.000000 
#    z 0.165830 0.000000 4.173110 
# 
# 
# High freq. dielectric constant tensor:
#      x y z
#    x 1.879200 0.000000 0.017510 
#    y 0.000000 1.906390 0.000000 
#    z 0.017510 0.000000 1.896060 
# 
# From -- ./inp_files/76919.got.cif
#   From: 2010.06.25/outbox.cif.g09.slc.cpg/sg15_39_cif.got.tgz:76919.got - 2010.06.28 07:06:18.
