data_PCOD8143918
_publ_section_title
;
Structure prediction by ZEFSAII (Michael W. Deem and Ramdas Pophale) SiO2 
 PCOD8143918
Probable space group: C 2/C
;
_chemical_formula_sum "Si O2"
_cell_formula_units_Z 48
_cell_length_a 13.542502
_cell_length_b 12.347987
_cell_length_c 28.094199
_cell_angle_alpha 90.000000
_cell_angle_beta 26.746015
_cell_angle_gamma 90.000000
_cell_volume 2114.264427
_symmetry_space_group_name_H-M "C 2/C"
_symmetry_group_IT_number 15
_symmetry_cell_setting 'monoclinic'
loop_
_space_group_symop_operation_xyz
x,y,z
-x,y,1/2-z
-x,-y,-z
x,-y,1/2+z
1/2+x,1/2+y,z
1/2-x,1/2+y,1/2-z
1/2-x,1/2-y,-z
1/2+x,1/2-y,1/2+z
loop_
_atom_site_type_symbol
_atom_site_label
_atom_site_fract_x
_atom_site_fract_y
_atom_site_fract_z
Si Si1 0.448313 0.330255 0.927090
Si Si2 0.756397 0.884457 0.867754
Si Si3 0.138899 0.082024 0.610792
Si Si4 0.240476 0.546430 0.273210
Si Si5 0.232244 0.549027 0.047786
Si Si6 0.875875 0.231731 0.055258
O O1 0.583479 0.364101 0.821753
O O2 0.628814 0.283332 0.885862
O O3 0.250000 0.250000 0.000000
O O4 0.345300 0.432828 0.998522
O O5 0.649810 0.929114 0.864957
O O6 0.000000 0.846356 0.750000
O O7 0.752277 0.976310 0.910652
O O8 0.617420 0.780147 0.941733
O O9 0.238039 0.105723 0.516268
O O10 0.182167 0.186049 0.624729
O O11 0.876203 0.066306 0.718268
O O12 0.029770 0.535848 0.329640
O O13 0.342786 0.619715 0.041492
#
# Coordination Sequence:
#
# PCOD8143918 Si02
#       6
#     8   8   8   8   8   8
#     4  11  26  47  68  97 142 187 235 291 350 421
#     4  10  21  41  67 100 132 178 238 289 345 412
#     4  10  22  41  69  97 131 177 231 296 335 414
#     4  10  23  43  65 101 135 174 236 281 353 405
#     4  11  24  44  65  97 143 176 221 295 351 432
#     4  12  23  42  69  97 137 186 231 285 366 406
#
# _framework density 22.702932000000001
#
# number of rings (size 3 to 8) (size 9 to 14) (size 15 to 20)
#    0.000    1.333    1.667    4.500    2.333    2.000 
#   15.000    0.000    0.000    0.000    0.000    0.000 
#    0.000    0.000    0.000    0.000    0.000    0.000 
#
# Total GULP energy -297506.458100 kJ/mol
# GULP energy per Si atom -12396.102421 kJ/mol
# Density = 2.265126 g / cm^3
# Si number density = 22.702932 Si / 1000 Ang^3
#
#
#
# Elastic Constant Matrix: (Units=GPa)
#
#
# Indices 1 2 3 4 5 6 
#
# 1 131.8901 40.7056 18.0431 0.0051 9.5489 0.0002
# 2 40.7056 102.4871 8.4592 0.0098 -4.1080 -0.0007
# 3 18.0431 8.4592 40.5021 0.0398 4.9403 -0.0009
# 4 0.0051 0.0098 0.0398 17.1518 -0.0007 -5.8732
# 5 9.5489 -4.1080 4.9403 -0.0007 30.1005 -0.0009
# 6 0.0002 -0.0007 -0.0009 -5.8732 -0.0009 54.4329
#
#
#
# Elastic Compliance Matrix: (Units=1/GPa)
#
#
# Indices 1 2 3 4 5 6 
#
# 1 0.009312 -0.003565 -0.003045 0.000006 -0.002941 0.000001
# 2 -0.003565 0.011382 -0.001139 -0.000003 0.002871 0.000000
# 3 -0.003045 -0.001139 0.026721 -0.000063 -0.003575 -0.000006
# 4 0.000006 -0.000003 -0.000063 0.060540 0.000010 0.006532
# 5 -0.002941 0.002871 -0.003575 0.000010 0.035134 0.000002
# 6 0.000001 0.000000 -0.000006 0.006532 0.000002 0.019076
#
#
# Mechanical properties :
#
#
# Convention : Reuss Voigt Hill
#
# Bulk Modulus (GPa) = 31.33212 45.47725 38.40469
# Shear Modulus (GPa) = 26.55308 34.18179 30.36743
#
# Velocity S-wave (km/s) = 3.42363 3.88443 3.66129
# Velocity P-wave (km/s) = 5.42764 6.33982 5.90138
#
# Compressibility (1/GPa) = 0.03191612
#
# Stress axis : x y z
#
# Youngs Moduli (GPa) = 107.39027 87.85489 37.42415
#
# Poissons Ratio (x) = 0.31320 0.11396
# Poissons Ratio (y) = 0.38285 0.04264
# Poissons Ratio (z) = 0.32700 0.10010
#
# Static dielectric constant tensor:
#      x y z
#    x 4.339260 0.000010 -0.057880 
#    y 0.000010 3.892930 0.000010 
#    z -0.057880 0.000010 4.034440 
# 
# 
# High freq. dielectric constant tensor:
#      x y z
#    x 1.914910 0.000000 -0.009230 
#    y 0.000000 1.873740 0.000000 
#    z -0.009230 0.000000 1.892840 
# 
# From -- ./inp_files/313522.got.cif
#   From: 2010.06.25/outbox.cif.g09.slc.cpg/sg15_157_cif.got.tgz:313522.got - 2010.06.28 07:06:18.
