data_PCOD8143809
_publ_section_title
;
Structure prediction by ZEFSAII (Michael W. Deem and Ramdas Pophale) SiO2 
 PCOD8143809
Probable space group: C 2/C
;
_chemical_formula_sum "Si O2"
_cell_formula_units_Z 56
_cell_length_a 17.277528
_cell_length_b 8.353619
_cell_length_c 27.013286
_cell_angle_alpha 90.000000
_cell_angle_beta 41.793812
_cell_angle_gamma 90.000000
_cell_volume 2598.379203
_symmetry_space_group_name_H-M "C 2/C"
_symmetry_group_IT_number 15
_symmetry_cell_setting 'monoclinic'
loop_
_space_group_symop_operation_xyz
x,y,z
-x,y,1/2-z
-x,-y,-z
x,-y,1/2+z
1/2+x,1/2+y,z
1/2-x,1/2+y,1/2-z
1/2-x,1/2-y,-z
1/2+x,1/2-y,1/2+z
loop_
_atom_site_type_symbol
_atom_site_label
_atom_site_fract_x
_atom_site_fract_y
_atom_site_fract_z
Si Si1 0.243093 0.427572 0.816489
Si Si2 0.158645 0.108373 0.046742
Si Si3 0.621071 0.715671 0.165762
Si Si4 0.331457 0.940326 0.901968
Si Si5 0.946940 0.304180 0.657847
Si Si6 0.410253 0.439969 0.647772
Si Si7 0.224324 0.292017 0.673235
O O1 0.271822 0.305447 0.847353
O O2 0.114265 0.405216 0.856460
O O3 0.335883 0.379766 0.729969
O O4 0.247046 0.607136 0.833605
O O5 0.135557 0.079327 0.116274
O O6 0.032567 0.154241 0.083928
O O7 0.250000 0.250000 0.000000
O O8 0.214171 0.959668 0.990563
O O9 0.500000 0.679484 0.250000
O O10 0.622405 0.892202 0.142056
O O11 0.422876 0.864572 0.896604
O O12 0.307460 0.820154 0.868484
O O13 0.884275 0.334258 0.740209
O O14 0.943273 0.123734 0.640313
O O15 0.334360 0.404377 0.635018
#
# Coordination Sequence:
#
# PCOD8143809 Si02
#       7
#     8   8   8   8   8   8   8
#     4  10  22  38  66  99 122 161 219 268 311 365
#     4  10  24  40  63  94 129 169 210 255 322 383
#     4  11  21  39  68  90 123 166 217 262 312 370
#     4  11  24  40  62  94 133 168 207 257 323 385
#     4  10  22  39  64  95 127 165 215 264 315 373
#     4  10  21  41  65  89 130 166 212 266 314 366
#     4  10  22  38  64  95 126 163 217 267 312 367
#
# _framework density 21.551895999999999
#
# number of rings (size 3 to 8) (size 9 to 14) (size 15 to 20)
#    0.000    1.714    1.429    2.143    6.000    3.429 
#    0.000    0.714    0.000    0.000    0.000    0.000 
#    0.000    0.000    0.000    0.000    0.000    0.000 
#
# Total GULP energy -347122.907941 kJ/mol
# GULP energy per Si atom -12397.246712 kJ/mol
# Density = 2.150284 g / cm^3
# Si number density = 21.551896 Si / 1000 Ang^3
#
#
#
# Elastic Constant Matrix: (Units=GPa)
#
#
# Indices 1 2 3 4 5 6 
#
# 1 144.9061 33.1172 43.3192 0.0042 -18.1953 0.0150
# 2 33.1172 56.0021 15.7514 0.0077 -1.2121 0.0173
# 3 43.3192 15.7514 101.6133 0.0001 -8.4387 0.0009
# 4 0.0042 0.0077 0.0001 15.4197 0.0006 -6.8565
# 5 -18.1953 -1.2121 -8.4387 0.0006 35.7746 0.0028
# 6 0.0150 0.0173 0.0009 -6.8565 0.0028 39.3264
#
#
#
# Elastic Compliance Matrix: (Units=1/GPa)
#
#
# Indices 1 2 3 4 5 6 
#
# 1 0.009319 -0.004601 -0.002936 -0.000001 0.003891 -0.000002
# 2 -0.004601 0.020942 -0.001449 -0.000013 -0.001972 -0.000010
# 3 -0.002936 -0.001449 0.011413 0.000002 0.001150 0.000002
# 4 -0.000001 -0.000013 0.000002 0.070302 -0.000003 0.012257
# 5 0.003891 -0.001972 0.001150 -0.000003 0.030136 -0.000003
# 6 -0.000002 -0.000010 0.000002 0.012257 -0.000003 0.027565
#
#
# Mechanical properties :
#
#
# Convention : Reuss Voigt Hill
#
# Bulk Modulus (GPa) = 42.19013 54.09968 48.14490
# Shear Modulus (GPa) = 25.56889 32.12639 28.84764
#
# Velocity S-wave (km/s) = 3.44813 3.86509 3.66255
# Velocity P-wave (km/s) = 5.95579 6.71380 6.34612
#
# Compressibility (1/GPa) = 0.02370223
#
# Stress axis : x y z
#
# Youngs Moduli (GPa) = 107.30860 47.75116 87.61832
#
# Poissons Ratio (x) = 0.21969 0.25729
# Poissons Ratio (y) = 0.49369 0.12694
# Poissons Ratio (z) = 0.31511 0.06918
#
# Static dielectric constant tensor:
#      x y z
#    x 4.174630 -0.000010 0.071980 
#    y -0.000010 3.757380 0.000000 
#    z 0.071980 0.000000 4.216770 
# 
# 
# High freq. dielectric constant tensor:
#      x y z
#    x 1.859310 0.000000 -0.005560 
#    y 0.000000 1.837360 0.000000 
#    z -0.005560 0.000000 1.834500 
# 
# From -- ./inp_files/315507.got.cif
#   From: 2010.06.25/outbox.cif.g09.slc.cpg/sg15_158_cif.got.tgz:315507.got - 2010.06.28 07:06:18.
