data_PCOD8143372
_publ_section_title
;
Structure prediction by ZEFSAII (Michael W. Deem and Ramdas Pophale) SiO2 
 PCOD8143372
Probable space group: C 2/C
;
_chemical_formula_sum "Si O2"
_cell_formula_units_Z 40
_cell_length_a 17.578481
_cell_length_b 5.063034
_cell_length_c 37.503877
_cell_angle_alpha 90.000000
_cell_angle_beta 141.888896
_cell_angle_gamma 90.000000
_cell_volume 2060.089502
_symmetry_space_group_name_H-M "C 2/C"
_symmetry_group_IT_number 15
_symmetry_cell_setting 'monoclinic'
loop_
_space_group_symop_operation_xyz
x,y,z
-x,y,1/2-z
-x,-y,-z
x,-y,1/2+z
1/2+x,1/2+y,z
1/2-x,1/2+y,1/2-z
1/2-x,1/2-y,-z
1/2+x,1/2-y,1/2+z
loop_
_atom_site_type_symbol
_atom_site_label
_atom_site_fract_x
_atom_site_fract_y
_atom_site_fract_z
Si Si1 0.714635 0.749960 0.284972
Si Si2 0.180172 0.748092 0.937299
Si Si3 0.640066 0.246601 0.299077
Si Si4 0.161025 0.734026 0.387146
Si Si5 0.064806 0.518256 0.667887
O O1 0.642408 0.531874 0.281281
O O2 0.853183 0.648925 0.329366
O O3 0.647846 0.786543 0.222342
O O4 0.719916 0.029642 0.307279
O O5 0.232091 0.516754 0.930560
O O6 0.033799 0.696432 0.890420
O O7 0.203671 0.018370 0.925713
O O8 0.250000 0.750000 0.000000
O O9 0.500000 0.145643 0.250000
O O10 0.698187 0.273971 0.359877
O O11 0.012146 0.684429 0.335068
#
# Coordination Sequence:
#
# PCOD8143372 Si02
#       5
#     8   8   8   8   8
#     4  12  24  36  60  88 132 155 191 253 305 378
#     4  10  21  40  66  89 114 159 216 259 289 347
#     4  12  22  38  56  88 124 165 193 238 315 369
#     4  10  22  39  61  89 118 152 212 245 300 366
#     4  10  25  37  60  93 121 160 204 241 310 354
#
# _framework density 19.416632
#
# number of rings (size 3 to 8) (size 9 to 14) (size 15 to 20)
#    1.200    0.000    2.000    4.800    5.600    0.000 
#    0.000    0.000    0.000    7.200    0.000    0.000 
#    0.000    0.000    0.000    0.000    0.000    0.000 
#
# Total GULP energy -247958.585211 kJ/mol
# GULP energy per Si atom -12397.929261 kJ/mol
# Density = 1.937244 g / cm^3
# Si number density = 19.416632 Si / 1000 Ang^3
#
#
#
# Elastic Constant Matrix: (Units=GPa)
#
#
# Indices 1 2 3 4 5 6 
#
# 1 63.4122 13.7120 29.6029 0.0246 -11.7583 0.0100
# 2 13.7120 114.7538 32.4960 0.0913 -9.1843 0.0344
# 3 29.6029 32.4960 117.9848 0.0435 -16.0901 0.0080
# 4 0.0246 0.0913 0.0435 28.7101 -0.0187 -18.9789
# 5 -11.7583 -9.1843 -16.0901 -0.0187 21.3462 -0.0037
# 6 0.0100 0.0344 0.0080 -18.9789 -0.0037 30.2032
#
#
#
# Elastic Compliance Matrix: (Units=1/GPa)
#
#
# Indices 1 2 3 4 5 6 
#
# 1 0.018959 -0.000660 -0.003555 -0.000011 0.007480 -0.000010
# 2 -0.000660 0.009581 -0.002185 -0.000054 0.002111 -0.000044
# 3 -0.003555 -0.002185 0.010671 -0.000003 0.005145 -0.000001
# 4 -0.000011 -0.000054 -0.000003 0.059580 0.000027 0.037439
# 5 0.007480 0.002111 0.005145 0.000027 0.055754 0.000018
# 6 -0.000010 -0.000044 -0.000001 0.037439 0.000018 0.056635
#
#
# Mechanical properties :
#
#
# Convention : Reuss Voigt Hill
#
# Bulk Modulus (GPa) = 37.86366 49.75250 43.80808
# Shear Modulus (GPa) = 21.47909 30.74120 26.11015
#
# Velocity S-wave (km/s) = 3.32960 3.98331 3.67104
# Velocity P-wave (km/s) = 5.85872 6.84361 6.37023
#
# Compressibility (1/GPa) = 0.02641055
#
# Stress axis : x y z
#
# Youngs Moduli (GPa) = 52.74495 104.37269 93.71008
#
# Poissons Ratio (x) = 0.06889 0.33315
# Poissons Ratio (y) = 0.03481 0.20478
# Poissons Ratio (z) = 0.18751 0.22808
#
# Static dielectric constant tensor:
#      x y z
#    x 3.445240 0.000020 -0.191770 
#    y 0.000020 3.615430 0.000050 
#    z -0.191770 0.000050 3.262300 
# 
# 
# High freq. dielectric constant tensor:
#      x y z
#    x 1.735160 0.000000 -0.020650 
#    y 0.000000 1.775200 0.000010 
#    z -0.020650 0.000010 1.731690 
# 
# From -- ./inp_files/314953.got.cif
#   From: 2010.06.25/outbox.cif.g09.slc.cpg/sg15_158_cif.got.tgz:314953.got - 2010.06.28 07:06:18.
