data_PCOD8143526
_publ_section_title
;
Structure prediction by ZEFSAII (Michael W. Deem and Ramdas Pophale) SiO2 
 PCOD8143526
Probable space group: C 2/C
;
_chemical_formula_sum "Si O2"
_cell_formula_units_Z 48
_cell_length_a 30.179547
_cell_length_b 8.879723
_cell_length_c 15.886372
_cell_angle_alpha 90.000000
_cell_angle_beta 147.403035
_cell_angle_gamma 90.000000
_cell_volume 2293.532650
_symmetry_space_group_name_H-M "C 2/C"
_symmetry_group_IT_number 15
_symmetry_cell_setting 'monoclinic'
loop_
_space_group_symop_operation_xyz
x,y,z
-x,y,1/2-z
-x,-y,-z
x,-y,1/2+z
1/2+x,1/2+y,z
1/2-x,1/2+y,1/2-z
1/2-x,1/2-y,-z
1/2+x,1/2-y,1/2+z
loop_
_atom_site_type_symbol
_atom_site_label
_atom_site_fract_x
_atom_site_fract_y
_atom_site_fract_z
Si Si1 0.837442 0.813836 0.620818
Si Si2 0.906163 0.637828 0.576136
Si Si3 0.949801 0.705956 0.953323
Si Si4 0.106809 0.374236 0.628972
Si Si5 0.909144 0.291762 0.569816
Si Si6 0.781157 0.131268 0.482593
O O1 0.750000 0.750000 0.500000
O O2 0.858189 0.741092 0.564554
O O3 0.902561 0.769675 0.796732
O O4 0.829411 0.993891 0.603187
O O5 0.889253 0.705558 0.456162
O O6 0.877854 0.463448 0.530937
O O7 0.000000 0.649619 0.750000
O O8 0.941465 0.529350 0.957351
O O9 0.914444 0.776412 0.983058
O O10 0.049136 0.730575 0.097912
O O11 0.196859 0.418865 0.804015
O O12 0.842590 0.195175 0.512030
O O13 0.000000 0.271377 0.750000
O O14 0.750000 0.250000 0.500000
#
# Coordination Sequence:
#
# PCOD8143526 Si02
#       6
#     8   8   8   8   8   8
#     4  12  24  41  66  98 130 166 228 277 325 394
#     4  10  21  41  69  96 125 173 219 272 326 404
#     4  10  21  42  70  97 124 174 221 272 331 398
#     4  10  21  40  69  96 129 167 223 271 337 396
#     4  10  23  43  67  93 134 172 212 263 343 405
#     4  12  26  43  63  95 136 175 219 276 341 400
#
# _framework density 20.928412999999999
#
# number of rings (size 3 to 8) (size 9 to 14) (size 15 to 20)
#    0.000    1.333    3.333    2.000    4.667    0.667 
#    3.000    1.667    0.000    0.000    0.000    0.000 
#    0.000    0.000    0.000    0.000    0.000    0.000 
#
# Total GULP energy -297418.456580 kJ/mol
# GULP energy per Si atom -12392.435691 kJ/mol
# Density = 2.088078 g / cm^3
# Si number density = 20.928413 Si / 1000 Ang^3
#
#
#
# Elastic Constant Matrix: (Units=GPa)
#
#
# Indices 1 2 3 4 5 6 
#
# 1 182.9996 62.8753 37.6556 0.0000 -7.6668 0.0000
# 2 62.8753 73.5074 14.0352 0.0000 0.9648 0.0000
# 3 37.6556 14.0352 66.0254 0.0000 -5.4762 0.0000
# 4 0.0000 0.0000 0.0000 22.0687 0.0000 -2.7426
# 5 -7.6668 0.9648 -5.4762 0.0000 43.9281 0.0000
# 6 0.0000 0.0000 0.0000 -2.7426 0.0000 29.0916
#
#
#
# Elastic Compliance Matrix: (Units=1/GPa)
#
#
# Indices 1 2 3 4 5 6 
#
# 1 0.008478 -0.006633 -0.003325 0.000000 0.001211 0.000000
# 2 -0.006633 0.019390 -0.000475 0.000000 -0.001643 0.000000
# 3 -0.003325 -0.000475 0.017274 0.000000 0.001584 0.000000
# 4 0.000000 0.000000 0.000000 0.045850 0.000000 0.004323
# 5 0.001211 -0.001643 0.001584 0.000000 0.023209 0.000000
# 6 0.000000 0.000000 0.000000 0.004323 0.000000 0.034782
#
#
# Mechanical properties :
#
#
# Convention : Reuss Voigt Hill
#
# Bulk Modulus (GPa) = 41.19206 61.29605 51.24405
# Shear Modulus (GPa) = 28.09898 32.88210 30.49054
#
# Velocity S-wave (km/s) = 3.66816 3.96810 3.82107
# Velocity P-wave (km/s) = 6.13723 7.09552 6.63370
#
# Compressibility (1/GPa) = 0.02427652
#
# Stress axis : x y z
#
# Youngs Moduli (GPa) = 117.94645 51.57281 57.88950
#
# Poissons Ratio (x) = 0.34209 0.19248
# Poissons Ratio (y) = 0.78236 0.02750
# Poissons Ratio (z) = 0.39217 0.02450
#
# Static dielectric constant tensor:
#      x y z
#    x 4.384290 0.000000 0.156630 
#    y 0.000000 3.402530 0.000000 
#    z 0.156630 0.000000 4.171120 
# 
# 
# High freq. dielectric constant tensor:
#      x y z
#    x 1.848790 0.000000 0.000810 
#    y 0.000000 1.790260 0.000000 
#    z 0.000810 0.000000 1.823830 
# 
# From -- ./inp_files/177012.got.cif
#   From: 2010.06.25/outbox.cif.g09.slc.cpg/sg15_89_cif.got.tgz:177012.got - 2010.06.28 07:06:18.
