data_PCOD8143641
_publ_section_title
;
Structure prediction by ZEFSAII (Michael W. Deem and Ramdas Pophale) SiO2 
 PCOD8143641
Probable space group: C 2/C
;
_chemical_formula_sum "Si O2"
_cell_formula_units_Z 56
_cell_length_a 14.543615
_cell_length_b 23.289867
_cell_length_c 8.757295
_cell_angle_alpha 90.000000
_cell_angle_beta 64.846444
_cell_angle_gamma 90.000000
_cell_volume 2684.976056
_symmetry_space_group_name_H-M "C 2/C"
_symmetry_group_IT_number 15
_symmetry_cell_setting 'monoclinic'
loop_
_space_group_symop_operation_xyz
x,y,z
-x,y,1/2-z
-x,-y,-z
x,-y,1/2+z
1/2+x,1/2+y,z
1/2-x,1/2+y,1/2-z
1/2-x,1/2-y,-z
1/2+x,1/2-y,1/2+z
loop_
_atom_site_type_symbol
_atom_site_label
_atom_site_fract_x
_atom_site_fract_y
_atom_site_fract_z
Si Si1 0.736567 0.028469 0.883065
Si Si2 0.394883 0.259452 0.386902
Si Si3 0.265390 0.245910 0.743494
Si Si4 0.738440 0.655024 0.007096
Si Si5 0.898108 0.067021 0.246467
Si Si6 0.402389 0.606303 0.907696
Si Si7 0.379231 0.941170 0.336758
O O1 0.797018 0.076842 0.933211
O O2 0.673021 0.057460 0.792386
O O3 0.819269 0.983236 0.762291
O O4 0.655083 0.997796 0.049060
O O5 0.500000 0.234179 0.250000
O O6 0.373275 0.238813 0.577212
O O7 0.312315 0.233511 0.330565
O O8 0.391132 0.327544 0.376992
O O9 0.232695 0.186482 0.847075
O O10 0.268480 0.297441 0.859192
O O11 0.841906 0.617624 0.945033
O O12 0.645114 0.611195 0.095460
O O13 0.000000 0.040999 0.250000
O O14 0.922426 0.099440 0.073143
O O15 0.500000 0.580425 0.750000
O O16 0.500000 0.940190 0.250000
#
# Coordination Sequence:
#
# PCOD8143641 Si02
#       7
#     8   8   8   8   8   8   8
#     4  11  23  42  64  88 129 163 202 260 313 373
#     4  10  22  38  61  91 123 155 205 250 309 370
#     4  10  21  41  62  87 122 165 201 255 312 366
#     4  10  23  40  63  87 124 162 207 257 309 365
#     4  11  24  39  61  96 128 161 205 253 318 387
#     4  11  23  38  63  94 128 161 202 253 322 385
#     4  11  24  42  63  90 120 165 219 257 305 361
#
# _framework density 20.856797
#
# number of rings (size 3 to 8) (size 9 to 14) (size 15 to 20)
#    0.000    1.429    2.857    1.714    8.000    2.286 
#    0.000    2.857    0.000    1.714    0.000    0.000 
#    0.000    0.000    0.000    0.000    0.000    0.000 
#
# Total GULP energy -347168.376534 kJ/mol
# GULP energy per Si atom -12398.870590 kJ/mol
# Density = 2.080933 g / cm^3
# Si number density = 20.856797 Si / 1000 Ang^3
#
#
#
# Elastic Constant Matrix: (Units=GPa)
#
#
# Indices 1 2 3 4 5 6 
#
# 1 114.7218 12.4418 50.7269 0.0000 -11.4050 0.0000
# 2 12.4418 36.2247 23.2593 0.0000 -1.5459 0.0000
# 3 50.7269 23.2593 147.2847 0.0000 -13.9918 0.0000
# 4 0.0000 0.0000 0.0000 20.0652 0.0000 -0.9311
# 5 -11.4050 -1.5459 -13.9918 0.0000 35.9662 0.0000
# 6 0.0000 0.0000 0.0000 -0.9311 0.0000 19.8106
#
#
#
# Elastic Compliance Matrix: (Units=1/GPa)
#
#
# Indices 1 2 3 4 5 6 
#
# 1 0.010487 -0.001469 -0.003188 0.000000 0.002022 0.000000
# 2 -0.001469 0.030938 -0.004463 0.000000 -0.000872 0.000000
# 3 -0.003188 -0.004463 0.008803 0.000000 0.002222 0.000000
# 4 0.000000 0.000000 0.000000 0.049946 0.000000 0.002348
# 5 0.002022 -0.000872 0.002222 0.000000 0.029272 0.000000
# 6 0.000000 0.000000 0.000000 0.002348 0.000000 0.050588
#
#
# Mechanical properties :
#
#
# Convention : Reuss Voigt Hill
#
# Bulk Modulus (GPa) = 31.26003 52.34304 41.80153
# Shear Modulus (GPa) = 23.93072 29.28861 26.60967
#
# Velocity S-wave (km/s) = 3.39098 3.75143 3.57575
# Velocity P-wave (km/s) = 5.50928 6.62685 6.09374
#
# Compressibility (1/GPa) = 0.03198974
#
# Stress axis : x y z
#
# Youngs Moduli (GPa) = 95.36017 32.32254 113.59353
#
# Poissons Ratio (x) = 0.04747 0.36210
# Poissons Ratio (y) = 0.14005 0.50694
# Poissons Ratio (z) = 0.30398 0.14425
#
# Static dielectric constant tensor:
#      x y z
#    x 3.599110 0.000000 -0.155150 
#    y 0.000000 3.752670 0.000000 
#    z -0.155150 0.000000 4.194980 
# 
# 
# High freq. dielectric constant tensor:
#      x y z
#    x 1.801220 0.000000 -0.001200 
#    y 0.000000 1.814960 0.000000 
#    z -0.001200 0.000000 1.837080 
# 
# From -- ./inp_files/42530.got.cif
#   From: 2010.06.25/outbox.cif.g09.slc.cpg/sg15_22_cif.got.tgz:42530.got - 2010.06.28 07:06:18.
