data_PCOD8143541
_publ_section_title
;
Structure prediction by ZEFSAII (Michael W. Deem and Ramdas Pophale) SiO2 
 PCOD8143541
Probable space group: C 2/C
;
_chemical_formula_sum "Si O2"
_cell_formula_units_Z 36
_cell_length_a 4.808952
_cell_length_b 27.222494
_cell_length_c 11.712280
_cell_angle_alpha 90.000000
_cell_angle_beta 78.059745
_cell_angle_gamma 90.000000
_cell_volume 1500.099978
_symmetry_space_group_name_H-M "C 2/C"
_symmetry_group_IT_number 15
_symmetry_cell_setting 'monoclinic'
loop_
_space_group_symop_operation_xyz
x,y,z
-x,y,1/2-z
-x,-y,-z
x,-y,1/2+z
1/2+x,1/2+y,z
1/2-x,1/2+y,1/2-z
1/2-x,1/2-y,-z
1/2+x,1/2-y,1/2+z
loop_
_atom_site_type_symbol
_atom_site_label
_atom_site_fract_x
_atom_site_fract_y
_atom_site_fract_z
Si Si1 0.156831 0.205584 0.134826
Si Si2 0.739523 0.823175 0.491540
Si Si3 0.500000 0.716961 0.750000
Si Si4 0.292183 0.027301 0.870660
Si Si5 0.739577 0.065867 0.991916
O O1 0.276656 0.252859 0.191857
O O2 0.000000 0.174134 0.250000
O O3 0.404500 0.179846 0.043810
O O4 0.913355 0.215951 0.058159
O O5 0.810954 0.878577 0.522528
O O6 0.810703 0.815965 0.352055
O O7 0.500000 0.036459 0.750000
O O8 0.428693 0.057818 0.964479
O O9 0.978471 0.049402 0.878839
O O10 0.249022 0.969260 0.898278
#
# Coordination Sequence:
#
# PCOD8143541 Si02
#       5
#     8   8   4   8   8
#     4  12  26  47  69  97 139 186 231 290 351 402
#     4  12  27  44  72 104 139 178 244 282 338 427
#     4  12  28  44  74  98 140 192 228 296 352 398
#     4  10  21  40  70  91 143 172 210 272 344 405
#     4  10  23  43  62 107 128 175 223 274 333 403
#
# _framework density 23.998403
#
# number of rings (size 3 to 8) (size 9 to 14) (size 15 to 20)
#    0.000    0.889    2.222    3.333    6.222    1.778 
#    0.000    0.000    0.000    0.000    0.000    0.000 
#    0.000    0.000    0.000    0.000    0.000    0.000 
#
# Total GULP energy -223050.004255 kJ/mol
# GULP energy per Si atom -12391.666903 kJ/mol
# Density = 2.394378 g / cm^3
# Si number density = 23.998403 Si / 1000 Ang^3
#
#
#
# Elastic Constant Matrix: (Units=GPa)
#
#
# Indices 1 2 3 4 5 6 
#
# 1 110.2485 10.8753 31.7450 0.0000 -15.6833 0.0000
# 2 10.8753 64.5052 10.4142 0.0000 1.1784 0.0000
# 3 31.7450 10.4142 155.1604 0.0000 -27.0755 0.0000
# 4 0.0000 0.0000 0.0000 10.9389 0.0000 1.5906
# 5 -15.6833 1.1784 -27.0755 0.0000 43.1771 0.0000
# 6 0.0000 0.0000 0.0000 1.5906 0.0000 14.7619
#
#
#
# Elastic Compliance Matrix: (Units=1/GPa)
#
#
# Indices 1 2 3 4 5 6 
#
# 1 0.010035 -0.001505 -0.001470 0.000000 0.002765 0.000000
# 2 -0.001505 0.015956 -0.001049 0.000000 -0.001640 0.000000
# 3 -0.001470 -0.001049 0.007555 0.000000 0.004232 0.000000
# 4 0.000000 0.000000 0.000000 0.092872 0.000000 -0.010007
# 5 0.002765 -0.001640 0.004232 0.000000 0.026863 0.000000
# 6 0.000000 0.000000 0.000000 -0.010007 0.000000 0.068820
#
#
# Mechanical properties :
#
#
# Convention : Reuss Voigt Hill
#
# Bulk Modulus (GPa) = 39.21948 48.44257 43.83103
# Shear Modulus (GPa) = 20.95136 32.23422 26.59279
#
# Velocity S-wave (km/s) = 2.95792 3.66892 3.33244
# Velocity P-wave (km/s) = 5.29563 6.17880 5.75418
#
# Compressibility (1/GPa) = 0.02549753
#
# Stress axis : x y z
#
# Youngs Moduli (GPa) = 99.64755 62.67341 132.37033
#
# Poissons Ratio (x) = 0.09433 0.19455
# Poissons Ratio (y) = 0.14998 0.13888
# Poissons Ratio (z) = 0.14646 0.06576
#
# Static dielectric constant tensor:
#      x y z
#    x 4.538630 0.000000 -0.321420 
#    y 0.000000 3.984380 0.000000 
#    z -0.321420 0.000000 4.619920 
# 
# 
# High freq. dielectric constant tensor:
#      x y z
#    x 1.971340 0.000000 -0.024060 
#    y 0.000000 1.918070 0.000000 
#    z -0.024060 0.000000 1.964060 
# 
# From -- ./inp_files/129606.got.cif
#   From: 2010.06.25/outbox.cif.g09.slc.cpg/sg15_65_cif.got.tgz:129606.got - 2010.06.28 07:06:18.
