data_PCOD8143226
_publ_section_title
;
Structure prediction by ZEFSAII (Michael W. Deem and Ramdas Pophale) SiO2 
 PCOD8143226
Probable space group: C 2/C
;
_chemical_formula_sum "Si O2"
_cell_formula_units_Z 48
_cell_length_a 8.466749
_cell_length_b 17.960837
_cell_length_c 16.176372
_cell_angle_alpha 90.000000
_cell_angle_beta 114.499218
_cell_angle_gamma 90.000000
_cell_volume 2238.463370
_symmetry_space_group_name_H-M "C 2/C"
_symmetry_group_IT_number 15
_symmetry_cell_setting 'monoclinic'
loop_
_space_group_symop_operation_xyz
x,y,z
-x,y,1/2-z
-x,-y,-z
x,-y,1/2+z
1/2+x,1/2+y,z
1/2-x,1/2+y,1/2-z
1/2-x,1/2-y,-z
1/2+x,1/2-y,1/2+z
loop_
_atom_site_type_symbol
_atom_site_label
_atom_site_fract_x
_atom_site_fract_y
_atom_site_fract_z
Si Si1 0.832535 0.306234 0.912970
Si Si2 0.814439 0.229173 0.742104
Si Si3 0.359014 0.439265 0.992764
Si Si4 0.985500 0.201720 0.426346
Si Si5 0.516521 0.963283 0.592408
Si Si6 0.181980 0.063979 0.820411
O O1 0.805418 0.242313 0.838395
O O2 0.647727 0.330227 0.910323
O O3 0.920379 0.378666 0.894673
O O4 0.958024 0.275236 0.011600
O O5 0.667390 0.278657 0.668830
O O6 0.785936 0.142712 0.716551
O O7 0.000000 0.257028 0.750000
O O8 0.420129 0.359617 0.975400
O O9 0.176587 0.463612 0.909827
O O10 0.500000 0.500000 0.000000
O O11 0.328558 0.429319 0.083407
O O12 0.500000 0.000000 0.500000
O O13 0.658443 0.011327 0.674013
O O14 0.000000 0.029003 0.750000
#
# Coordination Sequence:
#
# PCOD8143226 Si02
#       6
#     8   8   8   8   8   8
#     4  11  24  40  65  95 126 167 215 265 322 388
#     4  11  23  40  63  93 123 165 215 261 320 385
#     4  11  23  40  64  93 125 167 215 261 322 391
#     4  11  22  40  63  91 130 166 204 266 324 379
#     4  10  21  40  64  90 124 166 211 261 318 379
#     4  10  22  41  65  90 126 168 211 267 321 383
#
# _framework density 21.443282
#
# number of rings (size 3 to 8) (size 9 to 14) (size 15 to 20)
#    0.000    1.333    0.000    7.500    0.000    6.000 
#    0.000    5.833    0.000    0.000    0.000    0.000 
#    0.000    0.000    0.000    0.000    0.000    0.000 
#
# Total GULP energy -297643.462183 kJ/mol
# GULP energy per Si atom -12401.810924 kJ/mol
# Density = 2.139448 g / cm^3
# Si number density = 21.443282 Si / 1000 Ang^3
#
#
#
# Elastic Constant Matrix: (Units=GPa)
#
#
# Indices 1 2 3 4 5 6 
#
# 1 154.0825 52.6169 41.7837 0.0000 32.8882 0.0000
# 2 52.6169 95.8833 19.4967 0.0000 15.3294 0.0000
# 3 41.7837 19.4967 83.6222 0.0000 17.4642 0.0000
# 4 0.0000 0.0000 0.0000 25.8455 0.0000 -5.7334
# 5 32.8882 15.3294 17.4642 0.0000 47.5583 0.0000
# 6 0.0000 0.0000 0.0000 -5.7334 0.0000 22.1717
#
#
#
# Elastic Compliance Matrix: (Units=1/GPa)
#
#
# Indices 1 2 3 4 5 6 
#
# 1 0.009551 -0.003961 -0.002963 0.000000 -0.004240 0.000000
# 2 -0.003961 0.012948 -0.000802 0.000000 -0.001140 0.000000
# 3 -0.002963 -0.000802 0.014236 0.000000 -0.002920 0.000000
# 4 0.000000 0.000000 0.000000 0.041046 0.000000 0.010614
# 5 -0.004240 -0.001140 -0.002920 0.000000 0.025399 0.000000
# 6 0.000000 0.000000 0.000000 0.010614 0.000000 0.047847
#
#
# Mechanical properties :
#
#
# Convention : Reuss Voigt Hill
#
# Bulk Modulus (GPa) = 46.98481 62.37584 54.68033
# Shear Modulus (GPa) = 28.80615 33.76114 31.28365
#
# Velocity S-wave (km/s) = 3.66917 3.97222 3.82370
# Velocity P-wave (km/s) = 6.31737 7.08449 6.71190
#
# Compressibility (1/GPa) = 0.02128347
#
# Stress axis : x y z
#
# Youngs Moduli (GPa) = 104.69806 77.23081 70.24423
#
# Poissons Ratio (x) = 0.30590 0.20817
# Poissons Ratio (y) = 0.41470 0.05631
# Poissons Ratio (z) = 0.31027 0.06191
#
# Static dielectric constant tensor:
#      x y z
#    x 4.374620 0.000000 0.356840 
#    y 0.000000 3.884850 0.000000 
#    z 0.356840 0.000000 4.187120 
# 
# 
# High freq. dielectric constant tensor:
#      x y z
#    x 1.855060 0.000000 0.022740 
#    y 0.000000 1.842700 0.000000 
#    z 0.022740 0.000000 1.841110 
# 
# From -- ./inp_files/190603.got.cif
#   From: 2010.06.25/outbox.cif.g09.slc.cpg/sg15_96_cif.got.tgz:190603.got - 2010.06.28 07:06:18.
