data_PCOD8143728
_publ_section_title
;
Structure prediction by ZEFSAII (Michael W. Deem and Ramdas Pophale) SiO2 
 PCOD8143728
Probable space group: C 2/C
;
_chemical_formula_sum "Si O2"
_cell_formula_units_Z 56
_cell_length_a 11.876473
_cell_length_b 17.701293
_cell_length_c 17.057607
_cell_angle_alpha 90.000000
_cell_angle_beta 50.142579
_cell_angle_gamma 90.000000
_cell_volume 2752.764756
_symmetry_space_group_name_H-M "C 2/C"
_symmetry_group_IT_number 15
_symmetry_cell_setting 'monoclinic'
loop_
_space_group_symop_operation_xyz
x,y,z
-x,y,1/2-z
-x,-y,-z
x,-y,1/2+z
1/2+x,1/2+y,z
1/2-x,1/2+y,1/2-z
1/2-x,1/2-y,-z
1/2+x,1/2-y,1/2+z
loop_
_atom_site_type_symbol
_atom_site_label
_atom_site_fract_x
_atom_site_fract_y
_atom_site_fract_z
Si Si1 0.350503 0.163985 0.273614
Si Si2 0.367413 0.554908 0.653366
Si Si3 0.860813 0.299811 0.403191
Si Si4 0.815759 0.058989 0.039681
Si Si5 0.311251 0.206838 0.748082
Si Si6 0.875553 0.544744 0.965689
Si Si7 0.668740 0.035337 0.339925
O O1 0.500000 0.187867 0.250000
O O2 0.234889 0.132720 0.389556
O O3 0.286750 0.236276 0.257989
O O4 0.385929 0.100818 0.193505
O O5 0.537596 0.578642 0.574893
O O6 0.333189 0.514003 0.586932
O O7 0.267010 0.626621 0.714642
O O8 0.327506 0.496131 0.741079
O O9 0.750000 0.250000 0.500000
O O10 0.838467 0.269848 0.325558
O O11 0.825525 0.388779 0.429127
O O12 0.026585 0.291978 0.362460
O O13 0.695061 0.034601 0.029778
O O14 0.050748 0.532947 0.888190
O O15 0.817777 0.566484 0.078124
#
# Coordination Sequence:
#
# PCOD8143728 Si02
#       7
#     8   8   8   8   8   8   8
#     4  11  23  43  63  95 132 176 217 273 322 396
#     4  10  21  41  63  97 128 167 212 271 328 397
#     4  11  24  40  68  97 131 170 221 274 338 396
#     4  10  22  39  71  93 125 167 221 267 328 387
#     4  11  24  41  64  95 134 178 214 267 336 394
#     4  11  20  40  66  97 122 167 215 274 324 392
#     4  10  22  38  67  93 127 160 224 268 325 386
#
# _framework density 20.343184000000001
#
# number of rings (size 3 to 8) (size 9 to 14) (size 15 to 20)
#    0.000    1.429    4.286    0.857    2.000    1.714 
#    2.571    0.714    0.000    0.000    0.000    0.000 
#    0.000    0.000    0.000    0.000    0.000    0.000 
#
# Total GULP energy -347077.213407 kJ/mol
# GULP energy per Si atom -12395.614765 kJ/mol
# Density = 2.029688 g / cm^3
# Si number density = 20.343184 Si / 1000 Ang^3
#
#
#
# Elastic Constant Matrix: (Units=GPa)
#
#
# Indices 1 2 3 4 5 6 
#
# 1 101.7182 44.0980 54.3588 -0.0001 -6.5782 -0.0003
# 2 44.0980 88.7863 41.9843 -0.0002 -9.5721 -0.0001
# 3 54.3588 41.9843 135.4346 -0.0008 -16.9588 0.0002
# 4 -0.0001 -0.0002 -0.0008 21.8037 0.0003 0.6065
# 5 -6.5782 -9.5721 -16.9588 0.0003 32.5234 0.0001
# 6 -0.0003 -0.0001 0.0002 0.6065 0.0001 37.4812
#
#
#
# Elastic Compliance Matrix: (Units=1/GPa)
#
#
# Indices 1 2 3 4 5 6 
#
# 1 0.014286 -0.005185 -0.004232 0.000000 -0.000843 0.000000
# 2 -0.005185 0.015187 -0.002352 0.000000 0.002195 0.000000
# 3 -0.004232 -0.002352 0.010289 0.000000 0.003817 0.000000
# 4 0.000000 0.000000 0.000000 0.045885 0.000000 -0.000743
# 5 -0.000843 0.002195 0.003817 0.000000 0.033213 0.000000
# 6 0.000000 0.000000 0.000000 -0.000743 0.000000 0.026692
#
#
# Mechanical properties :
#
#
# Convention : Reuss Voigt Hill
#
# Bulk Modulus (GPa) = 61.63756 67.42459 64.53108
# Shear Modulus (GPa) = 28.65348 30.72818 29.69083
#
# Velocity S-wave (km/s) = 3.75708 3.89072 3.82448
# Velocity P-wave (km/s) = 7.01324 7.30747 7.16186
#
# Compressibility (1/GPa) = 0.01622387
#
# Stress axis : x y z
#
# Youngs Moduli (GPa) = 69.99757 65.84497 97.18792
#
# Poissons Ratio (x) = 0.34142 0.41132
# Poissons Ratio (y) = 0.36296 0.22858
# Poissons Ratio (z) = 0.29624 0.15487
#
# Static dielectric constant tensor:
#      x y z
#    x 3.567300 0.000000 -0.057950 
#    y 0.000000 3.471540 0.000000 
#    z -0.057950 0.000000 3.923080 
# 
# 
# High freq. dielectric constant tensor:
#      x y z
#    x 1.784680 0.000000 -0.004970 
#    y 0.000000 1.780440 0.000000 
#    z -0.004970 0.000000 1.807780 
# 
# From -- ./inp_files/199446.got.cif
#   From: 2010.06.25/outbox.cif.g09.slc.cpg/sg15_100_cif.got.tgz:199446.got - 2010.06.28 07:06:18.
