data_PCOD8143669
_publ_section_title
;
Structure prediction by ZEFSAII (Michael W. Deem and Ramdas Pophale) SiO2 
 PCOD8143669
Probable space group: C 2/C
;
_chemical_formula_sum "Si O2"
_cell_formula_units_Z 56
_cell_length_a 10.235156
_cell_length_b 20.770945
_cell_length_c 14.069849
_cell_angle_alpha 90.000000
_cell_angle_beta 80.068731
_cell_angle_gamma 90.000000
_cell_volume 2946.342002
_symmetry_space_group_name_H-M "C 2/C"
_symmetry_group_IT_number 15
_symmetry_cell_setting 'monoclinic'
loop_
_space_group_symop_operation_xyz
x,y,z
-x,y,1/2-z
-x,-y,-z
x,-y,1/2+z
1/2+x,1/2+y,z
1/2-x,1/2+y,1/2-z
1/2-x,1/2-y,-z
1/2+x,1/2-y,1/2+z
loop_
_atom_site_type_symbol
_atom_site_label
_atom_site_fract_x
_atom_site_fract_y
_atom_site_fract_z
Si Si1 0.857495 0.186622 0.755967
Si Si2 0.621933 0.952835 0.799282
Si Si3 0.648174 0.355561 0.756205
Si Si4 0.103754 0.601124 0.815680
Si Si5 0.302588 0.230998 0.094259
Si Si6 0.510102 0.125076 0.034778
Si Si7 0.280800 0.793374 0.904433
O O1 0.737107 0.142249 0.804457
O O2 0.837832 0.204683 0.648266
O O3 0.866872 0.250904 0.819879
O O4 0.000000 0.150832 0.750000
O O5 0.500000 0.929169 0.750000
O O6 0.757300 0.918006 0.751836
O O7 0.575757 0.933382 0.911048
O O8 0.646786 0.028512 0.787602
O O9 0.500000 0.378235 0.750000
O O10 0.693335 0.308877 0.665936
O O11 0.654162 0.318126 0.857693
O O12 0.000000 0.627077 0.750000
O O13 0.028568 0.606005 0.924065
O O14 0.435077 0.191955 0.057643
O O15 0.250000 0.250000 0.000000
O O16 0.648217 0.140516 0.070934
O O17 0.250000 0.750000 0.000000
#
# Coordination Sequence:
#
# PCOD8143669 Si02
#       7
#     8   8   8   8   8   8   8
#     4  11  22  36  56  89 121 153 190 235 304 357
#     4  10  21  41  63  83 114 160 208 242 286 351
#     4  10  23  37  60  88 117 152 198 245 297 351
#     4  11  24  39  60  87 119 158 201 249 289 346
#     4  10  22  34  57  84 120 152 184 239 295 355
#     4  11  20  38  63  84 113 157 202 240 288 354
#     4  11  21  36  61  87 118 156 194 239 299 364
#
# _framework density 19.006619000000001
#
# number of rings (size 3 to 8) (size 9 to 14) (size 15 to 20)
#    0.000    1.429    4.286    1.286    2.000    2.857 
#    0.000    0.000    0.000    0.857    0.000    0.000 
#    0.000    0.000    0.000    0.000    0.000    0.000 
#
# Total GULP energy -347116.199605 kJ/mol
# GULP energy per Si atom -12397.007129 kJ/mol
# Density = 1.896336 g / cm^3
# Si number density = 19.006619 Si / 1000 Ang^3
#
#
#
# Elastic Constant Matrix: (Units=GPa)
#
#
# Indices 1 2 3 4 5 6 
#
# 1 123.4596 27.2740 38.4024 0.0000 5.5674 0.0000
# 2 27.2740 51.9422 18.9639 0.0000 2.1802 0.0000
# 3 38.4024 18.9639 127.0840 0.0000 11.9549 0.0000
# 4 0.0000 0.0000 0.0000 23.1035 0.0000 3.5721
# 5 5.5674 2.1802 11.9549 0.0000 24.2286 0.0000
# 6 0.0000 0.0000 0.0000 3.5721 0.0000 18.5024
#
#
#
# Elastic Compliance Matrix: (Units=1/GPa)
#
#
# Indices 1 2 3 4 5 6 
#
# 1 0.009778 -0.004283 -0.002245 0.000000 -0.000754 0.000000
# 2 -0.004283 0.022241 -0.002023 0.000000 -0.000019 0.000000
# 3 -0.002245 -0.002023 0.009211 0.000000 -0.003847 0.000000
# 4 0.000000 0.000000 0.000000 0.044615 0.000000 -0.008613
# 5 -0.000754 -0.000019 -0.003847 0.000000 0.043347 0.000000
# 6 0.000000 0.000000 0.000000 -0.008613 0.000000 0.055710
#
#
# Mechanical properties :
#
#
# Convention : Reuss Voigt Hill
#
# Bulk Modulus (GPa) = 41.44507 52.41849 46.93178
# Shear Modulus (GPa) = 23.80438 27.68994 25.74716
#
# Velocity S-wave (km/s) = 3.54280 3.82102 3.68454
# Velocity P-wave (km/s) = 6.21194 6.86337 6.54577
#
# Compressibility (1/GPa) = 0.02412832
#
# Stress axis : x y z
#
# Youngs Moduli (GPa) = 102.26762 44.96299 108.56754
#
# Poissons Ratio (x) = 0.19259 0.24371
# Poissons Ratio (y) = 0.43804 0.21960
# Poissons Ratio (z) = 0.22956 0.09095
#
# Static dielectric constant tensor:
#      x y z
#    x 3.346130 0.000000 0.082730 
#    y 0.000000 3.263310 0.000000 
#    z 0.082730 0.000000 3.611800 
# 
# 
# High freq. dielectric constant tensor:
#      x y z
#    x 1.734250 0.000000 0.008200 
#    y 0.000000 1.719610 0.000000 
#    z 0.008200 0.000000 1.753680 
# 
# From -- ./inp_files/136447.got.cif
#   From: 2010.06.25/outbox.cif.g09.slc.cpg/sg15_69_cif.got.tgz:136447.got - 2010.06.28 07:06:18.
