data_PCOD8143133
_publ_section_title
;
Structure prediction by ZEFSAII (Michael W. Deem and Ramdas Pophale) SiO2 
 PCOD8143133
Probable space group: C 2/C
;
_chemical_formula_sum "Si O2"
_cell_formula_units_Z 40
_cell_length_a 16.273913
_cell_length_b 5.025934
_cell_length_c 22.334685
_cell_angle_alpha 90.000000
_cell_angle_beta 74.449817
_cell_angle_gamma 90.000000
_cell_volume 1759.922124
_symmetry_space_group_name_H-M "C 2/C"
_symmetry_group_IT_number 15
_symmetry_cell_setting 'monoclinic'
loop_
_space_group_symop_operation_xyz
x,y,z
-x,y,1/2-z
-x,-y,-z
x,-y,1/2+z
1/2+x,1/2+y,z
1/2-x,1/2+y,1/2-z
1/2-x,1/2-y,-z
1/2+x,1/2-y,1/2+z
loop_
_atom_site_type_symbol
_atom_site_label
_atom_site_fract_x
_atom_site_fract_y
_atom_site_fract_z
Si Si1 0.699999 0.111249 0.330358
Si Si2 0.843110 0.134114 0.472080
Si Si3 0.555623 0.817607 0.945440
Si Si4 0.404201 0.149958 0.398700
Si Si5 0.814599 0.382661 0.800310
O O1 0.632701 0.036960 0.395258
O O2 0.743079 0.399581 0.331921
O O3 0.654064 0.087989 0.274203
O O4 0.775827 0.905331 0.318052
O O5 0.750000 0.250000 0.500000
O O6 0.897960 0.089633 0.523220
O O7 0.895048 0.353397 0.424952
O O8 0.833249 0.854869 0.438936
O O9 0.493350 0.715364 0.904172
O O10 0.500000 0.000000 0.000000
O O11 0.396330 0.116382 0.328613
#
# Coordination Sequence:
#
# PCOD8143133 Si02
#       5
#     8   8   8   8   8
#     4  10  22  40  62  85 117 153 199 243 288 347
#     4  11  22  37  58  82 115 155 193 234 281 345
#     4  10  23  39  58  89 124 155 189 241 300 352
#     4  11  22  36  57  85 116 148 192 238 290 343
#     4  10  21  40  63  86 111 155 202 244 285 341
#
# _framework density 22.728278
#
# number of rings (size 3 to 8) (size 9 to 14) (size 15 to 20)
#    0.000    1.600    0.000    4.800    0.000    8.800 
#    0.000    0.000    0.000   12.000    0.000    0.000 
#    0.000    0.000    0.000    0.000    0.000    0.000 
#
# Total GULP energy -247771.805783 kJ/mol
# GULP energy per Si atom -12388.590289 kJ/mol
# Density = 2.267655 g / cm^3
# Si number density = 22.728278 Si / 1000 Ang^3
#
#
#
# Elastic Constant Matrix: (Units=GPa)
#
#
# Indices 1 2 3 4 5 6 
#
# 1 88.7784 -4.1744 50.9131 -0.0042 45.9905 -0.0056
# 2 -4.1744 67.2214 21.0976 -0.0097 9.0453 -0.0037
# 3 50.9131 21.0976 134.0014 -0.0065 25.0000 -0.0076
# 4 -0.0042 -0.0097 -0.0065 25.7914 -0.0046 2.0699
# 5 45.9905 9.0453 25.0000 -0.0046 61.8564 -0.0051
# 6 -0.0056 -0.0037 -0.0076 2.0699 -0.0051 17.6480
#
#
#
# Elastic Compliance Matrix: (Units=1/GPa)
#
#
# Indices 1 2 3 4 5 6 
#
# 1 0.023592 0.005745 -0.006964 0.000001 -0.015566 0.000001
# 2 0.005745 0.017161 -0.003915 0.000005 -0.005199 0.000002
# 3 -0.006964 -0.003915 0.010439 0.000000 0.001531 0.000002
# 4 0.000001 0.000005 0.000000 0.039141 0.000001 -0.004591
# 5 -0.015566 -0.005199 0.001531 0.000001 0.027881 0.000003
# 6 0.000001 0.000002 0.000002 -0.004591 0.000003 0.057202
#
#
# Mechanical properties :
#
#
# Convention : Reuss Voigt Hill
#
# Bulk Modulus (GPa) = 24.43491 47.29707 35.86599
# Shear Modulus (GPa) = 25.08458 35.87015 30.47737
#
# Velocity S-wave (km/s) = 3.32576 3.97699 3.66586
# Velocity P-wave (km/s) = 5.05191 6.47638 5.80798
#
# Compressibility (1/GPa) = 0.04092505
#
# Stress axis : x y z
#
# Youngs Moduli (GPa) = 42.38775 58.27083 95.79214
#
# Poissons Ratio (x) = -0.33478 0.66710
# Poissons Ratio (y) = -0.24353 0.37501
# Poissons Ratio (z) = 0.29519 0.22812
#
# Static dielectric constant tensor:
#      x y z
#    x 4.330910 0.000000 0.634100 
#    y 0.000000 3.996230 -0.000010 
#    z 0.634100 -0.000010 4.587500 
# 
# 
# High freq. dielectric constant tensor:
#      x y z
#    x 1.889980 0.000000 0.032890 
#    y 0.000000 1.885470 0.000000 
#    z 0.032890 0.000000 1.900210 
# 
# From -- ./inp_files/246222.got.cif
#   From: 2010.06.25/outbox.cif.g09.slc.cpg/sg15_124_cif.got.tgz:246222.got - 2010.06.28 07:06:18.
