data_PCOD8143459
_publ_section_title
;
Structure prediction by ZEFSAII (Michael W. Deem and Ramdas Pophale) SiO2 
 PCOD8143459
Probable space group: C 2/C
;
_chemical_formula_sum "Si O2"
_cell_formula_units_Z 56
_cell_length_a 11.604116
_cell_length_b 29.658502
_cell_length_c 14.396453
_cell_angle_alpha 90.000000
_cell_angle_beta 30.517291
_cell_angle_gamma 90.000000
_cell_volume 2515.985168
_symmetry_space_group_name_H-M "C 2/C"
_symmetry_group_IT_number 15
_symmetry_cell_setting 'monoclinic'
loop_
_space_group_symop_operation_xyz
x,y,z
-x,y,1/2-z
-x,-y,-z
x,-y,1/2+z
1/2+x,1/2+y,z
1/2-x,1/2+y,1/2-z
1/2-x,1/2-y,-z
1/2+x,1/2-y,1/2+z
loop_
_atom_site_type_symbol
_atom_site_label
_atom_site_fract_x
_atom_site_fract_y
_atom_site_fract_z
Si Si1 0.407957 0.045460 0.109979
Si Si2 0.500000 0.362708 0.250000
Si Si3 0.584184 0.460387 0.505519
Si Si4 0.647927 0.273731 0.839443
Si Si5 0.000000 0.485445 0.750000
Si Si6 0.739232 0.106475 0.769917
Si Si7 0.135671 0.287995 0.516993
Si Si8 0.687569 0.807650 0.193400
O O1 0.455931 0.044928 0.188451
O O2 0.137050 0.053525 0.280594
O O3 0.528074 0.086198 0.973211
O O4 0.500000 0.000000 0.000000
O O5 0.547131 0.393340 0.307417
O O6 0.279099 0.333111 0.424646
O O7 0.500000 0.500000 0.500000
O O8 0.788836 0.481577 0.423656
O O9 0.687270 0.419867 0.373103
O O10 0.609918 0.231469 0.932900
O O11 0.660224 0.245702 0.734744
O O12 0.872607 0.299175 0.723284
O O13 0.446190 0.310469 0.974285
O O14 0.669868 0.157435 0.791180
O O15 0.250000 0.250000 0.500000
O O16 0.500000 0.822921 0.250000
#
# Coordination Sequence:
#
# PCOD8143459 Si02
#       8
#     8   4   8   8   4   8   8   8
#     4  11  24  45  72 103 140 180 236 286 348 431
#     4  12  24  38  66  99 146 176 218 301 352 398
#     4  10  23  46  69 101 136 180 235 281 353 422
#     4  10  21  40  67  96 129 181 240 274 352 421
#     4  10  22  44  78 101 132 194 224 285 360 420
#     4  12  26  43  68 108 141 182 236 300 349 419
#     4  11  18  37  64  96 133 180 225 277 351 418
#     4  11  24  44  70  95 140 184 236 299 346 418
#
# _framework density 22.257683
#
# number of rings (size 3 to 8) (size 9 to 14) (size 15 to 20)
#    0.000    1.143    5.714    1.286    5.000    1.714 
#    0.000    1.429    3.143    0.000    0.000    0.000 
#    0.000    0.000    0.000    0.000    0.000    0.000 
#
# Total GULP energy -346934.872374 kJ/mol
# GULP energy per Si atom -12390.531156 kJ/mol
# Density = 2.220702 g / cm^3
# Si number density = 22.257683 Si / 1000 Ang^3
#
#
#
# Elastic Constant Matrix: (Units=GPa)
#
#
# Indices 1 2 3 4 5 6 
#
# 1 80.5175 11.2267 42.4968 0.0000 -26.4154 0.0000
# 2 11.2267 72.0874 44.4493 0.0000 -10.2827 0.0000
# 3 42.4968 44.4493 169.6882 0.0002 -35.4294 0.0000
# 4 0.0000 0.0000 0.0002 38.7655 -0.0001 2.8391
# 5 -26.4154 -10.2827 -35.4294 -0.0001 43.5955 0.0000
# 6 0.0000 0.0000 0.0000 2.8391 0.0000 32.2486
#
#
#
# Elastic Compliance Matrix: (Units=1/GPa)
#
#
# Indices 1 2 3 4 5 6 
#
# 1 0.016294 0.000105 -0.002459 0.000000 0.007900 0.000000
# 2 0.000105 0.016553 -0.004256 0.000000 0.000509 0.000000
# 3 -0.002459 -0.004256 0.008555 0.000000 0.004458 0.000000
# 4 0.000000 0.000000 0.000000 0.025964 0.000000 -0.002286
# 5 0.007900 0.000509 0.004458 0.000000 0.031468 0.000000
# 6 0.000000 0.000000 0.000000 -0.002286 0.000000 0.031210
#
#
# Mechanical properties :
#
#
# Convention : Reuss Voigt Hill
#
# Bulk Modulus (GPa) = 35.48295 57.62653 46.55474
# Shear Modulus (GPa) = 32.75315 37.86327 35.30821
#
# Velocity S-wave (km/s) = 3.84023 4.12895 3.98721
# Velocity P-wave (km/s) = 5.96990 6.97695 6.49298
#
# Compressibility (1/GPa) = 0.02818255
#
# Stress axis : x y z
#
# Youngs Moduli (GPa) = 61.37058 60.41376 116.89435
#
# Poissons Ratio (x) = -0.00637 0.28745
# Poissons Ratio (y) = -0.00647 0.49750
# Poissons Ratio (z) = 0.15091 0.25712
#
# Static dielectric constant tensor:
#      x y z
#    x 4.046790 0.000000 -0.263720 
#    y 0.000000 4.001870 0.000000 
#    z -0.263720 0.000000 4.433860 
# 
# 
# High freq. dielectric constant tensor:
#      x y z
#    x 1.873620 0.000000 -0.014220 
#    y 0.000000 1.854420 0.000000 
#    z -0.014220 0.000000 1.885970 
# 
# From -- ./inp_files/149292.got.cif
#   From: 2010.06.25/outbox.cif.g09.slc.cpg/sg15_75_cif.got.tgz:149292.got - 2010.06.28 07:06:18.
