data_PCOD8143648
_publ_section_title
;
Structure prediction by ZEFSAII (Michael W. Deem and Ramdas Pophale) SiO2 
 PCOD8143648
Probable space group: C 2/C
;
_chemical_formula_sum "Si O2"
_cell_formula_units_Z 52
_cell_length_a 16.231677
_cell_length_b 8.487499
_cell_length_c 29.780197
_cell_angle_alpha 90.000000
_cell_angle_beta 140.074102
_cell_angle_gamma 90.000000
_cell_volume 2633.103455
_symmetry_space_group_name_H-M "C 2/C"
_symmetry_group_IT_number 15
_symmetry_cell_setting 'monoclinic'
loop_
_space_group_symop_operation_xyz
x,y,z
-x,y,1/2-z
-x,-y,-z
x,-y,1/2+z
1/2+x,1/2+y,z
1/2-x,1/2+y,1/2-z
1/2-x,1/2-y,-z
1/2+x,1/2-y,1/2+z
loop_
_atom_site_type_symbol
_atom_site_label
_atom_site_fract_x
_atom_site_fract_y
_atom_site_fract_z
Si Si1 0.129030 0.787985 0.323255
Si Si2 0.891453 0.730672 0.782146
Si Si3 0.105117 0.190803 0.440439
Si Si4 0.500000 0.017933 0.750000
Si Si5 0.713828 0.394501 0.455393
Si Si6 0.020987 0.545334 0.958068
Si Si7 0.271927 0.963525 0.307907
O O1 0.109561 0.597395 0.317281
O O2 0.151383 0.847921 0.382421
O O3 0.238884 0.842773 0.334761
O O4 0.000000 0.869184 0.250000
O O5 0.924382 0.626472 0.752983
O O6 0.786996 0.636894 0.768578
O O7 0.026163 0.755385 0.863500
O O8 0.829072 0.896317 0.741007
O O9 0.250000 0.250000 0.500000
O O10 0.029973 0.263720 0.452463
O O11 0.112639 0.000655 0.441704
O O12 0.750000 0.250000 0.500000
O O13 0.844060 0.485075 0.501815
O O14 0.910030 0.466693 0.880954
O O15 0.000000 0.500000 0.000000
#
# Coordination Sequence:
#
# PCOD8143648 Si02
#       7
#     8   8   8   4   8   8   8
#     4  10  23  40  64  90 132 163 222 263 323 388
#     4  11  24  41  67  94 130 165 216 269 335 384
#     4   9  22  38  64  90 125 163 212 254 323 389
#     4  10  26  38  64  96 124 166 220 262 322 388
#     4  11  23  40  65  93 130 170 214 267 324 387
#     4  10  21  41  62  90 124 167 207 264 322 389
#     4  11  23  41  66  91 130 167 212 274 331 390
#
# _framework density 19.748560000000001
#
# number of rings (size 3 to 8) (size 9 to 14) (size 15 to 20)
#    0.462    1.231    1.538    1.846    9.692    1.231 
#    0.000    0.769    0.000    0.000    0.000    0.000 
#    0.000    0.000    0.000    0.000    0.000    0.000 
#
# Total GULP energy -322104.434613 kJ/mol
# GULP energy per Si atom -12388.632100 kJ/mol
# Density = 1.970361 g / cm^3
# Si number density = 19.748560 Si / 1000 Ang^3
#
#
#
# Elastic Constant Matrix: (Units=GPa)
#
#
# Indices 1 2 3 4 5 6 
#
# 1 99.6406 73.1144 45.4110 0.0000 -24.7378 0.0000
# 2 73.1144 139.3261 51.5280 0.0000 -11.9278 0.0000
# 3 45.4110 51.5280 121.1088 0.0000 4.9852 0.0000
# 4 0.0000 0.0000 0.0000 30.3595 0.0000 6.8185
# 5 -24.7378 -11.9278 4.9852 0.0000 35.3021 0.0000
# 6 0.0000 0.0000 0.0000 6.8185 0.0000 31.1067
#
#
#
# Elastic Compliance Matrix: (Units=1/GPa)
#
#
# Indices 1 2 3 4 5 6 
#
# 1 0.021839 -0.008429 -0.005145 0.000000 0.013182 0.000000
# 2 -0.008429 0.012200 -0.001968 0.000000 -0.001507 0.000000
# 3 -0.005145 -0.001968 0.011265 0.000000 -0.005861 0.000000
# 4 0.000000 0.000000 0.000000 0.034644 0.000000 -0.007594
# 5 0.013182 -0.001507 -0.005861 0.000000 0.037883 0.000000
# 6 0.000000 0.000000 0.000000 -0.007594 0.000000 0.033812
#
#
# Mechanical properties :
#
#
# Convention : Reuss Voigt Hill
#
# Bulk Modulus (GPa) = 70.32797 77.79802 74.06300
# Shear Modulus (GPa) = 26.67164 32.02180 29.34672
#
# Velocity S-wave (km/s) = 3.67899 4.03112 3.85907
# Velocity P-wave (km/s) = 7.33046 7.81962 7.57898
#
# Compressibility (1/GPa) = 0.01421909
#
# Stress axis : x y z
#
# Youngs Moduli (GPa) = 45.79061 81.97045 88.77246
#
# Poissons Ratio (x) = 0.69092 0.45673
# Poissons Ratio (y) = 0.38597 0.17470
# Poissons Ratio (z) = 0.23559 0.16132
#
# Static dielectric constant tensor:
#      x y z
#    x 3.314010 0.000000 0.244040 
#    y 0.000000 4.063480 0.000000 
#    z 0.244040 0.000000 3.689440 
# 
# 
# High freq. dielectric constant tensor:
#      x y z
#    x 1.768170 0.000000 0.008440 
#    y 0.000000 1.767050 0.000000 
#    z 0.008440 0.000000 1.780340 
# 
# From -- ./inp_files/298417.got.cif
#   From: 2010.06.25/outbox.cif.g09.slc.cpg/sg15_150_cif.got.tgz:298417.got - 2010.06.28 07:06:18.
