data_PCOD8143362
_publ_section_title
;
Structure prediction by ZEFSAII (Michael W. Deem and Ramdas Pophale) SiO2 
 PCOD8143362
Probable space group: C 2/C
;
_chemical_formula_sum "Si O2"
_cell_formula_units_Z 64
_cell_length_a 15.906282
_cell_length_b 14.512821
_cell_length_c 18.405273
_cell_angle_alpha 90.000000
_cell_angle_beta 136.659084
_cell_angle_gamma 90.000000
_cell_volume 2916.088888
_symmetry_space_group_name_H-M "C 2/C"
_symmetry_group_IT_number 15
_symmetry_cell_setting 'monoclinic'
loop_
_space_group_symop_operation_xyz
x,y,z
-x,y,1/2-z
-x,-y,-z
x,-y,1/2+z
1/2+x,1/2+y,z
1/2-x,1/2+y,1/2-z
1/2-x,1/2-y,-z
1/2+x,1/2-y,1/2+z
loop_
_atom_site_type_symbol
_atom_site_label
_atom_site_fract_x
_atom_site_fract_y
_atom_site_fract_z
Si Si1 0.358261 0.344861 0.999048
Si Si2 0.087558 0.181983 0.246695
Si Si3 0.424084 0.766325 0.412441
Si Si4 0.473402 0.480129 0.315587
Si Si5 0.695727 0.949172 0.172680
Si Si6 0.500469 0.023438 0.665130
Si Si7 0.848983 0.619528 0.453991
Si Si8 0.915537 0.673534 0.132857
O O1 0.423911 0.436996 0.067862
O O2 0.406367 0.254181 0.069471
O O3 0.390675 0.326548 0.935116
O O4 0.214471 0.358727 0.917119
O O5 0.108683 0.248767 0.192492
O O6 0.211077 0.155508 0.366952
O O7 0.000000 0.232846 0.250000
O O8 0.016849 0.090297 0.174822
O O9 0.340913 0.852001 0.387256
O O10 0.565324 0.794403 0.514443
O O11 0.500000 0.445286 0.250000
O O12 0.342000 0.450191 0.264519
O O13 0.633420 0.952689 0.213605
O O14 0.637607 0.033659 0.091917
O O15 0.500000 0.046169 0.750000
O O16 0.392724 0.083917 0.560471
O O17 0.477285 0.915524 0.635720
O O18 0.000000 0.712893 0.250000
#
# Coordination Sequence:
#
# PCOD8143362 Si02
#       8
#     8   8   8   8   8   8   8   8
#     4  11  24  37  64  99 133 173 212 273 343 396
#     4  10  25  45  64  91 128 177 225 270 329 399
#     4  11  24  39  65  99 126 166 224 279 327 391
#     4  10  24  43  68  92 130 180 218 266 332 411
#     4  10  22  42  70  95 129 175 224 264 330 406
#     4  10  21  40  66 103 127 168 221 278 325 388
#     4  10  22  44  71  89 130 178 216 272 332 401
#     4  10  23  38  62  99 141 168 211 272 334 405
#
# _framework density 21.947203999999999
#
# number of rings (size 3 to 8) (size 9 to 14) (size 15 to 20)
#    0.000    1.750    0.000    3.375   12.250    7.000 
#    2.250    0.000    0.000    0.000    0.000    0.000 
#    0.000    0.000    0.000    0.000    0.000    0.000 
#
# Total GULP energy -396788.033070 kJ/mol
# GULP energy per Si atom -12399.626033 kJ/mol
# Density = 2.189725 g / cm^3
# Si number density = 21.947204 Si / 1000 Ang^3
#
#
#
# Elastic Constant Matrix: (Units=GPa)
#
#
# Indices 1 2 3 4 5 6 
#
# 1 115.8851 13.6375 49.3699 0.0000 2.4837 0.0000
# 2 13.6375 49.6017 15.2350 0.0000 7.0181 0.0000
# 3 49.3699 15.2350 98.9137 0.0000 8.5642 0.0000
# 4 0.0000 0.0000 0.0000 30.3546 0.0000 -4.3885
# 5 2.4837 7.0181 8.5642 0.0000 34.3748 0.0000
# 6 0.0000 0.0000 0.0000 -4.3885 0.0000 16.8658
#
#
#
# Elastic Compliance Matrix: (Units=1/GPa)
#
#
# Indices 1 2 3 4 5 6 
#
# 1 0.011077 -0.001516 -0.005368 0.000000 0.000847 0.000000
# 2 -0.001516 0.021811 -0.002276 0.000000 -0.003776 0.000000
# 3 -0.005368 -0.002276 0.013354 0.000000 -0.002475 0.000000
# 4 0.000000 0.000000 0.000000 0.034232 0.000000 0.008907
# 5 0.000847 -0.003776 -0.002475 0.000000 0.030417 0.000000
# 6 0.000000 0.000000 0.000000 0.008907 0.000000 0.061609
#
#
# Mechanical properties :
#
#
# Convention : Reuss Voigt Hill
#
# Bulk Modulus (GPa) = 35.81540 46.76502 41.29021
# Shear Modulus (GPa) = 24.98415 28.72960 26.85687
#
# Velocity S-wave (km/s) = 3.37764 3.62198 3.50194
# Velocity P-wave (km/s) = 5.61833 6.23265 5.93344
#
# Compressibility (1/GPa) = 0.02792095
#
# Stress axis : x y z
#
# Youngs Moduli (GPa) = 90.28073 45.84893 74.88396
#
# Poissons Ratio (x) = 0.06952 0.40200
# Poissons Ratio (y) = 0.13690 0.17040
# Poissons Ratio (z) = 0.48465 0.10433
#
# Static dielectric constant tensor:
#      x y z
#    x 3.976350 0.000000 0.038110 
#    y 0.000000 3.958290 0.000000 
#    z 0.038110 0.000000 3.833510 
# 
# 
# High freq. dielectric constant tensor:
#      x y z
#    x 1.866920 0.000000 0.004010 
#    y 0.000000 1.863420 0.000000 
#    z 0.004010 0.000000 1.853800 
# 
# From -- ./inp_files/205749.got.cif
#   From: 2010.06.25/outbox.cif.g09.slc.cpg/sg15_103_cif.got.tgz:205749.got - 2010.06.28 07:06:18.
