data_PCOD8143202
_publ_section_title
;
Structure prediction by ZEFSAII (Michael W. Deem and Ramdas Pophale) SiO2 
 PCOD8143202
Probable space group: C 2/C
;
_chemical_formula_sum "Si O2"
_cell_formula_units_Z 52
_cell_length_a 10.646678
_cell_length_b 31.189271
_cell_length_c 10.630488
_cell_angle_alpha 90.000000
_cell_angle_beta 51.808241
_cell_angle_gamma 90.000000
_cell_volume 2774.374986
_symmetry_space_group_name_H-M "C 2/C"
_symmetry_group_IT_number 15
_symmetry_cell_setting 'monoclinic'
loop_
_space_group_symop_operation_xyz
x,y,z
-x,y,1/2-z
-x,-y,-z
x,-y,1/2+z
1/2+x,1/2+y,z
1/2-x,1/2+y,1/2-z
1/2-x,1/2-y,-z
1/2+x,1/2-y,1/2+z
loop_
_atom_site_type_symbol
_atom_site_label
_atom_site_fract_x
_atom_site_fract_y
_atom_site_fract_z
Si Si1 0.500000 0.603218 0.250000
Si Si2 0.152653 0.111376 0.724681
Si Si3 0.177205 0.408045 0.627704
Si Si4 0.514834 0.550376 0.483947
Si Si5 0.794357 0.656198 0.177493
Si Si6 0.165592 0.758745 0.684051
Si Si7 0.411889 0.165958 0.678706
O O1 0.452562 0.571852 0.394160
O O2 0.655512 0.632159 0.184335
O O3 0.283392 0.096961 0.542774
O O4 0.240176 0.143173 0.767438
O O5 0.000000 0.133994 0.750000
O O6 0.085551 0.070161 0.839052
O O7 0.296602 0.441094 0.619398
O O8 0.192063 0.362380 0.690481
O O9 0.000000 0.427207 0.750000
O O10 0.500000 0.500000 0.500000
O O11 0.759595 0.706970 0.210297
O O12 0.968655 0.652884 0.006662
O O13 0.250000 0.750000 0.500000
O O14 0.130611 0.716229 0.786861
O O15 0.000000 0.781159 0.750000
O O16 0.500000 0.150231 0.750000
#
# Coordination Sequence:
#
# PCOD8143202 Si02
#       7
#     4   8   8   8   8   8   8
#     4  10  22  36  64  92 122 158 208 254 310 380
#     4  10  22  41  64  88 124 168 202 253 315 382
#     4  10  21  40  64  85 120 168 201 248 307 379
#     4  10  23  40  65  93 123 157 201 257 313 379
#     4  11  20  37  58  90 123 161 212 254 308 367
#     4  11  21  33  56  88 127 161 202 267 314 355
#     4  11  21  36  62  90 122 158 216 266 306 359
#
# _framework density 18.742961000000001
#
# number of rings (size 3 to 8) (size 9 to 14) (size 15 to 20)
#    0.000    1.538    5.385    0.923    3.231    1.231 
#    0.000    4.615    0.000    0.000    0.000    0.000 
#    0.000    0.000    0.000    0.000    0.000    0.000 
#
# Total GULP energy -322275.816646 kJ/mol
# GULP energy per Si atom -12395.223717 kJ/mol
# Density = 1.870030 g / cm^3
# Si number density = 18.742961 Si / 1000 Ang^3
#
#
#
# Elastic Constant Matrix: (Units=GPa)
#
#
# Indices 1 2 3 4 5 6 
#
# 1 110.5785 52.9861 41.2707 0.0000 -9.8757 0.0000
# 2 52.9861 114.0623 44.3114 0.0000 -3.7718 0.0000
# 3 41.2707 44.3114 124.4811 0.0000 -6.1954 0.0000
# 4 0.0000 0.0000 0.0000 27.8751 0.0000 -1.6916
# 5 -9.8757 -3.7718 -6.1954 0.0000 35.5930 0.0000
# 6 0.0000 0.0000 0.0000 -1.6916 0.0000 17.4191
#
#
#
# Elastic Compliance Matrix: (Units=1/GPa)
#
#
# Indices 1 2 3 4 5 6 
#
# 1 0.012422 -0.004799 -0.002284 0.000000 0.002541 0.000000
# 2 -0.004799 0.012036 -0.002719 0.000000 -0.000530 0.000000
# 3 -0.002284 -0.002719 0.009797 0.000000 0.000784 0.000000
# 4 0.000000 0.000000 0.000000 0.036087 0.000000 0.003504
# 5 0.002541 -0.000530 0.000784 0.000000 0.028881 0.000000
# 6 0.000000 0.000000 0.000000 0.003504 0.000000 0.057748
#
#
# Mechanical properties :
#
#
# Convention : Reuss Voigt Hill
#
# Bulk Modulus (GPa) = 68.25751 69.58424 68.92088
# Shear Modulus (GPa) = 27.55430 30.21436 28.88433
#
# Velocity S-wave (km/s) = 3.83837 4.01937 3.92991
# Velocity P-wave (km/s) = 7.49272 7.66463 7.57916
#
# Compressibility (1/GPa) = 0.01465040
#
# Stress axis : x y z
#
# Youngs Moduli (GPa) = 80.50025 83.08675 102.06694
#
# Poissons Ratio (x) = 0.39877 0.23308
# Poissons Ratio (y) = 0.38636 0.27756
# Poissons Ratio (z) = 0.18383 0.22595
#
# Static dielectric constant tensor:
#      x y z
#    x 3.719310 0.000000 -0.161650 
#    y 0.000000 3.265440 0.000000 
#    z -0.161650 0.000000 3.616050 
# 
# 
# High freq. dielectric constant tensor:
#      x y z
#    x 1.733120 0.000000 -0.010070 
#    y 0.000000 1.706710 0.000000 
#    z -0.010070 0.000000 1.740550 
# 
# From -- ./inp_files/92418.got.cif
#   From: 2010.06.25/outbox.cif.g09.slc.cpg/sg15_47_cif.got.tgz:92418.got - 2010.06.28 07:06:18.
