data_PCOD8143813
_publ_section_title
;
Structure prediction by ZEFSAII (Michael W. Deem and Ramdas Pophale) SiO2 
 PCOD8143813
Probable space group: C 2/C
;
_chemical_formula_sum "Si O2"
_cell_formula_units_Z 60
_cell_length_a 22.025451
_cell_length_b 7.538634
_cell_length_c 22.314794
_cell_angle_alpha 90.000000
_cell_angle_beta 47.110844
_cell_angle_gamma 90.000000
_cell_volume 2714.687107
_symmetry_space_group_name_H-M "C 2/C"
_symmetry_group_IT_number 15
_symmetry_cell_setting 'monoclinic'
loop_
_space_group_symop_operation_xyz
x,y,z
-x,y,1/2-z
-x,-y,-z
x,-y,1/2+z
1/2+x,1/2+y,z
1/2-x,1/2+y,1/2-z
1/2-x,1/2-y,-z
1/2+x,1/2-y,1/2+z
loop_
_atom_site_type_symbol
_atom_site_label
_atom_site_fract_x
_atom_site_fract_y
_atom_site_fract_z
Si Si1 0.142368 0.384041 0.602233
Si Si2 0.684377 0.600731 0.485405
Si Si3 0.156239 0.065156 0.813805
Si Si4 0.098584 0.599363 0.403886
Si Si5 0.208497 0.275717 0.347137
Si Si6 0.500000 0.684209 0.750000
Si Si7 0.467410 0.931636 0.421001
Si Si8 0.511866 0.549806 0.123414
O O1 0.222974 0.490740 0.574884
O O2 0.173956 0.196948 0.555632
O O3 0.077015 0.324102 0.697296
O O4 0.103555 0.493852 0.574022
O O5 0.688436 0.743425 0.429600
O O6 0.604284 0.473019 0.532140
O O7 0.161448 0.238180 0.852708
O O8 0.202963 0.124037 0.721042
O O9 0.059559 0.021612 0.872119
O O10 0.206028 0.907269 0.811931
O O11 0.138988 0.407088 0.369793
O O12 0.062195 0.633373 0.493976
O O13 0.031911 0.590974 0.393260
O O14 0.499824 0.553882 0.806721
O O15 0.503512 0.761210 0.360602
#
# Coordination Sequence:
#
# PCOD8143813 Si02
#       8
#     8   8   8   8   8   4   8   8
#     4  10  21  41  65  91 125 175 220 269 333 397
#     4  10  22  40  65  90 127 172 223 270 329 395
#     4  12  25  42  66  98 140 172 223 273 347 395
#     4  11  23  41  66 101 134 175 216 278 337 405
#     4  12  23  42  64 100 132 180 220 278 335 403
#     4  10  22  42  64  94 126 178 222 276 338 386
#     4  11  23  40  68  98 132 172 224 277 335 404
#     4  11  24  42  66  99 131 174 227 282 330 404
#
# _framework density 22.101996
#
# number of rings (size 3 to 8) (size 9 to 14) (size 15 to 20)
#    0.000    1.067    4.000    3.200    1.867    2.133 
#    0.000    1.333    0.000    0.000    0.000    0.000 
#    0.000    0.000    0.000    0.000    0.000    0.000 
#
# Total GULP energy -371653.400448 kJ/mol
# GULP energy per Si atom -12388.446682 kJ/mol
# Density = 2.205169 g / cm^3
# Si number density = 22.101996 Si / 1000 Ang^3
#
#
#
# Elastic Constant Matrix: (Units=GPa)
#
#
# Indices 1 2 3 4 5 6 
#
# 1 118.8224 35.6593 35.5970 -0.0003 -21.4912 0.0041
# 2 35.6593 88.0508 27.8370 0.0046 -7.1479 0.0154
# 3 35.5970 27.8370 100.7624 0.0028 -15.8314 -0.0020
# 4 -0.0003 0.0046 0.0028 25.4924 -0.0020 -0.3712
# 5 -21.4912 -7.1479 -15.8314 -0.0020 29.8536 0.0005
# 6 0.0041 0.0154 -0.0020 -0.3712 0.0005 24.4113
#
#
#
# Elastic Compliance Matrix: (Units=1/GPa)
#
#
# Indices 1 2 3 4 5 6 
#
# 1 0.011150 -0.003371 -0.002044 0.000001 0.006136 0.000000
# 2 -0.003371 0.013507 -0.002633 -0.000002 -0.000589 -0.000008
# 3 -0.002044 -0.002633 0.012047 -0.000001 0.004287 0.000003
# 4 0.000001 -0.000002 -0.000001 0.039236 0.000003 0.000597
# 5 0.006136 -0.000589 0.004287 0.000003 0.040046 -0.000001
# 6 0.000000 -0.000008 0.000003 0.000597 -0.000001 0.040974
#
#
# Mechanical properties :
#
#
# Convention : Reuss Voigt Hill
#
# Bulk Modulus (GPa) = 48.52464 56.20246 52.36355
# Shear Modulus (GPa) = 27.78935 29.85427 28.82181
#
# Velocity S-wave (km/s) = 3.54972 3.67924 3.61506
# Velocity P-wave (km/s) = 6.22922 6.59795 6.41624
#
# Compressibility (1/GPa) = 0.02060809
#
# Stress axis : x y z
#
# Youngs Moduli (GPa) = 89.68931 74.03564 83.00637
#
# Poissons Ratio (x) = 0.24960 0.16963
# Poissons Ratio (y) = 0.30237 0.21856
# Poissons Ratio (z) = 0.18328 0.19494
#
# Static dielectric constant tensor:
#      x y z
#    x 4.039270 -0.000010 -0.373440 
#    y -0.000010 3.889540 0.000010 
#    z -0.373440 0.000010 4.132130 
# 
# 
# High freq. dielectric constant tensor:
#      x y z
#    x 1.866300 0.000000 -0.014760 
#    y 0.000000 1.860990 0.000000 
#    z -0.014760 0.000000 1.873780 
# 
# From -- ./inp_files/252114.got.cif
#   From: 2010.06.25/outbox.cif.g09.slc.cpg/sg15_127_cif.got.tgz:252114.got - 2010.06.28 07:06:18.
