data_PCOD8143629
_publ_section_title
;
Structure prediction by ZEFSAII (Michael W. Deem and Ramdas Pophale) SiO2 
 PCOD8143629
Probable space group: C 2/C
;
_chemical_formula_sum "Si O2"
_cell_formula_units_Z 52
_cell_length_a 8.858813
_cell_length_b 17.230281
_cell_length_c 17.472419
_cell_angle_alpha 90.000000
_cell_angle_beta 124.518262
_cell_angle_gamma 90.000000
_cell_volume 2197.452403
_symmetry_space_group_name_H-M "C 2/C"
_symmetry_group_IT_number 15
_symmetry_cell_setting 'monoclinic'
loop_
_space_group_symop_operation_xyz
x,y,z
-x,y,1/2-z
-x,-y,-z
x,-y,1/2+z
1/2+x,1/2+y,z
1/2-x,1/2+y,1/2-z
1/2-x,1/2-y,-z
1/2+x,1/2-y,1/2+z
loop_
_atom_site_type_symbol
_atom_site_label
_atom_site_fract_x
_atom_site_fract_y
_atom_site_fract_z
Si Si1 0.221975 0.875149 0.509916
Si Si2 0.314823 0.552725 0.345605
Si Si3 0.920865 0.240984 0.954177
Si Si4 0.000000 0.428733 0.250000
Si Si5 0.139933 0.370120 0.664033
Si Si6 0.393143 0.859200 0.070677
Si Si7 0.784336 0.019467 0.084582
O O1 0.132230 0.924985 0.552834
O O2 0.423581 0.854608 0.596393
O O3 0.095113 0.798889 0.462138
O O4 0.232151 0.926664 0.434834
O O5 0.208038 0.623060 0.270859
O O6 0.501772 0.539077 0.354297
O O7 0.185107 0.477824 0.310090
O O8 0.789518 0.292036 0.858818
O O9 0.799314 0.176353 0.958392
O O10 0.995710 0.301092 0.040962
O O11 0.021061 0.375441 0.180591
O O12 0.204376 0.451437 0.643009
O O13 0.341095 0.939922 0.015614
#
# Coordination Sequence:
#
# PCOD8143629 Si02
#       7
#     8   8   8   4   8   8   8
#     4  12  21  41  68  93 126 173 218 270 331 395
#     4  12  22  39  65  96 125 164 224 272 325 381
#     4  10  23  40  62  91 131 173 214 257 345 404
#     4  12  22  38  66  98 124 164 222 286 322 384
#     4  11  24  40  60  98 133 169 215 272 332 390
#     4  10  21  41  61  95 125 167 220 269 324 399
#     4  11  22  41  68  89 128 171 218 269 325 396
#
# _framework density 23.663765000000001
#
# number of rings (size 3 to 8) (size 9 to 14) (size 15 to 20)
#    0.000    0.923    4.615    2.769    0.000    2.462 
#    0.000    0.000    0.000    1.846    0.000    0.000 
#    0.000    0.000    0.000    0.000    0.000    0.000 
#
# Total GULP energy -322280.636164 kJ/mol
# GULP energy per Si atom -12395.409083 kJ/mol
# Density = 2.360991 g / cm^3
# Si number density = 23.663765 Si / 1000 Ang^3
#
#
#
# Elastic Constant Matrix: (Units=GPa)
#
#
# Indices 1 2 3 4 5 6 
#
# 1 54.0830 16.7847 -21.6608 0.0000 10.9570 0.0000
# 2 16.7847 92.9469 24.0317 0.0000 -6.5493 0.0000
# 3 -21.6608 24.0317 61.3155 0.0000 -2.7498 0.0000
# 4 0.0000 0.0000 0.0000 22.2228 0.0000 -7.1351
# 5 10.9570 -6.5493 -2.7498 0.0000 32.3873 0.0000
# 6 0.0000 0.0000 0.0000 -7.1351 0.0000 37.2940
#
#
#
# Elastic Compliance Matrix: (Units=1/GPa)
#
#
# Indices 1 2 3 4 5 6 
#
# 1 0.028955 -0.009454 0.013460 0.000000 -0.010565 0.000000
# 2 -0.009454 0.015193 -0.009048 0.000000 0.005502 0.000000
# 3 0.013460 -0.009048 0.024417 0.000000 -0.004310 0.000000
# 4 0.000000 0.000000 0.000000 0.047944 0.000000 0.009173
# 5 -0.010565 0.005502 -0.004310 0.000000 0.035197 0.000000
# 6 0.000000 0.000000 0.000000 0.009173 0.000000 0.028569
#
#
# Mechanical properties :
#
#
# Convention : Reuss Voigt Hill
#
# Bulk Modulus (GPa) = 17.09869 27.40631 22.25250
# Shear Modulus (GPa) = 23.82639 30.99348 27.40994
#
# Velocity S-wave (km/s) = 3.17657 3.62297 3.40709
# Velocity P-wave (km/s) = 4.54923 5.39517 4.99016
#
# Compressibility (1/GPa) = 0.05848402
#
# Stress axis : x y z
#
# Youngs Moduli (GPa) = 34.53581 65.81997 40.95518
#
# Poissons Ratio (x) = 0.62223 -0.55127
# Poissons Ratio (y) = 0.32649 0.37054
# Poissons Ratio (z) = -0.46487 0.59551
#
# Static dielectric constant tensor:
#      x y z
#    x 4.383860 0.000000 -0.317350 
#    y 0.000000 4.470910 0.000000 
#    z -0.317350 0.000000 4.242130 
# 
# 
# High freq. dielectric constant tensor:
#      x y z
#    x 1.945230 0.000000 -0.006780 
#    y 0.000000 1.933210 0.000000 
#    z -0.006780 0.000000 1.918630 
# 
# From -- ./inp_files/191115.got.cif
#   From: 2010.06.25/outbox.cif.g09.slc.cpg/sg15_96_cif.got.tgz:191115.got - 2010.06.28 07:06:18.
