data_PCOD8143130
_publ_section_title
;
Structure prediction by ZEFSAII (Michael W. Deem and Ramdas Pophale) SiO2 
 PCOD8143130
Probable space group: C 2/C
;
_chemical_formula_sum "Si O2"
_cell_formula_units_Z 48
_cell_length_a 13.670673
_cell_length_b 11.927230
_cell_length_c 14.287100
_cell_angle_alpha 90.000000
_cell_angle_beta 89.994913
_cell_angle_gamma 90.000000
_cell_volume 2329.558238
_symmetry_space_group_name_H-M "C 2/C"
_symmetry_group_IT_number 15
_symmetry_cell_setting 'monoclinic'
loop_
_space_group_symop_operation_xyz
x,y,z
-x,y,1/2-z
-x,-y,-z
x,-y,1/2+z
1/2+x,1/2+y,z
1/2-x,1/2+y,1/2-z
1/2-x,1/2-y,-z
1/2+x,1/2-y,1/2+z
loop_
_atom_site_type_symbol
_atom_site_label
_atom_site_fract_x
_atom_site_fract_y
_atom_site_fract_z
Si Si1 0.307694 0.469558 0.854803
Si Si2 0.807672 0.030303 0.145103
Si Si3 0.107663 0.590436 0.419286
Si Si4 0.613056 0.339145 0.022645
Si Si5 0.387074 0.660923 0.522534
Si Si6 0.392306 0.090463 0.419298
O O1 0.351289 0.468522 0.749944
O O2 0.191385 0.444791 0.846532
O O3 0.324214 0.590503 0.902228
O O4 0.359778 0.374161 0.916812
O O5 0.691332 0.054862 0.153404
O O6 0.824286 0.909366 0.097677
O O7 0.859607 0.125792 0.083075
O O8 0.136723 0.708883 0.465613
O O9 0.104655 0.499800 0.499849
O O10 0.999987 0.597633 0.370641
O O11 0.500046 0.366694 0.040828
O O12 0.636920 0.208994 0.034628
#
# Coordination Sequence:
#
# PCOD8143130 Si02
#       6
#     8   8   8   8   8   8
#     4  11  22  36  62  91 118 154 201 246 293 350
#     4  11  22  36  62  91 118 154 201 246 293 350
#     4  10  21  40  63  84 117 158 196 244 299 352
#     4  10  22  41  61  86 122 158 196 244 298 350
#     4  10  22  41  61  86 122 158 196 244 298 350
#     4  10  21  40  63  84 117 158 196 244 299 352
#
# _framework density 20.604765
#
# number of rings (size 3 to 8) (size 9 to 14) (size 15 to 20)
#    0.000    1.667    3.333    3.000    0.000    4.667 
#    0.000    3.333    0.000    6.000    0.000    0.000 
#    0.000    0.000    0.000    0.000    0.000    0.000 
#
# Total GULP energy -297540.723919 kJ/mol
# GULP energy per Si atom -12397.530163 kJ/mol
# Density = 2.055787 g / cm^3
# Si number density = 20.604765 Si / 1000 Ang^3
#
#
#
# Elastic Constant Matrix: (Units=GPa)
#
#
# Indices 1 2 3 4 5 6 
#
# 1 104.8878 51.4000 35.0969 0.0000 -8.1874 0.0000
# 2 51.4000 158.6658 49.0974 0.0000 0.0079 0.0000
# 3 35.0969 49.0974 136.2687 0.0000 14.0937 0.0000
# 4 0.0000 0.0000 0.0000 5.6688 0.0000 -5.2287
# 5 -8.1874 0.0079 14.0937 0.0000 15.5622 0.0000
# 6 0.0000 0.0000 0.0000 -5.2287 0.0000 35.1309
#
#
#
# Elastic Compliance Matrix: (Units=1/GPa)
#
#
# Indices 1 2 3 4 5 6 
#
# 1 0.012922 -0.003204 -0.003174 0.000000 0.009674 0.000000
# 2 -0.003204 0.007981 -0.002069 0.000000 0.000184 0.000000
# 3 -0.003174 -0.002069 0.010012 0.000000 -0.010736 0.000000
# 4 0.000000 0.000000 0.000000 0.204476 0.000000 0.030433
# 5 0.009674 0.000184 -0.010736 0.000000 0.079071 0.000000
# 6 0.000000 0.000000 0.000000 0.030433 0.000000 0.032994
#
#
# Mechanical properties :
#
#
# Convention : Reuss Voigt Hill
#
# Bulk Modulus (GPa) = 71.33161 74.55677 72.94419
# Shear Modulus (GPa) = 13.54925 28.88757 21.21841
#
# Velocity S-wave (km/s) = 2.56711 3.74837 3.21250
# Velocity P-wave (km/s) = 6.59400 7.41596 7.01703
#
# Compressibility (1/GPa) = 0.01401903
#
# Stress axis : x y z
#
# Youngs Moduli (GPa) = 77.39039 125.29955 99.88112
#
# Poissons Ratio (x) = 0.40149 0.31703
# Poissons Ratio (y) = 0.24798 0.20668
# Poissons Ratio (z) = 0.24565 0.25928
#
# Static dielectric constant tensor:
#      x y z
#    x 4.391430 0.000000 -0.192010 
#    y 0.000000 3.811660 0.000000 
#    z -0.192010 0.000000 3.310230 
# 
# 
# High freq. dielectric constant tensor:
#      x y z
#    x 1.827430 0.000000 -0.009900 
#    y 0.000000 1.815750 0.000000 
#    z -0.009900 0.000000 1.771580 
# 
# From -- ./inp_files/151824.got.cif
#   From: 2010.06.25/outbox.cif.g09.slc.cpg/sg15_76_cif.got.tgz:151824.got - 2010.06.28 07:06:18.
