data_PCOD8143671
_publ_section_title
;
Structure prediction by ZEFSAII (Michael W. Deem and Ramdas Pophale) SiO2 
 PCOD8143671
Probable space group: C 2/C
;
_chemical_formula_sum "Si O2"
_cell_formula_units_Z 48
_cell_length_a 18.933783
_cell_length_b 16.651097
_cell_length_c 8.283595
_cell_angle_alpha 90.000000
_cell_angle_beta 120.074648
_cell_angle_gamma 90.000000
_cell_volume 2259.969437
_symmetry_space_group_name_H-M "C 2/C"
_symmetry_group_IT_number 15
_symmetry_cell_setting 'monoclinic'
loop_
_space_group_symop_operation_xyz
x,y,z
-x,y,1/2-z
-x,-y,-z
x,-y,1/2+z
1/2+x,1/2+y,z
1/2-x,1/2+y,1/2-z
1/2-x,1/2-y,-z
1/2+x,1/2-y,1/2+z
loop_
_atom_site_type_symbol
_atom_site_label
_atom_site_fract_x
_atom_site_fract_y
_atom_site_fract_z
Si Si1 0.000000 0.847779 0.750000
Si Si2 0.695410 0.396852 0.290014
Si Si3 0.654090 0.446127 0.888582
Si Si4 0.600553 0.245910 0.115145
Si Si5 0.000000 0.646521 0.250000
Si Si6 0.826209 0.399835 0.983876
Si Si7 0.632665 0.062900 0.604347
O O1 0.931222 0.903901 0.755191
O O2 0.965423 0.792690 0.567728
O O3 0.653071 0.457171 0.368821
O O4 0.663856 0.306637 0.272941
O O5 0.793697 0.397805 0.415793
O O6 0.669556 0.433385 0.091808
O O7 0.727925 0.406418 0.871031
O O8 0.559649 0.201619 0.216182
O O9 0.650551 0.187401 0.054436
O O10 0.048166 0.591267 0.431309
O O11 0.863938 0.411796 0.205095
O O12 0.862899 0.466282 0.904126
#
# Coordination Sequence:
#
# PCOD8143671 Si02
#       7
#     4   8   8   8   4   8   8
#     4  10  22  38  60  90 120 156 194 240 292 338
#     4   9  21  40  61  86 116 157 197 234 289 354
#     4   9  20  38  62  87 116 156 198 233 287 353
#     4  11  24  38  58  89 121 153 195 246 295 338
#     4  12  26  38  56  90 120 152 196 250 300 336
#     4  10  21  41  63  84 117 159 198 235 287 357
#     4  10  22  40  62  85 116 157 197 237 290 354
#
# _framework density 21.239225999999999
#
# number of rings (size 3 to 8) (size 9 to 14) (size 15 to 20)
#    0.000    2.000    0.000    2.000    0.000   17.333 
#    0.000    0.000    0.000    0.000    0.000    0.000 
#    0.000    0.000    0.000    0.000    0.000    0.000 
#
# Total GULP energy -297638.299723 kJ/mol
# GULP energy per Si atom -12401.595822 kJ/mol
# Density = 2.119088 g / cm^3
# Si number density = 21.239226 Si / 1000 Ang^3
#
#
#
# Elastic Constant Matrix: (Units=GPa)
#
#
# Indices 1 2 3 4 5 6 
#
# 1 95.5970 68.1484 33.9443 0.0000 3.6524 0.0000
# 2 68.1484 137.2615 43.9563 0.0000 11.4175 0.0000
# 3 33.9443 43.9563 46.6291 0.0000 18.5255 0.0000
# 4 0.0000 0.0000 0.0000 35.3174 0.0000 -1.7257
# 5 3.6524 11.4175 18.5255 0.0000 31.7372 0.0000
# 6 0.0000 0.0000 0.0000 -1.7257 0.0000 43.5602
#
#
#
# Elastic Compliance Matrix: (Units=1/GPa)
#
#
# Indices 1 2 3 4 5 6 
#
# 1 0.018224 -0.006513 -0.009406 0.000000 0.005736 0.000000
# 2 -0.006513 0.012929 -0.007677 0.000000 0.000579 0.000000
# 3 -0.009406 -0.007677 0.044269 0.000000 -0.021996 0.000000
# 4 0.000000 0.000000 0.000000 0.028370 0.000000 0.001124
# 5 0.005736 0.000579 -0.021996 0.000000 0.043480 0.000000
# 6 0.000000 0.000000 0.000000 0.001124 0.000000 0.023001
#
#
# Mechanical properties :
#
#
# Convention : Reuss Voigt Hill
#
# Bulk Modulus (GPa) = 35.42264 63.50952 49.46608
# Shear Modulus (GPa) = 22.03856 31.01885 26.52871
#
# Velocity S-wave (km/s) = 3.22473 3.82573 3.53801
# Velocity P-wave (km/s) = 5.52986 7.03433 6.32697
#
# Compressibility (1/GPa) = 0.02823053
#
# Stress axis : x y z
#
# Youngs Moduli (GPa) = 54.87210 77.34339 22.58924
#
# Poissons Ratio (x) = 0.50375 0.21247
# Poissons Ratio (y) = 0.35739 0.17342
# Poissons Ratio (z) = 0.51611 0.59378
#
# Static dielectric constant tensor:
#      x y z
#    x 4.191960 0.000000 0.297880 
#    y 0.000000 4.010490 0.000000 
#    z 0.297880 0.000000 3.861380 
# 
# 
# High freq. dielectric constant tensor:
#      x y z
#    x 1.833720 0.000000 0.006150 
#    y 0.000000 1.837640 0.000000 
#    z 0.006150 0.000000 1.833710 
# 
# From -- ./inp_files/48735.got.cif
#   From: 2010.06.25/outbox.cif.g09.slc.cpg/sg15_25_cif.got.tgz:48735.got - 2010.06.28 07:06:18.
