data_PCOD8143554
_publ_section_title
;
Structure prediction by ZEFSAII (Michael W. Deem and Ramdas Pophale) SiO2 
 PCOD8143554
Probable space group: C 2/C
;
_chemical_formula_sum "Si O2"
_cell_formula_units_Z 60
_cell_length_a 19.453300
_cell_length_b 11.731264
_cell_length_c 13.050092
_cell_angle_alpha 90.000000
_cell_angle_beta 93.506894
_cell_angle_gamma 90.000000
_cell_volume 2972.608146
_symmetry_space_group_name_H-M "C 2/C"
_symmetry_group_IT_number 15
_symmetry_cell_setting 'monoclinic'
loop_
_space_group_symop_operation_xyz
x,y,z
-x,y,1/2-z
-x,-y,-z
x,-y,1/2+z
1/2+x,1/2+y,z
1/2-x,1/2+y,1/2-z
1/2-x,1/2-y,-z
1/2+x,1/2-y,1/2+z
loop_
_atom_site_type_symbol
_atom_site_label
_atom_site_fract_x
_atom_site_fract_y
_atom_site_fract_z
Si Si1 0.371424 0.388684 0.271055
Si Si2 0.994531 0.371037 0.529317
Si Si3 0.438345 0.701350 0.103806
Si Si4 0.500000 0.229578 0.250000
Si Si5 0.347604 0.774605 0.459131
Si Si6 0.076870 0.871176 0.675596
Si Si7 0.723016 0.413926 0.423116
Si Si8 0.696450 0.647326 0.522281
O O1 0.428799 0.301377 0.232885
O O2 0.416487 0.496117 0.306137
O O3 0.316330 0.439243 0.185693
O O4 0.327491 0.338024 0.362214
O O5 0.010174 0.348544 0.650429
O O6 0.919242 0.325815 0.499880
O O7 0.000000 0.500000 0.500000
O O8 0.052237 0.317069 0.459465
O O9 0.431039 0.710077 0.225643
O O10 0.509722 0.631839 0.094863
O O11 0.370611 0.642021 0.055127
O O12 0.356372 0.679763 0.372246
O O13 0.312414 0.704155 0.545998
O O14 0.302445 0.879848 0.412777
O O15 0.726974 0.521468 0.501605
O O16 0.750000 0.750000 0.500000
#
# Coordination Sequence:
#
# PCOD8143554 Si02
#       8
#     8   8   8   4   8   8   8   8
#     4  12  24  41  71 104 129 172 225 285 341 393
#     4  11  25  44  67  96 136 174 225 283 335 401
#     4  10  22  42  64  97 132 167 226 272 336 389
#     4  12  24  42  70 104 130 168 232 286 342 394
#     4  10  23  43  65  92 134 179 223 265 334 399
#     4  10  21  40  70  99 128 176 223 277 333 394
#     4  11  24  43  66  95 132 177 221 277 327 407
#     4  12  27  43  65  99 142 176 221 277 341 405
#
# _framework density 20.184296
#
# number of rings (size 3 to 8) (size 9 to 14) (size 15 to 20)
#    0.000    1.067    5.333    0.800    3.733    2.667 
#    0.000    1.333    0.000    0.000    0.000    0.000 
#    0.000    0.000    0.000    0.000    0.000    0.000 
#
# Total GULP energy -371647.515523 kJ/mol
# GULP energy per Si atom -12388.250517 kJ/mol
# Density = 2.013836 g / cm^3
# Si number density = 20.184296 Si / 1000 Ang^3
#
#
#
# Elastic Constant Matrix: (Units=GPa)
#
#
# Indices 1 2 3 4 5 6 
#
# 1 86.6962 30.8824 26.7741 0.0000 -0.3278 0.0000
# 2 30.8824 111.8341 29.3634 0.0000 -1.5781 0.0000
# 3 26.7741 29.3634 84.8454 0.0000 -6.1569 0.0000
# 4 0.0000 0.0000 0.0000 27.7166 0.0000 -5.0881
# 5 -0.3278 -1.5781 -6.1569 0.0000 30.2350 0.0000
# 6 0.0000 0.0000 0.0000 -5.0881 0.0000 26.5828
#
#
#
# Elastic Compliance Matrix: (Units=1/GPa)
#
#
# Indices 1 2 3 4 5 6 
#
# 1 0.013591 -0.002886 -0.003340 0.000000 -0.000683 0.000000
# 2 -0.002886 0.010449 -0.002708 0.000000 -0.000037 0.000000
# 3 -0.003340 -0.002708 0.013971 0.000000 0.002667 0.000000
# 4 0.000000 0.000000 0.000000 0.037393 0.000000 0.007157
# 5 -0.000683 -0.000037 0.002667 0.000000 0.033608 0.000000
# 6 0.000000 0.000000 0.000000 0.007157 0.000000 0.038988
#
#
# Mechanical properties :
#
#
# Convention : Reuss Voigt Hill
#
# Bulk Modulus (GPa) = 49.64367 50.82394 50.23381
# Shear Modulus (GPa) = 28.97141 29.99727 29.48434
#
# Velocity S-wave (km/s) = 3.79270 3.85927 3.82613
# Velocity P-wave (km/s) = 6.62028 6.71515 6.66788
#
# Compressibility (1/GPa) = 0.02014355
#
# Stress axis : x y z
#
# Youngs Moduli (GPa) = 73.57611 95.69991 71.57731
#
# Poissons Ratio (x) = 0.27618 0.23905
# Poissons Ratio (y) = 0.21234 0.19385
# Poissons Ratio (z) = 0.24573 0.25919
#
# Static dielectric constant tensor:
#      x y z
#    x 4.024730 0.000000 -0.085350 
#    y 0.000000 3.611420 0.000000 
#    z -0.085350 0.000000 3.888370 
# 
# 
# High freq. dielectric constant tensor:
#      x y z
#    x 1.800260 0.000000 -0.002140 
#    y 0.000000 1.778850 0.000000 
#    z -0.002140 0.000000 1.790380 
# 
# From -- ./inp_files/111629.got.cif
#   From: 2010.06.25/outbox.cif.g09.slc.cpg/sg15_56_cif.got.tgz:111629.got - 2010.06.28 07:06:18.
