data_PCOD8143208
_publ_section_title
;
Structure prediction by ZEFSAII (Michael W. Deem and Ramdas Pophale) SiO2 
 PCOD8143208
Probable space group: C 2/C
;
_chemical_formula_sum "Si O2"
_cell_formula_units_Z 52
_cell_length_a 11.574037
_cell_length_b 8.946236
_cell_length_c 23.710377
_cell_angle_alpha 90.000000
_cell_angle_beta 88.970484
_cell_angle_gamma 90.000000
_cell_volume 2454.672535
_symmetry_space_group_name_H-M "C 2/C"
_symmetry_group_IT_number 15
_symmetry_cell_setting 'monoclinic'
loop_
_space_group_symop_operation_xyz
x,y,z
-x,y,1/2-z
-x,-y,-z
x,-y,1/2+z
1/2+x,1/2+y,z
1/2-x,1/2+y,1/2-z
1/2-x,1/2-y,-z
1/2+x,1/2-y,1/2+z
loop_
_atom_site_type_symbol
_atom_site_label
_atom_site_fract_x
_atom_site_fract_y
_atom_site_fract_z
Si Si1 0.868895 0.687277 0.371341
Si Si2 0.149500 0.804449 0.541878
Si Si3 0.384476 0.846892 0.672115
Si Si4 0.270593 0.934643 0.089676
Si Si5 0.000000 0.436870 0.250000
Si Si6 0.438580 0.841463 0.997625
Si Si7 0.173334 0.359356 0.159187
O O1 0.784033 0.828018 0.361394
O O2 0.880383 0.680615 0.438303
O O3 0.810136 0.537698 0.347351
O O4 0.990540 0.725516 0.340759
O O5 0.250000 0.750000 0.500000
O O6 0.141911 0.705888 0.598719
O O7 0.029845 0.790104 0.509381
O O8 0.169092 0.977489 0.557320
O O9 0.398265 0.958138 0.724924
O O10 0.288446 0.718753 0.683893
O O11 0.352918 0.942023 0.617081
O O12 0.340572 0.832471 0.045876
O O13 0.063976 0.334126 0.202518
O O14 0.500000 0.000000 0.000000
#
# Coordination Sequence:
#
# PCOD8143208 Si02
#       7
#     8   8   8   8   4   8   8
#     4  11  22  37  59  88 119 158 201 242 298 360
#     4  11  20  36  62  90 125 167 202 245 303 360
#     4  10  22  42  61  83 117 151 192 256 307 358
#     4  11  23  36  58  89 121 158 205 246 297 359
#     4  10  22  40  64  90 112 154 206 252 314 368
#     4  12  18  34  58  84 123 164 198 241 288 351
#     4  10  21  40  64  87 120 160 199 252 311 366
#
# _framework density 21.184089
#
# number of rings (size 3 to 8) (size 9 to 14) (size 15 to 20)
#    0.000    1.231    4.615    2.308    0.000    4.308 
#    0.000    3.077    0.000    1.846    0.000    0.000 
#    0.000    0.000    0.000    0.000    0.000    0.000 
#
# Total GULP energy -322379.522933 kJ/mol
# GULP energy per Si atom -12399.212420 kJ/mol
# Density = 2.113587 g / cm^3
# Si number density = 21.184089 Si / 1000 Ang^3
#
#
#
# Elastic Constant Matrix: (Units=GPa)
#
#
# Indices 1 2 3 4 5 6 
#
# 1 100.9445 47.7340 33.3902 0.0000 -19.6321 0.0000
# 2 47.7340 69.4387 19.7484 0.0000 -21.5063 0.0000
# 3 33.3902 19.7484 101.3270 0.0000 -25.8042 0.0000
# 4 0.0000 0.0000 0.0000 30.5109 0.0000 1.5323
# 5 -19.6321 -21.5063 -25.8042 0.0000 42.3653 0.0000
# 6 0.0000 0.0000 0.0000 1.5323 0.0000 41.2593
#
#
#
# Elastic Compliance Matrix: (Units=1/GPa)
#
#
# Indices 1 2 3 4 5 6 
#
# 1 0.015623 -0.009724 -0.003156 0.000000 0.000381 0.000000
# 2 -0.009724 0.023292 0.000625 0.000000 0.007699 0.000000
# 3 -0.003156 0.000625 0.012422 0.000000 0.006421 0.000000
# 4 0.000000 0.000000 0.000000 0.032836 0.000000 -0.001219
# 5 0.000381 0.007699 0.006421 0.000000 0.031600 0.000000
# 6 0.000000 0.000000 0.000000 -0.001219 0.000000 0.024282
#
#
# Mechanical properties :
#
#
# Convention : Reuss Voigt Hill
#
# Bulk Modulus (GPa) = 37.27389 52.60617 44.94003
# Shear Modulus (GPa) = 28.81715 34.21627 31.51671
#
# Velocity S-wave (km/s) = 3.69225 4.02330 3.86133
# Velocity P-wave (km/s) = 5.98418 6.81684 6.41404
#
# Compressibility (1/GPa) = 0.02682843
#
# Stress axis : x y z
#
# Youngs Moduli (GPa) = 64.00987 42.93273 80.49966
#
# Poissons Ratio (x) = 0.41747 0.25405
# Poissons Ratio (y) = 0.62242 -0.05034
# Poissons Ratio (z) = 0.20201 -0.02685
#
# Static dielectric constant tensor:
#      x y z
#    x 4.125980 0.000000 -0.039600 
#    y 0.000000 4.048730 0.000000 
#    z -0.039600 0.000000 3.941780 
# 
# 
# High freq. dielectric constant tensor:
#      x y z
#    x 1.830180 0.000000 -0.006770 
#    y 0.000000 1.815300 0.000000 
#    z -0.006770 0.000000 1.834080 
# 
# From -- ./inp_files/291094.got.cif
#   From: 2010.06.25/outbox.cif.g09.slc.cpg/sg15_146_cif.got.tgz:291094.got - 2010.06.28 07:06:18.
