data_PCOD8143036
_publ_section_title
;
Structure prediction by ZEFSAII (Michael W. Deem and Ramdas Pophale) SiO2 
 PCOD8143036
Probable space group: C 2/C
;
_chemical_formula_sum "Si O2"
_cell_formula_units_Z 48
_cell_length_a 23.467666
_cell_length_b 5.206771
_cell_length_c 19.868161
_cell_angle_alpha 90.000000
_cell_angle_beta 111.904697
_cell_angle_gamma 90.000000
_cell_volume 2252.439167
_symmetry_space_group_name_H-M "C 2/C"
_symmetry_group_IT_number 15
_symmetry_cell_setting 'monoclinic'
loop_
_space_group_symop_operation_xyz
x,y,z
-x,y,1/2-z
-x,-y,-z
x,-y,1/2+z
1/2+x,1/2+y,z
1/2-x,1/2+y,1/2-z
1/2-x,1/2-y,-z
1/2+x,1/2-y,1/2+z
loop_
_atom_site_type_symbol
_atom_site_label
_atom_site_fract_x
_atom_site_fract_y
_atom_site_fract_z
Si Si1 0.704988 0.719120 0.157428
Si Si2 0.885881 0.147065 0.118328
Si Si3 0.464418 0.855786 0.668410
Si Si4 0.106287 0.002288 0.022883
Si Si5 0.482398 0.213586 0.441142
Si Si6 0.283891 0.714710 0.185369
O O1 0.647971 0.707300 0.080381
O O2 0.684361 0.696897 0.226721
O O3 0.753104 0.492865 0.160862
O O4 0.732297 0.998229 0.156574
O O5 0.914585 0.429131 0.129683
O O6 0.831449 0.155136 0.147675
O O7 0.932753 0.922971 0.161261
O O8 0.860491 0.097596 0.030717
O O9 0.500000 0.933787 0.750000
O O10 0.518046 0.874683 0.636130
O O11 0.087544 0.795340 0.071846
O O12 0.038328 0.083690 0.968818
O O13 0.500000 0.000000 0.500000
#
# Coordination Sequence:
#
# PCOD8143036 Si02
#       6
#     8   8   8   8   8   8
#     4  10  23  41  63  89 118 163 205 250 311 357
#     4  11  23  41  61  90 126 157 202 259 297 360
#     4  11  24  39  61  93 124 162 204 245 308 361
#     4  10  23  38  63  90 121 164 200 250 307 358
#     4  10  21  40  60  89 127 157 204 247 297 374
#     4  10  23  42  60  90 123 154 210 255 296 369
#
# _framework density 21.310233
#
# number of rings (size 3 to 8) (size 9 to 14) (size 15 to 20)
#    0.000    1.667    1.667    1.500    4.667    2.667 
#    0.000    0.000    0.000    0.000    0.000    0.000 
#    0.000    0.000    0.000    0.000    0.000    0.000 
#
# Total GULP energy -297398.415486 kJ/mol
# GULP energy per Si atom -12391.600645 kJ/mol
# Density = 2.126173 g / cm^3
# Si number density = 21.310233 Si / 1000 Ang^3
#
#
#
# Elastic Constant Matrix: (Units=GPa)
#
#
# Indices 1 2 3 4 5 6 
#
# 1 79.8569 0.2129 41.0887 -0.0004 -40.8388 0.0011
# 2 0.2129 63.8352 -7.4985 0.0013 -8.1037 -0.0015
# 3 41.0887 -7.4985 123.4203 -0.0003 -24.9176 0.0008
# 4 -0.0004 0.0013 -0.0003 26.4913 0.0000 -3.0430
# 5 -40.8388 -8.1037 -24.9176 0.0000 45.4002 0.0000
# 6 0.0011 -0.0015 0.0008 -3.0430 0.0000 24.2803
#
#
#
# Elastic Compliance Matrix: (Units=1/GPa)
#
#
# Indices 1 2 3 4 5 6 
#
# 1 0.025299 0.002089 -0.004078 0.000000 0.020892 -0.000001
# 2 0.002089 0.016542 0.001445 -0.000001 0.005625 0.000001
# 3 -0.004078 0.001445 0.009963 0.000000 0.002058 0.000000
# 4 0.000000 -0.000001 0.000000 0.038300 0.000000 0.004800
# 5 0.020892 0.005625 0.002058 0.000000 0.042953 -0.000001
# 6 -0.000001 0.000001 0.000000 0.004800 -0.000001 0.041787
#
#
# Mechanical properties :
#
#
# Convention : Reuss Voigt Hill
#
# Bulk Modulus (GPa) = 19.71705 37.19096 28.45400
# Shear Modulus (GPa) = 25.92856 34.78831 30.35844
#
# Velocity S-wave (km/s) = 3.49193 4.04477 3.77847
# Velocity P-wave (km/s) = 5.05278 6.26926 5.69360
#
# Compressibility (1/GPa) = 0.05071754
#
# Stress axis : x y z
#
# Youngs Moduli (GPa) = 39.52705 60.45143 100.36869
#
# Poissons Ratio (x) = -0.12627 0.40926
# Poissons Ratio (y) = -0.08257 -0.14506
# Poissons Ratio (z) = 0.16118 -0.08737
#
# Static dielectric constant tensor:
#      x y z
#    x 0.649730 0.000020 -1.915380 
#    y 0.000020 3.853380 0.000010 
#    z -1.915380 0.000010 3.443330 
# 
# 
# High freq. dielectric constant tensor:
#      x y z
#    x 1.824540 0.000000 -0.025730 
#    y 0.000000 1.845260 0.000000 
#    z -0.025730 0.000000 1.844880 
# 
# From -- ./inp_files/217803.got.cif
#   From: 2010.06.25/outbox.cif.g09.slc.cpg/sg15_109_cif.got.tgz:217803.got - 2010.06.28 07:06:18.
