data_PCOD8143564
_publ_section_title
;
Structure prediction by ZEFSAII (Michael W. Deem and Ramdas Pophale) SiO2 
 PCOD8143564
Probable space group: C 2/C
;
_chemical_formula_sum "Si O2"
_cell_formula_units_Z 60
_cell_length_a 15.880529
_cell_length_b 8.717370
_cell_length_c 22.034139
_cell_angle_alpha 90.000000
_cell_angle_beta 116.586570
_cell_angle_gamma 90.000000
_cell_volume 2727.783700
_symmetry_space_group_name_H-M "C 2/C"
_symmetry_group_IT_number 15
_symmetry_cell_setting 'monoclinic'
loop_
_space_group_symop_operation_xyz
x,y,z
-x,y,1/2-z
-x,-y,-z
x,-y,1/2+z
1/2+x,1/2+y,z
1/2-x,1/2+y,1/2-z
1/2-x,1/2-y,-z
1/2+x,1/2-y,1/2+z
loop_
_atom_site_type_symbol
_atom_site_label
_atom_site_fract_x
_atom_site_fract_y
_atom_site_fract_z
Si Si1 0.412215 0.864122 0.516293
Si Si2 0.040137 0.864356 0.869822
Si Si3 0.500000 0.064997 0.250000
Si Si4 0.132230 0.325146 0.232582
Si Si5 0.719005 0.871296 0.131345
Si Si6 0.912883 0.287698 0.996178
Si Si7 0.096468 0.789903 0.364682
Si Si8 0.270338 0.711690 0.125083
O O1 0.359934 0.804096 0.438878
O O2 0.521476 0.817371 0.541561
O O3 0.370096 0.770682 0.559166
O O4 0.401228 0.046406 0.525467
O O5 0.128871 0.765342 0.874483
O O6 0.945409 0.805711 0.806317
O O7 0.050040 0.042507 0.856344
O O8 0.039001 0.832652 0.941639
O O9 0.521340 0.171183 0.314577
O O10 0.586931 0.964571 0.254729
O O11 0.182257 0.377421 0.187501
O O12 0.218155 0.264510 0.301743
O O13 0.816661 0.780532 0.154660
O O14 0.739085 0.037904 0.112646
O O15 0.814999 0.209230 0.940446
#
# Coordination Sequence:
#
# PCOD8143564 Si02
#       8
#     8   8   4   8   8   8   8   8
#     4  10  21  43  69  98 140 178 231 280 339 405
#     4  11  22  45  68  96 139 180 230 280 351 401
#     4  12  28  44  70  98 132 186 232 278 358 410
#     4  12  24  46  72  97 137 185 233 277 347 421
#     4  10  24  44  68  99 137 179 225 282 347 403
#     4  10  21  40  72 101 132 186 232 281 334 414
#     4  11  27  42  67 103 139 175 224 295 345 404
#     4  10  23  40  67 102 133 177 229 286 331 408
#
# _framework density 21.995878999999999
#
# number of rings (size 3 to 8) (size 9 to 14) (size 15 to 20)
#    0.000    1.333    2.667    1.600    9.333    0.533 
#    2.400    0.000    0.000    0.000    0.000    0.000 
#    0.000    0.000    0.000    0.000    0.000    0.000 
#
# Total GULP energy -371942.014187 kJ/mol
# GULP energy per Si atom -12398.067140 kJ/mol
# Density = 2.194582 g / cm^3
# Si number density = 21.995879 Si / 1000 Ang^3
#
#
#
# Elastic Constant Matrix: (Units=GPa)
#
#
# Indices 1 2 3 4 5 6 
#
# 1 84.6526 30.6869 22.8025 0.0000 -9.6108 0.0000
# 2 30.6869 65.6748 37.6643 0.0000 1.3677 0.0000
# 3 22.8025 37.6643 127.6592 0.0000 1.1761 0.0000
# 4 0.0000 0.0000 0.0000 36.1089 0.0000 -8.0193
# 5 -9.6108 1.3677 1.1761 0.0000 42.3010 0.0000
# 6 0.0000 0.0000 0.0000 -8.0193 0.0000 17.6433
#
#
#
# Elastic Compliance Matrix: (Units=1/GPa)
#
#
# Indices 1 2 3 4 5 6 
#
# 1 0.014801 -0.006567 -0.000739 0.000000 0.003596 0.000000
# 2 -0.006567 0.021249 -0.005078 0.000000 -0.002038 0.000000
# 3 -0.000739 -0.005078 0.009466 0.000000 -0.000267 0.000000
# 4 0.000000 0.000000 0.000000 0.030803 0.000000 0.014001
# 5 0.003596 -0.002038 -0.000267 0.000000 0.024530 0.000000
# 6 0.000000 0.000000 0.000000 0.014001 0.000000 0.063043
#
#
# Mechanical properties :
#
#
# Convention : Reuss Voigt Hill
#
# Bulk Modulus (GPa) = 48.19574 51.14379 49.66976
# Shear Modulus (GPa) = 25.56552 31.66615 28.61583
#
# Velocity S-wave (km/s) = 3.41293 3.79838 3.61080
# Velocity P-wave (km/s) = 6.12288 6.52218 6.32568
#
# Compressibility (1/GPa) = 0.02074872
#
# Stress axis : x y z
#
# Youngs Moduli (GPa) = 67.56392 47.06049 105.64128
#
# Poissons Ratio (x) = 0.30903 0.07812
# Poissons Ratio (y) = 0.44366 0.53641
# Poissons Ratio (z) = 0.04996 0.23896
#
# Static dielectric constant tensor:
#      x y z
#    x 4.131180 0.000000 0.212430 
#    y 0.000000 3.734800 0.000000 
#    z 0.212430 0.000000 4.045340 
# 
# 
# High freq. dielectric constant tensor:
#      x y z
#    x 1.867220 0.000000 0.001820 
#    y 0.000000 1.845990 0.000000 
#    z 0.001820 0.000000 1.875560 
# 
# From -- ./inp_files/247837.got.cif
#   From: 2010.06.25/outbox.cif.g09.slc.cpg/sg15_124_cif.got.tgz:247837.got - 2010.06.28 07:06:18.
