data_PCOD8143512
_publ_section_title
;
Structure prediction by ZEFSAII (Michael W. Deem and Ramdas Pophale) SiO2 
 PCOD8143512
Probable space group: C 2/C
;
_chemical_formula_sum "Si O2"
_cell_formula_units_Z 40
_cell_length_a 14.134606
_cell_length_b 24.358009
_cell_length_c 8.916282
_cell_angle_alpha 90.000000
_cell_angle_beta 146.972944
_cell_angle_gamma 90.000000
_cell_volume 1673.145415
_symmetry_space_group_name_H-M "C 2/C"
_symmetry_group_IT_number 15
_symmetry_cell_setting 'monoclinic'
loop_
_space_group_symop_operation_xyz
x,y,z
-x,y,1/2-z
-x,-y,-z
x,-y,1/2+z
1/2+x,1/2+y,z
1/2-x,1/2+y,1/2-z
1/2-x,1/2-y,-z
1/2+x,1/2-y,1/2+z
loop_
_atom_site_type_symbol
_atom_site_label
_atom_site_fract_x
_atom_site_fract_y
_atom_site_fract_z
Si Si1 0.808598 0.626423 0.694816
Si Si2 0.806257 0.441322 0.467113
Si Si3 0.045123 0.720664 0.982497
Si Si4 0.886496 0.829910 0.850400
Si Si5 0.500000 0.590112 0.750000
Si Si6 0.500000 0.044819 0.750000
O O1 0.719314 0.594059 0.715223
O O2 0.908218 0.681107 0.886265
O O3 0.671014 0.643645 0.384358
O O4 0.950472 0.583715 0.821363
O O5 0.674918 0.442975 0.435859
O O6 0.840533 0.506242 0.478751
O O7 0.000000 0.414705 0.750000
O O8 0.032907 0.783760 0.016401
O O9 0.000000 0.715322 0.750000
O O10 0.239352 0.698823 0.256738
O O11 0.967006 0.876279 0.057214
#
# Coordination Sequence:
#
# PCOD8143512 Si02
#       6
#     8   8   8   8   4   4
#     4  11  20  44  77 102 136 193 230 292 359 419
#     4  10  26  44  74 100 148 181 238 292 357 413
#     4  10  21  40  69 102 136 178 241 285 345 433
#     4  11  25  41  71 100 147 182 240 284 355 420
#     4  12  28  48  63 112 149 184 238 298 342 428
#     4  10  22  44  81 102 135 188 240 294 360 416
#
# _framework density 23.907067999999999
#
# number of rings (size 3 to 8) (size 9 to 14) (size 15 to 20)
#    0.600    0.800    3.000    4.200    5.600    0.800 
#    1.800    4.000    0.000    0.000    0.000    0.000 
#    0.000    0.000    0.000    0.000    0.000    0.000 
#
# Total GULP energy -247787.576975 kJ/mol
# GULP energy per Si atom -12389.378849 kJ/mol
# Density = 2.385265 g / cm^3
# Si number density = 23.907068 Si / 1000 Ang^3
#
#
#
# Elastic Constant Matrix: (Units=GPa)
#
#
# Indices 1 2 3 4 5 6 
#
# 1 138.3818 35.3880 27.0180 0.0000 18.2420 0.0000
# 2 35.3880 113.0398 16.1213 0.0000 -5.3059 0.0000
# 3 27.0180 16.1213 62.0639 0.0000 6.2862 0.0000
# 4 0.0000 0.0000 0.0000 19.2215 0.0000 -11.8510
# 5 18.2420 -5.3059 6.2862 0.0000 28.8889 0.0000
# 6 0.0000 0.0000 0.0000 -11.8510 0.0000 60.5598
#
#
#
# Elastic Compliance Matrix: (Units=1/GPa)
#
#
# Indices 1 2 3 4 5 6 
#
# 1 0.009221 -0.002769 -0.002713 0.000000 -0.005741 0.000000
# 2 -0.002769 0.010165 -0.001842 0.000000 0.004016 0.000000
# 3 -0.002713 -0.001842 0.018030 0.000000 -0.002548 0.000000
# 4 0.000000 0.000000 0.000000 0.059163 0.000000 0.011578
# 5 -0.005741 0.004016 -0.002548 0.000000 0.039533 0.000000
# 6 0.000000 0.000000 0.000000 0.011578 0.000000 0.018778
#
#
# Mechanical properties :
#
#
# Convention : Reuss Voigt Hill
#
# Bulk Modulus (GPa) = 43.92252 52.28225 48.10239
# Shear Modulus (GPa) = 28.22829 37.39793 32.81311
#
# Velocity S-wave (km/s) = 3.43993 3.95942 3.70878
# Velocity P-wave (km/s) = 5.84719 6.54363 6.20519
#
# Compressibility (1/GPa) = 0.02276736
#
# Stress axis : x y z
#
# Youngs Moduli (GPa) = 108.44698 98.38145 55.46291
#
# Poissons Ratio (x) = 0.27244 0.15049
# Poissons Ratio (y) = 0.30031 0.10214
# Poissons Ratio (z) = 0.29426 0.18117
#
# Static dielectric constant tensor:
#      x y z
#    x 6.735800 0.000000 1.303100 
#    y 0.000000 4.516970 0.000000 
#    z 1.303100 0.000000 4.458520 
# 
# 
# High freq. dielectric constant tensor:
#      x y z
#    x 1.954720 0.000000 0.015840 
#    y 0.000000 1.955300 0.000000 
#    z 0.015840 0.000000 1.910970 
# 
# From -- ./inp_files/43304.got.cif
#   From: 2010.06.25/outbox.cif.g09.slc.cpg/sg15_22_cif.got.tgz:43304.got - 2010.06.28 07:06:18.
