data_PCOD8143185
_publ_section_title
;
Structure prediction by ZEFSAII (Michael W. Deem and Ramdas Pophale) SiO2 
 PCOD8143185
Probable space group: C 2/C
;
_chemical_formula_sum "Si O2"
_cell_formula_units_Z 48
_cell_length_a 25.510355
_cell_length_b 9.262539
_cell_length_c 10.152552
_cell_angle_alpha 90.000000
_cell_angle_beta 80.036874
_cell_angle_gamma 90.000000
_cell_volume 2362.775310
_symmetry_space_group_name_H-M "C 2/C"
_symmetry_group_IT_number 15
_symmetry_cell_setting 'monoclinic'
loop_
_space_group_symop_operation_xyz
x,y,z
-x,y,1/2-z
-x,-y,-z
x,-y,1/2+z
1/2+x,1/2+y,z
1/2-x,1/2+y,1/2-z
1/2-x,1/2-y,-z
1/2+x,1/2-y,1/2+z
loop_
_atom_site_type_symbol
_atom_site_label
_atom_site_fract_x
_atom_site_fract_y
_atom_site_fract_z
Si Si1 0.664326 0.538347 0.423198
Si Si2 0.095856 0.785476 0.387799
Si Si3 0.283042 0.625886 0.363349
Si Si4 0.673335 0.886353 0.023855
Si Si5 0.991340 0.625474 0.401224
Si Si6 0.873458 0.306757 0.910356
O O1 0.608892 0.450888 0.423231
O O2 0.696374 0.544641 0.273378
O O3 0.700068 0.452548 0.509871
O O4 0.655689 0.698407 0.478892
O O5 0.119178 0.676165 0.485875
O O6 0.032442 0.758236 0.408142
O O7 0.124001 0.756780 0.236404
O O8 0.306745 0.789049 0.360708
O O9 0.218894 0.620614 0.391036
O O10 0.660333 0.046278 0.079856
O O11 0.000000 0.563475 0.250000
O O12 0.000000 0.500000 0.500000
O O13 0.931872 0.679434 0.446443
#
# Coordination Sequence:
#
# PCOD8143185 Si02
#       6
#     8   8   8   8   8   8
#     4  11  23  43  61  89 128 166 207 254 317 367
#     4  10  22  42  61  90 130 157 208 262 308 372
#     4  10  24  41  61  92 128 165 209 258 305 377
#     4  10  23  39  64  91 126 163 212 256 311 366
#     4  10  21  40  63  94 122 157 207 259 309 370
#     4  11  23  38  68  91 119 168 207 255 315 370
#
# _framework density 20.315093000000001
#
# number of rings (size 3 to 8) (size 9 to 14) (size 15 to 20)
#    0.000    1.667    3.333    0.000    4.667    4.000 
#    0.000    0.000    0.000    0.000    0.000    0.000 
#    0.000    0.000    0.000    0.000    0.000    0.000 
#
# Total GULP energy -297592.275195 kJ/mol
# GULP energy per Si atom -12399.678133 kJ/mol
# Density = 2.026886 g / cm^3
# Si number density = 20.315093 Si / 1000 Ang^3
#
#
#
# Elastic Constant Matrix: (Units=GPa)
#
#
# Indices 1 2 3 4 5 6 
#
# 1 82.8560 29.7751 3.2334 0.0000 -4.5895 0.0000
# 2 29.7751 120.6285 29.0306 0.0000 -1.4086 0.0000
# 3 3.2334 29.0306 63.6654 0.0000 2.0579 0.0000
# 4 0.0000 0.0000 0.0000 27.3609 0.0000 -4.7078
# 5 -4.5895 -1.4086 2.0579 0.0000 23.1832 0.0000
# 6 0.0000 0.0000 0.0000 -4.7078 0.0000 26.4158
#
#
#
# Elastic Compliance Matrix: (Units=1/GPa)
#
#
# Indices 1 2 3 4 5 6 
#
# 1 0.013420 -0.003485 0.000831 0.000000 0.002371 0.000000
# 2 -0.003485 0.010237 -0.004502 0.000000 0.000332 0.000000
# 3 0.000831 -0.004502 0.017772 0.000000 -0.001687 0.000000
# 4 0.000000 0.000000 0.000000 0.037705 0.000000 0.006720
# 5 0.002371 0.000332 -0.001687 0.000000 0.043774 0.000000
# 6 0.000000 0.000000 0.000000 0.006720 0.000000 0.039054
#
#
# Mechanical properties :
#
#
# Convention : Reuss Voigt Hill
#
# Bulk Modulus (GPa) = 36.87561 43.46981 40.17271
# Shear Modulus (GPa) = 26.98130 29.06604 28.02367
#
# Velocity S-wave (km/s) = 3.64832 3.78664 3.71813
# Velocity P-wave (km/s) = 5.99485 6.36887 6.18469
#
# Compressibility (1/GPa) = 0.02711820
#
# Stress axis : x y z
#
# Youngs Moduli (GPa) = 74.51362 97.68124 56.26755
#
# Poissons Ratio (x) = 0.34040 -0.04675
# Poissons Ratio (y) = 0.25967 0.25331
# Poissons Ratio (z) = -0.06191 0.43975
#
# Static dielectric constant tensor:
#      x y z
#    x 4.703750 0.000000 -0.040960 
#    y 0.000000 3.785610 0.000000 
#    z -0.040960 0.000000 3.576320 
# 
# 
# High freq. dielectric constant tensor:
#      x y z
#    x 1.800080 0.000000 0.008280 
#    y 0.000000 1.792230 0.000000 
#    z 0.008280 0.000000 1.789950 
# 
# From -- ./inp_files/116276.got.cif
#   From: 2010.06.25/outbox.cif.g09.slc.cpg/sg15_59_cif.got.tgz:116276.got - 2010.06.28 07:06:18.
