data_PCOD8143339
_publ_section_title
;
Structure prediction by ZEFSAII (Michael W. Deem and Ramdas Pophale) SiO2 
 PCOD8143339
Probable space group: C 2/C
;
_chemical_formula_sum "Si O2"
_cell_formula_units_Z 48
_cell_length_a 13.757133
_cell_length_b 5.680799
_cell_length_c 28.482662
_cell_angle_alpha 90.000000
_cell_angle_beta 59.615901
_cell_angle_gamma 90.000000
_cell_volume 1920.236022
_symmetry_space_group_name_H-M "C 2/C"
_symmetry_group_IT_number 15
_symmetry_cell_setting 'monoclinic'
loop_
_space_group_symop_operation_xyz
x,y,z
-x,y,1/2-z
-x,-y,-z
x,-y,1/2+z
1/2+x,1/2+y,z
1/2-x,1/2+y,1/2-z
1/2-x,1/2-y,-z
1/2+x,1/2-y,1/2+z
loop_
_atom_site_type_symbol
_atom_site_label
_atom_site_fract_x
_atom_site_fract_y
_atom_site_fract_z
Si Si1 0.102407 0.664211 0.365720
Si Si2 0.833675 0.974696 0.334607
Si Si3 0.949509 0.263658 0.381808
Si Si4 0.765066 0.640874 0.427308
Si Si5 0.416421 0.603069 0.960263
Si Si6 0.816500 0.097600 0.736760
O O1 0.227539 0.650628 0.355271
O O2 0.097539 0.881392 0.328704
O O3 0.058853 0.431464 0.348111
O O4 0.016972 0.707219 0.429909
O O5 0.934444 0.093596 0.339870
O O6 0.780290 0.740479 0.371237
O O7 0.879758 0.904407 0.271697
O O8 0.832443 0.401471 0.415208
O O9 0.965749 0.140946 0.428560
O O10 0.633044 0.593270 0.474428
O O11 0.813057 0.839675 0.450481
O O12 0.750405 0.350901 0.750536
#
# Coordination Sequence:
#
# PCOD8143339 Si02
#       6
#     8   8   8   8   8   8
#     4  10  23  41  68  93 132 173 224 275 343 399
#     4  10  23  41  68  93 132 173 224 275 343 399
#     4  10  21  40  65  94 128 176 222 272 336 412
#     4   9  19  37  61  94 133 171 217 276 335 399
#     4   9  19  37  61  94 133 171 217 276 335 399
#     4  10  24  44  73  95 132 180 220 280 348 405
#
# _framework density 24.996928
#
# number of rings (size 3 to 8) (size 9 to 14) (size 15 to 20)
#    0.000    2.333    0.000    0.500    9.333    2.000 
#    0.000   10.833    0.000    0.000    0.000    0.000 
#    0.000    0.000    0.000    0.000    0.000    0.000 
#
# Total GULP energy -297318.198184 kJ/mol
# GULP energy per Si atom -12388.258258 kJ/mol
# Density = 2.494003 g / cm^3
# Si number density = 24.996928 Si / 1000 Ang^3
#
#
#
# Elastic Constant Matrix: (Units=GPa)
#
#
# Indices 1 2 3 4 5 6 
#
# 1 61.9977 9.0132 -11.1504 -0.0030 7.6219 -0.0016
# 2 9.0132 91.2652 -5.7293 -0.0172 9.5728 -0.0028
# 3 -11.1504 -5.7293 40.9945 -0.0093 11.1855 -0.0026
# 4 -0.0030 -0.0172 -0.0093 34.0997 -0.0017 -6.3350
# 5 7.6219 9.5728 11.1855 -0.0017 29.8790 -0.0014
# 6 -0.0016 -0.0028 -0.0026 -6.3350 -0.0014 32.4409
#
#
#
# Elastic Compliance Matrix: (Units=1/GPa)
#
#
# Indices 1 2 3 4 5 6 
#
# 1 0.018309 -0.000646 0.006802 0.000003 -0.007010 0.000002
# 2 -0.000646 0.011672 0.002708 0.000007 -0.004588 0.000002
# 3 0.006802 0.002708 0.030442 0.000010 -0.013999 0.000004
# 4 0.000003 0.000007 0.000010 0.030430 -0.000005 0.005942
# 5 -0.007010 -0.004588 -0.013999 -0.000005 0.041967 -0.000001
# 6 0.000002 0.000002 0.000004 0.005942 -0.000001 0.031986
#
#
# Mechanical properties :
#
#
# Convention : Reuss Voigt Hill
#
# Bulk Modulus (GPa) = 12.79572 19.83604 16.31588
# Shear Modulus (GPa) = 28.88047 32.75886 30.81966
#
# Velocity S-wave (km/s) = 3.40275 3.62403 3.51513
# Velocity P-wave (km/s) = 4.53523 5.04620 4.79752
#
# Compressibility (1/GPa) = 0.07815111
#
# Stress axis : x y z
#
# Youngs Moduli (GPa) = 54.61869 85.67430 32.84947
#
# Poissons Ratio (x) = 0.05533 -0.22346
# Poissons Ratio (y) = 0.03527 -0.08894
# Poissons Ratio (z) = -0.37154 -0.23197
#
# Static dielectric constant tensor:
#      x y z
#    x 4.152210 0.000000 -0.001570 
#    y 0.000000 4.586180 0.000000 
#    z -0.001570 0.000000 4.967290 
# 
# 
# High freq. dielectric constant tensor:
#      x y z
#    x 1.975590 0.000000 -0.008430 
#    y 0.000000 1.998140 0.000000 
#    z -0.008430 0.000000 2.001930 
# 
# From -- ./inp_files/260740.got.cif
#   From: 2010.06.25/outbox.cif.g09.slc.cpg/sg15_131_cif.got.tgz:260740.got - 2010.06.28 07:06:18.
