data_PCOD8143152
_publ_section_title
;
Structure prediction by ZEFSAII (Michael W. Deem and Ramdas Pophale) SiO2 
 PCOD8143152
Probable space group: C 2/C
;
_chemical_formula_sum "Si O2"
_cell_formula_units_Z 48
_cell_length_a 14.529719
_cell_length_b 22.901065
_cell_length_c 11.742970
_cell_angle_alpha 90.000000
_cell_angle_beta 143.264437
_cell_angle_gamma 90.000000
_cell_volume 2337.120591
_symmetry_space_group_name_H-M "C 2/C"
_symmetry_group_IT_number 15
_symmetry_cell_setting 'monoclinic'
loop_
_space_group_symop_operation_xyz
x,y,z
-x,y,1/2-z
-x,-y,-z
x,-y,1/2+z
1/2+x,1/2+y,z
1/2-x,1/2+y,1/2-z
1/2-x,1/2-y,-z
1/2+x,1/2-y,1/2+z
loop_
_atom_site_type_symbol
_atom_site_label
_atom_site_fract_x
_atom_site_fract_y
_atom_site_fract_z
Si Si1 0.159386 0.978091 0.713876
Si Si2 0.682847 0.299090 0.717518
Si Si3 0.822492 0.174499 0.864615
Si Si4 0.820776 0.593277 0.945718
Si Si5 0.166560 0.877718 0.895460
Si Si6 0.826672 0.389855 0.715615
O O1 0.273706 0.030531 0.852009
O O2 0.144625 0.942664 0.819734
O O3 0.233788 0.937005 0.694498
O O4 0.000000 0.000000 0.500000
O O5 0.718268 0.231749 0.769836
O O6 0.500668 0.308914 0.535871
O O7 0.756328 0.335789 0.896169
O O8 0.763120 0.325064 0.683249
O O9 0.789527 0.142557 0.714053
O O10 0.765295 0.129149 0.908787
O O11 0.796247 0.595853 0.055197
O O12 0.993713 0.606283 0.078136
O O13 0.000000 0.849351 0.750000
#
# Coordination Sequence:
#
# PCOD8143152 Si02
#       6
#     8   8   8   8   8   8
#     4  11  23  39  65  90 127 167 206 264 310 381
#     4  10  21  40  63  89 127 162 207 263 311 380
#     4  11  22  39  65  95 124 167 210 260 322 375
#     4  11  24  40  64  88 125 168 209 266 308 381
#     4   9  20  37  59  94 124 161 205 251 311 375
#     4  10  24  44  59  90 124 165 219 254 322 370
#
# _framework density 20.538093
#
# number of rings (size 3 to 8) (size 9 to 14) (size 15 to 20)
#    0.000    1.667    0.000    5.000    4.667    2.667 
#    0.000    5.833    0.000    0.000    0.000    0.000 
#    0.000    0.000    0.000    0.000    0.000    0.000 
#
# Total GULP energy -297421.093603 kJ/mol
# GULP energy per Si atom -12392.545567 kJ/mol
# Density = 2.049135 g / cm^3
# Si number density = 20.538093 Si / 1000 Ang^3
#
#
#
# Elastic Constant Matrix: (Units=GPa)
#
#
# Indices 1 2 3 4 5 6 
#
# 1 103.9284 45.0815 50.8626 0.0000 7.2989 0.0000
# 2 45.0815 128.4115 59.4045 0.0000 -3.4865 0.0000
# 3 50.8626 59.4045 113.3032 0.0000 -1.8138 0.0000
# 4 0.0000 0.0000 0.0000 38.3041 0.0000 5.5018
# 5 7.2989 -3.4865 -1.8138 0.0000 15.3351 0.0000
# 6 0.0000 0.0000 0.0000 5.5018 0.0000 32.0343
#
#
#
# Elastic Compliance Matrix: (Units=1/GPa)
#
#
# Indices 1 2 3 4 5 6 
#
# 1 0.013743 -0.002804 -0.004823 0.000000 -0.007749 0.000000
# 2 -0.002804 0.010898 -0.004402 0.000000 0.003291 0.000000
# 3 -0.004823 -0.004402 0.013345 0.000000 0.002873 0.000000
# 4 0.000000 0.000000 0.000000 0.026767 0.000000 -0.004597
# 5 -0.007749 0.003291 0.002873 0.000000 0.069986 0.000000
# 6 0.000000 0.000000 0.000000 -0.004597 0.000000 0.032006
#
#
# Mechanical properties :
#
#
# Convention : Reuss Voigt Hill
#
# Bulk Modulus (GPa) = 71.80290 72.92668 72.36479
# Shear Modulus (GPa) = 25.58239 29.82099 27.70169
#
# Velocity S-wave (km/s) = 3.53314 3.81463 3.67658
# Velocity P-wave (km/s) = 7.18894 7.41532 7.30301
#
# Compressibility (1/GPa) = 0.01392701
#
# Stress axis : x y z
#
# Youngs Moduli (GPa) = 72.76432 91.76236 74.93326
#
# Poissons Ratio (x) = 0.25729 0.36143
# Poissons Ratio (y) = 0.20402 0.32988
# Poissons Ratio (z) = 0.35097 0.40396
#
# Static dielectric constant tensor:
#      x y z
#    x 4.000990 0.000000 -0.201910 
#    y 0.000000 3.816410 0.000000 
#    z -0.201910 0.000000 3.872270 
# 
# 
# High freq. dielectric constant tensor:
#      x y z
#    x 1.814000 0.000000 -0.007500 
#    y 0.000000 1.806240 0.000000 
#    z -0.007500 0.000000 1.800670 
# 
# From -- ./inp_files/100069.got.cif
#   From: 2010.06.25/outbox.cif.g09.slc.cpg/sg15_51_cif.got.tgz:100069.got - 2010.06.28 07:06:18.
