data_PCOD8143514
_publ_section_title
;
Structure prediction by ZEFSAII (Michael W. Deem and Ramdas Pophale) SiO2 
 PCOD8143514
Probable space group: C 2/C
;
_chemical_formula_sum "Si O2"
_cell_formula_units_Z 32
_cell_length_a 8.683605
_cell_length_b 22.163609
_cell_length_c 9.834252
_cell_angle_alpha 90.000000
_cell_angle_beta 42.687475
_cell_angle_gamma 90.000000
_cell_volume 1283.248974
_symmetry_space_group_name_H-M "C 2/C"
_symmetry_group_IT_number 15
_symmetry_cell_setting 'monoclinic'
loop_
_space_group_symop_operation_xyz
x,y,z
-x,y,1/2-z
-x,-y,-z
x,-y,1/2+z
1/2+x,1/2+y,z
1/2-x,1/2+y,1/2-z
1/2-x,1/2-y,-z
1/2+x,1/2-y,1/2+z
loop_
_atom_site_type_symbol
_atom_site_label
_atom_site_fract_x
_atom_site_fract_y
_atom_site_fract_z
Si Si1 0.500000 0.623649 0.750000
Si Si2 0.802908 0.674601 0.076893
Si Si3 0.846010 0.521986 0.476813
Si Si4 0.500000 0.427456 0.750000
Si Si5 0.292599 0.303944 0.163487
O O1 0.725663 0.583834 0.596587
O O2 0.506533 0.666855 0.878686
O O3 0.683168 0.614091 0.215684
O O4 0.336404 0.684955 0.474871
O O5 0.773305 0.731370 0.197875
O O6 0.063521 0.664809 0.867930
O O7 0.656531 0.471429 0.555610
O O8 0.000000 0.536094 0.250000
O O9 0.000000 0.500000 0.500000
#
# Coordination Sequence:
#
# PCOD8143514 Si02
#       5
#     4   8   8   4   8
#     4  11  26  46  76 104 154 193 246 314 370 435
#     4  10  21  40  69 102 144 190 243 291 371 442
#     4  11  28  49  74 112 145 197 255 309 373 436
#     4  11  24  40  78 102 144 193 238 308 360 441
#     4  10  22  42  66 105 145 192 238 300 364 445
#
# _framework density 24.936705
#
# number of rings (size 3 to 8) (size 9 to 14) (size 15 to 20)
#    0.000    1.500    0.000    4.500   10.500    3.000 
#    4.500    0.000    0.000    0.000    0.000    0.000 
#    0.000    0.000    0.000    0.000    0.000    0.000 
#
# Total GULP energy -198295.564574 kJ/mol
# GULP energy per Si atom -12393.472786 kJ/mol
# Density = 2.487995 g / cm^3
# Si number density = 24.936705 Si / 1000 Ang^3
#
#
#
# Elastic Constant Matrix: (Units=GPa)
#
#
# Indices 1 2 3 4 5 6 
#
# 1 121.9335 63.5180 31.0655 0.0000 12.8047 0.0000
# 2 63.5180 166.8004 46.1419 0.0000 -1.8578 0.0000
# 3 31.0655 46.1419 95.4000 0.0000 -4.2132 0.0000
# 4 0.0000 0.0000 0.0000 14.7351 0.0000 -2.4838
# 5 12.8047 -1.8578 -4.2132 0.0000 28.9610 0.0000
# 6 0.0000 0.0000 0.0000 -2.4838 0.0000 46.7962
#
#
#
# Elastic Compliance Matrix: (Units=1/GPa)
#
#
# Indices 1 2 3 4 5 6 
#
# 1 0.011285 -0.003781 -0.002091 0.000000 -0.005536 0.000000
# 2 -0.003781 0.008188 -0.002649 0.000000 0.001811 0.000000
# 3 -0.002091 -0.002649 0.012558 0.000000 0.002581 0.000000
# 4 0.000000 0.000000 0.000000 0.068478 0.000000 0.003635
# 5 -0.005536 0.001811 0.002581 0.000000 0.037469 0.000000
# 6 0.000000 0.000000 0.000000 0.003635 0.000000 0.021562
#
#
# Mechanical properties :
#
#
# Convention : Reuss Voigt Hill
#
# Bulk Modulus (GPa) = 66.71060 73.95385 70.33223
# Shear Modulus (GPa) = 27.53665 34.32569 30.93117
#
# Velocity S-wave (km/s) = 3.32665 3.71416 3.52573
# Velocity P-wave (km/s) = 6.44713 6.93645 6.69626
#
# Compressibility (1/GPa) = 0.01499012
#
# Stress axis : x y z
#
# Youngs Moduli (GPa) = 88.61681 122.13259 79.62895
#
# Poissons Ratio (x) = 0.46172 0.16647
# Poissons Ratio (y) = 0.33502 0.21095
# Poissons Ratio (z) = 0.18526 0.32354
#
# Static dielectric constant tensor:
#      x y z
#    x 3.941080 0.000000 -0.534550 
#    y 0.000000 4.905000 0.000000 
#    z -0.534550 0.000000 4.314510 
# 
# 
# High freq. dielectric constant tensor:
#      x y z
#    x 1.958230 0.000000 -0.036920 
#    y 0.000000 2.010570 0.000000 
#    z -0.036920 0.000000 1.998000 
# 
# From -- ./inp_files/10849.got.cif
#   From: 2010.06.25/outbox.cif.g09.slc.cpg/sg15_6_cif.got.tgz:10849.got - 2010.06.28 07:06:18.
