data_PCOD8143223
_publ_section_title
;
Structure prediction by ZEFSAII (Michael W. Deem and Ramdas Pophale) SiO2 
 PCOD8143223
Probable space group: C 2/C
;
_chemical_formula_sum "Si O2"
_cell_formula_units_Z 56
_cell_length_a 8.915970
_cell_length_b 24.409034
_cell_length_c 17.316885
_cell_angle_alpha 90.000000
_cell_angle_beta 41.106151
_cell_angle_gamma 90.000000
_cell_volume 2477.740102
_symmetry_space_group_name_H-M "C 2/C"
_symmetry_group_IT_number 15
_symmetry_cell_setting 'monoclinic'
loop_
_space_group_symop_operation_xyz
x,y,z
-x,y,1/2-z
-x,-y,-z
x,-y,1/2+z
1/2+x,1/2+y,z
1/2-x,1/2+y,1/2-z
1/2-x,1/2-y,-z
1/2+x,1/2-y,1/2+z
loop_
_atom_site_type_symbol
_atom_site_label
_atom_site_fract_x
_atom_site_fract_y
_atom_site_fract_z
Si Si1 0.917799 0.548999 0.697222
Si Si2 0.474626 0.060613 0.428963
Si Si3 0.753296 0.735498 0.625027
Si Si4 0.763264 0.098261 0.453708
Si Si5 0.933304 0.797113 0.690782
Si Si6 0.582432 0.825374 0.582546
Si Si7 0.043799 0.992217 0.148455
O O1 0.641596 0.552854 0.806874
O O2 0.000000 0.561357 0.750000
O O3 0.955953 0.485744 0.658572
O O4 0.040474 0.594640 0.595845
O O5 0.684141 0.086087 0.396394
O O6 0.357752 0.110848 0.427888
O O7 0.290463 0.036162 0.559462
O O8 0.500000 0.716308 0.750000
O O9 0.922906 0.747680 0.631723
O O10 0.739971 0.790554 0.578546
O O11 0.871587 0.689544 0.525763
O O12 0.890710 0.156331 0.407195
O O13 0.933777 0.047847 0.412520
O O14 0.679303 0.819570 0.792732
O O15 0.000000 0.774471 0.750000
O O16 0.000000 0.014249 0.250000
#
# Coordination Sequence:
#
# PCOD8143223 Si02
#       7
#     8   8   8   8   8   8   8
#     4  11  24  38  57  91 135 161 206 265 307 354
#     4  11  21  36  62  90 114 168 217 246 300 384
#     4   9  22  42  62  90 126 157 201 271 318 375
#     4  11  21  38  60  90 125 164 212 255 301 379
#     4  11  21  37  67  92 119 164 207 258 314 374
#     4  10  21  40  64  90 121 160 211 256 317 373
#     4  11  19  35  60  81 121 167 200 245 303 364
#
# _framework density 22.601241999999999
#
# number of rings (size 3 to 8) (size 9 to 14) (size 15 to 20)
#    0.000    1.429    4.286    2.143    0.000    7.429 
#    0.000    0.000    3.143    0.000    0.000    0.000 
#    0.000    0.000    0.000    0.000    0.000    0.000 
#
# Total GULP energy -346990.741561 kJ/mol
# GULP energy per Si atom -12392.526484 kJ/mol
# Density = 2.254980 g / cm^3
# Si number density = 22.601242 Si / 1000 Ang^3
#
#
#
# Elastic Constant Matrix: (Units=GPa)
#
#
# Indices 1 2 3 4 5 6 
#
# 1 92.2491 3.4499 15.7523 0.0000 2.8493 0.0000
# 2 3.4499 50.9344 8.3181 0.0000 0.1727 0.0000
# 3 15.7523 8.3181 79.8083 0.0000 -8.0579 0.0000
# 4 0.0000 0.0000 0.0000 25.9343 0.0000 -0.5413
# 5 2.8493 0.1727 -8.0579 0.0000 37.3430 0.0000
# 6 0.0000 0.0000 0.0000 -0.5413 0.0000 22.0086
#
#
#
# Elastic Compliance Matrix: (Units=1/GPa)
#
#
# Indices 1 2 3 4 5 6 
#
# 1 0.011294 -0.000380 -0.002327 0.000000 -0.001362 0.000000
# 2 -0.000380 0.019997 -0.002060 0.000000 -0.000508 0.000000
# 3 -0.002327 -0.002060 0.013517 0.000000 0.003104 0.000000
# 4 0.000000 0.000000 0.000000 0.038579 0.000000 0.000949
# 5 -0.001362 -0.000508 0.003104 0.000000 0.027555 0.000000
# 6 0.000000 0.000000 0.000000 0.000949 0.000000 0.045460
#
#
# Mechanical properties :
#
#
# Convention : Reuss Voigt Hill
#
# Bulk Modulus (GPa) = 28.35044 30.89248 29.62146
# Shear Modulus (GPa) = 28.13804 30.08861 29.11333
#
# Velocity S-wave (km/s) = 3.53225 3.65263 3.59295
# Velocity P-wave (km/s) = 5.40432 5.61134 5.50880
#
# Compressibility (1/GPa) = 0.03527282
#
# Stress axis : x y z
#
# Youngs Moduli (GPa) = 88.54358 50.00736 73.97834
#
# Poissons Ratio (x) = 0.01902 0.17215
# Poissons Ratio (y) = 0.03367 0.15243
# Poissons Ratio (z) = 0.20604 0.10304
#
# Static dielectric constant tensor:
#      x y z
#    x 4.622630 0.000000 -0.543280 
#    y 0.000000 4.022530 0.000000 
#    z -0.543280 0.000000 4.694790 
# 
# 
# High freq. dielectric constant tensor:
#      x y z
#    x 1.870870 0.000000 -0.007290 
#    y 0.000000 1.868810 0.000000 
#    z -0.007290 0.000000 1.907060 
# 
# From -- ./inp_files/81253.got.cif
#   From: 2010.06.25/outbox.cif.g09.slc.cpg/sg15_41_cif.got.tgz:81253.got - 2010.06.28 07:06:18.
