data_PCOD8143250
_publ_section_title
;
Structure prediction by ZEFSAII (Michael W. Deem and Ramdas Pophale) SiO2 
 PCOD8143250
Probable space group: C 2/C
;
_chemical_formula_sum "Si O2"
_cell_formula_units_Z 40
_cell_length_a 11.994705
_cell_length_b 8.447294
_cell_length_c 14.662823
_cell_angle_alpha 90.000000
_cell_angle_beta 108.792246
_cell_angle_gamma 90.000000
_cell_volume 1406.481023
_symmetry_space_group_name_H-M "C 2/C"
_symmetry_group_IT_number 15
_symmetry_cell_setting 'monoclinic'
loop_
_space_group_symop_operation_xyz
x,y,z
-x,y,1/2-z
-x,-y,-z
x,-y,1/2+z
1/2+x,1/2+y,z
1/2-x,1/2+y,1/2-z
1/2-x,1/2-y,-z
1/2+x,1/2-y,1/2+z
loop_
_atom_site_type_symbol
_atom_site_label
_atom_site_fract_x
_atom_site_fract_y
_atom_site_fract_z
Si Si1 0.220847 0.419567 0.681339
Si Si2 0.201995 0.417327 0.881944
Si Si3 0.497551 0.097915 0.906925
Si Si4 0.403286 0.636925 0.959024
Si Si5 0.082501 0.897455 0.355736
O O1 0.252438 0.388985 0.794336
O O2 0.159911 0.264930 0.622938
O O3 0.340108 0.454714 0.657677
O O4 0.136621 0.576002 0.661785
O O5 0.086390 0.527674 0.855117
O O6 0.305535 0.506972 0.966971
O O7 0.165208 0.246845 0.912237
O O8 0.535987 0.277759 0.938272
O O9 0.500000 0.000000 0.000000
O O10 0.503541 0.550074 0.922862
O O11 0.000000 0.838335 0.250000
#
# Coordination Sequence:
#
# PCOD8143250 Si02
#       5
#     8   8   8   8   8
#     4  11  22  40  68  94 123 169 208 258 313 371
#     4  12  20  41  70  87 128 171 205 255 315 367
#     4  10  21  40  64  93 127 168 204 256 317 368
#     4  11  24  43  63  95 127 163 209 260 312 372
#     4  12  22  42  65  92 126 162 209 262 310 367
#
# _framework density 28.439774
#
# number of rings (size 3 to 8) (size 9 to 14) (size 15 to 20)
#    0.000    0.800    8.000    1.200    0.000    0.800 
#    3.600    2.000    0.000    0.000    0.000    0.000 
#    0.000    0.000    0.000    0.000    0.000    0.000 
#
# Total GULP energy -248050.720711 kJ/mol
# GULP energy per Si atom -12402.536036 kJ/mol
# Density = 2.837504 g / cm^3
# Si number density = 28.439774 Si / 1000 Ang^3
#
#
#
# Elastic Constant Matrix: (Units=GPa)
#
#
# Indices 1 2 3 4 5 6 
#
# 1 172.3356 58.2006 12.6315 0.0000 -20.5927 0.0000
# 2 58.2006 139.2636 21.4126 0.0000 -8.3985 0.0000
# 3 12.6315 21.4126 46.0902 0.0000 -19.7357 0.0000
# 4 0.0000 0.0000 0.0000 29.3986 0.0000 -1.7800
# 5 -20.5927 -8.3985 -19.7357 0.0000 57.5516 0.0000
# 6 0.0000 0.0000 0.0000 -1.7800 0.0000 68.3368
#
#
#
# Elastic Compliance Matrix: (Units=1/GPa)
#
#
# Indices 1 2 3 4 5 6 
#
# 1 0.007003 -0.002847 0.000350 0.000000 0.002210 0.000000
# 2 -0.002847 0.008891 -0.003787 0.000000 -0.001020 0.000000
# 3 0.000350 -0.003787 0.027166 0.000000 0.008888 0.000000
# 4 0.000000 0.000000 0.000000 0.034069 0.000000 0.000887
# 5 0.002210 -0.001020 0.008888 0.000000 0.021066 0.000000
# 6 0.000000 0.000000 0.000000 0.000887 0.000000 0.014657
#
#
# Mechanical properties :
#
#
# Convention : Reuss Voigt Hill
#
# Bulk Modulus (GPa) = 32.79613 60.24209 46.51911
# Shear Modulus (GPa) = 36.87768 48.75370 42.81569
#
# Velocity S-wave (km/s) = 3.60487 4.14488 3.88427
# Velocity P-wave (km/s) = 5.37435 6.64342 6.04229
#
# Compressibility (1/GPa) = 0.03049140
#
# Stress axis : x y z
#
# Youngs Moduli (GPa) = 142.80496 112.47041 36.81058
#
# Poissons Ratio (x) = 0.32020 -0.01288
# Poissons Ratio (y) = 0.40657 0.13941
# Poissons Ratio (z) = -0.04997 0.42594
#
# Static dielectric constant tensor:
#      x y z
#    x 5.620970 0.000000 0.270620 
#    y 0.000000 5.547410 0.000000 
#    z 0.270620 0.000000 5.209110 
# 
# 
# High freq. dielectric constant tensor:
#      x y z
#    x 2.169440 0.000000 0.000510 
#    y 0.000000 2.161600 0.000000 
#    z 0.000510 0.000000 2.154450 
# 
# From -- ./inp_files/195063.got.cif
#   From: 2010.06.25/outbox.cif.g09.slc.cpg/sg15_98_cif.got.tgz:195063.got - 2010.06.28 07:06:18.
