data_PCOD8143736
_publ_section_title
;
Structure prediction by ZEFSAII (Michael W. Deem and Ramdas Pophale) SiO2 
 PCOD8143736
Probable space group: C 2/C
;
_chemical_formula_sum "Si O2"
_cell_formula_units_Z 64
_cell_length_a 22.509764
_cell_length_b 21.199179
_cell_length_c 16.175697
_cell_angle_alpha 90.000000
_cell_angle_beta 21.713732
_cell_angle_gamma 90.000000
_cell_volume 2855.741074
_symmetry_space_group_name_H-M "C 2/C"
_symmetry_group_IT_number 15
_symmetry_cell_setting 'monoclinic'
loop_
_space_group_symop_operation_xyz
x,y,z
-x,y,1/2-z
-x,-y,-z
x,-y,1/2+z
1/2+x,1/2+y,z
1/2-x,1/2+y,1/2-z
1/2-x,1/2-y,-z
1/2+x,1/2-y,1/2+z
loop_
_atom_site_type_symbol
_atom_site_label
_atom_site_fract_x
_atom_site_fract_y
_atom_site_fract_z
Si Si1 0.590468 0.643468 0.462891
Si Si2 0.310486 0.028686 0.164094
Si Si3 0.248472 0.852437 0.036515
Si Si4 0.327304 0.692203 0.515843
Si Si5 0.687641 0.052520 0.680725
Si Si6 0.174930 0.488202 0.532537
Si Si7 0.974909 0.227806 0.088987
Si Si8 0.765049 0.725462 0.354473
O O1 0.725134 0.592271 0.300390
O O2 0.426145 0.619692 0.715391
O O3 0.576627 0.660844 0.383740
O O4 0.638193 0.707663 0.448441
O O5 0.261633 0.979626 0.298836
O O6 0.496466 0.047095 0.921575
O O7 0.242087 0.002731 0.164005
O O8 0.294554 0.793254 0.034699
O O9 0.261828 0.830332 0.925340
O O10 0.356930 0.913659 0.911188
O O11 0.500000 0.700757 0.250000
O O12 0.257522 0.622682 0.594350
O O13 0.184299 0.738547 0.667188
O O14 0.373464 0.712781 0.548325
O O15 0.761010 0.019622 0.502193
O O16 0.000000 0.519548 0.750000
O O17 0.053510 0.271205 0.915532
#
# Coordination Sequence:
#
# PCOD8143736 Si02
#       8
#     8   8   8   8   8   8   8   8
#     4  11  22  39  65  95 139 174 235 277 347 409
#     4  10  23  43  70  97 139 191 229 291 351 420
#     4  10  23  37  66 101 137 177 223 285 350 421
#     4  12  27  47  71 102 137 178 236 299 348 418
#     4  10  24  44  69 101 136 185 236 284 356 421
#     4  10  23  42  63  99 136 183 239 288 354 422
#     4  11  25  45  68 101 131 181 229 280 358 416
#     4  10  21  41  64 101 138 181 218 285 350 427
#
# _framework density 22.410996000000001
#
# number of rings (size 3 to 8) (size 9 to 14) (size 15 to 20)
#    0.000    1.500    1.250    2.250    5.250    6.500 
#    0.000    0.000    0.000    0.000    0.000    0.000 
#    0.000    0.000    0.000    0.000    0.000    0.000 
#
# Total GULP energy -396510.612807 kJ/mol
# GULP energy per Si atom -12390.956650 kJ/mol
# Density = 2.235999 g / cm^3
# Si number density = 22.410996 Si / 1000 Ang^3
#
#
#
# Elastic Constant Matrix: (Units=GPa)
#
#
# Indices 1 2 3 4 5 6 
#
# 1 125.4217 47.8108 30.7876 0.0034 16.4532 -0.0012
# 2 47.8108 99.0562 28.5194 0.0186 6.0809 -0.0100
# 3 30.7876 28.5194 42.4155 0.0851 11.6763 -0.0552
# 4 0.0034 0.0186 0.0851 32.9303 -0.0290 -4.8817
# 5 16.4532 6.0809 11.6763 -0.0290 32.9828 0.0125
# 6 -0.0012 -0.0100 -0.0552 -4.8817 0.0125 27.5431
#
#
#
# Elastic Compliance Matrix: (Units=1/GPa)
#
#
# Indices 1 2 3 4 5 6 
#
# 1 0.010941 -0.003783 -0.004529 0.000009 -0.003157 -0.000007
# 2 -0.003783 0.013843 -0.007068 0.000011 0.001837 -0.000008
# 3 -0.004529 -0.007068 0.033943 -0.000083 -0.008454 0.000054
# 4 0.000009 0.000011 -0.000083 0.031187 0.000048 0.005527
# 5 -0.003157 0.001837 -0.008454 0.000048 0.034548 -0.000024
# 6 -0.000007 -0.000008 0.000054 0.005527 -0.000024 0.037287
#
#
# Mechanical properties :
#
#
# Convention : Reuss Voigt Hill
#
# Bulk Modulus (GPa) = 35.75478 53.45875 44.60677
# Shear Modulus (GPa) = 24.77315 29.34294 27.05804
#
# Velocity S-wave (km/s) = 3.32836 3.62236 3.47847
# Velocity P-wave (km/s) = 5.54612 6.43436 6.00668
#
# Compressibility (1/GPa) = 0.02796829
#
# Stress axis : x y z
#
# Youngs Moduli (GPa) = 91.39828 72.23668 29.46087
#
# Poissons Ratio (x) = 0.27328 0.13342
# Poissons Ratio (y) = 0.34577 0.20822
# Poissons Ratio (z) = 0.41393 0.51055
#
# Static dielectric constant tensor:
#      x y z
#    x 4.514790 -0.000020 0.142150 
#    y -0.000020 3.818720 0.000070 
#    z 0.142150 0.000070 3.966820 
# 
# 
# High freq. dielectric constant tensor:
#      x y z
#    x 1.895710 -0.000010 0.006580 
#    y -0.000010 1.874600 0.000010 
#    z 0.006580 0.000010 1.879480 
# 
# From -- ./inp_files/220240.got.cif
#   From: 2010.06.25/outbox.cif.g09.slc.cpg/sg15_111_cif.got.tgz:220240.got - 2010.06.28 07:06:18.
