data_PCOD8143247
_publ_section_title
;
Structure prediction by ZEFSAII (Michael W. Deem and Ramdas Pophale) SiO2 
 PCOD8143247
Probable space group: C 2/C
;
_chemical_formula_sum "Si O2"
_cell_formula_units_Z 48
_cell_length_a 20.690864
_cell_length_b 22.546824
_cell_length_c 14.180404
_cell_angle_alpha 90.000000
_cell_angle_beta 160.597053
_cell_angle_gamma 90.000000
_cell_volume 2197.681961
_symmetry_space_group_name_H-M "C 2/C"
_symmetry_group_IT_number 15
_symmetry_cell_setting 'monoclinic'
loop_
_space_group_symop_operation_xyz
x,y,z
-x,y,1/2-z
-x,-y,-z
x,-y,1/2+z
1/2+x,1/2+y,z
1/2-x,1/2+y,1/2-z
1/2-x,1/2-y,-z
1/2+x,1/2-y,1/2+z
loop_
_atom_site_type_symbol
_atom_site_label
_atom_site_fract_x
_atom_site_fract_y
_atom_site_fract_z
Si Si1 0.119856 0.490175 0.818668
Si Si2 0.000000 0.742546 0.250000
Si Si3 0.438569 0.919561 0.941523
Si Si4 0.003739 0.076743 0.861435
Si Si5 0.896469 0.805407 0.294906
Si Si6 0.913464 0.707012 0.823374
Si Si7 0.500000 0.738426 0.250000
O O1 0.032485 0.440996 0.626370
O O2 0.000000 0.488882 0.750000
O O3 0.096726 0.553176 0.732136
O O4 0.349173 0.477727 0.155582
O O5 0.916290 0.783704 0.215730
O O6 0.175457 0.700973 0.528132
O O7 0.227060 0.941825 0.688463
O O8 0.458727 0.848350 0.965345
O O9 0.948881 0.125249 0.865323
O O10 0.000000 0.103273 0.750000
O O11 0.036630 0.767957 0.554593
O O12 0.683757 0.695739 0.524342
O O13 0.953708 0.716094 0.769485
#
# Coordination Sequence:
#
# PCOD8143247 Si02
#       7
#     8   4   8   8   8   8   4
#     4  10  24  42  65  93 122 163 222 263 304 372
#     4  10  22  30  56  92 130 162 192 236 318 392
#     4  10  23  45  64  91 128 169 207 266 315 368
#     4  10  21  40  64  92 132 168 199 264 324 370
#     4  11  21  36  59  95 129 163 198 252 316 390
#     4  11  23  42  64  92 129 166 210 258 314 383
#     4  10  24  42  62  94 124 166 216 252 306 382
#
# _framework density 21.841194000000002
#
# number of rings (size 3 to 8) (size 9 to 14) (size 15 to 20)
#    0.000    1.667    0.833    3.000    9.333    2.000 
#    7.500    0.000    0.000    0.000    0.000    0.000 
#    0.000    0.000    0.000    0.000    0.000    0.000 
#
# Total GULP energy -297520.773498 kJ/mol
# GULP energy per Si atom -12396.698896 kJ/mol
# Density = 2.179148 g / cm^3
# Si number density = 21.841194 Si / 1000 Ang^3
#
#
#
# Elastic Constant Matrix: (Units=GPa)
#
#
# Indices 1 2 3 4 5 6 
#
# 1 66.4940 12.3532 29.8394 0.0000 5.7252 0.0000
# 2 12.3532 70.7894 30.5903 0.0000 -3.2391 0.0000
# 3 29.8394 30.5903 131.6881 0.0000 15.3072 0.0000
# 4 0.0000 0.0000 0.0000 31.7213 0.0000 -3.7909
# 5 5.7252 -3.2391 15.3072 0.0000 32.2427 0.0000
# 6 0.0000 0.0000 0.0000 -3.7909 0.0000 19.2538
#
#
#
# Elastic Compliance Matrix: (Units=1/GPa)
#
#
# Indices 1 2 3 4 5 6 
#
# 1 0.016949 -0.001615 -0.003277 0.000000 -0.001616 0.000000
# 2 -0.001615 0.016239 -0.003841 0.000000 0.003742 0.000000
# 3 -0.003277 -0.003841 0.009744 0.000000 -0.004430 0.000000
# 4 0.000000 0.000000 0.000000 0.032284 0.000000 0.006357
# 5 -0.001616 0.003742 -0.004430 0.000000 0.033781 0.000000
# 6 0.000000 0.000000 0.000000 0.006357 0.000000 0.053189
#
#
# Mechanical properties :
#
#
# Convention : Reuss Voigt Hill
#
# Bulk Modulus (GPa) = 39.27134 46.05969 42.66551
# Shear Modulus (GPa) = 26.57567 29.72279 28.14923
#
# Velocity S-wave (km/s) = 3.49200 3.69298 3.59390
# Velocity P-wave (km/s) = 5.85476 6.27044 6.06616
#
# Compressibility (1/GPa) = 0.02546386
#
# Stress axis : x y z
#
# Youngs Moduli (GPa) = 59.00080 61.57847 102.63229
#
# Poissons Ratio (x) = 0.09947 0.33637
# Poissons Ratio (y) = 0.09531 0.39423
# Poissons Ratio (z) = 0.19337 0.23654
#
# Static dielectric constant tensor:
#      x y z
#    x 3.973380 0.000000 0.184230 
#    y 0.000000 3.636130 0.000000 
#    z 0.184230 0.000000 4.228160 
# 
# 
# High freq. dielectric constant tensor:
#      x y z
#    x 1.860380 0.000000 0.008400 
#    y 0.000000 1.826990 0.000000 
#    z 0.008400 0.000000 1.867150 
# 
# From -- ./inp_files/169681.got.cif
#   From: 2010.06.25/outbox.cif.g09.slc.cpg/sg15_85_cif.got.tgz:169681.got - 2010.06.28 07:06:18.
