data_PCOD8143945
_publ_section_title
;
Structure prediction by ZEFSAII (Michael W. Deem and Ramdas Pophale) SiO2 
 PCOD8143945
Probable space group: C 2/C
;
_chemical_formula_sum "Si O2"
_cell_formula_units_Z 64
_cell_length_a 14.990632
_cell_length_b 22.286096
_cell_length_c 8.607048
_cell_angle_alpha 90.000000
_cell_angle_beta 87.869321
_cell_angle_gamma 90.000000
_cell_volume 2873.477512
_symmetry_space_group_name_H-M "C 2/C"
_symmetry_group_IT_number 15
_symmetry_cell_setting 'monoclinic'
loop_
_space_group_symop_operation_xyz
x,y,z
-x,y,1/2-z
-x,-y,-z
x,-y,1/2+z
1/2+x,1/2+y,z
1/2-x,1/2+y,1/2-z
1/2-x,1/2-y,-z
1/2+x,1/2-y,1/2+z
loop_
_atom_site_type_symbol
_atom_site_label
_atom_site_fract_x
_atom_site_fract_y
_atom_site_fract_z
Si Si1 0.694045 0.610009 0.978484
Si Si2 0.131619 0.581530 0.075527
Si Si3 0.103832 0.974420 0.254299
Si Si4 0.187099 0.710487 0.609463
Si Si5 0.360885 0.958833 0.582270
Si Si6 0.974961 0.635989 0.928987
Si Si7 0.168212 0.083074 0.433184
Si Si8 0.397324 0.685311 0.244298
O O1 0.620314 0.574919 0.885188
O O2 0.753821 0.651367 0.855925
O O3 0.759687 0.563033 0.058910
O O4 0.639667 0.649243 0.104948
O O5 0.106744 0.555940 0.245977
O O6 0.131043 0.529639 0.945045
O O7 0.231147 0.607276 0.071849
O O8 0.064330 0.635477 0.030325
O O9 0.139112 0.949800 0.090259
O O10 0.000000 0.989136 0.250000
O O11 0.154446 0.036221 0.291809
O O12 0.250000 0.750000 0.500000
O O13 0.096670 0.688589 0.522981
O O14 0.156730 0.751019 0.759447
O O15 0.428399 0.928071 0.457730
O O16 0.000000 0.644068 0.750000
O O17 0.112838 0.144234 0.407934
O O18 0.500000 0.702559 0.250000
#
# Coordination Sequence:
#
# PCOD8143945 Si02
#       8
#     8   8   8   8   8   8   8   8
#     4  10  21  41  67  93 133 180 219 272 345 398
#     4  12  23  39  64  99 141 178 221 267 334 407
#     4  12  24  41  64 100 139 176 226 275 338 405
#     4   9  22  43  72  91 124 175 223 275 337 400
#     4  11  22  40  61  97 142 182 219 266 331 404
#     4  11  24  40  68  99 129 175 222 273 331 400
#     4  12  24  38  65 100 135 179 216 277 332 404
#     4  11  21  42  68  94 124 172 231 276 334 395
#
# _framework density 22.272663999999999
#
# number of rings (size 3 to 8) (size 9 to 14) (size 15 to 20)
#    0.000    1.000    2.500    4.875    3.500    0.000 
#    0.000    0.625    5.500    1.500    0.000    0.000 
#    0.000    0.000    0.000    0.000    0.000    0.000 
#
# Total GULP energy -396619.301870 kJ/mol
# GULP energy per Si atom -12394.353183 kJ/mol
# Density = 2.222197 g / cm^3
# Si number density = 22.272664 Si / 1000 Ang^3
#
#
#
# Elastic Constant Matrix: (Units=GPa)
#
#
# Indices 1 2 3 4 5 6 
#
# 1 139.5503 30.5439 28.8934 0.0000 2.2439 0.0000
# 2 30.5439 76.7930 14.8005 0.0000 9.8763 0.0000
# 3 28.8934 14.8005 82.9789 0.0000 8.9342 0.0000
# 4 0.0000 0.0000 0.0000 20.4279 0.0000 -3.8423
# 5 2.2439 9.8763 8.9342 0.0000 31.5815 0.0000
# 6 0.0000 0.0000 0.0000 -3.8423 0.0000 44.4198
#
#
#
# Elastic Compliance Matrix: (Units=1/GPa)
#
#
# Indices 1 2 3 4 5 6 
#
# 1 0.008310 -0.002961 -0.002477 0.000000 0.001036 0.000000
# 2 -0.002961 0.014961 -0.001193 0.000000 -0.004131 0.000000
# 3 -0.002477 -0.001193 0.013478 0.000000 -0.003264 0.000000
# 4 0.000000 0.000000 0.000000 0.049762 0.000000 0.004304
# 5 0.001036 -0.004131 -0.003264 0.000000 0.033806 0.000000
# 6 0.000000 0.000000 0.000000 0.004304 0.000000 0.022885
#
#
# Mechanical properties :
#
#
# Convention : Reuss Voigt Hill
#
# Bulk Modulus (GPa) = 42.57625 49.75534 46.16579
# Shear Modulus (GPa) = 30.43349 34.29145 32.36247
#
# Velocity S-wave (km/s) = 3.70050 3.92806 3.81598
# Velocity P-wave (km/s) = 6.11684 6.55443 6.33941
#
# Compressibility (1/GPa) = 0.02348727
#
# Stress axis : x y z
#
# Youngs Moduli (GPa) = 120.33404 66.84067 74.19558
#
# Poissons Ratio (x) = 0.19793 0.18378
# Poissons Ratio (y) = 0.35633 0.08849
# Poissons Ratio (z) = 0.29807 0.07972
#
# Static dielectric constant tensor:
#      x y z
#    x 4.445310 0.000000 -0.120300 
#    y 0.000000 4.340800 0.000000 
#    z -0.120300 0.000000 3.940770 
# 
# 
# High freq. dielectric constant tensor:
#      x y z
#    x 1.898970 0.000000 -0.017990 
#    y 0.000000 1.870970 0.000000 
#    z -0.017990 0.000000 1.853480 
# 
# From -- ./inp_files/42660.got.cif
#   From: 2010.06.25/outbox.cif.g09.slc.cpg/sg15_22_cif.got.tgz:42660.got - 2010.06.28 07:06:18.
