data_PCOD8143450
_publ_section_title
;
Structure prediction by ZEFSAII (Michael W. Deem and Ramdas Pophale) SiO2 
 PCOD8143450
Probable space group: C 2/C
;
_chemical_formula_sum "Si O2"
_cell_formula_units_Z 64
_cell_length_a 15.659345
_cell_length_b 11.631385
_cell_length_c 28.824072
_cell_angle_alpha 90.000000
_cell_angle_beta 143.134281
_cell_angle_gamma 90.000000
_cell_volume 3149.701326
_symmetry_space_group_name_H-M "C 2/C"
_symmetry_group_IT_number 15
_symmetry_cell_setting 'monoclinic'
loop_
_space_group_symop_operation_xyz
x,y,z
-x,y,1/2-z
-x,-y,-z
x,-y,1/2+z
1/2+x,1/2+y,z
1/2-x,1/2+y,1/2-z
1/2-x,1/2-y,-z
1/2+x,1/2-y,1/2+z
loop_
_atom_site_type_symbol
_atom_site_label
_atom_site_fract_x
_atom_site_fract_y
_atom_site_fract_z
Si Si1 0.339115 0.340397 0.669446
Si Si2 0.342183 0.772743 0.334247
Si Si3 0.148545 0.559531 0.575221
Si Si4 0.311734 0.500775 0.957001
Si Si5 0.350246 0.749298 0.500294
Si Si6 0.142185 0.298648 0.415807
Si Si7 0.119008 0.972536 0.614271
Si Si8 0.167329 0.794753 0.171326
O O1 0.500000 0.370653 0.750000
O O2 0.266357 0.462344 0.629383
O O3 0.323823 0.266174 0.616744
O O4 0.277743 0.269650 0.686021
O O5 0.351029 0.873710 0.375698
O O6 0.481287 0.782461 0.362322
O O7 0.319680 0.653082 0.350995
O O8 0.204254 0.772408 0.241102
O O9 0.181669 0.643871 0.546924
O O10 0.000000 0.500000 0.500000
O O11 0.302892 0.363728 0.952248
O O12 0.175736 0.565784 0.920279
O O13 0.334401 0.533203 0.913409
O O14 0.449158 0.541534 0.045643
O O15 0.250000 0.750000 0.500000
O O16 0.512327 0.749157 0.588449
O O17 0.250000 0.250000 0.500000
O O18 0.177639 0.066363 0.675639
#
# Coordination Sequence:
#
# PCOD8143450 Si02
#       8
#     8   8   8   8   8   8   8   8
#     4  12  26  46  69 104 145 187 229 293 362 423
#     4  12  26  43  69 105 140 184 229 289 356 417
#     4  12  27  45  72 101 147 189 236 292 356 424
#     4  10  21  40  67  94 129 169 233 283 323 401
#     4  11  26  46  71 100 135 186 235 285 351 422
#     4  12  24  39  71 105 133 176 242 281 335 420
#     4  10  21  41  68  93 128 178 223 279 346 394
#     4  11  25  45  71 101 142 179 230 295 357 411
#
# _framework density 20.319386999999999
#
# number of rings (size 3 to 8) (size 9 to 14) (size 15 to 20)
#    0.000    0.750    6.250    0.750    5.250    1.000 
#    0.000    0.000    0.000    0.000    0.000    0.000 
#    0.000    0.000    0.000    0.000    0.000    0.000 
#
# Total GULP energy -396712.335976 kJ/mol
# GULP energy per Si atom -12397.260499 kJ/mol
# Density = 2.027314 g / cm^3
# Si number density = 20.319387 Si / 1000 Ang^3
#
#
#
# Elastic Constant Matrix: (Units=GPa)
#
#
# Indices 1 2 3 4 5 6 
#
# 1 99.6063 43.0754 35.3211 0.0000 -3.0783 0.0000
# 2 43.0754 135.8965 71.5221 0.0000 -5.3493 0.0000
# 3 35.3211 71.5221 106.0944 0.0000 -6.5801 0.0000
# 4 0.0000 0.0000 0.0000 20.3316 0.0000 1.8815
# 5 -3.0783 -5.3493 -6.5801 0.0000 33.9439 0.0000
# 6 0.0000 0.0000 0.0000 1.8815 0.0000 35.0204
#
#
#
# Elastic Compliance Matrix: (Units=1/GPa)
#
#
# Indices 1 2 3 4 5 6 
#
# 1 0.011962 -0.002626 -0.002197 0.000000 0.000245 0.000000
# 2 -0.002626 0.011985 -0.007189 0.000000 0.000257 0.000000
# 3 -0.002197 -0.007189 0.015102 0.000000 0.001595 0.000000
# 4 0.000000 0.000000 0.000000 0.049430 0.000000 -0.002656
# 5 0.000245 0.000257 0.001595 0.000000 0.029832 0.000000
# 6 0.000000 0.000000 0.000000 -0.002656 0.000000 0.028697
#
#
# Mechanical properties :
#
#
# Convention : Reuss Voigt Hill
#
# Bulk Modulus (GPa) = 66.55578 71.27050 68.91314
# Shear Modulus (GPa) = 28.40254 30.63776 29.52015
#
# Velocity S-wave (km/s) = 3.74278 3.88726 3.81571
# Velocity P-wave (km/s) = 7.17661 7.43633 7.30763
#
# Compressibility (1/GPa) = 0.01502499
#
# Stress axis : x y z
#
# Youngs Moduli (GPa) = 83.60056 83.44101 66.21437
#
# Poissons Ratio (x) = 0.21908 0.14548
# Poissons Ratio (y) = 0.21949 0.47603
# Poissons Ratio (z) = 0.18368 0.59987
#
# Static dielectric constant tensor:
#      x y z
#    x 3.599610 0.000000 -0.044520 
#    y 0.000000 3.797330 0.000000 
#    z -0.044520 0.000000 4.319720 
# 
# 
# High freq. dielectric constant tensor:
#      x y z
#    x 1.792780 0.000000 -0.011950 
#    y 0.000000 1.810390 0.000000 
#    z -0.011950 0.000000 1.797530 
# 
# From -- ./inp_files/296148.got.cif
#   From: 2010.06.25/outbox.cif.g09.slc.cpg/sg15_149_cif.got.tgz:296148.got - 2010.06.28 07:06:18.
