data_PCOD8143867
_publ_section_title
;
Structure prediction by ZEFSAII (Michael W. Deem and Ramdas Pophale) SiO2 
 PCOD8143867
Probable space group: C 2/C
;
_chemical_formula_sum "Si O2"
_cell_formula_units_Z 36
_cell_length_a 13.786417
_cell_length_b 14.053871
_cell_length_c 11.255824
_cell_angle_alpha 90.000000
_cell_angle_beta 124.020288
_cell_angle_gamma 90.000000
_cell_volume 1807.569958
_symmetry_space_group_name_H-M "C 2/C"
_symmetry_group_IT_number 15
_symmetry_cell_setting 'monoclinic'
loop_
_space_group_symop_operation_xyz
x,y,z
-x,y,1/2-z
-x,-y,-z
x,-y,1/2+z
1/2+x,1/2+y,z
1/2-x,1/2+y,1/2-z
1/2-x,1/2-y,-z
1/2+x,1/2-y,1/2+z
loop_
_atom_site_type_symbol
_atom_site_label
_atom_site_fract_x
_atom_site_fract_y
_atom_site_fract_z
Si Si1 0.959387 0.674160 0.516603
Si Si2 0.319669 0.875827 0.450748
Si Si3 0.688072 0.184868 0.298016
Si Si4 0.000000 0.818969 0.750000
Si Si5 0.769919 0.924860 0.645323
O O1 0.068421 0.605690 0.557939
O O2 0.918582 0.718011 0.361075
O O3 0.003769 0.755039 0.635236
O O4 0.850396 0.615406 0.499628
O O5 0.356775 0.867970 0.614363
O O6 0.262368 0.777216 0.375851
O O7 0.228651 0.961449 0.367070
O O8 0.768623 0.107792 0.282369
O O9 0.884877 0.883988 0.660707
#
# Coordination Sequence:
#
# PCOD8143867 Si02
#       5
#     8   8   8   4   8
#     4  10  21  41  66  89 124 169 214 262 308 380
#     4  11  20  44  64  94 131 161 221 264 316 384
#     4   9  23  39  64  94 123 170 209 264 327 363
#     4  12  22  44  62  96 136 170 208 262 326 380
#     4  10  24  39  63  98 125 173 210 260 323 378
#
# _framework density 19.916240999999999
#
# number of rings (size 3 to 8) (size 9 to 14) (size 15 to 20)
#    1.333    0.444    2.222    2.000    0.000    3.556 
#    8.000    2.222    0.000    0.000    0.000    0.000 
#    0.000    0.000    0.000    0.000    0.000    0.000 
#
# Total GULP energy -223039.688004 kJ/mol
# GULP energy per Si atom -12391.093778 kJ/mol
# Density = 1.987091 g / cm^3
# Si number density = 19.916241 Si / 1000 Ang^3
#
#
#
# Elastic Constant Matrix: (Units=GPa)
#
#
# Indices 1 2 3 4 5 6 
#
# 1 109.9820 48.4181 20.0610 0.0000 4.6925 0.0000
# 2 48.4181 95.1754 49.1914 0.0000 -10.3666 0.0000
# 3 20.0610 49.1914 88.2318 0.0000 -19.0121 0.0000
# 4 0.0000 0.0000 0.0000 20.6207 0.0000 8.1525
# 5 4.6925 -10.3666 -19.0121 0.0000 29.2488 0.0000
# 6 0.0000 0.0000 0.0000 8.1525 0.0000 30.2441
#
#
#
# Elastic Compliance Matrix: (Units=1/GPa)
#
#
# Indices 1 2 3 4 5 6 
#
# 1 0.012222 -0.006702 0.000027 0.000000 -0.004319 0.000000
# 2 -0.006702 0.018436 -0.008274 0.000000 0.002231 0.000000
# 3 0.000027 -0.008274 0.017801 0.000000 0.008634 0.000000
# 4 0.000000 0.000000 0.000000 0.054280 0.000000 -0.014631
# 5 -0.004319 0.002231 0.008634 0.000000 0.041285 0.000000
# 6 0.000000 0.000000 0.000000 -0.014631 0.000000 0.037008
#
#
# Mechanical properties :
#
#
# Convention : Reuss Voigt Hill
#
# Bulk Modulus (GPa) = 53.87549 58.74779 56.31164
# Shear Modulus (GPa) = 23.02906 27.73730 25.38318
#
# Velocity S-wave (km/s) = 3.40412 3.73593 3.57388
# Velocity P-wave (km/s) = 6.52384 6.94054 6.73541
#
# Compressibility (1/GPa) = 0.01856132
#
# Stress axis : x y z
#
# Youngs Moduli (GPa) = 81.81789 54.24220 56.17696
#
# Poissons Ratio (x) = 0.36354 -0.00152
# Poissons Ratio (y) = 0.54836 0.46479
# Poissons Ratio (z) = -0.00222 0.44879
#
# Static dielectric constant tensor:
#      x y z
#    x 3.639920 0.000000 -0.060210 
#    y 0.000000 3.298140 0.000000 
#    z -0.060210 0.000000 3.540020 
# 
# 
# High freq. dielectric constant tensor:
#      x y z
#    x 1.780930 0.000000 -0.000710 
#    y 0.000000 1.760430 0.000000 
#    z -0.000710 0.000000 1.767840 
# 
# From -- ./inp_files/94342.got.cif
#   From: 2010.06.25/outbox.cif.g09.slc.cpg/sg15_48_cif.got.tgz:94342.got - 2010.06.28 07:06:18.
