data_PCOD8143639
_publ_section_title
;
Structure prediction by ZEFSAII (Michael W. Deem and Ramdas Pophale) SiO2 
 PCOD8143639
Probable space group: C 2/C
;
_chemical_formula_sum "Si O2"
_cell_formula_units_Z 60
_cell_length_a 23.450194
_cell_length_b 24.749016
_cell_length_c 9.008323
_cell_angle_alpha 90.000000
_cell_angle_beta 147.708723
_cell_angle_gamma 90.000000
_cell_volume 2793.003252
_symmetry_space_group_name_H-M "C 2/C"
_symmetry_group_IT_number 15
_symmetry_cell_setting 'monoclinic'
loop_
_space_group_symop_operation_xyz
x,y,z
-x,y,1/2-z
-x,-y,-z
x,-y,1/2+z
1/2+x,1/2+y,z
1/2-x,1/2+y,1/2-z
1/2-x,1/2-y,-z
1/2+x,1/2-y,1/2+z
loop_
_atom_site_type_symbol
_atom_site_label
_atom_site_fract_x
_atom_site_fract_y
_atom_site_fract_z
Si Si1 0.335062 0.663148 0.660043
Si Si2 0.889022 0.938085 0.446181
Si Si3 0.645841 0.467092 0.818371
Si Si4 0.426076 0.650529 0.374287
Si Si5 0.500000 0.988302 0.750000
Si Si6 0.272688 0.167557 0.372789
Si Si7 0.882704 0.770944 0.529229
Si Si8 0.369523 0.057041 0.693614
O O1 0.319289 0.609265 0.722969
O O2 0.240297 0.659676 0.332887
O O3 0.321530 0.714585 0.740621
O O4 0.450223 0.666247 0.829290
O O5 0.829818 0.968480 0.451822
O O6 0.919740 0.981296 0.385636
O O7 0.000000 0.912706 0.750000
O O8 0.579770 0.413863 0.633372
O O9 0.757750 0.471441 0.979357
O O10 0.345786 0.673254 0.321164
O O11 0.386854 0.673146 0.129795
O O12 0.419444 0.028023 0.659935
O O13 0.443012 0.949442 0.502905
O O14 0.328223 0.225668 0.511904
O O15 0.345905 0.120654 0.606910
O O16 0.000000 0.749147 0.750000
#
# Coordination Sequence:
#
# PCOD8143639 Si02
#       8
#     8   8   8   8   4   8   8   8
#     4  11  22  40  62  92 129 172 200 252 321 376
#     4  12  23  37  57  91 132 169 201 240 299 371
#     4  11  23  37  60  94 123 162 209 249 297 375
#     4  10  21  41  62  86 130 166 202 253 320 366
#     4  10  22  48  68  84 132 166 202 262 334 364
#     4  11  24  38  66  98 119 159 219 265 297 379
#     4  10  21  43  65  84 124 168 210 260 317 365
#     4  10  24  42  67  93 120 165 208 263 317 372
#
# _framework density 21.482251999999999
#
# number of rings (size 3 to 8) (size 9 to 14) (size 15 to 20)
#    0.000    1.333    2.667    2.800    6.533    0.000 
#    0.000    0.000   14.667    0.000    0.000    0.000 
#    0.000    0.000    0.000    0.000    0.000    0.000 
#
# Total GULP energy -371864.844696 kJ/mol
# GULP energy per Si atom -12395.494823 kJ/mol
# Density = 2.143336 g / cm^3
# Si number density = 21.482252 Si / 1000 Ang^3
#
#
#
# Elastic Constant Matrix: (Units=GPa)
#
#
# Indices 1 2 3 4 5 6 
#
# 1 99.1248 31.0131 8.6458 0.0000 -10.7070 0.0000
# 2 31.0131 95.0413 21.8722 0.0000 -5.8693 0.0000
# 3 8.6458 21.8722 64.5608 0.0000 -23.5183 0.0000
# 4 0.0000 0.0000 0.0000 24.5854 0.0000 -8.0241
# 5 -10.7070 -5.8693 -23.5183 0.0000 21.5885 0.0000
# 6 0.0000 0.0000 0.0000 -8.0241 0.0000 37.8851
#
#
#
# Elastic Compliance Matrix: (Units=1/GPa)
#
#
# Indices 1 2 3 4 5 6 
#
# 1 0.011941 -0.004008 0.002519 0.000000 0.007577 0.000000
# 2 -0.004008 0.012801 -0.005399 0.000000 -0.004389 0.000000
# 3 0.002519 -0.005399 0.028022 0.000000 0.030308 0.000000
# 4 0.000000 0.000000 0.000000 0.043695 0.000000 0.009255
# 5 0.007577 -0.004389 0.030308 0.000000 0.081902 0.000000
# 6 0.000000 0.000000 0.000000 0.009255 0.000000 0.028356
#
#
# Mechanical properties :
#
#
# Convention : Reuss Voigt Hill
#
# Bulk Modulus (GPa) = 25.64956 42.42099 34.03528
# Shear Modulus (GPa) = 21.41423 29.95821 25.68622
#
# Velocity S-wave (km/s) = 3.16069 3.73843 3.46163
# Velocity P-wave (km/s) = 5.02850 6.19873 5.64403
#
# Compressibility (1/GPa) = 0.03898702
#
# Stress axis : x y z
#
# Youngs Moduli (GPa) = 83.74471 78.11816 35.68659
#
# Poissons Ratio (x) = 0.31312 -0.08989
# Poissons Ratio (y) = 0.33567 0.19267
# Poissons Ratio (z) = -0.21094 0.42176
#
# Static dielectric constant tensor:
#      x y z
#    x 4.361940 0.000000 -0.066120 
#    y 0.000000 3.649710 0.000000 
#    z -0.066120 0.000000 3.645290 
# 
# 
# High freq. dielectric constant tensor:
#      x y z
#    x 1.861640 0.000000 -0.010160 
#    y 0.000000 1.836740 0.000000 
#    z -0.010160 0.000000 1.825750 
# 
# From -- ./inp_files/64125.got.cif
#   From: 2010.06.25/outbox.cif.g09.slc.cpg/sg15_33_cif.got.tgz:64125.got - 2010.06.28 07:06:18.
