data_PCOD8143401
_publ_section_title
;
Structure prediction by ZEFSAII (Michael W. Deem and Ramdas Pophale) SiO2 
 PCOD8143401
Probable space group: C 2/C
;
_chemical_formula_sum "Si O2"
_cell_formula_units_Z 48
_cell_length_a 15.751772
_cell_length_b 14.552659
_cell_length_c 10.917291
_cell_angle_alpha 90.000000
_cell_angle_beta 59.711382
_cell_angle_gamma 90.000000
_cell_volume 2160.960685
_symmetry_space_group_name_H-M "C 2/C"
_symmetry_group_IT_number 15
_symmetry_cell_setting 'monoclinic'
loop_
_space_group_symop_operation_xyz
x,y,z
-x,y,1/2-z
-x,-y,-z
x,-y,1/2+z
1/2+x,1/2+y,z
1/2-x,1/2+y,1/2-z
1/2-x,1/2-y,-z
1/2+x,1/2-y,1/2+z
loop_
_atom_site_type_symbol
_atom_site_label
_atom_site_fract_x
_atom_site_fract_y
_atom_site_fract_z
Si Si1 0.586405 0.363658 0.260042
Si Si2 0.345841 0.260592 0.793791
Si Si3 0.059895 0.758127 0.522024
Si Si4 0.394618 0.168451 0.361803
Si Si5 0.183921 0.390387 0.813815
Si Si6 0.795995 0.401052 0.166492
O O1 0.500000 0.420542 0.250000
O O2 0.560702 0.337902 0.419230
O O3 0.602529 0.277231 0.159082
O O4 0.687523 0.419166 0.190745
O O5 0.453459 0.258244 0.657816
O O6 0.356274 0.268453 0.933457
O O7 0.284443 0.350015 0.797018
O O8 0.292041 0.165242 0.789819
O O9 0.087161 0.662096 0.435926
O O10 0.500000 0.123981 0.250000
O O11 0.310416 0.126177 0.336159
O O12 0.368004 0.150675 0.521049
O O13 0.163412 0.497675 0.843275
#
# Coordination Sequence:
#
# PCOD8143401 Si02
#       6
#     8   8   8   8   8   8
#     4  10  21  40  66  94 126 168 211 260 313 377
#     4  11  23  43  67  90 131 172 208 262 318 370
#     4  10  23  43  67  90 130 171 211 258 316 376
#     4  10  22  40  64  93 128 163 217 264 313 371
#     4  11  25  41  64  97 126 166 220 257 313 391
#     4  12  24  39  69  94 128 171 206 266 322 369
#
# _framework density 22.212342
#
# number of rings (size 3 to 8) (size 9 to 14) (size 15 to 20)
#    0.000    1.333    3.333    4.000    4.667    2.667 
#    3.000    0.833    0.000    0.000    0.000    0.000 
#    0.000    0.000    0.000    0.000    0.000    0.000 
#
# Total GULP energy -297444.752475 kJ/mol
# GULP energy per Si atom -12393.531353 kJ/mol
# Density = 2.216179 g / cm^3
# Si number density = 22.212342 Si / 1000 Ang^3
#
#
#
# Elastic Constant Matrix: (Units=GPa)
#
#
# Indices 1 2 3 4 5 6 
#
# 1 107.8310 -10.6874 21.9792 0.0000 20.7898 0.0000
# 2 -10.6874 45.9450 12.6789 0.0000 7.6529 0.0000
# 3 21.9792 12.6789 83.2040 0.0000 20.6033 0.0000
# 4 0.0000 0.0000 0.0000 5.4314 0.0000 -1.3709
# 5 20.7898 7.6529 20.6033 0.0000 39.3806 0.0000
# 6 0.0000 0.0000 0.0000 -1.3709 0.0000 19.0976
#
#
#
# Elastic Compliance Matrix: (Units=1/GPa)
#
#
# Indices 1 2 3 4 5 6 
#
# 1 0.011209 0.004145 -0.002215 0.000000 -0.005564 0.000000
# 2 0.004145 0.024565 -0.003578 0.000000 -0.005090 0.000000
# 3 -0.002215 -0.003578 0.014576 0.000000 -0.005761 0.000000
# 4 0.000000 0.000000 0.000000 0.187513 0.000000 0.013460
# 5 -0.005564 -0.005090 -0.005761 0.000000 0.032334 0.000000
# 6 0.000000 0.000000 0.000000 0.013460 0.000000 0.053329
#
#
# Mechanical properties :
#
#
# Convention : Reuss Voigt Hill
#
# Bulk Modulus (GPa) = 21.25201 31.65794 26.45498
# Shear Modulus (GPa) = 14.59839 26.98254 20.79047
#
# Velocity S-wave (km/s) = 2.56641 3.48911 3.06271
# Velocity P-wave (km/s) = 4.28607 5.52406 4.94397
#
# Compressibility (1/GPa) = 0.04705437
#
# Stress axis : x y z
#
# Youngs Moduli (GPa) = 89.21540 40.70899 68.60819
#
# Poissons Ratio (x) = -0.16875 0.15195
# Poissons Ratio (y) = -0.36982 0.24547
# Poissons Ratio (z) = 0.19759 0.14565
#
# Static dielectric constant tensor:
#      x y z
#    x 4.707050 0.000000 0.236580 
#    y 0.000000 3.424070 0.000000 
#    z 0.236580 0.000000 4.133080 
# 
# 
# High freq. dielectric constant tensor:
#      x y z
#    x 1.906990 0.000000 0.007080 
#    y 0.000000 1.821840 0.000000 
#    z 0.007080 0.000000 1.881490 
# 
# From -- ./inp_files/96165.got.cif
#   From: 2010.06.25/outbox.cif.g09.slc.cpg/sg15_49_cif.got.tgz:96165.got - 2010.06.28 07:06:18.
