data_PCOD8143192
_publ_section_title
;
Structure prediction by ZEFSAII (Michael W. Deem and Ramdas Pophale) SiO2 
 PCOD8143192
Probable space group: C 2/C
;
_chemical_formula_sum "Si O2"
_cell_formula_units_Z 52
_cell_length_a 18.071332
_cell_length_b 21.689179
_cell_length_c 8.090031
_cell_angle_alpha 90.000000
_cell_angle_beta 51.887968
_cell_angle_gamma 90.000000
_cell_volume 2494.886603
_symmetry_space_group_name_H-M "C 2/C"
_symmetry_group_IT_number 15
_symmetry_cell_setting 'monoclinic'
loop_
_space_group_symop_operation_xyz
x,y,z
-x,y,1/2-z
-x,-y,-z
x,-y,1/2+z
1/2+x,1/2+y,z
1/2-x,1/2+y,1/2-z
1/2-x,1/2-y,-z
1/2+x,1/2-y,1/2+z
loop_
_atom_site_type_symbol
_atom_site_label
_atom_site_fract_x
_atom_site_fract_y
_atom_site_fract_z
Si Si1 0.500000 0.823323 0.250000
Si Si2 0.845211 0.213469 0.912003
Si Si3 0.473498 0.275290 0.533697
Si Si4 0.693340 0.423247 0.996901
Si Si5 0.401350 0.528406 0.188390
Si Si6 0.401133 0.073680 0.077436
Si Si7 0.000000 0.120390 0.250000
Si Si8 0.500000 0.026314 0.250000
O O1 0.554363 0.779545 0.303869
O O2 0.421255 0.863715 0.450453
O O3 0.878332 0.215684 0.058351
O O4 0.932840 0.243819 0.695337
O O5 0.750000 0.250000 0.000000
O O6 0.828359 0.142259 0.888573
O O7 0.508838 0.337426 0.576033
O O8 0.629693 0.431676 0.924488
O O9 0.799128 0.426428 0.792210
O O10 0.673163 0.475618 0.161191
O O11 0.412091 0.574386 0.332217
O O12 0.500000 0.500000 0.000000
O O13 0.471471 0.069102 0.136174
O O14 0.414521 0.017111 0.930950
#
# Coordination Sequence:
#
# PCOD8143192 Si02
#       8
#     4   8   8   8   8   8   4   4
#     4  10  22  42  66  86 122 172 222 264 334 382
#     4  11  24  42  64  92 126 169 221 270 326 386
#     4  10  23  43  65  88 125 171 216 269 324 394
#     4  12  24  38  63  99 133 162 221 266 319 392
#     4  12  23  38  63  94 134 175 204 253 324 394
#     4  10  21  40  63  95 125 167 215 274 325 394
#     4  11  20  41  62  90 125 172 205 250 328 386
#     4   9  20  41  66  86 131 170 209 268 346 384
#
# _framework density 20.84263
#
# number of rings (size 3 to 8) (size 9 to 14) (size 15 to 20)
#    0.000    1.231    3.077    2.769    2.154    2.462 
#    2.769    3.846    0.000    0.000    0.000    0.000 
#    0.000    0.000    0.000    0.000    0.000    0.000 
#
# Total GULP energy -322274.045896 kJ/mol
# GULP energy per Si atom -12395.155611 kJ/mol
# Density = 2.079519 g / cm^3
# Si number density = 20.842630 Si / 1000 Ang^3
#
#
#
# Elastic Constant Matrix: (Units=GPa)
#
#
# Indices 1 2 3 4 5 6 
#
# 1 94.2549 45.0904 29.1545 0.0000 0.4996 0.0000
# 2 45.0904 128.6695 46.5833 0.0000 0.9165 0.0000
# 3 29.1545 46.5833 101.9376 0.0000 -8.9937 0.0000
# 4 0.0000 0.0000 0.0000 22.4588 0.0000 14.8892
# 5 0.4996 0.9165 -8.9937 0.0000 37.8324 0.0000
# 6 0.0000 0.0000 0.0000 14.8892 0.0000 31.4320
#
#
#
# Elastic Compliance Matrix: (Units=1/GPa)
#
#
# Indices 1 2 3 4 5 6 
#
# 1 0.013080 -0.003843 -0.002034 0.000000 -0.000563 0.000000
# 2 -0.003843 0.010501 -0.003797 0.000000 -0.001106 0.000000
# 3 -0.002034 -0.003797 0.012398 0.000000 0.003066 0.000000
# 4 0.000000 0.000000 0.000000 0.064910 0.000000 -0.030748
# 5 -0.000563 -0.001106 0.003066 0.000000 0.027195 0.000000
# 6 0.000000 0.000000 0.000000 -0.030748 0.000000 0.046380
#
#
# Mechanical properties :
#
#
# Convention : Reuss Voigt Hill
#
# Bulk Modulus (GPa) = 60.13500 62.94649 61.54075
# Shear Modulus (GPa) = 25.08051 31.94689 28.51370
#
# Velocity S-wave (km/s) = 3.47266 3.91930 3.70272
# Velocity P-wave (km/s) = 6.70774 7.12374 6.91887
#
# Compressibility (1/GPa) = 0.01662925
#
# Stress axis : x y z
#
# Youngs Moduli (GPa) = 76.45039 95.22611 80.66094
#
# Poissons Ratio (x) = 0.36598 0.16410
# Poissons Ratio (y) = 0.29382 0.30629
# Poissons Ratio (z) = 0.15553 0.36160
#
# Static dielectric constant tensor:
#      x y z
#    x 3.341960 0.000000 0.292920 
#    y 0.000000 3.795020 0.000000 
#    z 0.292920 0.000000 3.702730 
# 
# 
# High freq. dielectric constant tensor:
#      x y z
#    x 1.811510 0.000000 0.018150 
#    y 0.000000 1.827260 0.000000 
#    z 0.018150 0.000000 1.810470 
# 
# From -- ./inp_files/50619.got.cif
#   From: 2010.06.25/outbox.cif.g09.slc.cpg/sg15_26_cif.got.tgz:50619.got - 2010.06.28 07:06:18.
