data_PCOD8143730
_publ_section_title
;
Structure prediction by ZEFSAII (Michael W. Deem and Ramdas Pophale) SiO2 
 PCOD8143730
Probable space group: C 2/C
;
_chemical_formula_sum "Si O2"
_cell_formula_units_Z 40
_cell_length_a 15.251863
_cell_length_b 12.792941
_cell_length_c 21.339523
_cell_angle_alpha 90.000000
_cell_angle_beta 24.469719
_cell_angle_gamma 90.000000
_cell_volume 1724.649937
_symmetry_space_group_name_H-M "C 2/C"
_symmetry_group_IT_number 15
_symmetry_cell_setting 'monoclinic'
loop_
_space_group_symop_operation_xyz
x,y,z
-x,y,1/2-z
-x,-y,-z
x,-y,1/2+z
1/2+x,1/2+y,z
1/2-x,1/2+y,1/2-z
1/2-x,1/2-y,-z
1/2+x,1/2-y,1/2+z
loop_
_atom_site_type_symbol
_atom_site_label
_atom_site_fract_x
_atom_site_fract_y
_atom_site_fract_z
Si Si1 0.487470 0.726936 0.830546
Si Si2 0.865172 0.834582 0.638912
Si Si3 0.792502 0.715416 0.808248
Si Si4 0.000000 0.115600 0.250000
Si Si5 0.500000 0.042200 0.750000
Si Si6 0.063674 0.011623 0.586454
O O1 0.500000 0.701313 0.750000
O O2 0.637537 0.824549 0.752832
O O3 0.550594 0.622403 0.828090
O O4 0.250000 0.750000 0.000000
O O5 0.874962 0.748521 0.686979
O O6 0.042528 0.811081 0.471216
O O7 0.907116 0.948771 0.641379
O O8 0.816033 0.810128 0.842548
O O9 0.929602 0.615251 0.738252
O O10 0.903470 0.046362 0.368695
O O11 0.701746 0.973051 0.596847
#
# Coordination Sequence:
#
# PCOD8143730 Si02
#       6
#     8   8   8   4   4   8
#     4  12  27  48  67  95 136 177 217 270 332 389
#     4  10  21  41  63  97 129 175 218 271 317 391
#     4   9  17  34  63  95 136 162 217 271 328 373
#     4   9  16  34  63 100 128 168 211 272 325 388
#     4   9  18  34  63 102 128 172 207 276 323 390
#     4  10  21  41  67  98 131 170 221 261 329 390
#
# _framework density 23.193113
#
# number of rings (size 3 to 8) (size 9 to 14) (size 15 to 20)
#    0.000    2.000    1.000    2.400    1.400    4.800 
#    7.200    6.000    0.000    0.000    0.000    0.000 
#    0.000    0.000    0.000    0.000    0.000    0.000 
#
# Total GULP energy -247963.443864 kJ/mol
# GULP energy per Si atom -12398.172193 kJ/mol
# Density = 2.314032 g / cm^3
# Si number density = 23.193113 Si / 1000 Ang^3
#
#
#
# Elastic Constant Matrix: (Units=GPa)
#
#
# Indices 1 2 3 4 5 6 
#
# 1 70.9900 32.2454 38.8891 0.0161 -11.1406 -0.0010
# 2 32.2454 74.9745 39.1713 0.0468 -4.4315 0.0067
# 3 38.8891 39.1713 127.1104 -0.0155 -10.5600 0.0216
# 4 0.0161 0.0468 -0.0155 25.9948 0.0061 3.1031
# 5 -11.1406 -4.4315 -10.5600 0.0061 46.2250 0.0019
# 6 -0.0010 0.0067 0.0216 3.1031 0.0019 24.9343
#
#
#
# Elastic Compliance Matrix: (Units=1/GPa)
#
#
# Indices 1 2 3 4 5 6 
#
# 1 0.019488 -0.006216 -0.003778 -0.000005 0.003238 0.000006
# 2 -0.006216 0.017888 -0.003662 -0.000031 -0.000620 0.000002
# 3 -0.003778 -0.003662 0.010241 0.000016 0.001078 -0.000010
# 4 -0.000005 -0.000031 0.000016 0.039049 -0.000005 -0.004860
# 5 0.003238 -0.000620 0.001078 -0.000005 0.022600 -0.000002
# 6 0.000006 0.000002 -0.000010 -0.004860 -0.000002 0.040710
#
#
# Mechanical properties :
#
#
# Convention : Reuss Voigt Hill
#
# Bulk Modulus (GPa) = 49.24971 54.85405 52.05188
# Shear Modulus (GPa) = 27.16545 30.28208 28.72376
#
# Velocity S-wave (km/s) = 3.42610 3.61730 3.52300
# Velocity P-wave (km/s) = 6.07714 6.41473 6.24822
#
# Compressibility (1/GPa) = 0.02030469
#
# Stress axis : x y z
#
# Youngs Moduli (GPa) = 51.31469 55.90289 97.64644
#
# Poissons Ratio (x) = 0.34751 0.36886
# Poissons Ratio (y) = 0.31899 0.35760
# Poissons Ratio (z) = 0.19384 0.20473
#
# Static dielectric constant tensor:
#      x y z
#    x 4.200870 -0.000010 0.143510 
#    y -0.000010 4.389950 0.000110 
#    z 0.143510 0.000110 4.055890 
# 
# 
# High freq. dielectric constant tensor:
#      x y z
#    x 1.920490 0.000000 0.013280 
#    y 0.000000 1.912560 0.000010 
#    z 0.013280 0.000010 1.912500 
# 
# From -- ./inp_files/46945.got.cif
#   From: 2010.06.25/outbox.cif.g09.slc.cpg/sg15_24_cif.got.tgz:46945.got - 2010.06.28 07:06:18.
