data_PCOD8143275
_publ_section_title
;
Structure prediction by ZEFSAII (Michael W. Deem and Ramdas Pophale) SiO2 
 PCOD8143275
Probable space group: C 2/C
;
_chemical_formula_sum "Si O2"
_cell_formula_units_Z 40
_cell_length_a 9.482796
_cell_length_b 16.916281
_cell_length_c 25.063443
_cell_angle_alpha 90.000000
_cell_angle_beta 153.328178
_cell_angle_gamma 90.000000
_cell_volume 1804.728528
_symmetry_space_group_name_H-M "C 2/C"
_symmetry_group_IT_number 15
_symmetry_cell_setting 'monoclinic'
loop_
_space_group_symop_operation_xyz
x,y,z
-x,y,1/2-z
-x,-y,-z
x,-y,1/2+z
1/2+x,1/2+y,z
1/2-x,1/2+y,1/2-z
1/2-x,1/2-y,-z
1/2+x,1/2-y,1/2+z
loop_
_atom_site_type_symbol
_atom_site_label
_atom_site_fract_x
_atom_site_fract_y
_atom_site_fract_z
Si Si1 0.426059 0.296121 0.283583
Si Si2 0.864634 0.526002 0.258165
Si Si3 0.360488 0.865620 0.143547
Si Si4 0.753614 0.437853 0.439639
Si Si5 0.140351 0.347395 0.919527
O O1 0.500000 0.258471 0.250000
O O2 0.610541 0.380235 0.346136
O O3 0.535981 0.242058 0.371180
O O4 0.052641 0.310018 0.167000
O O5 0.518241 0.493242 0.128513
O O6 0.000000 0.561960 0.250000
O O7 0.084125 0.456035 0.354907
O O8 0.877738 0.597795 0.303335
O O9 0.500000 0.852301 0.250000
O O10 0.991684 0.851321 0.015039
O O11 0.883984 0.376181 0.527716
O O12 0.000000 0.500000 0.500000
#
# Coordination Sequence:
#
# PCOD8143275 Si02
#       5
#     8   8   8   8   8
#     4  11  26  44  67 105 147 176 240 300 354 419
#     4  10  21  40  64  99 126 178 239 282 339 426
#     4  10  21  42  68  91 134 188 231 284 349 433
#     4  11  26  42  68 102 141 188 234 296 350 418
#     4  12  23  43  72  97 138 193 232 287 368 419
#
# _framework density 22.163997999999999
#
# number of rings (size 3 to 8) (size 9 to 14) (size 15 to 20)
#    0.000    1.200    6.000    1.800    5.600    2.400 
#    0.000    0.000    0.000    0.000    0.000    0.000 
#    0.000    0.000    0.000    0.000    0.000    0.000 
#
# Total GULP energy -247816.950045 kJ/mol
# GULP energy per Si atom -12390.847502 kJ/mol
# Density = 2.211355 g / cm^3
# Si number density = 22.163998 Si / 1000 Ang^3
#
#
#
# Elastic Constant Matrix: (Units=GPa)
#
#
# Indices 1 2 3 4 5 6 
#
# 1 100.1711 33.4681 20.9144 0.0013 1.2387 -0.0007
# 2 33.4681 98.3516 30.6215 0.0123 6.6273 0.0024
# 3 20.9144 30.6215 58.7106 0.0105 -1.2054 0.0086
# 4 0.0013 0.0123 0.0105 26.9991 0.0024 0.8873
# 5 1.2387 6.6273 -1.2054 0.0024 27.5688 -0.0016
# 6 -0.0007 0.0024 0.0086 0.8873 -0.0016 30.1713
#
#
#
# Elastic Compliance Matrix: (Units=1/GPa)
#
#
# Indices 1 2 3 4 5 6 
#
# 1 0.011555 -0.003177 -0.002457 0.000002 0.000137 0.000001
# 2 -0.003177 0.013300 -0.005873 -0.000003 -0.003311 0.000000
# 3 -0.002457 -0.005873 0.021021 -0.000005 0.002441 -0.000005
# 4 0.000002 -0.000003 -0.000005 0.037074 -0.000003 -0.001090
# 5 0.000137 -0.003311 0.002441 -0.000003 0.037169 0.000002
# 6 0.000001 0.000000 -0.000005 -0.001090 0.000002 0.033176
#
#
# Mechanical properties :
#
#
# Convention : Reuss Voigt Hill
#
# Bulk Modulus (GPa) = 43.73749 47.47127 45.60438
# Shear Modulus (GPa) = 27.18400 28.42980 27.80690
#
# Velocity S-wave (km/s) = 3.50593 3.58537 3.54587
# Velocity P-wave (km/s) = 6.01375 6.21325 6.11431
#
# Compressibility (1/GPa) = 0.02286368
#
# Stress axis : x y z
#
# Youngs Moduli (GPa) = 86.53904 75.18597 47.57052
#
# Poissons Ratio (x) = 0.23883 0.11687
# Poissons Ratio (y) = 0.27489 0.27940
# Poissons Ratio (z) = 0.21261 0.44160
#
# Static dielectric constant tensor:
#      x y z
#    x 4.023400 0.000010 0.186260 
#    y 0.000010 4.109040 -0.000010 
#    z 0.186260 -0.000010 3.962360 
# 
# 
# High freq. dielectric constant tensor:
#      x y z
#    x 1.862250 0.000000 0.004630 
#    y 0.000000 1.876570 0.000000 
#    z 0.004630 0.000000 1.861550 
# 
# From -- ./inp_files/76689.got.cif
#   From: 2010.06.25/outbox.cif.g09.slc.cpg/sg15_39_cif.got.tgz:76689.got - 2010.06.28 07:06:18.
