data_PCOD8143271
_publ_section_title
;
Structure prediction by ZEFSAII (Michael W. Deem and Ramdas Pophale) SiO2 
 PCOD8143271
Probable space group: C 2/C
;
_chemical_formula_sum "Si O2"
_cell_formula_units_Z 48
_cell_length_a 18.946389
_cell_length_b 12.504503
_cell_length_c 17.651757
_cell_angle_alpha 90.000000
_cell_angle_beta 148.763160
_cell_angle_gamma 90.000000
_cell_volume 2168.672531
_symmetry_space_group_name_H-M "C 2/C"
_symmetry_group_IT_number 15
_symmetry_cell_setting 'monoclinic'
loop_
_space_group_symop_operation_xyz
x,y,z
-x,y,1/2-z
-x,-y,-z
x,-y,1/2+z
1/2+x,1/2+y,z
1/2-x,1/2+y,1/2-z
1/2-x,1/2-y,-z
1/2+x,1/2-y,1/2+z
loop_
_atom_site_type_symbol
_atom_site_label
_atom_site_fract_x
_atom_site_fract_y
_atom_site_fract_z
Si Si1 0.210285 0.051522 0.562871
Si Si2 0.594127 0.080429 0.633405
Si Si3 0.355960 0.444759 0.655971
Si Si4 0.530508 0.313847 0.606876
Si Si5 0.285431 0.650851 0.680822
Si Si6 0.587784 0.335649 0.492223
O O1 0.348835 0.028509 0.736501
O O2 0.241560 0.088282 0.504639
O O3 0.121693 0.142479 0.522951
O O4 0.120702 0.943589 0.477947
O O5 0.512683 0.186099 0.584206
O O6 0.724609 0.111968 0.704251
O O7 0.500000 0.000000 0.500000
O O8 0.500000 0.469966 0.750000
O O9 0.372251 0.351363 0.734021
O O10 0.289679 0.550749 0.629106
O O11 0.599898 0.357936 0.593589
O O12 0.189195 0.742572 0.557349
O O13 0.434417 0.700366 0.831833
#
# Coordination Sequence:
#
# PCOD8143271 Si02
#       6
#     8   8   8   8   8   8
#     4  11  22  41  68  95 138 179 226 279 354 418
#     4  11  26  42  69 102 133 172 238 297 347 413
#     4  10  21  42  67  99 138 185 231 277 353 431
#     4  10  21  40  64  97 131 179 225 282 346 417
#     4  11  23  42  66 103 135 182 235 295 344 416
#     4  11  22  39  70  98 135 180 237 286 352 400
#
# _framework density 22.133355999999999
#
# number of rings (size 3 to 8) (size 9 to 14) (size 15 to 20)
#    0.000    1.333    5.000    1.500    4.667    2.667 
#    0.000    4.167    0.000    0.000    0.000    0.000 
#    0.000    0.000    0.000    0.000    0.000    0.000 
#
# Total GULP energy -297521.500049 kJ/mol
# GULP energy per Si atom -12396.729169 kJ/mol
# Density = 2.208298 g / cm^3
# Si number density = 22.133356 Si / 1000 Ang^3
#
#
#
# Elastic Constant Matrix: (Units=GPa)
#
#
# Indices 1 2 3 4 5 6 
#
# 1 58.4183 49.8971 28.8532 0.0000 -20.7905 0.0000
# 2 49.8971 143.8507 63.7318 0.0001 -2.1494 0.0000
# 3 28.8532 63.7318 151.2556 0.0001 -18.6451 0.0000
# 4 0.0000 0.0001 0.0001 31.7623 0.0000 10.2572
# 5 -20.7905 -2.1494 -18.6451 0.0000 38.9490 0.0000
# 6 0.0000 0.0000 0.0000 10.2572 0.0000 28.6671
#
#
#
# Elastic Compliance Matrix: (Units=1/GPa)
#
#
# Indices 1 2 3 4 5 6 
#
# 1 0.032534 -0.011327 0.000670 0.000000 0.017062 0.000000
# 2 -0.011327 0.012556 -0.004027 0.000000 -0.007281 0.000000
# 3 0.000670 -0.004027 0.008711 0.000000 0.004305 0.000000
# 4 0.000000 0.000000 0.000000 0.035597 0.000000 -0.012737
# 5 0.017062 -0.007281 0.004305 0.000000 0.036441 0.000000
# 6 0.000000 0.000000 0.000000 -0.012737 0.000000 0.039441
#
#
# Mechanical properties :
#
#
# Convention : Reuss Voigt Hill
#
# Bulk Modulus (GPa) = 40.92970 70.94319 55.93645
# Shear Modulus (GPa) = 24.65578 33.94517 29.30048
#
# Velocity S-wave (km/s) = 3.34123 3.92045 3.64237
# Velocity P-wave (km/s) = 5.78079 7.25365 6.55870
#
# Compressibility (1/GPa) = 0.02443214
#
# Stress axis : x y z
#
# Youngs Moduli (GPa) = 30.73741 79.64340 114.79417
#
# Poissons Ratio (x) = 0.90209 -0.07686
# Poissons Ratio (y) = 0.34815 0.46232
# Poissons Ratio (z) = -0.02058 0.32075
#
# Static dielectric constant tensor:
#      x y z
#    x 4.228720 0.000000 -0.368850 
#    y 0.000000 3.850830 0.000000 
#    z -0.368850 0.000000 4.050250 
# 
# 
# High freq. dielectric constant tensor:
#      x y z
#    x 1.865260 0.000000 -0.018250 
#    y 0.000000 1.863370 0.000000 
#    z -0.018250 0.000000 1.868950 
# 
# From -- ./inp_files/252611.got.cif
#   From: 2010.06.25/outbox.cif.g09.slc.cpg/sg15_127_cif.got.tgz:252611.got - 2010.06.28 07:06:18.
