data_PCOD8143233
_publ_section_title
;
Structure prediction by ZEFSAII (Michael W. Deem and Ramdas Pophale) SiO2 
 PCOD8143233
Probable space group: C 2/C
;
_chemical_formula_sum "Si O2"
_cell_formula_units_Z 60
_cell_length_a 18.346826
_cell_length_b 20.301215
_cell_length_c 9.083297
_cell_angle_alpha 90.000000
_cell_angle_beta 59.769662
_cell_angle_gamma 90.000000
_cell_volume 2923.105018
_symmetry_space_group_name_H-M "C 2/C"
_symmetry_group_IT_number 15
_symmetry_cell_setting 'monoclinic'
loop_
_space_group_symop_operation_xyz
x,y,z
-x,y,1/2-z
-x,-y,-z
x,-y,1/2+z
1/2+x,1/2+y,z
1/2-x,1/2+y,1/2-z
1/2-x,1/2-y,-z
1/2+x,1/2-y,1/2+z
loop_
_atom_site_type_symbol
_atom_site_label
_atom_site_fract_x
_atom_site_fract_y
_atom_site_fract_z
Si Si1 0.098488 0.306280 0.819675
Si Si2 0.692161 0.187752 0.531338
Si Si3 0.332169 0.290201 0.453431
Si Si4 0.500000 0.329509 0.750000
Si Si5 0.165957 0.915244 0.562829
Si Si6 0.933682 0.728980 0.604555
Si Si7 0.773990 0.992896 0.262703
Si Si8 0.781737 0.590767 0.423242
O O1 0.102538 0.233092 0.739978
O O2 0.135835 0.362221 0.671514
O O3 0.156623 0.309502 0.903885
O O4 0.998755 0.318846 0.950466
O O5 0.750000 0.250000 0.500000
O O6 0.746931 0.122894 0.497713
O O7 0.614747 0.186050 0.724528
O O8 0.250000 0.250000 0.500000
O O9 0.365865 0.268182 0.577575
O O10 0.306707 0.367259 0.482612
O O11 0.584035 0.371180 0.652295
O O12 0.495320 0.283401 0.612411
O O13 0.160500 0.969685 0.696654
O O14 0.168881 0.946839 0.398350
O O15 0.719397 0.041996 0.215933
O O16 0.711569 0.949617 0.430303
#
# Coordination Sequence:
#
# PCOD8143233 Si02
#       8
#     8   8   8   4   8   8   8   8
#     4  11  22  39  60  99 132 164 206 272 333 383
#     4  12  21  38  67  93 129 171 209 262 330 399
#     4  10  23  38  64  95 128 166 208 267 335 391
#     4  12  24  38  68  98 136 166 212 274 328 394
#     4  11  24  42  66  94 129 174 224 266 317 391
#     4  12  23  39  61 104 135 164 208 264 349 393
#     4  10  23  42  65  89 122 183 228 259 305 385
#     4  10  21  40  64  91 124 168 225 262 314 387
#
# _framework density 20.526116999999999
#
# number of rings (size 3 to 8) (size 9 to 14) (size 15 to 20)
#    0.000    1.067    4.000    2.800    7.467    0.533 
#    0.000    0.000    0.000    4.800    0.000    0.000 
#    0.000    0.000    0.000    0.000    0.000    0.000 
#
# Total GULP energy -371931.721059 kJ/mol
# GULP energy per Si atom -12397.724035 kJ/mol
# Density = 2.047940 g / cm^3
# Si number density = 20.526117 Si / 1000 Ang^3
#
#
#
# Elastic Constant Matrix: (Units=GPa)
#
#
# Indices 1 2 3 4 5 6 
#
# 1 70.3979 31.3984 28.9083 0.0000 4.8550 0.0000
# 2 31.3984 92.6135 51.0005 0.0000 1.3198 0.0000
# 3 28.9083 51.0005 127.4312 0.0000 2.1336 0.0000
# 4 0.0000 0.0000 0.0000 36.3448 0.0000 6.6677
# 5 4.8550 1.3198 2.1336 0.0000 41.3881 0.0000
# 6 0.0000 0.0000 0.0000 6.6677 0.0000 12.2082
#
#
#
# Elastic Compliance Matrix: (Units=1/GPa)
#
#
# Indices 1 2 3 4 5 6 
#
# 1 0.017254 -0.004727 -0.001993 0.000000 -0.001770 0.000000
# 2 -0.004727 0.015146 -0.004995 0.000000 0.000329 0.000000
# 3 -0.001993 -0.004995 0.010301 0.000000 -0.000138 0.000000
# 4 0.000000 0.000000 0.000000 0.030578 0.000000 -0.016701
# 5 -0.001770 0.000329 -0.000138 0.000000 0.024366 0.000000
# 6 0.000000 0.000000 0.000000 -0.016701 0.000000 0.091034
#
#
# Mechanical properties :
#
#
# Convention : Reuss Voigt Hill
#
# Bulk Modulus (GPa) = 51.89004 57.00632 54.44818
# Shear Modulus (GPa) = 22.88008 29.93057 26.40533
#
# Velocity S-wave (km/s) = 3.34231 3.82274 3.59057
# Velocity P-wave (km/s) = 6.34268 6.87876 6.61615
#
# Compressibility (1/GPa) = 0.01927152
#
# Stress axis : x y z
#
# Youngs Moduli (GPa) = 57.95903 66.02386 97.07995
#
# Poissons Ratio (x) = 0.31209 0.19344
# Poissons Ratio (y) = 0.27397 0.48491
# Poissons Ratio (z) = 0.11549 0.32979
#
# Static dielectric constant tensor:
#      x y z
#    x 3.797830 0.000000 -0.085780 
#    y 0.000000 3.806960 0.000000 
#    z -0.085780 0.000000 4.608660 
# 
# 
# High freq. dielectric constant tensor:
#      x y z
#    x 1.792810 0.000000 0.015790 
#    y 0.000000 1.792790 0.000000 
#    z 0.015790 0.000000 1.821760 
# 
# From -- ./inp_files/50631.got.cif
#   From: 2010.06.25/outbox.cif.g09.slc.cpg/sg15_26_cif.got.tgz:50631.got - 2010.06.28 07:06:18.
