data_PCOD8143374
_publ_section_title
;
Structure prediction by ZEFSAII (Michael W. Deem and Ramdas Pophale) SiO2 
 PCOD8143374
Probable space group: C 2/C
;
_chemical_formula_sum "Si O2"
_cell_formula_units_Z 48
_cell_length_a 18.747436
_cell_length_b 8.283974
_cell_length_c 26.936104
_cell_angle_alpha 90.000000
_cell_angle_beta 33.841192
_cell_angle_gamma 90.000000
_cell_volume 2329.630616
_symmetry_space_group_name_H-M "C 2/C"
_symmetry_group_IT_number 15
_symmetry_cell_setting 'monoclinic'
loop_
_space_group_symop_operation_xyz
x,y,z
-x,y,1/2-z
-x,-y,-z
x,-y,1/2+z
1/2+x,1/2+y,z
1/2-x,1/2+y,1/2-z
1/2-x,1/2-y,-z
1/2+x,1/2-y,1/2+z
loop_
_atom_site_type_symbol
_atom_site_label
_atom_site_fract_x
_atom_site_fract_y
_atom_site_fract_z
Si Si1 0.691418 0.397410 0.126692
Si Si2 0.044532 0.025349 0.294842
Si Si3 0.352076 0.874845 0.466057
Si Si4 0.499532 0.394681 0.572239
Si Si5 0.292251 0.573241 0.110949
Si Si6 0.959147 0.596290 0.720598
O O1 0.674708 0.471061 0.192073
O O2 0.564350 0.411684 0.166547
O O3 0.733738 0.214055 0.110762
O O4 0.796503 0.498104 0.036450
O O5 0.046947 0.999160 0.353016
O O6 0.023974 0.211714 0.293445
O O7 0.250000 0.750000 0.500000
O O8 0.461008 0.780567 0.432677
O O9 0.433530 0.977389 0.378449
O O10 0.626005 0.468161 0.474474
O O11 0.384775 0.364572 0.600690
O O12 0.185670 0.467550 0.202141
O O13 0.000000 0.532306 0.750000
#
# Coordination Sequence:
#
# PCOD8143374 Si02
#       6
#     8   8   8   8   8   8
#     4  11  22  39  61 103 125 159 221 285 306 393
#     4  10  21  40  66  89 123 167 225 256 323 392
#     4  11  20  42  71  91 121 178 227 256 327 402
#     4  10  23  44  62  89 132 182 209 266 333 413
#     4  11  26  39  60  98 138 162 215 276 344 379
#     4  11  21  39  67  91 117 174 212 258 322 403
#
# _framework density 20.604123999999999
#
# number of rings (size 3 to 8) (size 9 to 14) (size 15 to 20)
#    0.000    1.333    5.000    2.000    2.333    5.333 
#    0.000    3.333    0.000    0.000    0.000    0.000 
#    0.000    0.000    0.000    0.000    0.000    0.000 
#
# Total GULP energy -297391.159857 kJ/mol
# GULP energy per Si atom -12391.298327 kJ/mol
# Density = 2.055723 g / cm^3
# Si number density = 20.604124 Si / 1000 Ang^3
#
#
#
# Elastic Constant Matrix: (Units=GPa)
#
#
# Indices 1 2 3 4 5 6 
#
# 1 89.3486 38.8734 54.1209 -0.0130 8.7492 0.0293
# 2 38.8734 65.0155 41.2072 -0.0153 -7.4002 0.0171
# 3 54.1209 41.2072 191.8295 -0.0035 22.4736 0.0073
# 4 -0.0130 -0.0153 -0.0035 21.9795 0.0022 -7.2370
# 5 8.7492 -7.4002 22.4736 0.0022 37.0236 -0.0069
# 6 0.0293 0.0171 0.0073 -7.2370 -0.0069 21.9662
#
#
#
# Elastic Compliance Matrix: (Units=1/GPa)
#
#
# Indices 1 2 3 4 5 6 
#
# 1 0.017045 -0.009245 -0.002298 -0.000002 -0.004481 -0.000017
# 2 -0.009245 0.024313 -0.003703 0.000010 0.009292 0.000001
# 3 -0.002298 -0.003703 0.007191 -0.000002 -0.004562 0.000002
# 4 -0.000002 0.000010 -0.000002 0.051033 0.000004 0.016813
# 5 -0.004481 0.009292 -0.004562 0.000004 0.032695 0.000012
# 6 -0.000017 0.000001 0.000002 0.016813 0.000012 0.051064
#
#
# Mechanical properties :
#
#
# Convention : Reuss Voigt Hill
#
# Bulk Modulus (GPa) = 55.37879 68.28850 61.83364
# Shear Modulus (GPa) = 22.74241 30.32666 26.53453
#
# Velocity S-wave (km/s) = 3.32592 3.84066 3.59252
# Velocity P-wave (km/s) = 6.45638 7.27205 6.87632
#
# Compressibility (1/GPa) = 0.01805746
#
# Stress axis : x y z
#
# Youngs Moduli (GPa) = 58.66764 41.12972 139.05732
#
# Poissons Ratio (x) = 0.38024 0.31956
# Poissons Ratio (y) = 0.54238 0.51495
# Poissons Ratio (z) = 0.13482 0.15231
#
# Static dielectric constant tensor:
#      x y z
#    x 3.749070 -0.000010 0.376880 
#    y -0.000010 3.416030 0.000000 
#    z 0.376880 0.000000 4.664430 
# 
# 
# High freq. dielectric constant tensor:
#      x y z
#    x 1.795560 0.000000 0.017010 
#    y 0.000000 1.783510 0.000000 
#    z 0.017010 0.000000 1.834960 
# 
# From -- ./inp_files/317231.got.cif
#   From: 2010.06.25/outbox.cif.g09.slc.cpg/sg15_159_cif.got.tgz:317231.got - 2010.06.28 07:06:18.
