data_PCOD8143668
_publ_section_title
;
Structure prediction by ZEFSAII (Michael W. Deem and Ramdas Pophale) SiO2 
 PCOD8143668
Probable space group: C 2/C
;
_chemical_formula_sum "Si O2"
_cell_formula_units_Z 56
_cell_length_a 13.541089
_cell_length_b 11.149338
_cell_length_c 14.409090
_cell_angle_alpha 90.000000
_cell_angle_beta 90.871583
_cell_angle_gamma 90.000000
_cell_volume 2175.148826
_symmetry_space_group_name_H-M "C 2/C"
_symmetry_group_IT_number 15
_symmetry_cell_setting 'monoclinic'
loop_
_space_group_symop_operation_xyz
x,y,z
-x,y,1/2-z
-x,-y,-z
x,-y,1/2+z
1/2+x,1/2+y,z
1/2-x,1/2+y,1/2-z
1/2-x,1/2-y,-z
1/2+x,1/2-y,1/2+z
loop_
_atom_site_type_symbol
_atom_site_label
_atom_site_fract_x
_atom_site_fract_y
_atom_site_fract_z
Si Si1 0.190270 0.118920 0.084481
Si Si2 0.062280 0.616118 0.166239
Si Si3 0.022106 0.765496 0.484339
Si Si4 0.873089 0.817257 0.624609
Si Si5 0.774121 0.769330 0.240581
Si Si6 0.516761 0.473213 0.151163
Si Si7 0.733360 0.971175 0.100814
O O1 0.261974 0.162400 0.166361
O O2 0.130167 0.004053 0.124359
O O3 0.260728 0.091703 0.998558
O O4 0.117223 0.230108 0.053468
O O5 0.980095 0.660869 0.091253
O O6 0.130185 0.732900 0.196175
O O7 0.120858 0.501919 0.126472
O O8 0.000000 0.564319 0.250000
O O9 0.919686 0.745492 0.539009
O O10 0.028859 0.895620 0.433199
O O11 0.826461 0.725315 0.698961
O O12 0.784852 0.901340 0.589974
O O13 0.960384 0.900907 0.664683
O O14 0.786067 0.893880 0.184207
O O15 0.500000 0.405247 0.250000
#
# Coordination Sequence:
#
# PCOD8143668 Si02
#       7
#     8   8   8   8   8   8   8
#     4  11  21  42  67  99 131 171 226 274 329 393
#     4  11  27  48  66  97 138 181 226 269 342 403
#     4  11  22  40  72  98 136 167 220 285 335 389
#     4  10  21  41  63 106 127 168 227 277 331 395
#     4  11  25  42  69  94 135 179 229 272 333 400
#     4  11  19  35  69 103 132 159 217 283 336 378
#     4  11  23  44  64  95 138 174 225 275 331 401
#
# _framework density 25.745366000000001
#
# number of rings (size 3 to 8) (size 9 to 14) (size 15 to 20)
#    0.000    1.143    4.286    2.571    2.000    2.286 
#   10.286    1.429    0.000    0.000    0.000    0.000 
#    0.000    0.000    0.000    0.000    0.000    0.000 
#
# Total GULP energy -347134.798730 kJ/mol
# GULP energy per Si atom -12397.671383 kJ/mol
# Density = 2.568677 g / cm^3
# Si number density = 25.745366 Si / 1000 Ang^3
#
#
#
# Elastic Constant Matrix: (Units=GPa)
#
#
# Indices 1 2 3 4 5 6 
#
# 1 75.9048 3.1883 30.6490 0.0000 -32.9101 0.0000
# 2 3.1883 26.3217 1.5790 0.0000 -14.4747 0.0000
# 3 30.6490 1.5790 128.8217 0.0000 -41.0084 0.0000
# 4 0.0000 0.0000 0.0000 12.5099 0.0000 -9.6194
# 5 -32.9101 -14.4747 -41.0084 0.0000 59.7095 0.0000
# 6 0.0000 0.0000 0.0000 -9.6194 0.0000 27.5040
#
#
#
# Elastic Compliance Matrix: (Units=1/GPa)
#
#
# Indices 1 2 3 4 5 6 
#
# 1 0.017745 0.003306 -0.001144 0.000000 0.009796 0.000000
# 2 0.003306 0.045828 0.003543 0.000000 0.015365 0.000000
# 3 -0.001144 0.003543 0.010320 0.000000 0.007317 0.000000
# 4 0.000000 0.000000 0.000000 0.109343 0.000000 0.038242
# 5 0.009796 0.015365 0.007317 0.000000 0.030897 0.000000
# 6 0.000000 0.000000 0.000000 0.038242 0.000000 0.049733
#
#
# Mechanical properties :
#
#
# Convention : Reuss Voigt Hill
#
# Bulk Modulus (GPa) = 11.72278 33.54232 22.63255
# Shear Modulus (GPa) = 17.80054 32.98683 25.39368
#
# Velocity S-wave (km/s) = 2.63232 3.58337 3.14401
# Velocity P-wave (km/s) = 3.71511 5.49340 4.68932
#
# Compressibility (1/GPa) = 0.08530401
#
# Stress axis : x y z
#
# Youngs Moduli (GPa) = 56.35462 21.82076 96.89482
#
# Poissons Ratio (x) = -0.07215 0.11083
# Poissons Ratio (y) = -0.18633 -0.34329
# Poissons Ratio (z) = 0.06446 -0.07731
#
# Static dielectric constant tensor:
#      x y z
#    x 4.577810 0.000000 -0.509530 
#    y 0.000000 4.180880 0.000000 
#    z -0.509530 0.000000 5.051220 
# 
# 
# High freq. dielectric constant tensor:
#      x y z
#    x 2.029090 0.000000 -0.022560 
#    y 0.000000 1.989900 0.000000 
#    z -0.022560 0.000000 2.045820 
# 
# From -- ./inp_files/152611.got.cif
#   From: 2010.06.25/outbox.cif.g09.slc.cpg/sg15_77_cif.got.tgz:152611.got - 2010.06.28 07:06:18.
