data_PCOD8143772
_publ_section_title
;
Structure prediction by ZEFSAII (Michael W. Deem and Ramdas Pophale) SiO2 
 PCOD8143772
Probable space group: C 2/C
;
_chemical_formula_sum "Si O2"
_cell_formula_units_Z 40
_cell_length_a 8.160164
_cell_length_b 16.897811
_cell_length_c 18.027608
_cell_angle_alpha 90.000000
_cell_angle_beta 47.003086
_cell_angle_gamma 90.000000
_cell_volume 1818.095605
_symmetry_space_group_name_H-M "C 2/C"
_symmetry_group_IT_number 15
_symmetry_cell_setting 'monoclinic'
loop_
_space_group_symop_operation_xyz
x,y,z
-x,y,1/2-z
-x,-y,-z
x,-y,1/2+z
1/2+x,1/2+y,z
1/2-x,1/2+y,1/2-z
1/2-x,1/2-y,-z
1/2+x,1/2-y,1/2+z
loop_
_atom_site_type_symbol
_atom_site_label
_atom_site_fract_x
_atom_site_fract_y
_atom_site_fract_z
Si Si1 0.082330 0.601417 0.306207
Si Si2 0.929272 0.218439 0.535761
Si Si3 0.565464 0.659191 0.125336
Si Si4 0.266503 0.852439 0.027348
Si Si5 0.278390 0.502449 0.856189
O O1 0.311800 0.653279 0.234142
O O2 0.112844 0.516760 0.338680
O O3 0.000000 0.581260 0.250000
O O4 0.897041 0.650082 0.408234
O O5 0.691624 0.263678 0.621046
O O6 0.918660 0.161015 0.468415
O O7 0.007021 0.166917 0.584510
O O8 0.124280 0.283079 0.457340
O O9 0.693223 0.580160 0.109873
O O10 0.307820 0.933866 0.058217
O O11 0.500000 0.537600 0.750000
#
# Coordination Sequence:
#
# PCOD8143772 Si02
#       5
#     8   8   8   8   8
#     4  11  21  40  66  96 129 181 221 266 332 398
#     4  10  22  39  63  99 125 167 218 270 338 384
#     4  10  21  41  64  92 132 169 220 267 329 398
#     4  11  22  42  67  96 129 172 224 272 329 393
#     4  10  23  43  64  94 129 178 221 274 322 393
#
# _framework density 22.001042000000002
#
# number of rings (size 3 to 8) (size 9 to 14) (size 15 to 20)
#    0.000    1.600    4.000    0.600    0.000    0.800 
#    7.200    0.000    0.000    0.000    0.000    0.000 
#    0.000    0.000    0.000    0.000    0.000    0.000 
#
# Total GULP energy -247835.079243 kJ/mol
# GULP energy per Si atom -12391.753962 kJ/mol
# Density = 2.195097 g / cm^3
# Si number density = 22.001042 Si / 1000 Ang^3
#
#
#
# Elastic Constant Matrix: (Units=GPa)
#
#
# Indices 1 2 3 4 5 6 
#
# 1 146.7136 44.7099 41.8061 -0.0014 12.7019 0.0030
# 2 44.7099 95.3484 43.2018 0.0001 15.3303 0.0006
# 3 41.8061 43.2018 94.7639 -0.0002 7.8247 0.0016
# 4 -0.0014 0.0001 -0.0002 27.5768 0.0012 3.7628
# 5 12.7019 15.3303 7.8247 0.0012 32.8726 -0.0027
# 6 0.0030 0.0006 0.0016 3.7628 -0.0027 20.4651
#
#
#
# Elastic Compliance Matrix: (Units=1/GPa)
#
#
# Indices 1 2 3 4 5 6 
#
# 1 0.008427 -0.002631 -0.002398 0.000001 -0.001459 -0.000001
# 2 -0.002631 0.014835 -0.005218 0.000000 -0.004660 0.000000
# 3 -0.002398 -0.005218 0.013987 0.000000 0.000031 -0.000001
# 4 0.000001 0.000000 0.000000 0.037195 -0.000002 -0.006839
# 5 -0.001459 -0.004660 0.000031 -0.000002 0.033150 0.000005
# 6 -0.000001 0.000000 -0.000001 -0.006839 0.000005 0.050121
#
#
# Mechanical properties :
#
#
# Convention : Reuss Voigt Hill
#
# Bulk Modulus (GPa) = 59.68048 66.25130 62.96589
# Shear Modulus (GPa) = 27.20452 29.99012 28.59732
#
# Velocity S-wave (km/s) = 3.52022 3.69605 3.60921
# Velocity P-wave (km/s) = 6.61118 6.95648 6.78603
#
# Compressibility (1/GPa) = 0.01675590
#
# Stress axis : x y z
#
# Youngs Moduli (GPa) = 118.66247 67.40966 71.49669
#
# Poissons Ratio (x) = 0.17732 0.17146
# Poissons Ratio (y) = 0.31215 0.37305
# Poissons Ratio (z) = 0.28456 0.35172
#
# Static dielectric constant tensor:
#      x y z
#    x 4.442980 0.000000 0.003150 
#    y 0.000000 3.698620 0.000000 
#    z 0.003150 0.000000 3.859110 
# 
# 
# High freq. dielectric constant tensor:
#      x y z
#    x 1.888070 0.000000 0.003350 
#    y 0.000000 1.841770 0.000000 
#    z 0.003350 0.000000 1.849120 
# 
# From -- ./inp_files/133268.got.cif
#   From: 2010.06.25/outbox.cif.g09.slc.cpg/sg15_67_cif.got.tgz:133268.got - 2010.06.28 07:06:18.
