data_PCOD8143803
_publ_section_title
;
Structure prediction by ZEFSAII (Michael W. Deem and Ramdas Pophale) SiO2 
 PCOD8143803
Probable space group: C 2/C
;
_chemical_formula_sum "Si O2"
_cell_formula_units_Z 64
_cell_length_a 5.207054
_cell_length_b 24.596039
_cell_length_c 22.752845
_cell_angle_alpha 90.000000
_cell_angle_beta 86.399042
_cell_angle_gamma 90.000000
_cell_volume 2908.269698
_symmetry_space_group_name_H-M "C 2/C"
_symmetry_group_IT_number 15
_symmetry_cell_setting 'monoclinic'
loop_
_space_group_symop_operation_xyz
x,y,z
-x,y,1/2-z
-x,-y,-z
x,-y,1/2+z
1/2+x,1/2+y,z
1/2-x,1/2+y,1/2-z
1/2-x,1/2-y,-z
1/2+x,1/2-y,1/2+z
loop_
_atom_site_type_symbol
_atom_site_label
_atom_site_fract_x
_atom_site_fract_y
_atom_site_fract_z
Si Si1 0.080353 0.348611 0.576823
Si Si2 0.796227 0.952620 0.002807
Si Si3 0.149830 0.125077 0.538244
Si Si4 0.876666 0.476496 0.092159
Si Si5 0.098134 0.228350 0.615591
Si Si6 0.247513 0.970438 0.713753
Si Si7 0.928859 0.747233 0.815485
Si Si8 0.438364 0.367644 0.853520
O O1 0.104806 0.365820 0.507875
O O2 0.115694 0.283673 0.578539
O O3 0.291155 0.377708 0.616411
O O4 0.794888 0.364930 0.597728
O O5 0.651659 0.954049 0.067944
O O6 0.921377 0.892751 0.996881
O O7 0.639712 0.966686 0.945415
O O8 0.000000 0.000000 0.000000
O O9 0.182250 0.073269 0.580901
O O10 0.059618 0.178818 0.572027
O O11 0.848436 0.489887 0.160928
O O12 0.367741 0.218492 0.644392
O O13 0.860519 0.229499 0.664404
O O14 0.500000 0.958685 0.750000
O O15 0.120825 0.915246 0.691320
O O16 0.000000 0.998333 0.750000
O O17 0.959048 0.812102 0.816737
O O18 0.000000 0.726295 0.750000
#
# Coordination Sequence:
#
# PCOD8143803 Si02
#       8
#     8   8   8   8   8   8   8   8
#     4  10  22  38  64  98 130 162 197 265 318 396
#     4   9  21  39  68  92 121 166 214 274 309 379
#     4  11  23  38  65  89 130 168 204 258 326 379
#     4  10  24  42  64  95 124 170 225 259 327 384
#     4  10  23  39  61  97 127 161 207 262 314 385
#     4  12  27  43  66  93 132 171 210 275 325 381
#     4  10  21  41  65  87 124 167 214 260 304 369
#     4  10  22  40  65  96 126 158 214 253 330 386
#
# _framework density 22.006212000000001
#
# number of rings (size 3 to 8) (size 9 to 14) (size 15 to 20)
#    0.000    1.750    0.000    2.625   12.250    2.000 
#    0.000    5.625    0.000    0.000    0.000    0.000 
#    0.000    0.000    0.000    0.000    0.000    0.000 
#
# Total GULP energy -396578.491728 kJ/mol
# GULP energy per Si atom -12393.077867 kJ/mol
# Density = 2.195613 g / cm^3
# Si number density = 22.006212 Si / 1000 Ang^3
#
#
#
# Elastic Constant Matrix: (Units=GPa)
#
#
# Indices 1 2 3 4 5 6 
#
# 1 101.8935 19.6371 21.7244 0.0000 -1.0234 0.0000
# 2 19.6371 71.6137 45.1036 0.0000 12.8419 0.0000
# 3 21.7244 45.1036 116.2103 0.0000 -12.3271 0.0000
# 4 0.0000 0.0000 0.0000 26.2812 0.0000 3.5041
# 5 -1.0234 12.8419 -12.3271 0.0000 30.6931 0.0000
# 6 0.0000 0.0000 0.0000 3.5041 0.0000 18.7922
#
#
#
# Elastic Compliance Matrix: (Units=1/GPa)
#
#
# Indices 1 2 3 4 5 6 
#
# 1 0.010496 -0.002516 -0.000874 0.000000 0.001052 0.000000
# 2 -0.002516 0.023573 -0.010167 0.000000 -0.014030 0.000000
# 3 -0.000874 -0.010167 0.013748 0.000000 0.009746 0.000000
# 4 0.000000 0.000000 0.000000 0.039020 0.000000 -0.007276
# 5 0.001052 -0.014030 0.009746 0.000000 0.042400 0.000000
# 6 0.000000 0.000000 0.000000 -0.007276 0.000000 0.054570
#
#
# Mechanical properties :
#
#
# Convention : Reuss Voigt Hill
#
# Bulk Modulus (GPa) = 48.30238 51.40529 49.85384
# Shear Modulus (GPa) = 22.95434 28.70345 25.82890
#
# Velocity S-wave (km/s) = 3.23319 3.61547 3.42966
# Velocity P-wave (km/s) = 5.99459 6.39054 6.19573
#
# Compressibility (1/GPa) = 0.02070291
#
# Stress axis : x y z
#
# Youngs Moduli (GPa) = 95.27436 42.42125 72.73592
#
# Poissons Ratio (x) = 0.10674 0.06357
# Poissons Ratio (y) = 0.23974 0.73951
# Poissons Ratio (z) = 0.08326 0.43130
#
# Static dielectric constant tensor:
#      x y z
#    x 4.527190 0.000000 0.229650 
#    y 0.000000 4.154810 0.000000 
#    z 0.229650 0.000000 4.222710 
# 
# 
# High freq. dielectric constant tensor:
#      x y z
#    x 1.883080 0.000000 -0.011160 
#    y 0.000000 1.852820 0.000000 
#    z -0.011160 0.000000 1.857710 
# 
# From -- ./inp_files/261690.got.cif
#   From: 2010.06.25/outbox.cif.g09.slc.cpg/sg15_131_cif.got.tgz:261690.got - 2010.06.28 07:06:18.
