data_PCOD8143182
_publ_section_title
;
Structure prediction by ZEFSAII (Michael W. Deem and Ramdas Pophale) SiO2 
 PCOD8143182
Probable space group: C 2/C
;
_chemical_formula_sum "Si O2"
_cell_formula_units_Z 44
_cell_length_a 18.367657
_cell_length_b 14.897317
_cell_length_c 8.261412
_cell_angle_alpha 90.000000
_cell_angle_beta 104.536259
_cell_angle_gamma 90.000000
_cell_volume 2188.197520
_symmetry_space_group_name_H-M "C 2/C"
_symmetry_group_IT_number 15
_symmetry_cell_setting 'monoclinic'
loop_
_space_group_symop_operation_xyz
x,y,z
-x,y,1/2-z
-x,-y,-z
x,-y,1/2+z
1/2+x,1/2+y,z
1/2-x,1/2+y,1/2-z
1/2-x,1/2-y,-z
1/2+x,1/2-y,1/2+z
loop_
_atom_site_type_symbol
_atom_site_label
_atom_site_fract_x
_atom_site_fract_y
_atom_site_fract_z
Si Si1 0.190969 0.737661 0.108940
Si Si2 0.415897 0.393619 0.904339
Si Si3 0.281722 0.886427 0.302160
Si Si4 0.919129 0.286104 0.217449
Si Si5 0.000000 0.964616 0.250000
Si Si6 0.742672 0.080020 0.349139
O O1 0.210346 0.818226 0.244223
O O2 0.197986 0.640782 0.196155
O O3 0.250000 0.750000 0.000000
O O4 0.109244 0.742718 0.978884
O O5 0.437094 0.301287 0.832304
O O6 0.434481 0.474760 0.792422
O O7 0.328785 0.391355 0.898890
O O8 0.463247 0.401252 0.095129
O O9 0.359099 0.848653 0.273089
O O10 0.294495 0.904659 0.497487
O O11 0.262729 0.976324 0.196624
O O12 0.000000 0.336677 0.250000
#
# Coordination Sequence:
#
# PCOD8143182 Si02
#       6
#     8   8   8   8   4   8
#     4  10  21  40  63  93 124 164 216 260 313 375
#     4  11  22  40  61  94 132 170 203 265 318 389
#     4  11  24  41  66  96 127 168 219 268 318 379
#     4  11  24  43  63  92 133 171 210 265 328 383
#     4  10  24  36  58  98 134 166 208 248 342 390
#     4  12  23  41  69  93 125 168 225 266 313 374
#
# _framework density 20.107875
#
# number of rings (size 3 to 8) (size 9 to 14) (size 15 to 20)
#    0.000    1.091    4.545    3.818    2.545    1.455 
#    0.000    3.636    0.000    0.000    0.000    0.000 
#    0.000    0.000    0.000    0.000    0.000    0.000 
#
# Total GULP energy -272823.768964 kJ/mol
# GULP energy per Si atom -12401.080407 kJ/mol
# Density = 2.006211 g / cm^3
# Si number density = 20.107875 Si / 1000 Ang^3
#
#
#
# Elastic Constant Matrix: (Units=GPa)
#
#
# Indices 1 2 3 4 5 6 
#
# 1 101.1477 14.4418 39.3757 0.0000 10.4014 0.0000
# 2 14.4418 76.0827 26.8495 0.0000 7.8028 0.0000
# 3 39.3757 26.8495 108.0617 0.0000 5.1929 0.0000
# 4 0.0000 0.0000 0.0000 111.4090 0.0000 -2.0102
# 5 10.4014 7.8028 5.1929 0.0000 27.3153 0.0000
# 6 0.0000 0.0000 0.0000 -2.0102 0.0000 21.2126
#
#
#
# Elastic Compliance Matrix: (Units=1/GPa)
#
#
# Indices 1 2 3 4 5 6 
#
# 1 0.011901 -0.000458 -0.004048 0.000000 -0.003631 0.000000
# 2 -0.000458 0.014757 -0.003336 0.000000 -0.003407 0.000000
# 3 -0.004048 -0.003336 0.011544 0.000000 0.000300 0.000000
# 4 0.000000 0.000000 0.000000 0.008991 0.000000 0.000852
# 5 -0.003631 -0.003407 0.000300 0.000000 0.038908 0.000000
# 6 0.000000 0.000000 0.000000 0.000852 0.000000 0.047222
#
#
# Mechanical properties :
#
#
# Convention : Reuss Voigt Hill
#
# Bulk Modulus (GPa) = 44.41011 49.62512 47.01762
# Shear Modulus (GPa) = 31.94585 45.62907 38.78746
#
# Velocity S-wave (km/s) = 3.99020 4.76879 4.39677
# Velocity P-wave (km/s) = 6.58505 7.41990 7.01490
#
# Compressibility (1/GPa) = 0.02251740
#
# Stress axis : x y z
#
# Youngs Moduli (GPa) = 84.02424 67.76351 86.62825
#
# Poissons Ratio (x) = 0.03104 0.35070
# Poissons Ratio (y) = 0.03848 0.28899
# Poissons Ratio (z) = 0.34016 0.22606
#
# Static dielectric constant tensor:
#      x y z
#    x 3.730400 0.000000 -0.057960 
#    y 0.000000 3.767920 0.000000 
#    z -0.057960 0.000000 4.127570 
# 
# 
# High freq. dielectric constant tensor:
#      x y z
#    x 1.773910 0.000000 -0.002460 
#    y 0.000000 1.781330 0.000000 
#    z -0.002460 0.000000 1.802060 
# 
# From -- ./inp_files/47234.got.cif
#   From: 2010.06.25/outbox.cif.g09.slc.cpg/sg15_24_cif.got.tgz:47234.got - 2010.06.28 07:06:18.
