data_PCOD8143211
_publ_section_title
;
Structure prediction by ZEFSAII (Michael W. Deem and Ramdas Pophale) SiO2 
 PCOD8143211
Probable space group: C 2/C
;
_chemical_formula_sum "Si O2"
_cell_formula_units_Z 52
_cell_length_a 14.681361
_cell_length_b 13.079326
_cell_length_c 16.910668
_cell_angle_alpha 90.000000
_cell_angle_beta 55.571550
_cell_angle_gamma 90.000000
_cell_volume 2678.418291
_symmetry_space_group_name_H-M "C 2/C"
_symmetry_group_IT_number 15
_symmetry_cell_setting 'monoclinic'
loop_
_space_group_symop_operation_xyz
x,y,z
-x,y,1/2-z
-x,-y,-z
x,-y,1/2+z
1/2+x,1/2+y,z
1/2-x,1/2+y,1/2-z
1/2-x,1/2-y,-z
1/2+x,1/2-y,1/2+z
loop_
_atom_site_type_symbol
_atom_site_label
_atom_site_fract_x
_atom_site_fract_y
_atom_site_fract_z
Si Si1 0.994296 0.970370 0.911900
Si Si2 0.633417 0.141743 0.111044
Si Si3 0.700685 0.461434 0.703696
Si Si4 0.000000 0.642074 0.750000
Si Si5 0.660465 0.380213 0.097461
Si Si6 0.851373 0.197551 0.407820
Si Si7 0.595845 0.042665 0.289137
O O1 0.115311 0.946934 0.817565
O O2 0.918381 0.870247 0.938267
O O3 0.944458 0.065548 0.889419
O O4 0.000000 0.000000 0.000000
O O5 0.628896 0.262981 0.119377
O O6 0.655403 0.100859 0.188003
O O7 0.518601 0.098928 0.132303
O O8 0.730937 0.101257 0.008152
O O9 0.682790 0.572146 0.672709
O O10 0.685464 0.372223 0.647365
O O11 0.825260 0.455621 0.674176
O O12 0.074946 0.710457 0.658065
O O13 0.073684 0.573182 0.772426
O O14 0.750000 0.250000 0.500000
#
# Coordination Sequence:
#
# PCOD8143211 Si02
#       7
#     8   8   8   4   8   8   8
#     4  11  24  41  65  93 125 162 213 262 315 374
#     4   9  21  41  61  88 122 165 204 251 309 374
#     4  11  24  41  63  96 124 161 213 263 308 378
#     4  10  22  46  60  92 130 170 210 258 312 386
#     4  10  21  40  64  87 124 159 207 258 310 363
#     4  11  24  43  66  90 131 171 210 262 324 377
#     4  10  24  38  65  87 128 164 207 254 312 371
#
# _framework density 19.414442999999999
#
# number of rings (size 3 to 8) (size 9 to 14) (size 15 to 20)
#    0.000    1.846    1.538    2.308   15.077    3.077 
#    5.538    0.000    0.000    0.000    0.000    0.000 
#    0.000    0.000    0.000    0.000    0.000    0.000 
#
# Total GULP energy -322462.133921 kJ/mol
# GULP energy per Si atom -12402.389766 kJ/mol
# Density = 1.937025 g / cm^3
# Si number density = 19.414443 Si / 1000 Ang^3
#
#
#
# Elastic Constant Matrix: (Units=GPa)
#
#
# Indices 1 2 3 4 5 6 
#
# 1 128.2558 37.8256 35.5496 0.0000 10.6229 0.0000
# 2 37.8256 111.7148 40.4481 0.0000 -5.6241 0.0000
# 3 35.5496 40.4481 113.4065 0.0000 -10.3457 0.0000
# 4 0.0000 0.0000 0.0000 36.3560 0.0000 -8.0709
# 5 10.6229 -5.6241 -10.3457 0.0000 26.6299 0.0000
# 6 0.0000 0.0000 0.0000 -8.0709 0.0000 14.1297
#
#
#
# Elastic Compliance Matrix: (Units=1/GPa)
#
#
# Indices 1 2 3 4 5 6 
#
# 1 0.009750 -0.002629 -0.002617 0.000000 -0.005461 0.000000
# 2 -0.002629 0.011003 -0.002895 0.000000 0.002247 0.000000
# 3 -0.002617 -0.002895 0.011104 0.000000 0.004746 0.000000
# 4 0.000000 0.000000 0.000000 0.031500 0.000000 0.017993
# 5 -0.005461 0.002247 0.004746 0.000000 0.042049 0.000000
# 6 0.000000 0.000000 0.000000 0.017993 0.000000 0.081050
#
#
# Mechanical properties :
#
#
# Convention : Reuss Voigt Hill
#
# Bulk Modulus (GPa) = 64.20656 64.55821 64.38238
# Shear Modulus (GPa) = 24.04663 31.39336 27.72000
#
# Velocity S-wave (km/s) = 3.52319 4.02557 3.78273
# Velocity P-wave (km/s) = 7.04938 7.41160 7.23276
#
# Compressibility (1/GPa) = 0.01557473
#
# Stress axis : x y z
#
# Youngs Moduli (GPa) = 102.56565 90.88572 90.05918
#
# Poissons Ratio (x) = 0.23891 0.23568
# Poissons Ratio (y) = 0.26961 0.26075
# Poissons Ratio (z) = 0.26841 0.26314
#
# Static dielectric constant tensor:
#      x y z
#    x 3.498710 0.000000 -0.117720 
#    y 0.000000 3.684180 0.000000 
#    z -0.117720 0.000000 3.570120 
# 
# 
# High freq. dielectric constant tensor:
#      x y z
#    x 1.752940 0.000000 -0.011690 
#    y 0.000000 1.769970 0.000000 
#    z -0.011690 0.000000 1.765740 
# 
# From -- ./inp_files/203894.got.cif
#   From: 2010.06.25/outbox.cif.g09.slc.cpg/sg15_102_cif.got.tgz:203894.got - 2010.06.28 07:06:18.
