data_PCOD8143200
_publ_section_title
;
Structure prediction by ZEFSAII (Michael W. Deem and Ramdas Pophale) SiO2 
 PCOD8143200
Probable space group: C 2/C
;
_chemical_formula_sum "Si O2"
_cell_formula_units_Z 56
_cell_length_a 30.087126
_cell_length_b 19.311115
_cell_length_c 8.701710
_cell_angle_alpha 90.000000
_cell_angle_beta 29.814410
_cell_angle_gamma 90.000000
_cell_volume 2513.720336
_symmetry_space_group_name_H-M "C 2/C"
_symmetry_group_IT_number 15
_symmetry_cell_setting 'monoclinic'
loop_
_space_group_symop_operation_xyz
x,y,z
-x,y,1/2-z
-x,-y,-z
x,-y,1/2+z
1/2+x,1/2+y,z
1/2-x,1/2+y,1/2-z
1/2-x,1/2-y,-z
1/2+x,1/2-y,1/2+z
loop_
_atom_site_type_symbol
_atom_site_label
_atom_site_fract_x
_atom_site_fract_y
_atom_site_fract_z
Si Si1 0.627702 0.377405 0.118162
Si Si2 0.500000 0.353135 0.250000
Si Si3 0.277340 0.241480 0.741958
Si Si4 0.295351 0.951022 0.747365
Si Si5 0.327305 0.913675 0.999344
Si Si6 0.500000 0.343661 0.750000
Si Si7 0.915847 0.756476 0.747423
Si Si8 0.480100 0.883950 0.136773
O O1 0.567324 0.400470 0.151352
O O2 0.565912 0.391254 0.451681
O O3 0.645020 0.294690 0.042845
O O4 0.719540 0.417844 0.865160
O O5 0.435197 0.304953 0.544850
O O6 0.306855 0.163832 0.613443
O O7 0.250000 0.250000 0.000000
O O8 0.188429 0.260386 0.915405
O O9 0.285754 0.929747 0.954652
O O10 0.391222 0.929842 0.391152
O O11 0.286141 0.033783 0.748910
O O12 0.434215 0.926093 0.680621
O O13 0.438569 0.295259 0.833589
O O14 0.968789 0.684747 0.568299
O O15 0.500000 0.859797 0.250000
#
# Coordination Sequence:
#
# PCOD8143200 Si02
#       8
#     8   4   8   8   8   4   8   8
#     4  11  23  43  68 102 134 180 231 292 351 410
#     4  10  22  36  60  99 135 174 228 290 346 404
#     4  12  25  41  69 105 138 180 236 292 347 412
#     4  11  25  44  71  99 141 187 227 283 350 420
#     4  11  26  44  68 102 142 183 230 279 346 418
#     4  10  22  36  64  95 135 170 230 290 344 404
#     4  11  20  36  62  97 138 176 223 287 341 403
#     4  10  21  40  64 101 138 184 222 271 342 420
#
# _framework density 22.277737999999999
#
# number of rings (size 3 to 8) (size 9 to 14) (size 15 to 20)
#    0.000    1.143    3.571    3.000    4.000    1.143 
#    0.000    0.000    0.000   14.571    0.000    0.000 
#    0.000    0.000    0.000    0.000    0.000    0.000 
#
# Total GULP energy -347123.957911 kJ/mol
# GULP energy per Si atom -12397.284211 kJ/mol
# Density = 2.222703 g / cm^3
# Si number density = 22.277738 Si / 1000 Ang^3
#
#
#
# Elastic Constant Matrix: (Units=GPa)
#
#
# Indices 1 2 3 4 5 6 
#
# 1 124.7195 34.2278 57.7497 0.0000 -14.0310 0.0000
# 2 34.2278 98.7586 31.5749 0.0000 -0.9879 0.0000
# 3 57.7497 31.5749 93.8655 0.0000 -5.5703 0.0000
# 4 0.0000 0.0000 0.0000 29.1206 0.0000 5.9467
# 5 -14.0310 -0.9879 -5.5703 0.0000 45.0860 0.0000
# 6 0.0000 0.0000 0.0000 5.9467 0.0000 27.8487
#
#
#
# Elastic Compliance Matrix: (Units=1/GPa)
#
#
# Indices 1 2 3 4 5 6 
#
# 1 0.011888 -0.002025 -0.006463 0.000000 0.002857 0.000000
# 2 -0.002025 0.011693 -0.002730 0.000000 -0.000711 0.000000
# 3 -0.006463 -0.002730 0.015539 0.000000 -0.000151 0.000000
# 4 0.000000 0.000000 0.000000 0.035906 0.000000 -0.007667
# 5 0.002857 -0.000711 -0.000151 0.000000 0.023035 0.000000
# 6 0.000000 0.000000 0.000000 -0.007667 0.000000 0.037546
#
#
# Mechanical properties :
#
#
# Convention : Reuss Voigt Hill
#
# Bulk Modulus (GPa) = 59.93657 62.71652 61.32655
# Shear Modulus (GPa) = 30.56178 33.33047 31.94612
#
# Velocity S-wave (km/s) = 3.70787 3.87218 3.79092
# Velocity P-wave (km/s) = 6.73006 6.94298 6.83735
#
# Compressibility (1/GPa) = 0.01668430
#
# Stress axis : x y z
#
# Youngs Moduli (GPa) = 84.11995 85.51991 64.35371
#
# Poissons Ratio (x) = 0.17319 0.41592
# Poissons Ratio (y) = 0.17035 0.17566
# Poissons Ratio (z) = 0.54367 0.23344
#
# Static dielectric constant tensor:
#      x y z
#    x 4.151620 0.000000 -0.164020 
#    y 0.000000 3.647700 0.000000 
#    z -0.164020 0.000000 4.127500 
# 
# 
# High freq. dielectric constant tensor:
#      x y z
#    x 1.892010 0.000000 -0.014790 
#    y 0.000000 1.850560 0.000000 
#    z -0.014790 0.000000 1.881670 
# 
# From -- ./inp_files/70845.got.cif
#   From: 2010.06.25/outbox.cif.g09.slc.cpg/sg15_36_cif.got.tgz:70845.got - 2010.06.28 07:06:18.
