data_PCOD8143102
_publ_section_title
;
Structure prediction by ZEFSAII (Michael W. Deem and Ramdas Pophale) SiO2 
 PCOD8143102
Probable space group: C 2/C
;
_chemical_formula_sum "Si O2"
_cell_formula_units_Z 40
_cell_length_a 8.832051
_cell_length_b 24.934539
_cell_length_c 8.519090
_cell_angle_alpha 90.000000
_cell_angle_beta 90.803846
_cell_angle_gamma 90.000000
_cell_volume 1875.915943
_symmetry_space_group_name_H-M "C 2/C"
_symmetry_group_IT_number 15
_symmetry_cell_setting 'monoclinic'
loop_
_space_group_symop_operation_xyz
x,y,z
-x,y,1/2-z
-x,-y,-z
x,-y,1/2+z
1/2+x,1/2+y,z
1/2-x,1/2+y,1/2-z
1/2-x,1/2-y,-z
1/2+x,1/2-y,1/2+z
loop_
_atom_site_type_symbol
_atom_site_label
_atom_site_fract_x
_atom_site_fract_y
_atom_site_fract_z
Si Si1 0.437662 0.833062 0.472286
Si Si2 0.971682 0.556878 0.430127
Si Si3 0.238846 0.177272 0.677529
Si Si4 0.500000 0.481802 0.750000
Si Si5 0.500000 0.238213 0.250000
Si Si6 0.146359 0.932521 0.050107
O O1 0.423439 0.897146 0.494369
O O2 0.607653 0.817199 0.420780
O O3 0.297655 0.821631 0.356826
O O4 0.407940 0.800095 0.630066
O O5 0.802056 0.570506 0.463904
O O6 0.000000 0.554564 0.250000
O O7 0.000000 0.500000 0.500000
O O8 0.134060 0.125630 0.632673
O O9 0.124167 0.226949 0.656866
O O10 0.465665 0.444444 0.598470
O O11 0.367763 0.522195 0.812595
#
# Coordination Sequence:
#
# PCOD8143102 Si02
#       6
#     8   8   8   4   4   8
#     4  10  23  42  63  92 127 161 210 262 311 380
#     4  11  23  38  62  94 123 163 206 252 308 374
#     4  10  23  41  63  91 125 163 208 262 318 369
#     4  10  21  40  62  88 136 165 208 254 308 376
#     4  12  21  44  64  92 118 167 214 264 318 368
#     4  10  22  40  60  94 125 170 206 254 311 378
#
# _framework density 21.322915999999999
#
# number of rings (size 3 to 8) (size 9 to 14) (size 15 to 20)
#    0.000    1.600    1.000    3.000    8.400    0.000 
#    3.600    4.000    0.000    0.000    0.000    0.000 
#    0.000    0.000    0.000    0.000    0.000    0.000 
#
# Total GULP energy -247770.232465 kJ/mol
# GULP energy per Si atom -12388.511623 kJ/mol
# Density = 2.127438 g / cm^3
# Si number density = 21.322916 Si / 1000 Ang^3
#
#
#
# Elastic Constant Matrix: (Units=GPa)
#
#
# Indices 1 2 3 4 5 6 
#
# 1 35.4161 30.7061 15.7101 0.0000 7.7390 0.0000
# 2 30.7061 140.3795 41.6789 0.0000 11.5854 0.0000
# 3 15.7101 41.6789 111.0882 0.0000 4.5457 0.0000
# 4 0.0000 0.0000 0.0000 43.2399 0.0000 3.2141
# 5 7.7390 11.5854 4.5457 0.0000 31.2588 0.0000
# 6 0.0000 0.0000 0.0000 3.2141 0.0000 26.5934
#
#
#
# Elastic Compliance Matrix: (Units=1/GPa)
#
#
# Indices 1 2 3 4 5 6 
#
# 1 0.036510 -0.006772 -0.002369 0.000000 -0.006184 0.000000
# 2 -0.006772 0.009480 -0.002539 0.000000 -0.001468 0.000000
# 3 -0.002369 -0.002539 0.010288 0.000000 0.000031 0.000000
# 4 0.000000 0.000000 0.000000 0.023336 0.000000 -0.002820
# 5 -0.006184 -0.001468 0.000031 0.000000 0.034062 0.000000
# 6 0.000000 0.000000 0.000000 -0.002820 0.000000 0.037944
#
#
# Mechanical properties :
#
#
# Convention : Reuss Voigt Hill
#
# Bulk Modulus (GPa) = 30.37952 51.45268 40.91610
# Shear Modulus (GPa) = 26.88851 33.47099 30.17975
#
# Velocity S-wave (km/s) = 3.55493 3.96627 3.76622
# Velocity P-wave (km/s) = 5.57928 6.71994 6.17600
#
# Compressibility (1/GPa) = 0.03291691
#
# Stress axis : x y z
#
# Youngs Moduli (GPa) = 27.38998 105.48751 97.19866
#
# Poissons Ratio (x) = 0.71438 0.23029
# Poissons Ratio (y) = 0.18549 0.24678
# Poissons Ratio (z) = 0.06490 0.26782
#
# Static dielectric constant tensor:
#      x y z
#    x 3.644300 0.000000 -0.005170 
#    y 0.000000 3.788960 0.000000 
#    z -0.005170 0.000000 3.939140 
# 
# 
# High freq. dielectric constant tensor:
#      x y z
#    x 1.821770 0.000000 -0.009340 
#    y 0.000000 1.845460 0.000000 
#    z -0.009340 0.000000 1.847520 
# 
# From -- ./inp_files/23553.got.cif
#   From: 2010.06.25/outbox.cif.g09.slc.cpg/sg15_12_cif.got.tgz:23553.got - 2010.06.28 07:06:18.
