data_PCOD8143462
_publ_section_title
;
Structure prediction by ZEFSAII (Michael W. Deem and Ramdas Pophale) SiO2 
 PCOD8143462
Probable space group: C 2/C
;
_chemical_formula_sum "Si O2"
_cell_formula_units_Z 64
_cell_length_a 24.884041
_cell_length_b 11.938455
_cell_length_c 14.186701
_cell_angle_alpha 90.000000
_cell_angle_beta 42.671513
_cell_angle_gamma 90.000000
_cell_volume 2856.592515
_symmetry_space_group_name_H-M "C 2/C"
_symmetry_group_IT_number 15
_symmetry_cell_setting 'monoclinic'
loop_
_space_group_symop_operation_xyz
x,y,z
-x,y,1/2-z
-x,-y,-z
x,-y,1/2+z
1/2+x,1/2+y,z
1/2-x,1/2+y,1/2-z
1/2-x,1/2-y,-z
1/2+x,1/2-y,1/2+z
loop_
_atom_site_type_symbol
_atom_site_label
_atom_site_fract_x
_atom_site_fract_y
_atom_site_fract_z
Si Si1 0.547046 0.334336 0.904779
Si Si2 0.529436 0.190985 0.108220
Si Si3 0.811994 0.986463 0.726385
Si Si4 0.084671 0.690967 0.688602
Si Si5 0.303224 0.840985 0.039107
Si Si6 0.884155 0.168921 0.524240
Si Si7 0.794220 0.344760 0.753310
Si Si8 0.385815 0.956055 0.777325
O O1 0.606203 0.440662 0.833894
O O2 0.586409 0.234470 0.793488
O O3 0.520946 0.290240 0.041824
O O4 0.472875 0.371544 0.935543
O O5 0.500000 0.234318 0.250000
O O6 0.477508 0.081216 0.146490
O O7 0.621056 0.151250 0.987687
O O8 0.759302 0.880899 0.765580
O O9 0.762332 0.062317 0.862050
O O10 0.829275 0.059966 0.609466
O O11 0.129463 0.779873 0.562872
O O12 0.124753 0.568944 0.647972
O O13 0.000000 0.671700 0.750000
O O14 0.263324 0.719439 0.099252
O O15 0.340481 0.854385 0.888155
O O16 0.862420 0.262776 0.628688
O O17 0.838939 0.454259 0.738483
#
# Coordination Sequence:
#
# PCOD8143462 Si02
#       8
#     8   8   8   8   8   8   8   8
#     4  11  22  44  67  96 130 174 230 270 335 397
#     4  10  21  40  67  97 130 170 225 282 327 399
#     4  11  24  40  66  93 132 182 212 279 339 400
#     4  10  23  41  66  96 129 166 220 284 321 401
#     4  10  22  40  59  90 137 163 221 276 337 395
#     4  10  23  45  64  93 137 175 230 274 335 405
#     4  11  22  37  62  93 130 172 223 282 330 403
#     4  11  22  39  66  96 127 178 219 277 345 382
#
# _framework density 22.404316000000001
#
# number of rings (size 3 to 8) (size 9 to 14) (size 15 to 20)
#    0.000    1.500    2.500    2.625    1.750    2.500 
#    0.000    5.000    0.000    0.000    0.000    0.000 
#    0.000    0.000    0.000    0.000    0.000    0.000 
#
# Total GULP energy -396531.199786 kJ/mol
# GULP energy per Si atom -12391.599993 kJ/mol
# Density = 2.235332 g / cm^3
# Si number density = 22.404316 Si / 1000 Ang^3
#
#
#
# Elastic Constant Matrix: (Units=GPa)
#
#
# Indices 1 2 3 4 5 6 
#
# 1 84.0798 40.5551 34.2783 0.0000 -5.2301 0.0000
# 2 40.5551 80.3017 23.1683 0.0000 -9.4154 0.0000
# 3 34.2783 23.1683 78.1436 0.0000 -5.1394 0.0000
# 4 0.0000 0.0000 0.0000 35.1187 0.0000 1.8122
# 5 -5.2301 -9.4154 -5.1394 0.0000 34.4572 0.0000
# 6 0.0000 0.0000 0.0000 1.8122 0.0000 30.7990
#
#
#
# Elastic Compliance Matrix: (Units=1/GPa)
#
#
# Indices 1 2 3 4 5 6 
#
# 1 0.017711 -0.007347 -0.005601 0.000000 -0.000155 0.000000
# 2 -0.007347 0.017013 -0.001605 0.000000 0.003294 0.000000
# 3 -0.005601 -0.001605 0.015800 0.000000 0.001068 0.000000
# 4 0.000000 0.000000 0.000000 0.028562 0.000000 -0.001681
# 5 -0.000155 0.003294 0.001068 0.000000 0.030058 0.000000
# 6 0.000000 0.000000 0.000000 -0.001681 0.000000 0.032567
#
#
# Mechanical properties :
#
#
# Convention : Reuss Voigt Hill
#
# Bulk Modulus (GPa) = 46.68826 48.72538 47.70682
# Shear Modulus (GPa) = 28.09709 29.70986 28.90348
#
# Velocity S-wave (km/s) = 3.54516 3.64549 3.59567
# Velocity P-wave (km/s) = 6.13529 6.28608 6.21114
#
# Compressibility (1/GPa) = 0.02141866
#
# Stress axis : x y z
#
# Youngs Moduli (GPa) = 56.46221 58.77991 63.29174
#
# Poissons Ratio (x) = 0.43184 0.35450
# Poissons Ratio (y) = 0.41482 0.10156
# Poissons Ratio (z) = 0.31625 0.09432
#
# Static dielectric constant tensor:
#      x y z
#    x 3.959410 0.000000 -0.150940 
#    y 0.000000 3.774870 0.000000 
#    z -0.150940 0.000000 4.104500 
# 
# 
# High freq. dielectric constant tensor:
#      x y z
#    x 1.880800 0.000000 -0.010490 
#    y 0.000000 1.867020 0.000000 
#    z -0.010490 0.000000 1.882720 
# 
# From -- ./inp_files/177790.got.cif
#   From: 2010.06.25/outbox.cif.g09.slc.cpg/sg15_89_cif.got.tgz:177790.got - 2010.06.28 07:06:18.
