data_PCOD8143805
_publ_section_title
;
Structure prediction by ZEFSAII (Michael W. Deem and Ramdas Pophale) SiO2 
 PCOD8143805
Probable space group: C 2/C
;
_chemical_formula_sum "Si O2"
_cell_formula_units_Z 64
_cell_length_a 19.167680
_cell_length_b 9.093968
_cell_length_c 30.151631
_cell_angle_alpha 90.000000
_cell_angle_beta 37.839380
_cell_angle_gamma 90.000000
_cell_volume 3224.132978
_symmetry_space_group_name_H-M "C 2/C"
_symmetry_group_IT_number 15
_symmetry_cell_setting 'monoclinic'
loop_
_space_group_symop_operation_xyz
x,y,z
-x,y,1/2-z
-x,-y,-z
x,-y,1/2+z
1/2+x,1/2+y,z
1/2-x,1/2+y,1/2-z
1/2-x,1/2-y,-z
1/2+x,1/2-y,1/2+z
loop_
_atom_site_type_symbol
_atom_site_label
_atom_site_fract_x
_atom_site_fract_y
_atom_site_fract_z
Si Si1 0.769624 0.321065 0.191541
Si Si2 0.218091 0.827578 0.970447
Si Si3 0.502807 0.162927 0.442309
Si Si4 0.251789 0.839810 0.709095
Si Si5 0.366920 0.817080 0.313016
Si Si6 0.281950 0.328000 0.028714
Si Si7 0.368228 0.160178 0.311472
Si Si8 0.017863 0.340399 0.035678
O O1 0.798291 0.235017 0.222104
O O2 0.730450 0.486189 0.221602
O O3 0.672217 0.244465 0.211851
O O4 0.883907 0.313473 0.105537
O O5 0.304317 0.782615 0.887784
O O6 0.224241 0.999619 0.975483
O O7 0.250000 0.750000 0.000000
O O8 0.090598 0.785374 0.020591
O O9 0.613430 0.195031 0.357193
O O10 0.551203 0.167268 0.467680
O O11 0.451360 0.000189 0.458848
O O12 0.187056 0.775915 0.699297
O O13 0.500000 0.779539 0.250000
O O14 0.305042 0.772872 0.389780
O O15 0.346026 0.988562 0.314073
O O16 0.250000 0.250000 0.000000
O O17 0.411166 0.284469 0.975199
O O18 0.500000 0.196266 0.250000
#
# Coordination Sequence:
#
# PCOD8143805 Si02
#       8
#     8   8   8   8   8   8   8   8
#     4  11  24  41  64  92 123 160 202 252 304 362
#     4  11  24  40  63  92 124 161 204 253 302 360
#     4  10  21  41  65  88 120 159 202 252 305 359
#     4  11  24  41  64  92 123 160 202 252 304 362
#     4  10  23  43  63  87 123 164 203 248 304 361
#     4  11  24  40  63  92 124 161 204 253 302 360
#     4  10  23  43  63  87 123 164 203 248 304 361
#     4  10  21  41  65  88 120 159 202 252 305 359
#
# _framework density 19.850296
#
# number of rings (size 3 to 8) (size 9 to 14) (size 15 to 20)
#    0.000    1.500    2.500    1.500    3.500    4.000 
#    0.000    0.000    0.000    0.000    0.000    0.000 
#    0.000    0.000    0.000    0.000    0.000    0.000 
#
# Total GULP energy -396939.136445 kJ/mol
# GULP energy per Si atom -12404.348014 kJ/mol
# Density = 1.980512 g / cm^3
# Si number density = 19.850296 Si / 1000 Ang^3
#
#
#
# Elastic Constant Matrix: (Units=GPa)
#
#
# Indices 1 2 3 4 5 6 
#
# 1 114.2364 64.3191 45.6067 0.0002 3.3706 -0.0011
# 2 64.3191 91.6492 41.2498 0.0004 6.2038 -0.0012
# 3 45.6067 41.2498 64.3122 -0.0002 7.0975 -0.0006
# 4 0.0002 0.0004 -0.0002 30.6371 0.0000 1.1134
# 5 3.3706 6.2038 7.0975 0.0000 32.6967 0.0003
# 6 -0.0011 -0.0012 -0.0006 1.1134 0.0003 40.0719
#
#
#
# Elastic Compliance Matrix: (Units=1/GPa)
#
#
# Indices 1 2 3 4 5 6 
#
# 1 0.015917 -0.008594 -0.005916 0.000000 0.001274 0.000000
# 2 -0.008594 0.020000 -0.006570 0.000000 -0.001483 0.000000
# 3 -0.005916 -0.006570 0.024336 0.000000 -0.003426 0.000000
# 4 0.000000 0.000000 0.000000 0.032673 0.000000 -0.000908
# 5 0.001274 -0.001483 -0.003426 0.000000 0.031478 0.000000
# 6 0.000000 0.000000 0.000000 -0.000908 0.000000 0.024980
#
#
# Mechanical properties :
#
#
# Convention : Reuss Voigt Hill
#
# Bulk Modulus (GPa) = 55.26775 63.61656 59.44216
# Shear Modulus (GPa) = 25.30699 28.61595 26.96147
#
# Velocity S-wave (km/s) = 3.57444 3.80094 3.68943
# Velocity P-wave (km/s) = 6.70360 7.16803 6.93970
#
# Compressibility (1/GPa) = 0.01809373
#
# Stress axis : x y z
#
# Youngs Moduli (GPa) = 62.82760 50.00077 41.09104
#
# Poissons Ratio (x) = 0.42970 0.24308
# Poissons Ratio (y) = 0.53993 0.26996
# Poissons Ratio (z) = 0.37166 0.32850
#
# Static dielectric constant tensor:
#      x y z
#    x 3.541550 0.000000 0.010480 
#    y 0.000000 3.691630 0.000000 
#    z 0.010480 0.000000 3.800320 
# 
# 
# High freq. dielectric constant tensor:
#      x y z
#    x 1.778210 0.000000 0.002700 
#    y 0.000000 1.777170 0.000000 
#    z 0.002700 0.000000 1.784650 
# 
# From -- ./inp_files/315702.got.cif
#   From: 2010.06.25/outbox.cif.g09.slc.cpg/sg15_158_cif.got.tgz:315702.got - 2010.06.28 07:06:18.
