data_PCOD8143424
_publ_section_title
;
Structure prediction by ZEFSAII (Michael W. Deem and Ramdas Pophale) SiO2 
 PCOD8143424
Probable space group: C 2/C
;
_chemical_formula_sum "Si O2"
_cell_formula_units_Z 56
_cell_length_a 26.030749
_cell_length_b 13.451651
_cell_length_c 14.438218
_cell_angle_alpha 90.000000
_cell_angle_beta 29.854011
_cell_angle_gamma 90.000000
_cell_volume 2516.654230
_symmetry_space_group_name_H-M "C 2/C"
_symmetry_group_IT_number 15
_symmetry_cell_setting 'monoclinic'
loop_
_space_group_symop_operation_xyz
x,y,z
-x,y,1/2-z
-x,-y,-z
x,-y,1/2+z
1/2+x,1/2+y,z
1/2-x,1/2+y,1/2-z
1/2-x,1/2-y,-z
1/2+x,1/2-y,1/2+z
loop_
_atom_site_type_symbol
_atom_site_label
_atom_site_fract_x
_atom_site_fract_y
_atom_site_fract_z
Si Si1 0.846430 0.538139 0.956332
Si Si2 0.000000 0.696279 0.750000
Si Si3 0.500000 0.131869 0.250000
Si Si4 0.772821 0.647025 0.913309
Si Si5 0.614691 0.551725 0.032058
Si Si6 0.278421 0.366297 0.694319
Si Si7 0.387499 0.288266 0.095055
Si Si8 0.939718 0.734461 0.532932
O O1 0.900356 0.431684 0.875974
O O2 0.771047 0.551310 0.986025
O O3 0.926389 0.625501 0.805352
O O4 0.801309 0.562946 0.127291
O O5 0.054603 0.764418 0.590494
O O6 0.471994 0.198131 0.381259
O O7 0.880321 0.651269 0.686379
O O8 0.750000 0.750000 0.000000
O O9 0.677480 0.630355 0.995085
O O10 0.500000 0.544428 0.250000
O O11 0.661471 0.440362 0.968453
O O12 0.629429 0.593469 0.901228
O O13 0.217086 0.278909 0.734118
O O14 0.358077 0.322922 0.645035
O O15 0.457303 0.273045 0.076475
#
# Coordination Sequence:
#
# PCOD8143424 Si02
#       8
#     8   4   4   8   8   8   8   8
#     4  10  21  40  67 100 136 172 234 293 345 409
#     4   9  16  36  65 102 130 154 227 296 335 394
#     4  11  28  44  65 106 148 188 235 294 353 436
#     4  12  21  43  76 106 131 183 242 306 355 406
#     4  12  26  43  69 104 144 184 239 291 356 432
#     4  11  26  45  66 104 146 179 231 295 352 439
#     4  11  22  43  74 100 137 188 232 295 358 410
#     4  12  25  46  72  99 150 190 234 291 365 425
#
# _framework density 22.251764000000001
#
# number of rings (size 3 to 8) (size 9 to 14) (size 15 to 20)
#    0.000    0.857    5.000    2.571    3.000    1.143 
#    0.000    0.714    0.000    0.000    0.000    0.000 
#    0.000    0.000    0.000    0.000    0.000    0.000 
#
# Total GULP energy -347037.749072 kJ/mol
# GULP energy per Si atom -12394.205324 kJ/mol
# Density = 2.220112 g / cm^3
# Si number density = 22.251764 Si / 1000 Ang^3
#
#
#
# Elastic Constant Matrix: (Units=GPa)
#
#
# Indices 1 2 3 4 5 6 
#
# 1 130.6184 31.6861 41.1428 0.0000 -12.2111 0.0000
# 2 31.6861 82.3756 38.8165 0.0000 -8.3907 0.0000
# 3 41.1428 38.8165 85.5000 0.0000 -5.8819 0.0000
# 4 0.0000 0.0000 0.0000 54.7314 0.0000 -17.0713
# 5 -12.2111 -8.3907 -5.8819 0.0000 37.8191 0.0000
# 6 0.0000 0.0000 0.0000 -17.0713 0.0000 43.9471
#
#
#
# Elastic Compliance Matrix: (Units=1/GPa)
#
#
# Indices 1 2 3 4 5 6 
#
# 1 0.009401 -0.001703 -0.003606 0.000000 0.002097 0.000000
# 2 -0.001703 0.015963 -0.006289 0.000000 0.002014 0.000000
# 3 -0.003606 -0.006289 0.016285 0.000000 -0.000027 0.000000
# 4 0.000000 0.000000 0.000000 0.020790 0.000000 0.008076
# 5 0.002097 0.002014 -0.000027 0.000000 0.027561 0.000000
# 6 0.000000 0.000000 0.000000 0.008076 0.000000 0.025892
#
#
# Mechanical properties :
#
#
# Convention : Reuss Voigt Hill
#
# Bulk Modulus (GPa) = 54.19574 57.97609 56.08592
# Shear Modulus (GPa) = 34.42585 39.75608 37.09097
#
# Velocity S-wave (km/s) = 3.93759 4.23146 4.08717
# Velocity P-wave (km/s) = 6.71427 7.07000 6.89443
#
# Compressibility (1/GPa) = 0.01845163
#
# Stress axis : x y z
#
# Youngs Moduli (GPa) = 106.37161 62.64368 61.40763
#
# Poissons Ratio (x) = 0.10670 0.22145
# Poissons Ratio (y) = 0.18118 0.38620
# Poissons Ratio (z) = 0.38361 0.39397
#
# Static dielectric constant tensor:
#      x y z
#    x 2.853160 0.000000 -0.149610 
#    y 0.000000 4.038480 0.000000 
#    z -0.149610 0.000000 4.017630 
# 
# 
# High freq. dielectric constant tensor:
#      x y z
#    x 1.876810 0.000000 -0.015200 
#    y 0.000000 1.868010 0.000000 
#    z -0.015200 0.000000 1.872670 
# 
# From -- ./inp_files/178385.got.cif
#   From: 2010.06.25/outbox.cif.g09.slc.cpg/sg15_90_cif.got.tgz:178385.got - 2010.06.28 07:06:18.
