data_PCOD8143733
_publ_section_title
;
Structure prediction by ZEFSAII (Michael W. Deem and Ramdas Pophale) SiO2 
 PCOD8143733
Probable space group: C 2/C
;
_chemical_formula_sum "Si O2"
_cell_formula_units_Z 60
_cell_length_a 19.817122
_cell_length_b 8.810706
_cell_length_c 18.783914
_cell_angle_alpha 90.000000
_cell_angle_beta 58.290733
_cell_angle_gamma 90.000000
_cell_volume 2790.147389
_symmetry_space_group_name_H-M "C 2/C"
_symmetry_group_IT_number 15
_symmetry_cell_setting 'monoclinic'
loop_
_space_group_symop_operation_xyz
x,y,z
-x,y,1/2-z
-x,-y,-z
x,-y,1/2+z
1/2+x,1/2+y,z
1/2-x,1/2+y,1/2-z
1/2-x,1/2-y,-z
1/2+x,1/2-y,1/2+z
loop_
_atom_site_type_symbol
_atom_site_label
_atom_site_fract_x
_atom_site_fract_y
_atom_site_fract_z
Si Si1 0.176438 0.042096 0.351985
Si Si2 0.069500 0.595498 0.793847
Si Si3 0.588253 0.935436 0.642125
Si Si4 0.711731 0.115177 0.817003
Si Si5 0.208240 0.452887 0.968405
Si Si6 0.474949 0.424929 0.648639
Si Si7 0.500000 0.663957 0.750000
Si Si8 0.653625 0.620218 0.007973
O O1 0.218384 0.205543 0.326363
O O2 0.083109 0.054284 0.386371
O O3 0.215587 0.930885 0.272978
O O4 0.188813 0.974046 0.422956
O O5 0.109623 0.544839 0.696980
O O6 0.129062 0.569236 0.825828
O O7 0.991589 0.495275 0.852198
O O8 0.046242 0.770915 0.798061
O O9 0.571823 0.765384 0.678670
O O10 0.660280 0.932907 0.546779
O O11 0.718561 0.027331 0.886684
O O12 0.158173 0.298611 0.988823
O O13 0.295480 0.419705 0.950417
O O14 0.461115 0.562255 0.710469
O O15 0.563660 0.425417 0.570665
#
# Coordination Sequence:
#
# PCOD8143733 Si02
#       8
#     8   8   8   8   8   8   4   8
#     4  11  26  46  68  93 134 169 221 268 332 381
#     4   9  20  42  67  90 129 172 218 255 322 388
#     4  10  21  41  64 100 128 175 211 269 315 388
#     4  11  25  43  66  98 125 178 214 273 323 388
#     4  11  25  43  68  96 133 171 222 265 328 381
#     4  11  23  42  68  97 129 174 214 270 323 389
#     4  10  24  36  66 100 130 164 216 268 324 378
#     4  11  25  44  67  97 131 174 215 275 320 392
#
# _framework density 21.504242000000001
#
# number of rings (size 3 to 8) (size 9 to 14) (size 15 to 20)
#    0.000    1.600    1.333    2.800    3.733    8.533 
#    0.000    0.000    0.000    0.000    0.000    0.000 
#    0.000    0.000    0.000    0.000    0.000    0.000 
#
# Total GULP energy -372175.906086 kJ/mol
# GULP energy per Si atom -12405.863536 kJ/mol
# Density = 2.145530 g / cm^3
# Si number density = 21.504242 Si / 1000 Ang^3
#
#
#
# Elastic Constant Matrix: (Units=GPa)
#
#
# Indices 1 2 3 4 5 6 
#
# 1 83.6933 45.1448 52.4143 0.0004 -0.4471 -0.0001
# 2 45.1448 130.2036 55.2190 0.0010 5.4645 0.0001
# 3 52.4143 55.2190 110.1930 -0.0003 9.1147 -0.0007
# 4 0.0004 0.0010 -0.0003 21.2869 0.0003 0.4787
# 5 -0.4471 5.4645 9.1147 0.0003 36.2498 0.0008
# 6 -0.0001 0.0001 -0.0007 0.4787 0.0008 23.1681
#
#
#
# Elastic Compliance Matrix: (Units=1/GPa)
#
#
# Indices 1 2 3 4 5 6 
#
# 1 0.018316 -0.003395 -0.007222 0.000000 0.002554 0.000000
# 2 -0.003395 0.010384 -0.003529 0.000000 -0.000720 0.000000
# 3 -0.007222 -0.003529 0.014545 0.000001 -0.003214 0.000001
# 4 0.000000 0.000000 0.000001 0.046999 0.000000 -0.000971
# 5 0.002554 -0.000720 -0.003214 0.000000 0.028535 -0.000001
# 6 0.000000 0.000000 0.000001 -0.000971 -0.000001 0.043183
#
#
# Mechanical properties :
#
#
# Convention : Reuss Voigt Hill
#
# Bulk Modulus (GPa) = 66.87924 69.96068 68.41996
# Shear Modulus (GPa) = 25.60955 27.56174 26.58565
#
# Velocity S-wave (km/s) = 3.45470 3.58395 3.51992
# Velocity P-wave (km/s) = 6.86158 7.05197 6.95743
#
# Compressibility (1/GPa) = 0.01495232
#
# Stress axis : x y z
#
# Youngs Moduli (GPa) = 54.59588 96.29832 68.75295
#
# Poissons Ratio (x) = 0.32693 0.49656
# Poissons Ratio (y) = 0.18535 0.24265
# Poissons Ratio (z) = 0.39431 0.33987
#
# Static dielectric constant tensor:
#      x y z
#    x 3.914990 0.000000 0.043040 
#    y 0.000000 4.044360 0.000000 
#    z 0.043040 0.000000 3.718370 
# 
# 
# High freq. dielectric constant tensor:
#      x y z
#    x 1.852240 0.000000 0.001510 
#    y 0.000000 1.853040 0.000000 
#    z 0.001510 0.000000 1.838800 
# 
# From -- ./inp_files/214267.got.cif
#   From: 2010.06.25/outbox.cif.g09.slc.cpg/sg15_108_cif.got.tgz:214267.got - 2010.06.28 07:06:18.
