data_PCOD8143828
_publ_section_title
;
Structure prediction by ZEFSAII (Michael W. Deem and Ramdas Pophale) SiO2 
 PCOD8143828
Probable space group: C 2/C
;
_chemical_formula_sum "Si O2"
_cell_formula_units_Z 64
_cell_length_a 10.800555
_cell_length_b 27.550248
_cell_length_c 10.449632
_cell_angle_alpha 90.000000
_cell_angle_beta 72.832409
_cell_angle_gamma 90.000000
_cell_volume 2970.834711
_symmetry_space_group_name_H-M "C 2/C"
_symmetry_group_IT_number 15
_symmetry_cell_setting 'monoclinic'
loop_
_space_group_symop_operation_xyz
x,y,z
-x,y,1/2-z
-x,-y,-z
x,-y,1/2+z
1/2+x,1/2+y,z
1/2-x,1/2+y,1/2-z
1/2-x,1/2-y,-z
1/2+x,1/2-y,1/2+z
loop_
_atom_site_type_symbol
_atom_site_label
_atom_site_fract_x
_atom_site_fract_y
_atom_site_fract_z
Si Si1 0.554369 0.943723 0.370242
Si Si2 0.125579 0.799178 0.787125
Si Si3 0.676689 0.272072 0.263151
Si Si4 0.464475 0.462340 0.900803
Si Si5 0.298497 0.854899 0.097614
Si Si6 0.686506 0.040990 0.386454
Si Si7 0.410760 0.240752 0.462937
Si Si8 0.198735 0.103979 0.362223
O O1 0.500000 0.959570 0.250000
O O2 0.625738 0.892417 0.336793
O O3 0.440034 0.936393 0.508656
O O4 0.659886 0.983736 0.379847
O O5 0.206654 0.754744 0.694859
O O6 0.213074 0.847178 0.774414
O O7 0.000000 0.813994 0.750000
O O8 0.074903 0.783133 0.939688
O O9 0.694434 0.329845 0.229797
O O10 0.543492 0.251342 0.349005
O O11 0.701628 0.250410 0.109767
O O12 0.500000 0.484228 0.750000
O O13 0.310678 0.450725 0.942336
O O14 0.549182 0.414162 0.903806
O O15 0.500000 0.500000 0.000000
O O16 0.400638 0.813988 0.018893
O O17 0.237917 0.885011 0.997184
O O18 0.709144 0.064788 0.238246
#
# Coordination Sequence:
#
# PCOD8143828 Si02
#       8
#     8   8   8   8   8   8   8   8
#     4  11  27  44  64  98 134 171 223 280 326 393
#     4  11  21  38  62  94 129 164 212 269 322 393
#     4  10  21  41  65  93 130 168 221 267 323 388
#     4  10  22  41  66  94 128 170 221 275 334 402
#     4  11  22  42  69  95 133 178 219 273 331 398
#     4  10  25  44  67  95 132 175 219 278 332 393
#     4  10  21  41  65  94 130 169 218 269 323 392
#     4  11  22  42  67  98 127 168 224 268 329 400
#
# _framework density 21.542766
#
# number of rings (size 3 to 8) (size 9 to 14) (size 15 to 20)
#    0.000    1.500    2.500    2.625    8.750    2.500 
#    4.500    0.000    2.750    0.000    0.000    0.000 
#    0.000    0.000    0.000    0.000    0.000    0.000 
#
# Total GULP energy -396474.055657 kJ/mol
# GULP energy per Si atom -12389.814239 kJ/mol
# Density = 2.149373 g / cm^3
# Si number density = 21.542766 Si / 1000 Ang^3
#
#
#
# Elastic Constant Matrix: (Units=GPa)
#
#
# Indices 1 2 3 4 5 6 
#
# 1 86.9335 38.9025 23.1196 0.0000 -3.9308 0.0000
# 2 38.9025 117.3670 25.9191 0.0000 -5.4587 0.0000
# 3 23.1196 25.9191 48.6548 0.0000 0.0119 0.0000
# 4 0.0000 0.0000 0.0000 27.0683 0.0000 9.5516
# 5 -3.9308 -5.4587 0.0119 0.0000 20.8862 0.0000
# 6 0.0000 0.0000 0.0000 9.5516 0.0000 31.9596
#
#
#
# Elastic Compliance Matrix: (Units=1/GPa)
#
#
# Indices 1 2 3 4 5 6 
#
# 1 0.014533 -0.003637 -0.004969 0.000000 0.001787 0.000000
# 2 -0.003637 0.010701 -0.003973 0.000000 0.002115 0.000000
# 3 -0.004969 -0.003973 0.025031 0.000000 -0.001988 0.000000
# 4 0.000000 0.000000 0.000000 0.041299 0.000000 -0.012343
# 5 0.001787 0.002115 -0.001988 0.000000 0.048769 0.000000
# 6 0.000000 0.000000 0.000000 -0.012343 0.000000 0.034978
#
#
# Mechanical properties :
#
#
# Convention : Reuss Voigt Hill
#
# Bulk Modulus (GPa) = 39.82805 47.64863 43.73834
# Shear Modulus (GPa) = 23.94199 26.98375 25.46287
#
# Velocity S-wave (km/s) = 3.33734 3.54300 3.44171
# Velocity P-wave (km/s) = 5.77741 6.23725 6.01173
#
# Compressibility (1/GPa) = 0.02510793
#
# Stress axis : x y z
#
# Youngs Moduli (GPa) = 68.81058 93.44495 39.95021
#
# Poissons Ratio (x) = 0.33982 0.19850
# Poissons Ratio (y) = 0.25023 0.15874
# Poissons Ratio (z) = 0.34190 0.37129
#
# Static dielectric constant tensor:
#      x y z
#    x 4.180750 0.000000 -0.075860 
#    y 0.000000 3.867980 0.000000 
#    z -0.075860 0.000000 3.898070 
# 
# 
# High freq. dielectric constant tensor:
#      x y z
#    x 1.854840 0.000000 -0.003950 
#    y 0.000000 1.845600 0.000000 
#    z -0.003950 0.000000 1.839170 
# 
# From -- ./inp_files/91248.got.cif
#   From: 2010.06.25/outbox.cif.g09.slc.cpg/sg15_46_cif.got.tgz:91248.got - 2010.06.28 07:06:18.
