data_PCOD8143411
_publ_section_title
;
Structure prediction by ZEFSAII (Michael W. Deem and Ramdas Pophale) SiO2 
 PCOD8143411
Probable space group: C 2/C
;
_chemical_formula_sum "Si O2"
_cell_formula_units_Z 56
_cell_length_a 9.045096
_cell_length_b 16.062650
_cell_length_c 21.641054
_cell_angle_alpha 90.000000
_cell_angle_beta 118.403576
_cell_angle_gamma 90.000000
_cell_volume 2765.688928
_symmetry_space_group_name_H-M "C 2/C"
_symmetry_group_IT_number 15
_symmetry_cell_setting 'monoclinic'
loop_
_space_group_symop_operation_xyz
x,y,z
-x,y,1/2-z
-x,-y,-z
x,-y,1/2+z
1/2+x,1/2+y,z
1/2-x,1/2+y,1/2-z
1/2-x,1/2-y,-z
1/2+x,1/2-y,1/2+z
loop_
_atom_site_type_symbol
_atom_site_label
_atom_site_fract_x
_atom_site_fract_y
_atom_site_fract_z
Si Si1 0.000000 0.642939 0.250000
Si Si2 0.000000 0.927633 0.250000
Si Si3 0.780800 0.211854 0.664916
Si Si4 0.119721 0.575453 0.043205
Si Si5 0.006409 0.635295 0.679250
Si Si6 0.586108 0.236526 0.506453
Si Si7 0.783248 0.166658 0.969625
Si Si8 0.318542 0.024999 0.310725
O O1 0.124144 0.700530 0.314763
O O2 0.112300 0.591414 0.224454
O O3 0.913433 0.864770 0.182735
O O4 0.856161 0.986721 0.250948
O O5 0.664304 0.198218 0.702157
O O6 0.641066 0.209552 0.585012
O O7 0.217550 0.558273 0.127023
O O8 0.016698 0.658479 0.039827
O O9 0.249798 0.591293 0.011664
O O10 0.000000 0.500000 0.000000
O O11 0.831936 0.664826 0.614537
O O12 0.000000 0.620590 0.750000
O O13 0.043660 0.547076 0.654268
O O14 0.750000 0.250000 0.500000
O O15 0.477037 0.322916 0.485510
O O16 0.750000 0.250000 0.000000
#
# Coordination Sequence:
#
# PCOD8143411 Si02
#       8
#     4   4   8   8   8   8   8   8
#     4  11  24  40  60  93 140 152 212 283 320 370
#     4   9  22  40  62  85 126 172 216 243 324 404
#     4  10  21  42  62  89 126 174 210 261 320 388
#     4  11  20  39  67  87 126 172 214 266 324 382
#     4  11  21  40  69  93 128 172 220 262 327 401
#     4  11  23  41  65  94 130 167 219 269 324 389
#     4  10  21  40  66  96 127 172 225 264 318 403
#     4  11  22  40  62  96 126 173 210 271 329 388
#
# _framework density 20.24812
#
# number of rings (size 3 to 8) (size 9 to 14) (size 15 to 20)
#    0.000    1.429    5.000    1.714    0.000    6.857 
#    1.286    0.714    0.000    0.000    0.000    0.000 
#    0.000    0.000    0.000    0.000    0.000    0.000 
#
# Total GULP energy -346948.079329 kJ/mol
# GULP energy per Si atom -12391.002833 kJ/mol
# Density = 2.020203 g / cm^3
# Si number density = 20.248120 Si / 1000 Ang^3
#
#
#
# Elastic Constant Matrix: (Units=GPa)
#
#
# Indices 1 2 3 4 5 6 
#
# 1 142.4969 59.2053 43.8089 0.0000 7.4042 0.0000
# 2 59.2053 105.7543 33.5489 0.0000 6.8538 0.0000
# 3 43.8089 33.5489 115.7260 0.0000 7.4034 0.0000
# 4 0.0000 0.0000 0.0000 23.8039 0.0000 2.8694
# 5 7.4042 6.8538 7.4034 0.0000 29.3668 0.0000
# 6 0.0000 0.0000 0.0000 2.8694 0.0000 43.4853
#
#
#
# Elastic Compliance Matrix: (Units=1/GPa)
#
#
# Indices 1 2 3 4 5 6 
#
# 1 0.009690 -0.004654 -0.002269 0.000000 -0.000785 0.000000
# 2 -0.004654 0.012733 -0.001844 0.000000 -0.001333 0.000000
# 3 -0.002269 -0.001844 0.010134 0.000000 -0.001552 0.000000
# 4 0.000000 0.000000 0.000000 0.042347 0.000000 -0.002794
# 5 -0.000785 -0.001333 -0.001552 0.000000 0.034953 0.000000
# 6 0.000000 0.000000 0.000000 -0.002794 0.000000 0.023181
#
#
# Mechanical properties :
#
#
# Convention : Reuss Voigt Hill
#
# Bulk Modulus (GPa) = 66.56625 70.78930 68.67777
# Shear Modulus (GPa) = 32.13833 34.49214 33.31523
#
# Velocity S-wave (km/s) = 3.98832 4.13179 4.06069
# Velocity P-wave (km/s) = 7.35905 7.60257 7.48180
#
# Compressibility (1/GPa) = 0.01502263
#
# Stress axis : x y z
#
# Youngs Moduli (GPa) = 103.20292 78.53707 98.67934
#
# Poissons Ratio (x) = 0.36552 0.22387
# Poissons Ratio (y) = 0.48031 0.18198
# Poissons Ratio (z) = 0.23413 0.14483
#
# Static dielectric constant tensor:
#      x y z
#    x 4.456600 0.000000 0.148200 
#    y 0.000000 3.733680 0.000000 
#    z 0.148200 0.000000 3.473850 
# 
# 
# High freq. dielectric constant tensor:
#      x y z
#    x 1.791350 0.000000 0.007200 
#    y 0.000000 1.788920 0.000000 
#    z 0.007200 0.000000 1.787220 
# 
# From -- ./inp_files/232634.got.cif
#   From: 2010.06.25/outbox.cif.g09.slc.cpg/sg15_117_cif.got.tgz:232634.got - 2010.06.28 07:06:18.
