data_PCOD8143574
_publ_section_title
;
Structure prediction by ZEFSAII (Michael W. Deem and Ramdas Pophale) SiO2 
 PCOD8143574
Probable space group: C 2/C
;
_chemical_formula_sum "Si O2"
_cell_formula_units_Z 40
_cell_length_a 24.839656
_cell_length_b 15.231095
_cell_length_c 14.045754
_cell_angle_alpha 90.000000
_cell_angle_beta 20.125874
_cell_angle_gamma 90.000000
_cell_volume 1828.461896
_symmetry_space_group_name_H-M "C 2/C"
_symmetry_group_IT_number 15
_symmetry_cell_setting 'monoclinic'
loop_
_space_group_symop_operation_xyz
x,y,z
-x,y,1/2-z
-x,-y,-z
x,-y,1/2+z
1/2+x,1/2+y,z
1/2-x,1/2+y,1/2-z
1/2-x,1/2-y,-z
1/2+x,1/2-y,1/2+z
loop_
_atom_site_type_symbol
_atom_site_label
_atom_site_fract_x
_atom_site_fract_y
_atom_site_fract_z
Si Si1 0.972017 0.083816 0.408037
Si Si2 0.848399 0.338219 0.827169
Si Si3 0.500000 0.222071 0.250000
Si Si4 0.662480 0.221168 0.347332
Si Si5 0.500000 0.098157 0.750000
Si Si6 0.272038 0.492132 0.892579
O O1 0.000000 0.060178 0.250000
O O2 0.901369 0.180896 0.533935
O O3 0.853047 0.014799 0.655996
O O4 0.131975 0.079033 0.204322
O O5 0.923081 0.330890 0.597986
O O6 0.980119 0.340474 0.690717
O O7 0.750000 0.250000 0.000000
O O8 0.736268 0.421706 0.026968
O O9 0.348386 0.281615 0.520011
O O10 0.631956 0.162148 0.488979
O O11 0.595187 0.040402 0.667943
#
# Coordination Sequence:
#
# PCOD8143574 Si02
#       6
#     8   8   4   8   4   8
#     4  11  25  47  71 102 148 186 232 292 356 415
#     4  10  21  43  68  99 130 186 234 277 350 419
#     4  10  21  40  74  93 140 182 238 281 336 436
#     4  11  25  44  72 104 136 193 233 286 355 421
#     4  12  29  46  68 111 144 178 242 293 360 406
#     4  11  26  45  69 107 144 185 236 294 348 426
#
# _framework density 21.876311000000001
#
# number of rings (size 3 to 8) (size 9 to 14) (size 15 to 20)
#    0.000    1.200    5.000    0.600    5.600    4.800 
#    1.800    0.000    0.000    0.000    0.000    0.000 
#    0.000    0.000    0.000    0.000    0.000    0.000 
#
# Total GULP energy -247873.237744 kJ/mol
# GULP energy per Si atom -12393.661887 kJ/mol
# Density = 2.182652 g / cm^3
# Si number density = 21.876311 Si / 1000 Ang^3
#
#
#
# Elastic Constant Matrix: (Units=GPa)
#
#
# Indices 1 2 3 4 5 6 
#
# 1 125.5822 35.9102 47.3176 0.0003 5.5343 -0.0004
# 2 35.9102 100.9966 46.9610 0.0002 -3.6853 -0.0005
# 3 47.3176 46.9610 97.9481 -0.0001 -0.7407 -0.0003
# 4 0.0003 0.0002 -0.0001 27.4535 -0.0002 3.6320
# 5 5.5343 -3.6853 -0.7407 -0.0002 48.6853 0.0004
# 6 -0.0004 -0.0005 -0.0003 3.6320 0.0004 29.3203
#
#
#
# Elastic Compliance Matrix: (Units=1/GPa)
#
#
# Indices 1 2 3 4 5 6 
#
# 1 0.010036 -0.001748 -0.004021 0.000000 -0.001334 0.000000
# 2 -0.001748 0.013083 -0.005420 0.000000 0.001107 0.000000
# 3 -0.004021 -0.005420 0.014753 0.000000 0.000271 0.000000
# 4 0.000000 0.000000 0.000000 0.037032 0.000000 -0.004587
# 5 -0.001334 0.001107 0.000271 0.000000 0.020780 0.000000
# 6 0.000000 0.000000 0.000000 -0.004587 0.000000 0.034674
#
#
# Mechanical properties :
#
#
# Convention : Reuss Voigt Hill
#
# Bulk Modulus (GPa) = 64.53547 64.98938 64.76242
# Shear Modulus (GPa) = 31.66553 34.04768 32.85661
#
# Velocity S-wave (km/s) = 3.80870 3.94937 3.87967
# Velocity P-wave (km/s) = 6.99327 7.11118 7.05247
#
# Compressibility (1/GPa) = 0.01549536
#
# Stress axis : x y z
#
# Youngs Moduli (GPa) = 99.63753 76.43303 67.78505
#
# Poissons Ratio (x) = 0.13358 0.27254
# Poissons Ratio (y) = 0.17414 0.36740
# Poissons Ratio (z) = 0.40060 0.41428
#
# Static dielectric constant tensor:
#      x y z
#    x 2.839430 0.000000 -0.483350 
#    y 0.000000 3.758970 0.000000 
#    z -0.483350 0.000000 3.612190 
# 
# 
# High freq. dielectric constant tensor:
#      x y z
#    x 1.873570 0.000000 0.006940 
#    y 0.000000 1.855440 0.000000 
#    z 0.006940 0.000000 1.847980 
# 
# From -- ./inp_files/178311.got.cif
#   From: 2010.06.25/outbox.cif.g09.slc.cpg/sg15_90_cif.got.tgz:178311.got - 2010.06.28 07:06:18.
