data_PCOD8143008
_publ_section_title
;
Structure prediction by ZEFSAII (Michael W. Deem and Ramdas Pophale) SiO2 
 PCOD8143008
Probable space group: C 2/C
;
_chemical_formula_sum "Si O2"
_cell_formula_units_Z 44
_cell_length_a 10.461957
_cell_length_b 16.695919
_cell_length_c 19.827205
_cell_angle_alpha 90.000000
_cell_angle_beta 141.693664
_cell_angle_gamma 90.000000
_cell_volume 2146.754790
_symmetry_space_group_name_H-M "C 2/C"
_symmetry_group_IT_number 15
_symmetry_cell_setting 'monoclinic'
loop_
_space_group_symop_operation_xyz
x,y,z
-x,y,1/2-z
-x,-y,-z
x,-y,1/2+z
1/2+x,1/2+y,z
1/2-x,1/2+y,1/2-z
1/2-x,1/2-y,-z
1/2+x,1/2-y,1/2+z
loop_
_atom_site_type_symbol
_atom_site_label
_atom_site_fract_x
_atom_site_fract_y
_atom_site_fract_z
Si Si1 0.236268 0.663058 0.350436
Si Si2 0.962889 0.140698 0.918151
Si Si3 0.526972 0.534180 0.405753
Si Si4 0.500000 0.530605 0.750000
Si Si5 0.256082 0.833813 0.298262
Si Si6 0.877360 0.602671 0.635232
O O1 0.310233 0.656194 0.458866
O O2 0.374081 0.607971 0.358268
O O3 0.270227 0.755891 0.348949
O O4 0.000000 0.635900 0.250000
O O5 0.927559 0.183997 0.832204
O O6 0.788447 0.165381 0.901079
O O7 0.922896 0.045614 0.891550
O O8 0.552996 0.526182 0.335588
O O9 0.750701 0.541804 0.534646
O O10 0.302528 0.588069 0.681989
O O11 0.469798 0.847720 0.348666
O O12 0.000000 0.562006 0.750000
#
# Coordination Sequence:
#
# PCOD8143008 Si02
#       6
#     8   8   8   4   8   8
#     4  11  22  39  63  88 113 159 208 244 289 358
#     4   9  21  38  61  87 119 151 199 254 288 348
#     4  10  22  39  60  91 120 152 199 254 288 358
#     4  10  22  42  54  86 138 150 188 250 306 342
#     4  10  21  40  59  83 125 161 189 240 313 349
#     4   9  18  36  62  85 113 158 198 237 300 343
#
# _framework density 20.496054000000001
#
# number of rings (size 3 to 8) (size 9 to 14) (size 15 to 20)
#    0.000    2.182    0.909    2.182    0.000   13.091 
#    8.182    0.000    0.000    0.000    0.000    0.000 
#    0.000    0.000    0.000    0.000    0.000    0.000 
#
# Total GULP energy -272599.575578 kJ/mol
# GULP energy per Si atom -12390.889799 kJ/mol
# Density = 2.044940 g / cm^3
# Si number density = 20.496054 Si / 1000 Ang^3
#
#
#
# Elastic Constant Matrix: (Units=GPa)
#
#
# Indices 1 2 3 4 5 6 
#
# 1 87.9161 19.2503 53.7261 -0.0001 -7.1272 0.0000
# 2 19.2503 59.6218 27.4332 -0.0002 -10.0423 0.0000
# 3 53.7261 27.4332 142.7733 -0.0005 -6.0283 0.0000
# 4 -0.0001 -0.0002 -0.0005 23.8696 0.0000 1.4322
# 5 -7.1272 -10.0423 -6.0283 0.0000 36.5652 0.0000
# 6 0.0000 0.0000 0.0000 1.4322 0.0000 20.9130
#
#
#
# Elastic Compliance Matrix: (Units=1/GPa)
#
#
# Indices 1 2 3 4 5 6 
#
# 1 0.015174 -0.002250 -0.005215 0.000000 0.001480 0.000000
# 2 -0.002250 0.019499 -0.002711 0.000000 0.004470 0.000000
# 3 -0.005215 -0.002711 0.009479 0.000000 -0.000198 0.000000
# 4 0.000000 0.000000 0.000000 0.042067 0.000000 -0.002881
# 5 0.001480 0.004470 -0.000198 0.000000 0.028832 0.000000
# 6 0.000000 0.000000 0.000000 -0.002881 0.000000 0.048014
#
#
# Mechanical properties :
#
#
# Convention : Reuss Voigt Hill
#
# Bulk Modulus (GPa) = 42.01836 54.57004 48.29420
# Shear Modulus (GPa) = 26.12976 28.92967 27.52972
#
# Velocity S-wave (km/s) = 3.57440 3.76104 3.66891
# Velocity P-wave (km/s) = 6.13028 6.74855 6.44683
#
# Compressibility (1/GPa) = 0.02379912
#
# Stress axis : x y z
#
# Youngs Moduli (GPa) = 65.90101 51.28392 105.49446
#
# Poissons Ratio (x) = 0.11541 0.55018
# Poissons Ratio (y) = 0.14831 0.28601
# Poissons Ratio (z) = 0.34369 0.13904
#
# Static dielectric constant tensor:
#      x y z
#    x 3.815860 0.000000 -0.102410 
#    y 0.000000 3.333510 0.000000 
#    z -0.102410 0.000000 4.065210 
# 
# 
# High freq. dielectric constant tensor:
#      x y z
#    x 1.806070 0.000000 -0.004020 
#    y 0.000000 1.767850 0.000000 
#    z -0.004020 0.000000 1.813940 
# 
# From -- ./inp_files/270488.got.cif
#   From: 2010.06.25/outbox.cif.g09.slc.cpg/sg15_136_cif.got.tgz:270488.got - 2010.06.28 07:06:18.
