data_PCOD8143557
_publ_section_title
;
Structure prediction by ZEFSAII (Michael W. Deem and Ramdas Pophale) SiO2 
 PCOD8143557
Probable space group: C 2/C
;
_chemical_formula_sum "Si O2"
_cell_formula_units_Z 40
_cell_length_a 8.679801
_cell_length_b 12.023284
_cell_length_c 16.995372
_cell_angle_alpha 90.000000
_cell_angle_beta 94.075795
_cell_angle_gamma 90.000000
_cell_volume 1769.146440
_symmetry_space_group_name_H-M "C 2/C"
_symmetry_group_IT_number 15
_symmetry_cell_setting 'monoclinic'
loop_
_space_group_symop_operation_xyz
x,y,z
-x,y,1/2-z
-x,-y,-z
x,-y,1/2+z
1/2+x,1/2+y,z
1/2-x,1/2+y,1/2-z
1/2-x,1/2-y,-z
1/2+x,1/2-y,1/2+z
loop_
_atom_site_type_symbol
_atom_site_label
_atom_site_fract_x
_atom_site_fract_y
_atom_site_fract_z
Si Si1 0.279947 0.449703 0.894110
Si Si2 0.413479 0.770595 0.359697
Si Si3 0.956795 0.623092 0.335457
Si Si4 0.157841 0.532005 0.546203
Si Si5 0.737745 0.175678 0.810965
O O1 0.410283 0.361597 0.874541
O O2 0.291495 0.550368 0.832543
O O3 0.119341 0.379759 0.886576
O O4 0.294702 0.489211 0.986634
O O5 0.340760 0.838544 0.429348
O O6 0.317412 0.806612 0.279650
O O7 0.594099 0.799699 0.362492
O O8 0.830831 0.542591 0.373546
O O9 0.885618 0.746366 0.332005
O O10 0.000000 0.577934 0.250000
O O11 0.000000 0.500000 0.500000
#
# Coordination Sequence:
#
# PCOD8143557 Si02
#       5
#     8   8   8   8   8
#     4  11  23  44  64  95 130 165 214 263 318 379
#     4  11  22  41  67  92 130 168 214 262 316 375
#     4  11  21  43  66  91 127 171 211 262 316 377
#     4  10  21  40  71  89 127 176 205 257 327 375
#     4  11  24  40  65  95 126 171 213 264 314 374
#
# _framework density 22.609770999999999
#
# number of rings (size 3 to 8) (size 9 to 14) (size 15 to 20)
#    0.000    1.200    6.000    1.800    0.000    0.800 
#    7.200    1.000    0.000    0.000    0.000    0.000 
#    0.000    0.000    0.000    0.000    0.000    0.000 
#
# Total GULP energy -247868.538525 kJ/mol
# GULP energy per Si atom -12393.426926 kJ/mol
# Density = 2.255831 g / cm^3
# Si number density = 22.609771 Si / 1000 Ang^3
#
#
#
# Elastic Constant Matrix: (Units=GPa)
#
#
# Indices 1 2 3 4 5 6 
#
# 1 23.7213 25.9684 0.7195 0.0000 4.8828 0.0000
# 2 25.9684 161.6799 50.1756 0.0000 -4.6875 0.0000
# 3 0.7195 50.1756 120.1287 0.0000 -26.3807 0.0000
# 4 0.0000 0.0000 0.0000 29.7550 0.0000 -8.3165
# 5 4.8828 -4.6875 -26.3807 0.0000 17.0814 0.0000
# 6 0.0000 0.0000 0.0000 -8.3165 0.0000 32.3668
#
#
#
# Elastic Compliance Matrix: (Units=1/GPa)
#
#
# Indices 1 2 3 4 5 6 
#
# 1 0.056616 -0.009427 -0.000793 0.000000 -0.019995 0.000000
# 2 -0.009427 0.008860 -0.003811 0.000000 -0.000759 0.000000
# 3 -0.000793 -0.003811 0.014740 0.000000 0.021946 0.000000
# 4 0.000000 0.000000 0.000000 0.036208 0.000000 0.009303
# 5 -0.019995 -0.000759 0.021946 0.000000 0.097944 0.000000
# 6 0.000000 0.000000 0.000000 0.009303 0.000000 0.033286
#
#
# Mechanical properties :
#
#
# Convention : Reuss Voigt Hill
#
# Bulk Modulus (GPa) = 19.17361 51.02856 35.10109
# Shear Modulus (GPa) = 17.05897 31.08506 24.07202
#
# Velocity S-wave (km/s) = 2.74979 3.71192 3.26647
# Velocity P-wave (km/s) = 4.31050 6.40230 5.45755
#
# Compressibility (1/GPa) = 0.05215502
#
# Stress axis : x y z
#
# Youngs Moduli (GPa) = 17.66276 112.86816 67.84141
#
# Poissons Ratio (x) = 1.06404 0.05377
# Poissons Ratio (y) = 0.16651 0.25854
# Poissons Ratio (z) = 0.01400 0.43013
#
# Static dielectric constant tensor:
#      x y z
#    x 3.823280 0.000000 -0.399920 
#    y 0.000000 4.088010 0.000000 
#    z -0.399920 0.000000 4.896380 
# 
# 
# High freq. dielectric constant tensor:
#      x y z
#    x 1.854450 0.000000 -0.016020 
#    y 0.000000 1.892760 0.000000 
#    z -0.016020 0.000000 1.906200 
# 
# From -- ./inp_files/187888.got.cif
#   From: 2010.06.25/outbox.cif.g09.slc.cpg/sg15_94_cif.got.tgz:187888.got - 2010.06.28 07:06:18.
