data_PCOD8143520
_publ_section_title
;
Structure prediction by ZEFSAII (Michael W. Deem and Ramdas Pophale) SiO2 
 PCOD8143520
Probable space group: C 2/C
;
_chemical_formula_sum "Si O2"
_cell_formula_units_Z 60
_cell_length_a 22.231194
_cell_length_b 8.264610
_cell_length_c 29.747820
_cell_angle_alpha 90.000000
_cell_angle_beta 150.332482
_cell_angle_gamma 90.000000
_cell_volume 2705.302250
_symmetry_space_group_name_H-M "C 2/C"
_symmetry_group_IT_number 15
_symmetry_cell_setting 'monoclinic'
loop_
_space_group_symop_operation_xyz
x,y,z
-x,y,1/2-z
-x,-y,-z
x,-y,1/2+z
1/2+x,1/2+y,z
1/2-x,1/2+y,1/2-z
1/2-x,1/2-y,-z
1/2+x,1/2-y,1/2+z
loop_
_atom_site_type_symbol
_atom_site_label
_atom_site_fract_x
_atom_site_fract_y
_atom_site_fract_z
Si Si1 0.951036 0.427969 0.138378
Si Si2 0.305461 0.599817 0.643003
Si Si3 0.543456 0.830703 0.009311
Si Si4 0.537376 0.422703 0.679747
Si Si5 0.608852 0.064884 0.164702
Si Si6 0.145927 0.211069 0.159248
Si Si7 0.000000 0.359545 0.750000
Si Si8 0.209084 0.066346 0.964757
O O1 0.987353 0.242889 0.167653
O O2 0.019324 0.528145 0.220124
O O3 0.994893 0.508066 0.120300
O O4 0.806327 0.446850 0.050980
O O5 0.176877 0.661202 0.575788
O O6 0.368023 0.496696 0.723180
O O7 0.381023 0.750728 0.673261
O O8 0.291496 0.502045 0.587412
O O9 0.553284 0.695615 0.055920
O O10 0.442880 0.800003 0.904750
O O11 0.500000 0.000000 0.000000
O O12 0.597756 0.389031 0.670654
O O13 0.424299 0.544773 0.599803
O O14 0.718118 0.147223 0.263765
O O15 0.662216 0.902628 0.176949
O O16 0.250000 0.250000 0.000000
#
# Coordination Sequence:
#
# PCOD8143520 Si02
#       8
#     8   8   8   8   8   8   4   8
#     4  11  24  41  63  98 136 168 224 283 331 398
#     4  12  22  42  70  94 130 183 226 269 341 411
#     4  10  21  40  69  94 125 175 223 271 336 407
#     4  11  24  42  65  98 137 177 217 278 340 397
#     4  10  21  42  65  93 133 173 221 278 338 396
#     4  10  22  41  66  99 130 175 223 276 335 401
#     4  12  24  40  64  98 130 176 224 270 334 404
#     4  12  23  43  67  98 130 176 225 276 334 400
#
# _framework density 22.178667000000001
#
# number of rings (size 3 to 8) (size 9 to 14) (size 15 to 20)
#    0.000    1.067    4.000    2.800    1.867    1.067 
#    0.000    2.000    0.000    0.000    0.000    0.000 
#    0.000    0.000    0.000    0.000    0.000    0.000 
#
# Total GULP energy -371742.615898 kJ/mol
# GULP energy per Si atom -12391.420530 kJ/mol
# Density = 2.212819 g / cm^3
# Si number density = 22.178667 Si / 1000 Ang^3
#
#
#
# Elastic Constant Matrix: (Units=GPa)
#
#
# Indices 1 2 3 4 5 6 
#
# 1 76.3197 22.5997 28.6717 -0.0001 2.3797 0.0001
# 2 22.5997 77.3059 38.0714 0.0002 -3.2291 0.0016
# 3 28.6717 38.0714 91.5085 -0.0003 -3.9134 0.0009
# 4 -0.0001 0.0002 -0.0003 59.6913 0.0000 16.6333
# 5 2.3797 -3.2291 -3.9134 0.0000 43.3481 0.0000
# 6 0.0001 0.0016 0.0009 16.6333 0.0000 52.2725
#
#
#
# Elastic Compliance Matrix: (Units=1/GPa)
#
#
# Indices 1 2 3 4 5 6 
#
# 1 0.015353 -0.002701 -0.003746 0.000000 -0.001382 0.000000
# 2 -0.002701 0.016760 -0.006090 0.000000 0.000847 0.000000
# 3 -0.003746 -0.006090 0.014681 0.000000 0.001077 0.000000
# 4 0.000000 0.000000 0.000000 0.018383 0.000000 -0.005849
# 5 -0.001382 0.000847 0.001077 0.000000 0.023305 0.000000
# 6 0.000000 0.000000 0.000000 -0.005849 0.000000 0.020992
#
#
# Mechanical properties :
#
#
# Convention : Reuss Voigt Hill
#
# Bulk Modulus (GPa) = 46.04088 47.09110 46.56599
# Shear Modulus (GPa) = 35.26366 41.44846 38.35606
#
# Velocity S-wave (km/s) = 3.99178 4.32770 4.16313
# Velocity P-wave (km/s) = 6.48459 6.80079 6.64457
#
# Compressibility (1/GPa) = 0.02171983
#
# Stress axis : x y z
#
# Youngs Moduli (GPa) = 65.13395 59.66566 68.11329
#
# Poissons Ratio (x) = 0.16118 0.25513
# Poissons Ratio (y) = 0.17595 0.41483
# Poissons Ratio (z) = 0.24397 0.36338
#
# Static dielectric constant tensor:
#      x y z
#    x -3.141140 0.000120 -1.636380 
#    y 0.000120 3.648820 0.000020 
#    z -1.636380 0.000020 4.044110 
# 
# 
# High freq. dielectric constant tensor:
#      x y z
#    x 1.880050 0.000000 -0.001100 
#    y 0.000000 1.852090 0.000000 
#    z -0.001100 0.000000 1.887970 
# 
# From -- ./inp_files/318513.got.cif
#   From: 2010.06.25/outbox.cif.g09.slc.cpg/sg15_160_cif.got.tgz:318513.got - 2010.06.28 07:06:18.
