data_PCOD8143835
_publ_section_title
;
Structure prediction by ZEFSAII (Michael W. Deem and Ramdas Pophale) SiO2 
 PCOD8143835
Probable space group: C 2/C
;
_chemical_formula_sum "Si O2"
_cell_formula_units_Z 48
_cell_length_a 14.724480
_cell_length_b 11.421613
_cell_length_c 21.783302
_cell_angle_alpha 90.000000
_cell_angle_beta 41.240413
_cell_angle_gamma 90.000000
_cell_volume 2415.024259
_symmetry_space_group_name_H-M "C 2/C"
_symmetry_group_IT_number 15
_symmetry_cell_setting 'monoclinic'
loop_
_space_group_symop_operation_xyz
x,y,z
-x,y,1/2-z
-x,-y,-z
x,-y,1/2+z
1/2+x,1/2+y,z
1/2-x,1/2+y,1/2-z
1/2-x,1/2-y,-z
1/2+x,1/2-y,1/2+z
loop_
_atom_site_type_symbol
_atom_site_label
_atom_site_fract_x
_atom_site_fract_y
_atom_site_fract_z
Si Si1 0.339748 0.999495 0.586203
Si Si2 0.113031 0.981670 0.111347
Si Si3 0.000000 0.818189 0.750000
Si Si4 0.721641 0.749309 0.345669
Si Si5 0.500000 0.717231 0.750000
Si Si6 0.519589 0.608105 0.532822
Si Si7 0.247241 0.736438 0.309063
O O1 0.305932 0.888702 0.643982
O O2 0.500000 0.000000 0.500000
O O3 0.270881 0.997464 0.553298
O O4 0.278492 0.110134 0.652980
O O5 0.051467 0.862546 0.168746
O O6 0.105053 0.954486 0.043668
O O7 0.030740 0.096976 0.175939
O O8 0.874412 0.734316 0.791275
O O9 0.607622 0.703992 0.451238
O O10 0.694045 0.716903 0.289306
O O11 0.873264 0.703175 0.289660
O O12 0.500000 0.500000 0.500000
O O13 0.373070 0.665540 0.626906
#
# Coordination Sequence:
#
# PCOD8143835 Si02
#       7
#     8   8   4   8   4   8   8
#     4  10  21  41  65  95 119 170 211 251 319 377
#     4   9  19  38  63  88 128 159 209 255 310 384
#     4   9  20  42  67  84 120 188 205 243 322 384
#     4  11  23  38  66  93 126 163 207 261 316 370
#     4   9  18  36  63  90 116 164 201 249 326 360
#     4  12  25  40  61  95 125 164 209 269 318 361
#     4  11  23  42  64  89 130 163 214 262 307 390
#
# _framework density 19.875575000000001
#
# number of rings (size 3 to 8) (size 9 to 14) (size 15 to 20)
#    0.000    1.667    3.333    2.000    2.333    4.000 
#    3.000    3.333    0.000    0.000    0.000    0.000 
#    0.000    0.000    0.000    0.000    0.000    0.000 
#
# Total GULP energy -297369.261664 kJ/mol
# GULP energy per Si atom -12390.385903 kJ/mol
# Density = 1.983034 g / cm^3
# Si number density = 19.875575 Si / 1000 Ang^3
#
#
#
# Elastic Constant Matrix: (Units=GPa)
#
#
# Indices 1 2 3 4 5 6 
#
# 1 149.7090 42.4163 63.9575 0.0000 0.7517 0.0000
# 2 42.4163 62.7875 14.3477 0.0000 5.7773 0.0000
# 3 63.9575 14.3477 90.4253 0.0000 1.0886 0.0000
# 4 0.0000 0.0000 0.0000 15.5855 0.0000 3.3223
# 5 0.7517 5.7773 1.0886 0.0000 46.5615 0.0000
# 6 0.0000 0.0000 0.0000 3.3223 0.0000 27.8122
#
#
#
# Elastic Compliance Matrix: (Units=1/GPa)
#
#
# Indices 1 2 3 4 5 6 
#
# 1 0.011485 -0.006194 -0.007150 0.000000 0.000750 0.000000
# 2 -0.006194 0.020053 0.001228 0.000000 -0.002417 0.000000
# 3 -0.007150 0.001228 0.015926 0.000000 -0.000409 0.000000
# 4 0.000000 0.000000 0.000000 0.065839 0.000000 -0.007865
# 5 0.000750 -0.002417 -0.000409 0.000000 0.021774 0.000000
# 6 0.000000 0.000000 0.000000 -0.007865 0.000000 0.036895
#
#
# Mechanical properties :
#
#
# Convention : Reuss Voigt Hill
#
# Bulk Modulus (GPa) = 43.04200 60.48498 51.76349
# Shear Modulus (GPa) = 24.51616 30.13854 27.32735
#
# Velocity S-wave (km/s) = 3.51591 3.89827 3.71202
# Velocity P-wave (km/s) = 6.17939 7.12460 6.66876
#
# Compressibility (1/GPa) = 0.02323312
#
# Stress axis : x y z
#
# Youngs Moduli (GPa) = 87.06821 49.86814 62.79110
#
# Poissons Ratio (x) = 0.30889 0.44894
# Poissons Ratio (y) = 0.53931 -0.07713
# Poissons Ratio (z) = 0.62251 -0.06126
#
# Static dielectric constant tensor:
#      x y z
#    x 4.244690 0.000000 -0.499860 
#    y 0.000000 3.385580 0.000000 
#    z -0.499860 0.000000 3.526370 
# 
# 
# High freq. dielectric constant tensor:
#      x y z
#    x 1.795500 0.000000 -0.008410 
#    y 0.000000 1.755260 0.000000 
#    z -0.008410 0.000000 1.767630 
# 
# From -- ./inp_files/151993.got.cif
#   From: 2010.06.25/outbox.cif.g09.slc.cpg/sg15_76_cif.got.tgz:151993.got - 2010.06.28 07:06:18.
