data_PCOD8143702
_publ_section_title
;
Structure prediction by ZEFSAII (Michael W. Deem and Ramdas Pophale) SiO2 
 PCOD8143702
Probable space group: C 2/C
;
_chemical_formula_sum "Si O2"
_cell_formula_units_Z 60
_cell_length_a 10.045099
_cell_length_b 19.478683
_cell_length_c 28.133980
_cell_angle_alpha 90.000000
_cell_angle_beta 151.150240
_cell_angle_gamma 90.000000
_cell_volume 2656.167103
_symmetry_space_group_name_H-M "C 2/C"
_symmetry_group_IT_number 15
_symmetry_cell_setting 'monoclinic'
loop_
_space_group_symop_operation_xyz
x,y,z
-x,y,1/2-z
-x,-y,-z
x,-y,1/2+z
1/2+x,1/2+y,z
1/2-x,1/2+y,1/2-z
1/2-x,1/2-y,-z
1/2+x,1/2-y,1/2+z
loop_
_atom_site_type_symbol
_atom_site_label
_atom_site_fract_x
_atom_site_fract_y
_atom_site_fract_z
Si Si1 0.167754 0.759812 0.528917
Si Si2 0.966983 0.269678 0.184782
Si Si3 0.000000 0.485386 0.750000
Si Si4 0.994611 0.612167 0.625004
Si Si5 0.859264 0.625299 0.934232
Si Si6 0.478488 0.367740 0.645655
Si Si7 0.626359 0.380258 0.584793
Si Si8 0.383189 0.480445 0.295198
O O1 0.250000 0.750000 0.500000
O O2 0.295812 0.692653 0.594250
O O3 0.841088 0.761919 0.430547
O O4 0.262271 0.826685 0.589225
O O5 0.096568 0.332141 0.195647
O O6 0.100907 0.195387 0.215106
O O7 0.000000 0.287171 0.250000
O O8 0.150099 0.440384 0.838253
O O9 0.228434 0.534323 0.797129
O O10 0.670128 0.592701 0.527689
O O11 0.080007 0.641565 0.601260
O O12 0.183099 0.544834 0.690680
O O13 0.678630 0.557200 0.887263
O O14 0.153309 0.618357 0.051834
O O15 0.563820 0.350055 0.617949
O O16 0.606028 0.437604 0.705601
#
# Coordination Sequence:
#
# PCOD8143702 Si02
#       8
#     8   8   4   8   8   8   8   8
#     4  10  22  38  61  93 127 161 210 265 315 372
#     4  10  22  38  62  92 125 168 203 263 324 368
#     4  10  24  42  64  90 126 172 210 266 310 388
#     4  10  22  39  65  91 127 164 211 266 321 375
#     4  10  21  41  63  91 124 166 214 264 318 376
#     4   9  20  42  66  89 126 170 216 263 312 381
#     4   9  20  43  64  90 124 167 216 257 319 377
#     4  11  23  38  61  95 126 165 211 258 319 377
#
# _framework density 22.588939
#
# number of rings (size 3 to 8) (size 9 to 14) (size 15 to 20)
#    0.000    2.133    0.000    1.600    2.800    8.000 
#    2.400    8.000    0.000    0.000    0.000    0.000 
#    0.000    0.000    0.000    0.000    0.000    0.000 
#
# Total GULP energy -371715.068390 kJ/mol
# GULP energy per Si atom -12390.502280 kJ/mol
# Density = 2.253753 g / cm^3
# Si number density = 22.588939 Si / 1000 Ang^3
#
#
#
# Elastic Constant Matrix: (Units=GPa)
#
#
# Indices 1 2 3 4 5 6 
#
# 1 108.8239 39.0677 22.5355 0.0001 -10.3817 -0.0022
# 2 39.0677 97.3159 45.6464 -0.0054 -15.2485 -0.0035
# 3 22.5355 45.6464 81.5594 -0.0153 -7.3169 -0.0016
# 4 0.0001 -0.0054 -0.0153 20.8398 -0.0035 -10.1966
# 5 -10.3817 -15.2485 -7.3169 -0.0035 35.5694 0.0007
# 6 -0.0022 -0.0035 -0.0016 -10.1966 0.0007 32.1927
#
#
#
# Elastic Compliance Matrix: (Units=1/GPa)
#
#
# Indices 1 2 3 4 5 6 
#
# 1 0.010834 -0.003778 -0.000755 -0.000001 0.001387 0.000000
# 2 -0.003778 0.015979 -0.007522 0.000000 0.004200 0.000001
# 3 -0.000755 -0.007522 0.016678 0.000012 -0.000014 0.000004
# 4 -0.000001 0.000000 0.000012 0.056785 0.000007 0.017986
# 5 0.001387 0.004200 -0.000014 0.000007 0.030317 0.000002
# 6 0.000000 0.000001 0.000004 0.017986 0.000002 0.036760
#
#
# Mechanical properties :
#
#
# Convention : Reuss Voigt Hill
#
# Bulk Modulus (GPa) = 51.59577 55.79982 53.69779
# Shear Modulus (GPa) = 25.26230 29.75034 27.50632
#
# Velocity S-wave (km/s) = 3.34780 3.63303 3.49333
# Velocity P-wave (km/s) = 6.15097 6.50803 6.33202
#
# Compressibility (1/GPa) = 0.01938143
#
# Stress axis : x y z
#
# Youngs Moduli (GPa) = 92.30129 62.58232 59.95844
#
# Poissons Ratio (x) = 0.23644 0.04525
# Poissons Ratio (y) = 0.34872 0.45102
# Poissons Ratio (z) = 0.06965 0.47076
#
# Static dielectric constant tensor:
#      x y z
#    x 4.191380 -0.000040 0.169860 
#    y -0.000040 4.110510 -0.000030 
#    z 0.169860 -0.000030 4.013860 
# 
# 
# High freq. dielectric constant tensor:
#      x y z
#    x 1.892860 0.000000 0.008730 
#    y 0.000000 1.883130 0.000000 
#    z 0.008730 0.000000 1.888390 
# 
# From -- ./inp_files/266266.got.cif
#   From: 2010.06.25/outbox.cif.g09.slc.cpg/sg15_134_cif.got.tgz:266266.got - 2010.06.28 07:06:18.
