data_PCOD8143031
_publ_section_title
;
Structure prediction by ZEFSAII (Michael W. Deem and Ramdas Pophale) SiO2 
 PCOD8143031
Probable space group: C 2/C
;
_chemical_formula_sum "Si O2"
_cell_formula_units_Z 60
_cell_length_a 29.277693
_cell_length_b 17.963534
_cell_length_c 12.144460
_cell_angle_alpha 90.000000
_cell_angle_beta 152.764331
_cell_angle_gamma 90.000000
_cell_volume 2923.087171
_symmetry_space_group_name_H-M "C 2/C"
_symmetry_group_IT_number 15
_symmetry_cell_setting 'monoclinic'
loop_
_space_group_symop_operation_xyz
x,y,z
-x,y,1/2-z
-x,-y,-z
x,-y,1/2+z
1/2+x,1/2+y,z
1/2-x,1/2+y,1/2-z
1/2-x,1/2-y,-z
1/2+x,1/2-y,1/2+z
loop_
_atom_site_type_symbol
_atom_site_label
_atom_site_fract_x
_atom_site_fract_y
_atom_site_fract_z
Si Si1 0.594013 0.253339 0.020227
Si Si2 0.936814 0.619869 0.408474
Si Si3 0.000000 0.525085 0.750000
Si Si4 0.117168 0.266949 0.015675
Si Si5 0.233969 0.644021 0.183151
Si Si6 0.641904 0.115258 0.749714
Si Si7 0.261540 0.865323 0.386450
Si Si8 0.292847 0.014553 0.795104
O O1 0.500000 0.284702 0.750000
O O2 0.555767 0.207852 0.044799
O O3 0.658464 0.199909 0.080004
O O4 0.661211 0.322141 0.207552
O O5 0.950210 0.575166 0.549619
O O6 0.023487 0.597028 0.507809
O O7 0.824581 0.602853 0.124828
O O8 0.905709 0.477350 0.589892
O O9 0.000000 0.261840 0.750000
O O10 0.159946 0.183064 0.109922
O O11 0.151809 0.308843 0.201281
O O12 0.161464 0.309547 0.006628
O O13 0.249575 0.569396 0.289903
O O14 0.187794 0.621732 0.967859
O O15 0.699155 0.047030 0.811907
O O16 0.226504 0.931712 0.230022
#
# Coordination Sequence:
#
# PCOD8143031 Si02
#       8
#     8   8   4   8   8   8   8   8
#     4  11  20  40  58  86 115 155 201 236 292 345
#     4  12  19  37  58  89 119 152 189 236 306 347
#     4  12  22  34  58  86 124 154 180 238 294 370
#     4  10  21  40  60  87 111 151 204 245 287 339
#     4  11  22  39  61  82 120 158 193 242 288 350
#     4  11  21  36  60  87 119 153 193 237 292 354
#     4  10  24  35  59  84 121 151 192 250 286 350
#     4  11  23  37  52  91 116 153 194 229 296 351
#
# _framework density 20.526243999999998
#
# number of rings (size 3 to 8) (size 9 to 14) (size 15 to 20)
#    0.000    1.067    6.000    1.600    3.733    1.067 
#    0.000    0.667    0.000    0.800    0.000    0.000 
#    0.000    0.000    0.000    0.000    0.000    0.000 
#
# Total GULP energy -371899.674289 kJ/mol
# GULP energy per Si atom -12396.655810 kJ/mol
# Density = 2.047953 g / cm^3
# Si number density = 20.526244 Si / 1000 Ang^3
#
#
#
# Elastic Constant Matrix: (Units=GPa)
#
#
# Indices 1 2 3 4 5 6 
#
# 1 62.6235 27.7175 11.1948 0.0000 -9.9336 0.0000
# 2 27.7175 95.0520 19.2476 0.0000 3.6689 0.0000
# 3 11.1948 19.2476 57.6062 0.0000 -3.4701 0.0000
# 4 0.0000 0.0000 0.0000 27.9327 0.0000 13.4271
# 5 -9.9336 3.6689 -3.4701 0.0000 28.6690 0.0000
# 6 0.0000 0.0000 0.0000 13.4271 0.0000 15.9398
#
#
#
# Elastic Compliance Matrix: (Units=1/GPa)
#
#
# Indices 1 2 3 4 5 6 
#
# 1 0.019999 -0.005819 -0.001491 0.000000 0.007494 0.000000
# 2 -0.005819 0.013083 -0.003488 0.000000 -0.004113 0.000000
# 3 -0.001491 -0.003488 0.018948 0.000000 0.002223 0.000000
# 4 0.000000 0.000000 0.000000 0.060161 0.000000 -0.050677
# 5 0.007494 -0.004113 0.002223 0.000000 0.038273 0.000000
# 6 0.000000 0.000000 0.000000 -0.050677 0.000000 0.105425
#
#
# Mechanical properties :
#
#
# Convention : Reuss Voigt Hill
#
# Bulk Modulus (GPa) = 32.85797 36.84462 34.85129
# Shear Modulus (GPa) = 17.38346 24.98307 21.18327
#
# Velocity S-wave (km/s) = 2.91329 3.49252 3.21597
# Velocity P-wave (km/s) = 5.23057 5.85257 5.55029
#
# Compressibility (1/GPa) = 0.03043402
#
# Stress axis : x y z
#
# Youngs Moduli (GPa) = 50.00179 76.43773 52.77514
#
# Poissons Ratio (x) = 0.44481 0.07867
# Poissons Ratio (y) = 0.29097 0.18408
# Poissons Ratio (z) = 0.07454 0.26662
#
# Static dielectric constant tensor:
#      x y z
#    x 3.824670 0.000000 0.070600 
#    y 0.000000 3.956010 0.000000 
#    z 0.070600 0.000000 3.625280 
# 
# 
# High freq. dielectric constant tensor:
#      x y z
#    x 1.805450 0.000000 -0.014400 
#    y 0.000000 1.797690 0.000000 
#    z -0.014400 0.000000 1.774010 
# 
# From -- ./inp_files/124024.got.cif
#   From: 2010.06.25/outbox.cif.g09.slc.cpg/sg15_63_cif.got.tgz:124024.got - 2010.06.28 07:06:18.
