data_PCOD8143440
_publ_section_title
;
Structure prediction by ZEFSAII (Michael W. Deem and Ramdas Pophale) SiO2 
 PCOD8143440
Probable space group: C 2/C
;
_chemical_formula_sum "Si O2"
_cell_formula_units_Z 56
_cell_length_a 10.959859
_cell_length_b 11.973291
_cell_length_c 19.918620
_cell_angle_alpha 90.000000
_cell_angle_beta 71.274593
_cell_angle_gamma 90.000000
_cell_volume 2475.477139
_symmetry_space_group_name_H-M "C 2/C"
_symmetry_group_IT_number 15
_symmetry_cell_setting 'monoclinic'
loop_
_space_group_symop_operation_xyz
x,y,z
-x,y,1/2-z
-x,-y,-z
x,-y,1/2+z
1/2+x,1/2+y,z
1/2-x,1/2+y,1/2-z
1/2-x,1/2-y,-z
1/2+x,1/2-y,1/2+z
loop_
_atom_site_type_symbol
_atom_site_label
_atom_site_fract_x
_atom_site_fract_y
_atom_site_fract_z
Si Si1 0.585649 0.472976 0.814877
Si Si2 0.121583 0.674306 0.603323
Si Si3 0.500000 0.325541 0.250000
Si Si4 0.623487 0.804310 0.952433
Si Si5 0.255238 0.534137 0.081922
Si Si6 0.000000 0.211017 0.250000
Si Si7 0.883786 0.247664 0.899184
Si Si8 0.177935 0.004550 0.069796
O O1 0.593548 0.592746 0.776741
O O2 0.685782 0.475294 0.855845
O O3 0.613622 0.373288 0.756604
O O4 0.443041 0.443944 0.869666
O O5 0.268772 0.714541 0.586016
O O6 0.072532 0.713744 0.538323
O O7 0.123949 0.539213 0.606548
O O8 0.035919 0.714035 0.680273
O O9 0.573848 0.244222 0.186165
O O10 0.503893 0.777702 0.925663
O O11 0.690369 0.928558 0.932926
O O12 0.225890 0.661690 0.068297
O O13 0.344656 0.483303 0.006667
O O14 0.815404 0.127766 0.918168
#
# Coordination Sequence:
#
# PCOD8143440 Si02
#       8
#     8   8   4   8   8   4   8   8
#     4  10  21  40  67  92 127 171 226 277 326 405
#     4  10  22  40  64 101 126 172 218 276 336 395
#     4   9  22  43  62  90 126 171 215 268 338 390
#     4  10  22  43  71  94 133 174 224 278 337 398
#     4  11  24  39  65  99 132 172 222 271 346 404
#     4  11  22  39  64  98 128 161 223 280 334 394
#     4  11  24  43  66  96 137 177 221 277 345 414
#     4  10  21  42  67  97 127 178 228 277 333 401
#
# _framework density 22.621901000000001
#
# number of rings (size 3 to 8) (size 9 to 14) (size 15 to 20)
#    0.000    1.714    1.429    2.571    2.000    5.143 
#    2.571    0.000    0.000    0.000    0.000    0.000 
#    0.000    0.000    0.000    0.000    0.000    0.000 
#
# Total GULP energy -346880.690267 kJ/mol
# GULP energy per Si atom -12388.596081 kJ/mol
# Density = 2.257041 g / cm^3
# Si number density = 22.621901 Si / 1000 Ang^3
#
#
#
# Elastic Constant Matrix: (Units=GPa)
#
#
# Indices 1 2 3 4 5 6 
#
# 1 56.0141 10.4065 26.1381 0.0000 18.4246 0.0000
# 2 10.4065 102.1544 16.4346 0.0000 -2.5796 0.0000
# 3 26.1381 16.4346 131.0075 0.0000 11.8542 0.0000
# 4 0.0000 0.0000 0.0000 27.5871 0.0000 -3.9179
# 5 18.4246 -2.5796 11.8542 0.0000 29.9369 0.0000
# 6 0.0000 0.0000 0.0000 -3.9179 0.0000 14.9499
#
#
#
# Elastic Compliance Matrix: (Units=1/GPa)
#
#
# Indices 1 2 3 4 5 6 
#
# 1 0.024403 -0.002303 -0.003322 0.000000 -0.013902 0.000000
# 2 -0.002303 0.010266 -0.001075 0.000000 0.002727 0.000000
# 3 -0.003322 -0.001075 0.008561 0.000000 -0.001438 0.000000
# 4 0.000000 0.000000 0.000000 0.037650 0.000000 0.009867
# 5 -0.013902 0.002727 -0.001438 0.000000 0.042764 0.000000
# 6 0.000000 0.000000 0.000000 0.009867 0.000000 0.069476
#
#
# Mechanical properties :
#
#
# Convention : Reuss Voigt Hill
#
# Bulk Modulus (GPa) = 33.52317 43.90384 38.71350
# Shear Modulus (GPa) = 23.09868 30.24124 26.66996
#
# Velocity S-wave (km/s) = 3.19889 3.66021 3.43730
# Velocity P-wave (km/s) = 5.33807 6.10841 5.73619
#
# Compressibility (1/GPa) = 0.02983011
#
# Stress axis : x y z
#
# Youngs Moduli (GPa) = 40.97807 97.41357 116.80941
#
# Poissons Ratio (x) = 0.22430 0.38805
# Poissons Ratio (y) = 0.09435 0.12559
# Poissons Ratio (z) = 0.13613 0.10474
#
# Static dielectric constant tensor:
#      x y z
#    x 3.502210 0.000000 0.148010 
#    y 0.000000 4.413200 0.000000 
#    z 0.148010 0.000000 4.431250 
# 
# 
# High freq. dielectric constant tensor:
#      x y z
#    x 1.837560 0.000000 0.021290 
#    y 0.000000 1.909310 0.000000 
#    z 0.021290 0.000000 1.914180 
# 
# From -- ./inp_files/237563.got.cif
#   From: 2010.06.25/outbox.cif.g09.slc.cpg/sg15_119_cif.got.tgz:237563.got - 2010.06.28 07:06:18.
