data_PCOD8143510
_publ_section_title
;
Structure prediction by ZEFSAII (Michael W. Deem and Ramdas Pophale) SiO2 
 PCOD8143510
Probable space group: C 2/C
;
_chemical_formula_sum "Si O2"
_cell_formula_units_Z 52
_cell_length_a 11.137995
_cell_length_b 21.493668
_cell_length_c 14.441117
_cell_angle_alpha 90.000000
_cell_angle_beta 44.223789
_cell_angle_gamma 90.000000
_cell_volume 2411.233835
_symmetry_space_group_name_H-M "C 2/C"
_symmetry_group_IT_number 15
_symmetry_cell_setting 'monoclinic'
loop_
_space_group_symop_operation_xyz
x,y,z
-x,y,1/2-z
-x,-y,-z
x,-y,1/2+z
1/2+x,1/2+y,z
1/2-x,1/2+y,1/2-z
1/2-x,1/2-y,-z
1/2+x,1/2-y,1/2+z
loop_
_atom_site_type_symbol
_atom_site_label
_atom_site_fract_x
_atom_site_fract_y
_atom_site_fract_z
Si Si1 0.384714 0.611859 0.730229
Si Si2 0.036821 0.670567 0.968720
Si Si3 0.369179 0.514804 0.154408
Si Si4 0.864464 0.376835 0.744450
Si Si5 0.500000 0.597763 0.250000
Si Si6 0.478518 0.684650 0.007562
Si Si7 0.247863 0.176440 0.005283
O O1 0.500000 0.587427 0.750000
O O2 0.301222 0.550764 0.730742
O O3 0.516079 0.650221 0.593187
O O4 0.236790 0.657641 0.846696
O O5 0.958330 0.629157 0.094139
O O6 0.008292 0.741962 0.013533
O O7 0.945958 0.656754 0.917983
O O8 0.204497 0.552408 0.206924
O O9 0.461842 0.555232 0.182454
O O10 0.500000 0.500000 0.000000
O O11 0.000000 0.361583 0.750000
O O12 0.699518 0.330887 0.841798
O O13 0.344933 0.645567 0.354916
O O14 0.646255 0.655687 0.969068
O O15 0.250000 0.250000 0.000000
#
# Coordination Sequence:
#
# PCOD8143510 Si02
#       7
#     8   8   8   8   4   8   8
#     4  12  26  44  67 100 136 179 228 277 346 419
#     4  11  25  41  69 105 134 174 231 293 335 405
#     4  12  25  47  70  95 134 189 230 275 351 428
#     4  12  25  44  69  99 137 180 232 281 341 416
#     4  12  20  44  74  92 136 188 220 288 356 400
#     4  11  23  45  69  97 141 182 223 279 355 411
#     4  10  21  40  69 101 133 175 230 280 344 408
#
# _framework density 21.565722999999998
#
# number of rings (size 3 to 8) (size 9 to 14) (size 15 to 20)
#    0.000    0.615    5.385    1.846    0.000    8.615 
#    5.538    0.000    0.000    0.000    0.000    0.000 
#    0.000    0.000    0.000    0.000    0.000    0.000 
#
# Total GULP energy -322222.504478 kJ/mol
# GULP energy per Si atom -12393.173249 kJ/mol
# Density = 2.151664 g / cm^3
# Si number density = 21.565723 Si / 1000 Ang^3
#
#
#
# Elastic Constant Matrix: (Units=GPa)
#
#
# Indices 1 2 3 4 5 6 
#
# 1 119.2960 22.5446 18.7789 -0.0009 -0.7508 0.0009
# 2 22.5446 112.6352 33.9085 -0.0003 4.6088 0.0002
# 3 18.7789 33.9085 87.8592 -0.0035 6.8051 0.0033
# 4 -0.0009 -0.0003 -0.0035 40.4157 0.0018 -1.5145
# 5 -0.7508 4.6088 6.8051 0.0018 31.0877 -0.0017
# 6 0.0009 0.0002 0.0033 -1.5145 -0.0017 32.4796
#
#
#
# Elastic Compliance Matrix: (Units=1/GPa)
#
#
# Indices 1 2 3 4 5 6 
#
# 1 0.008871 -0.001378 -0.001421 0.000000 0.000730 0.000000
# 2 -0.001378 0.010272 -0.003611 0.000000 -0.000766 0.000000
# 3 -0.001421 -0.003611 0.013265 0.000001 -0.002403 -0.000001
# 4 0.000000 0.000000 0.000001 0.024786 -0.000002 0.001156
# 5 0.000730 -0.000766 -0.002403 -0.000002 0.032824 0.000002
# 6 0.000000 0.000000 -0.000001 0.001156 0.000002 0.030842
#
#
# Mechanical properties :
#
#
# Convention : Reuss Voigt Hill
#
# Bulk Modulus (GPa) = 51.04653 52.25049 51.64851
# Shear Modulus (GPa) = 35.66080 37.10050 36.38065
#
# Velocity S-wave (km/s) = 4.07084 4.15221 4.11173
# Velocity P-wave (km/s) = 6.76885 6.87523 6.82225
#
# Compressibility (1/GPa) = 0.01958997
#
# Stress axis : x y z
#
# Youngs Moduli (GPa) = 112.72515 97.34914 75.38529
#
# Poissons Ratio (x) = 0.13412 0.10711
# Poissons Ratio (y) = 0.15530 0.27220
# Poissons Ratio (z) = 0.16017 0.35150
#
# Static dielectric constant tensor:
#      x y z
#    x 4.271040 0.000000 0.040620 
#    y 0.000000 3.834990 0.000000 
#    z 0.040620 0.000000 3.735590 
# 
# 
# High freq. dielectric constant tensor:
#      x y z
#    x 1.860280 0.000000 0.004010 
#    y 0.000000 1.850650 0.000000 
#    z 0.004010 0.000000 1.837520 
# 
# From -- ./inp_files/148047.got.cif
#   From: 2010.06.25/outbox.cif.g09.slc.cpg/sg15_75_cif.got.tgz:148047.got - 2010.06.28 07:06:18.
