data_PCOD8143705
_publ_section_title
;
Structure prediction by ZEFSAII (Michael W. Deem and Ramdas Pophale) SiO2 
 PCOD8143705
Probable space group: C 2/C
;
_chemical_formula_sum "Si O2"
_cell_formula_units_Z 64
_cell_length_a 14.158409
_cell_length_b 15.739829
_cell_length_c 19.039579
_cell_angle_alpha 90.000000
_cell_angle_beta 136.176864
_cell_angle_gamma 90.000000
_cell_volume 2937.991553
_symmetry_space_group_name_H-M "C 2/C"
_symmetry_group_IT_number 15
_symmetry_cell_setting 'monoclinic'
loop_
_space_group_symop_operation_xyz
x,y,z
-x,y,1/2-z
-x,-y,-z
x,-y,1/2+z
1/2+x,1/2+y,z
1/2-x,1/2+y,1/2-z
1/2-x,1/2-y,-z
1/2+x,1/2-y,1/2+z
loop_
_atom_site_type_symbol
_atom_site_label
_atom_site_fract_x
_atom_site_fract_y
_atom_site_fract_z
Si Si1 0.499429 0.328623 0.942029
Si Si2 0.619182 0.395833 0.262200
Si Si3 0.209649 0.375504 0.013679
Si Si4 0.469233 0.835536 0.334266
Si Si5 0.015270 0.502405 0.089464
Si Si6 0.950578 0.207149 0.574628
Si Si7 0.721850 0.529022 0.205329
Si Si8 0.714971 0.892941 0.374397
O O1 0.501408 0.253821 0.886148
O O2 0.375038 0.391695 0.862062
O O3 0.495666 0.294462 0.018681
O O4 0.645205 0.372517 0.011181
O O5 0.500000 0.428746 0.250000
O O6 0.746569 0.371312 0.380474
O O7 0.576479 0.311301 0.195188
O O8 0.644559 0.468511 0.218682
O O9 0.127826 0.463221 0.954350
O O10 0.107667 0.299227 0.940187
O O11 0.338641 0.367096 0.030855
O O12 0.596770 0.887476 0.368912
O O13 0.340466 0.823463 0.212701
O O14 0.429527 0.906892 0.368642
O O15 0.138513 0.562881 0.183414
O O16 0.000000 0.500000 0.000000
O O17 0.763401 0.482607 0.154344
#
# Coordination Sequence:
#
# PCOD8143705 Si02
#       8
#     8   8   8   8   8   8   8   8
#     4  12  24  40  68  96 129 166 226 272 331 393
#     4  10  21  41  63  91 131 167 212 275 327 394
#     4  10  22  41  64  93 129 167 215 264 336 391
#     4  10  25  43  66  94 131 174 219 274 328 404
#     4  11  22  41  65  92 127 171 216 269 333 393
#     4  10  23  38  65  96 127 168 206 274 330 398
#     4  11  24  41  64  98 126 175 224 269 329 403
#     4  10  23  46  64  89 135 178 213 273 336 391
#
# _framework density 21.78359
#
# number of rings (size 3 to 8) (size 9 to 14) (size 15 to 20)
#    0.000    1.500    2.500    1.500    3.500    4.000 
#    2.250    1.250    0.000    0.000    0.000    0.000 
#    0.000    0.000    0.000    0.000    0.000    0.000 
#
# Total GULP energy -396436.218892 kJ/mol
# GULP energy per Si atom -12388.631840 kJ/mol
# Density = 2.173401 g / cm^3
# Si number density = 21.783590 Si / 1000 Ang^3
#
#
#
# Elastic Constant Matrix: (Units=GPa)
#
#
# Indices 1 2 3 4 5 6 
#
# 1 74.3881 14.2189 8.9631 0.0000 -2.9521 0.0000
# 2 14.2189 75.4629 38.0255 0.0000 3.7555 0.0000
# 3 8.9631 38.0255 133.7985 0.0000 16.5910 0.0000
# 4 0.0000 0.0000 0.0000 29.8244 0.0000 8.8114
# 5 -2.9521 3.7555 16.5910 0.0000 35.5979 0.0000
# 6 0.0000 0.0000 0.0000 8.8114 0.0000 29.0907
#
#
#
# Elastic Compliance Matrix: (Units=1/GPa)
#
#
# Indices 1 2 3 4 5 6 
#
# 1 0.014039 -0.002510 -0.000429 0.000000 0.001629 0.000000
# 2 -0.002510 0.015922 -0.004376 0.000000 0.000151 0.000000
# 3 -0.000429 -0.004376 0.009227 0.000000 -0.003874 0.000000
# 4 0.000000 0.000000 0.000000 0.036825 0.000000 -0.011154
# 5 0.001629 0.000151 -0.003874 0.000000 0.030016 0.000000
# 6 0.000000 0.000000 0.000000 -0.011154 0.000000 0.037754
#
#
# Mechanical properties :
#
#
# Convention : Reuss Voigt Hill
#
# Bulk Modulus (GPa) = 40.72007 45.11827 42.91917
# Shear Modulus (GPa) = 30.01234 33.73208 31.87221
#
# Velocity S-wave (km/s) = 3.71583 3.93938 3.82924
# Velocity P-wave (km/s) = 6.09454 6.43806 6.26866
#
# Compressibility (1/GPa) = 0.02455792
#
# Stress axis : x y z
#
# Youngs Moduli (GPa) = 71.22933 62.80683 108.38211
#
# Poissons Ratio (x) = 0.15765 0.04651
# Poissons Ratio (y) = 0.17880 0.47424
# Poissons Ratio (z) = 0.03056 0.27482
#
# Static dielectric constant tensor:
#      x y z
#    x 4.074000 0.000000 0.283810 
#    y 0.000000 3.729670 0.000000 
#    z 0.283810 0.000000 4.311850 
# 
# 
# High freq. dielectric constant tensor:
#      x y z
#    x 1.868710 0.000000 0.004770 
#    y 0.000000 1.825810 0.000000 
#    z 0.004770 0.000000 1.875180 
# 
# From -- ./inp_files/206475.got.cif
#   From: 2010.06.25/outbox.cif.g09.slc.cpg/sg15_104_cif.got.tgz:206475.got - 2010.06.28 07:06:18.
