data_PCOD8143851
_publ_section_title
;
Structure prediction by ZEFSAII (Michael W. Deem and Ramdas Pophale) SiO2 
 PCOD8143851
Probable space group: C 2/C
;
_chemical_formula_sum "Si O2"
_cell_formula_units_Z 56
_cell_length_a 22.472194
_cell_length_b 7.872492
_cell_length_c 14.337269
_cell_angle_alpha 90.000000
_cell_angle_beta 95.810495
_cell_angle_gamma 90.000000
_cell_volume 2523.405580
_symmetry_space_group_name_H-M "C 2/C"
_symmetry_group_IT_number 15
_symmetry_cell_setting 'monoclinic'
loop_
_space_group_symop_operation_xyz
x,y,z
-x,y,1/2-z
-x,-y,-z
x,-y,1/2+z
1/2+x,1/2+y,z
1/2-x,1/2+y,1/2-z
1/2-x,1/2-y,-z
1/2+x,1/2-y,1/2+z
loop_
_atom_site_type_symbol
_atom_site_label
_atom_site_fract_x
_atom_site_fract_y
_atom_site_fract_z
Si Si1 0.291798 0.872832 0.945807
Si Si2 0.571851 0.694169 0.348386
Si Si3 0.677704 0.460475 0.375775
Si Si4 0.628769 0.302094 0.184407
Si Si5 0.626704 0.813423 0.986354
Si Si6 0.943727 0.112429 0.368882
Si Si7 0.435780 0.071171 0.194241
O O1 0.324977 0.739043 0.887488
O O2 0.246154 0.984016 0.878001
O O3 0.250000 0.750000 0.000000
O O4 0.340614 0.002805 0.998731
O O5 0.631450 0.609220 0.400097
O O6 0.514887 0.629226 0.400896
O O7 0.564120 0.661638 0.238795
O O8 0.579718 0.894331 0.356185
O O9 0.661412 0.407653 0.269251
O O10 0.676384 0.316766 0.455713
O O11 0.577072 0.416220 0.126700
O O12 0.605708 0.126292 0.225851
O O13 0.575283 0.806781 0.896660
O O14 0.595395 0.743985 0.075351
O O15 0.500000 0.082006 0.250000
#
# Coordination Sequence:
#
# PCOD8143851 Si02
#       7
#     8   8   8   8   8   8   8
#     4  12  25  44  66  98 137 176 232 288 330 398
#     4  10  21  42  66  96 136 177 218 269 340 406
#     4  10  24  43  66  96 133 183 223 271 335 409
#     4  10  25  41  68  98 134 182 221 273 342 408
#     4  11  25  42  67 100 132 177 228 282 341 398
#     4  10  21  41  65  98 133 176 220 279 336 404
#     4  11  23  43  66  99 135 175 220 279 344 413
#
# _framework density 22.192233000000002
#
# number of rings (size 3 to 8) (size 9 to 14) (size 15 to 20)
#    0.000    1.429    1.429    3.000    6.000    6.857 
#    2.571    0.000    0.000    0.000    0.000    0.000 
#    0.000    0.000    0.000    0.000    0.000    0.000 
#
# Total GULP energy -346932.122849 kJ/mol
# GULP energy per Si atom -12390.432959 kJ/mol
# Density = 2.214172 g / cm^3
# Si number density = 22.192233 Si / 1000 Ang^3
#
#
#
# Elastic Constant Matrix: (Units=GPa)
#
#
# Indices 1 2 3 4 5 6 
#
# 1 106.5019 74.5282 54.7091 0.0000 -6.0898 0.0000
# 2 74.5282 95.8606 45.9850 0.0000 -17.4313 0.0000
# 3 54.7091 45.9850 75.9902 0.0000 -22.5600 0.0000
# 4 0.0000 0.0000 0.0000 20.7036 0.0000 -15.2220
# 5 -6.0898 -17.4313 -22.5600 0.0000 41.2618 0.0000
# 6 0.0000 0.0000 0.0000 -15.2220 0.0000 35.8131
#
#
#
# Elastic Compliance Matrix: (Units=1/GPa)
#
#
# Indices 1 2 3 4 5 6 
#
# 1 0.026752 -0.016826 -0.011957 0.000000 -0.009697 0.000000
# 2 -0.016826 0.025372 -0.000949 0.000000 0.007716 0.000000
# 3 -0.011957 -0.000949 0.025904 0.000000 0.011997 0.000000
# 4 0.000000 0.000000 0.000000 0.070256 0.000000 0.029861
# 5 -0.009697 0.007716 0.011997 0.000000 0.032624 0.000000
# 6 0.000000 0.000000 0.000000 0.029861 0.000000 0.040615
#
#
# Mechanical properties :
#
#
# Convention : Reuss Voigt Hill
#
# Bulk Modulus (GPa) = 53.86726 69.86640 61.86683
# Shear Modulus (GPa) = 17.41112 26.43106 21.92109
#
# Velocity S-wave (km/s) = 2.80404 3.45484 3.14631
# Velocity P-wave (km/s) = 5.89993 6.88950 6.41383
#
# Compressibility (1/GPa) = 0.01856415
#
# Stress axis : x y z
#
# Youngs Moduli (GPa) = 37.38080 39.41368 38.60467
#
# Poissons Ratio (x) = 0.66318 0.46158
# Poissons Ratio (y) = 0.62898 0.03663
# Poissons Ratio (z) = 0.44694 0.03739
#
# Static dielectric constant tensor:
#      x y z
#    x 4.325440 0.000000 -0.007490 
#    y 0.000000 15.931440 0.000000 
#    z -0.007490 0.000000 3.833930 
# 
# 
# High freq. dielectric constant tensor:
#      x y z
#    x 1.874400 0.000000 0.002050 
#    y 0.000000 1.885480 0.000000 
#    z 0.002050 0.000000 1.872410 
# 
# From -- ./inp_files/166668.got.cif
#   From: 2010.06.25/outbox.cif.g09.slc.cpg/sg15_84_cif.got.tgz:166668.got - 2010.06.28 07:06:18.
