data_PCOD8143807
_publ_section_title
;
Structure prediction by ZEFSAII (Michael W. Deem and Ramdas Pophale) SiO2 
 PCOD8143807
Probable space group: C 2/C
;
_chemical_formula_sum "Si O2"
_cell_formula_units_Z 40
_cell_length_a 4.915786
_cell_length_b 23.673887
_cell_length_c 15.880286
_cell_angle_alpha 90.000000
_cell_angle_beta 98.135606
_cell_angle_gamma 90.000000
_cell_volume 1829.481131
_symmetry_space_group_name_H-M "C 2/C"
_symmetry_group_IT_number 15
_symmetry_cell_setting 'monoclinic'
loop_
_space_group_symop_operation_xyz
x,y,z
-x,y,1/2-z
-x,-y,-z
x,-y,1/2+z
1/2+x,1/2+y,z
1/2-x,1/2+y,1/2-z
1/2-x,1/2-y,-z
1/2+x,1/2-y,1/2+z
loop_
_atom_site_type_symbol
_atom_site_label
_atom_site_fract_x
_atom_site_fract_y
_atom_site_fract_z
Si Si1 0.718277 0.906138 0.192763
Si Si2 0.899753 0.483682 0.904628
Si Si3 0.596577 0.580059 0.157717
Si Si4 0.056541 0.312987 0.057738
Si Si5 0.008604 0.813310 0.942573
O O1 0.500000 0.926483 0.250000
O O2 0.756391 0.961417 0.137925
O O3 0.580132 0.854772 0.136805
O O4 0.000000 0.887542 0.250000
O O5 0.131296 0.456019 0.853261
O O6 0.657087 0.439534 0.910503
O O7 0.000000 0.500000 0.000000
O O8 0.500000 0.572023 0.250000
O O9 0.627409 0.646109 0.134330
O O10 0.000755 0.250567 0.093203
O O11 0.343640 0.316397 0.022280
O O12 0.818907 0.330507 0.981196
#
# Coordination Sequence:
#
# PCOD8143807 Si02
#       5
#     8   8   8   8   8
#     4  12  24  40  62  90 125 157 199 255 309 361
#     4  12  25  42  64  88 121 166 210 250 306 377
#     4  12  24  40  63  93 126 158 202 260 317 366
#     4  10  22  41  64  90 121 163 208 249 300 367
#     4  10  21  41  65  89 122 161 206 251 299 368
#
# _framework density 21.864124
#
# number of rings (size 3 to 8) (size 9 to 14) (size 15 to 20)
#    0.000    0.800    0.000    9.000    0.000    0.800 
#    0.000    2.000    0.000    0.000    0.000    0.000 
#    0.000    0.000    0.000    0.000    0.000    0.000 
#
# Total GULP energy -247966.501993 kJ/mol
# GULP energy per Si atom -12398.325100 kJ/mol
# Density = 2.181436 g / cm^3
# Si number density = 21.864124 Si / 1000 Ang^3
#
#
#
# Elastic Constant Matrix: (Units=GPa)
#
#
# Indices 1 2 3 4 5 6 
#
# 1 94.7235 22.9790 -1.5019 0.0000 8.2985 0.0000
# 2 22.9790 129.0349 42.5023 0.0000 16.3866 0.0000
# 3 -1.5019 42.5023 60.9909 0.0000 5.5860 0.0000
# 4 0.0000 0.0000 0.0000 66.1322 0.0000 -2.4118
# 5 8.2985 16.3866 5.5860 0.0000 27.8341 0.0000
# 6 0.0000 0.0000 0.0000 -2.4118 0.0000 31.0058
#
#
#
# Elastic Compliance Matrix: (Units=1/GPa)
#
#
# Indices 1 2 3 4 5 6 
#
# 1 0.011397 -0.002453 0.002210 0.000000 -0.002397 0.000000
# 2 -0.002453 0.011200 -0.007466 0.000000 -0.004364 0.000000
# 3 0.002210 -0.007466 0.021710 0.000000 -0.000620 0.000000
# 4 0.000000 0.000000 0.000000 0.015164 0.000000 0.001180
# 5 -0.002397 -0.004364 -0.000620 0.000000 0.039336 0.000000
# 6 0.000000 0.000000 0.000000 0.001180 0.000000 0.032344
#
#
# Mechanical properties :
#
#
# Convention : Reuss Voigt Hill
#
# Bulk Modulus (GPa) = 34.61544 45.85645 40.23595
# Shear Modulus (GPa) = 32.01071 39.71244 35.86157
#
# Velocity S-wave (km/s) = 3.83047 4.26646 4.05433
# Velocity P-wave (km/s) = 5.95230 6.72973 6.35291
#
# Compressibility (1/GPa) = 0.02888884
#
# Stress axis : x y z
#
# Youngs Moduli (GPa) = 87.74099 89.28619 46.06262
#
# Poissons Ratio (x) = 0.21902 -0.10178
# Poissons Ratio (y) = 0.21523 0.34388
# Poissons Ratio (z) = -0.19388 0.66657
#
# Static dielectric constant tensor:
#      x y z
#    x 4.042680 0.000000 0.025100 
#    y 0.000000 4.158000 0.000000 
#    z 0.025100 0.000000 3.047790 
# 
# 
# High freq. dielectric constant tensor:
#      x y z
#    x 1.874550 0.000000 0.003830 
#    y 0.000000 1.876280 0.000000 
#    z 0.003830 0.000000 1.845200 
# 
# From -- ./inp_files/129039.got.cif
#   From: 2010.06.25/outbox.cif.g09.slc.cpg/sg15_65_cif.got.tgz:129039.got - 2010.06.28 07:06:18.
