data_PCOD8143651
_publ_section_title
;
Structure prediction by ZEFSAII (Michael W. Deem and Ramdas Pophale) SiO2 
 PCOD8143651
Probable space group: C 2/C
;
_chemical_formula_sum "Si O2"
_cell_formula_units_Z 60
_cell_length_a 11.801524
_cell_length_b 8.587467
_cell_length_c 26.839235
_cell_angle_alpha 90.000000
_cell_angle_beta 99.003069
_cell_angle_gamma 90.000000
_cell_volume 2686.516734
_symmetry_space_group_name_H-M "C 2/C"
_symmetry_group_IT_number 15
_symmetry_cell_setting 'monoclinic'
loop_
_space_group_symop_operation_xyz
x,y,z
-x,y,1/2-z
-x,-y,-z
x,-y,1/2+z
1/2+x,1/2+y,z
1/2-x,1/2+y,1/2-z
1/2-x,1/2-y,-z
1/2+x,1/2-y,1/2+z
loop_
_atom_site_type_symbol
_atom_site_label
_atom_site_fract_x
_atom_site_fract_y
_atom_site_fract_z
Si Si1 0.853863 0.644860 0.843754
Si Si2 0.899258 0.292202 0.156983
Si Si3 0.000000 0.840424 0.250000
Si Si4 0.827739 0.395445 0.519564
Si Si5 0.201723 0.061518 0.267789
Si Si6 0.165652 0.358290 0.818116
Si Si7 0.247884 0.312051 0.443837
Si Si8 0.574761 0.913087 0.566843
O O1 0.802657 0.542972 0.796316
O O2 0.753086 0.758325 0.860069
O O3 0.909212 0.530638 0.887526
O O4 0.964265 0.736200 0.829182
O O5 0.842313 0.177577 0.192510
O O6 0.859456 0.469349 0.165323
O O7 0.860783 0.255160 0.097165
O O8 0.954275 0.732367 0.200864
O O9 0.897736 0.951560 0.261439
O O10 0.750000 0.250000 0.500000
O O11 0.750819 0.500850 0.551334
O O12 0.873861 0.497368 0.476976
O O13 0.944064 0.351740 0.556493
O O14 0.258330 0.155180 0.226930
O O15 0.250000 0.250000 0.500000
O O16 0.358129 0.249569 0.421621
#
# Coordination Sequence:
#
# PCOD8143651 Si02
#       8
#     8   8   4   8   8   8   8   8
#     4  11  23  39  64  93 126 168 211 265 322 383
#     4  12  23  41  68  95 128 171 217 262 324 387
#     4  10  22  42  60  90 128 158 206 264 318 374
#     4  10  22  40  67  91 125 165 212 262 324 375
#     4  11  23  42  64  91 126 171 210 261 325 381
#     4  11  25  40  63  94 127 162 220 265 316 382
#     4  10  22  42  65  95 130 169 213 268 325 390
#     4  10  21  41  62  90 130 163 203 266 317 380
#
# _framework density 22.333750999999999
#
# number of rings (size 3 to 8) (size 9 to 14) (size 15 to 20)
#    0.000    1.333    2.667    3.200    1.867    2.133 
#    0.000    2.667    0.000    0.000    0.000    0.000 
#    0.000    0.000    0.000    0.000    0.000    0.000 
#
# Total GULP energy -371701.614108 kJ/mol
# GULP energy per Si atom -12390.053804 kJ/mol
# Density = 2.228292 g / cm^3
# Si number density = 22.333751 Si / 1000 Ang^3
#
#
#
# Elastic Constant Matrix: (Units=GPa)
#
#
# Indices 1 2 3 4 5 6 
#
# 1 132.3123 60.8859 37.9486 0.0000 41.0224 0.0000
# 2 60.8859 99.1599 14.5570 0.0000 17.0086 0.0000
# 3 37.9486 14.5570 68.4938 0.0000 19.2159 0.0000
# 4 0.0000 0.0000 0.0000 33.0534 0.0000 3.2360
# 5 41.0224 17.0086 19.2159 0.0000 34.6497 0.0000
# 6 0.0000 0.0000 0.0000 3.2360 0.0000 42.3246
#
#
#
# Elastic Compliance Matrix: (Units=1/GPa)
#
#
# Indices 1 2 3 4 5 6 
#
# 1 0.015982 -0.006970 -0.003582 0.000000 -0.013514 0.000000
# 2 -0.006970 0.014106 0.000582 0.000000 0.001004 0.000000
# 3 -0.003582 0.000582 0.018180 0.000000 -0.006126 0.000000
# 4 0.000000 0.000000 0.000000 0.030482 0.000000 -0.002331
# 5 -0.013514 0.001004 -0.006126 0.000000 0.047764 0.000000
# 6 0.000000 0.000000 0.000000 -0.002331 0.000000 0.023805
#
#
# Mechanical properties :
#
#
# Convention : Reuss Voigt Hill
#
# Bulk Modulus (GPa) = 35.30069 58.52767 46.91418
# Shear Modulus (GPa) = 27.82362 34.44387 31.13374
#
# Velocity S-wave (km/s) = 3.53343 3.93139 3.73771
# Velocity P-wave (km/s) = 5.69975 6.84621 6.29912
#
# Compressibility (1/GPa) = 0.02832806
#
# Stress axis : x y z
#
# Youngs Moduli (GPa) = 62.56883 70.88938 55.00615
#
# Poissons Ratio (x) = 0.49407 0.19705
# Poissons Ratio (y) = 0.43608 -0.03199
# Poissons Ratio (z) = 0.22414 -0.04123
#
# Static dielectric constant tensor:
#      x y z
#    x 4.394200 0.000000 0.347200 
#    y 0.000000 4.304090 0.000000 
#    z 0.347200 0.000000 4.337160 
# 
# 
# High freq. dielectric constant tensor:
#      x y z
#    x 1.886250 0.000000 0.020750 
#    y 0.000000 1.886070 0.000000 
#    z 0.020750 0.000000 1.875710 
# 
# From -- ./inp_files/310022.got.cif
#   From: 2010.06.25/outbox.cif.g09.slc.cpg/sg15_156_cif.got.tgz:310022.got - 2010.06.28 07:06:18.
