data_PCOD8143690
_publ_section_title
;
Structure prediction by ZEFSAII (Michael W. Deem and Ramdas Pophale) SiO2 
 PCOD8143690
Probable space group: C 2/C
;
_chemical_formula_sum "Si O2"
_cell_formula_units_Z 60
_cell_length_a 12.892589
_cell_length_b 14.150874
_cell_length_c 17.000681
_cell_angle_alpha 90.000000
_cell_angle_beta 110.214595
_cell_angle_gamma 90.000000
_cell_volume 2910.583409
_symmetry_space_group_name_H-M "C 2/C"
_symmetry_group_IT_number 15
_symmetry_cell_setting 'monoclinic'
loop_
_space_group_symop_operation_xyz
x,y,z
-x,y,1/2-z
-x,-y,-z
x,-y,1/2+z
1/2+x,1/2+y,z
1/2-x,1/2+y,1/2-z
1/2-x,1/2-y,-z
1/2+x,1/2-y,1/2+z
loop_
_atom_site_type_symbol
_atom_site_label
_atom_site_fract_x
_atom_site_fract_y
_atom_site_fract_z
Si Si1 0.333894 0.612555 0.920208
Si Si2 0.150220 0.272969 0.306506
Si Si3 0.000000 0.559748 0.750000
Si Si4 0.801161 0.795515 0.843026
Si Si5 0.254097 0.155579 0.950565
Si Si6 0.479620 0.424387 0.156331
Si Si7 0.468968 0.366094 0.610614
Si Si8 0.165643 0.553189 0.388455
O O1 0.253739 0.701761 0.888088
O O2 0.424878 0.612800 0.875810
O O3 0.265826 0.516632 0.897214
O O4 0.380779 0.623984 0.019104
O O5 0.197652 0.206188 0.250883
O O6 0.060128 0.218014 0.335904
O O7 0.099670 0.368799 0.253356
O O8 0.046716 0.492141 0.832656
O O9 0.799714 0.688032 0.877454
O O10 0.693671 0.854338 0.843085
O O11 0.914664 0.844301 0.901133
O O12 0.134287 0.111210 0.909581
O O13 0.250000 0.250000 0.000000
O O14 0.334208 0.081877 0.018551
O O15 0.500000 0.385042 0.250000
O O16 0.476581 0.537297 0.160681
#
# Coordination Sequence:
#
# PCOD8143690 Si02
#       8
#     8   8   4   8   8   8   8   8
#     4  11  22  39  65  89 125 165 207 255 314 370
#     4  11  23  42  62  89 125 165 206 257 308 370
#     4  10  22  42  64  82 128 168 204 246 310 370
#     4  11  21  41  63  90 125 161 204 259 313 362
#     4  10  22  41  62  89 130 163 201 257 317 368
#     4  12  23  39  66  99 122 161 215 261 306 372
#     4  12  22  40  65  92 123 164 208 259 314 370
#     4  10  21  41  63  89 124 168 205 253 312 373
#
# _framework density 20.614422999999999
#
# number of rings (size 3 to 8) (size 9 to 14) (size 15 to 20)
#    0.000    1.067    4.000    4.000    0.000    0.000 
#   12.000    0.667    0.000    0.000    0.000    0.000 
#    0.000    0.000    0.000    0.000    0.000    0.000 
#
# Total GULP energy -371831.127051 kJ/mol
# GULP energy per Si atom -12394.370902 kJ/mol
# Density = 2.056750 g / cm^3
# Si number density = 20.614423 Si / 1000 Ang^3
#
#
#
# Elastic Constant Matrix: (Units=GPa)
#
#
# Indices 1 2 3 4 5 6 
#
# 1 64.5651 34.9770 25.2279 0.0000 0.7156 0.0000
# 2 34.9770 78.7374 17.5245 0.0000 4.2778 0.0000
# 3 25.2279 17.5245 80.5118 0.0000 0.4868 0.0000
# 4 0.0000 0.0000 0.0000 35.0918 0.0000 1.1261
# 5 0.7156 4.2778 0.4868 0.0000 36.8540 0.0000
# 6 0.0000 0.0000 0.0000 1.1261 0.0000 25.4553
#
#
#
# Elastic Compliance Matrix: (Units=1/GPa)
#
#
# Indices 1 2 3 4 5 6 
#
# 1 0.022210 -0.008777 -0.005053 0.000000 0.000654 0.000000
# 2 -0.008777 0.016900 -0.000918 0.000000 -0.001779 0.000000
# 3 -0.005053 -0.000918 0.014203 0.000000 0.000017 0.000000
# 4 0.000000 0.000000 0.000000 0.028537 0.000000 -0.001262
# 5 0.000654 -0.001779 0.000017 0.000000 0.027328 0.000000
# 6 0.000000 0.000000 0.000000 -0.001262 0.000000 0.039340
#
#
# Mechanical properties :
#
#
# Convention : Reuss Voigt Hill
#
# Bulk Modulus (GPa) = 41.98388 42.14147 42.06268
# Shear Modulus (GPa) = 26.88833 29.21922 28.05377
#
# Velocity S-wave (km/s) = 3.61549 3.76894 3.69301
# Velocity P-wave (km/s) = 6.15138 6.27909 6.21557
#
# Compressibility (1/GPa) = 0.02381866
#
# Stress axis : x y z
#
# Youngs Moduli (GPa) = 45.02425 59.17032 70.40539
#
# Poissons Ratio (x) = 0.51935 0.35575
# Poissons Ratio (y) = 0.39519 0.06460
# Poissons Ratio (z) = 0.22750 0.05429
#
# Static dielectric constant tensor:
#      x y z
#    x 3.744170 0.000000 -0.012240 
#    y 0.000000 3.983290 0.000000 
#    z -0.012240 0.000000 4.081550 
# 
# 
# High freq. dielectric constant tensor:
#      x y z
#    x 1.787840 0.000000 0.009990 
#    y 0.000000 1.808620 0.000000 
#    z 0.009990 0.000000 1.817620 
# 
# From -- ./inp_files/198371.got.cif
#   From: 2010.06.25/outbox.cif.g09.slc.cpg/sg15_100_cif.got.tgz:198371.got - 2010.06.28 07:06:18.
