data_PCOD8143622
_publ_section_title
;
Structure prediction by ZEFSAII (Michael W. Deem and Ramdas Pophale) SiO2 
 PCOD8143622
Probable space group: C 2/C
;
_chemical_formula_sum "Si O2"
_cell_formula_units_Z 56
_cell_length_a 16.752795
_cell_length_b 26.752924
_cell_length_c 8.393464
_cell_angle_alpha 90.000000
_cell_angle_beta 47.824091
_cell_angle_gamma 90.000000
_cell_volume 2787.847015
_symmetry_space_group_name_H-M "C 2/C"
_symmetry_group_IT_number 15
_symmetry_cell_setting 'monoclinic'
loop_
_space_group_symop_operation_xyz
x,y,z
-x,y,1/2-z
-x,-y,-z
x,-y,1/2+z
1/2+x,1/2+y,z
1/2-x,1/2+y,1/2-z
1/2-x,1/2-y,-z
1/2+x,1/2-y,1/2+z
loop_
_atom_site_type_symbol
_atom_site_label
_atom_site_fract_x
_atom_site_fract_y
_atom_site_fract_z
Si Si1 0.615861 0.975156 0.860715
Si Si2 0.123261 0.887819 0.107365
Si Si3 0.674031 0.285762 0.203208
Si Si4 0.319313 0.155530 0.734803
Si Si5 0.285929 0.059441 0.588829
Si Si6 0.964453 0.704330 0.974922
Si Si7 0.196619 0.379229 0.888179
O O1 0.636673 0.955160 0.658010
O O2 0.620381 0.928674 0.979555
O O3 0.708637 0.014945 0.788896
O O4 0.500000 0.000000 0.000000
O O5 0.132117 0.831484 0.155552
O O6 0.167323 0.927977 0.178474
O O7 0.000000 0.903013 0.250000
O O8 0.190887 0.891266 0.851809
O O9 0.732647 0.304932 0.285241
O O10 0.568304 0.255515 0.396601
O O11 0.750000 0.250000 0.000000
O O12 0.333678 0.109386 0.598730
O O13 0.434491 0.181402 0.570827
O O14 0.281978 0.135797 0.957958
O O15 0.000000 0.716903 0.750000
O O16 0.864143 0.666188 0.117394
#
# Coordination Sequence:
#
# PCOD8143622 Si02
#       7
#     8   8   8   8   8   8   8
#     4  11  21  36  65  93 128 161 197 250 317 382
#     4  10  23  42  63  87 124 167 211 260 307 364
#     4  11  23  39  58  89 120 162 216 253 309 371
#     4  10  23  40  62  87 128 162 200 260 315 371
#     4  10  22  40  59  94 124 158 207 249 310 377
#     4  10  22  37  60  90 124 163 202 252 317 371
#     4  10  21  41  61  92 127 160 208 254 309 379
#
# _framework density 20.087187
#
# number of rings (size 3 to 8) (size 9 to 14) (size 15 to 20)
#    0.000    1.714    1.429    2.143    2.000    6.857 
#    0.000    5.000    0.000    0.000    0.000    0.000 
#    0.000    0.000    0.000    0.000    0.000    0.000 
#
# Total GULP energy -347169.129751 kJ/mol
# GULP energy per Si atom -12398.897491 kJ/mol
# Density = 2.004147 g / cm^3
# Si number density = 20.087187 Si / 1000 Ang^3
#
#
#
# Elastic Constant Matrix: (Units=GPa)
#
#
# Indices 1 2 3 4 5 6 
#
# 1 135.0549 60.6050 60.6861 0.0000 0.7474 0.0000
# 2 60.6050 115.8577 51.1533 0.0000 3.0067 0.0000
# 3 60.6861 51.1533 97.5013 0.0000 -9.0580 0.0000
# 4 0.0000 0.0000 0.0000 36.3198 0.0000 3.5363
# 5 0.7474 3.0067 -9.0580 0.0000 26.3799 0.0000
# 6 0.0000 0.0000 0.0000 3.5363 0.0000 34.0406
#
#
#
# Elastic Compliance Matrix: (Units=1/GPa)
#
#
# Indices 1 2 3 4 5 6 
#
# 1 0.011444 -0.003542 -0.005430 0.000000 -0.001785 0.000000
# 2 -0.003542 0.012635 -0.004699 0.000000 -0.002953 0.000000
# 3 -0.005430 -0.004699 0.016698 0.000000 0.006423 0.000000
# 4 0.000000 0.000000 0.000000 0.027815 0.000000 -0.002890
# 5 -0.001785 -0.002953 0.006423 0.000000 0.040500 0.000000
# 6 0.000000 0.000000 0.000000 -0.002890 0.000000 0.029677
#
#
# Mechanical properties :
#
#
# Convention : Reuss Voigt Hill
#
# Bulk Modulus (GPa) = 74.43329 77.03364 75.73346
# Shear Modulus (GPa) = 29.31009 31.07934 30.19471
#
# Velocity S-wave (km/s) = 3.82402 3.93774 3.88130
# Velocity P-wave (km/s) = 7.52549 7.68813 7.60724
#
# Compressibility (1/GPa) = 0.01343485
#
# Stress axis : x y z
#
# Youngs Moduli (GPa) = 87.38246 79.14219 59.88794
#
# Poissons Ratio (x) = 0.28036 0.32520
# Poissons Ratio (y) = 0.30955 0.28139
# Poissons Ratio (z) = 0.47450 0.37186
#
# Static dielectric constant tensor:
#      x y z
#    x 3.902210 0.000000 0.148640 
#    y 0.000000 4.010600 0.000000 
#    z 0.148640 0.000000 3.502750 
# 
# 
# High freq. dielectric constant tensor:
#      x y z
#    x 1.788390 0.000000 0.013820 
#    y 0.000000 1.798680 0.000000 
#    z 0.013820 0.000000 1.769190 
# 
# From -- ./inp_files/42717.got.cif
#   From: 2010.06.25/outbox.cif.g09.slc.cpg/sg15_22_cif.got.tgz:42717.got - 2010.06.28 07:06:18.
