data_PCOD8143281
_publ_section_title
;
Structure prediction by ZEFSAII (Michael W. Deem and Ramdas Pophale) SiO2 
 PCOD8143281
Probable space group: C 2/C
;
_chemical_formula_sum "Si O2"
_cell_formula_units_Z 60
_cell_length_a 8.092576
_cell_length_b 22.081844
_cell_length_c 20.444538
_cell_angle_alpha 90.000000
_cell_angle_beta 49.415561
_cell_angle_gamma 90.000000
_cell_volume 2774.581468
_symmetry_space_group_name_H-M "C 2/C"
_symmetry_group_IT_number 15
_symmetry_cell_setting 'monoclinic'
loop_
_space_group_symop_operation_xyz
x,y,z
-x,y,1/2-z
-x,-y,-z
x,-y,1/2+z
1/2+x,1/2+y,z
1/2-x,1/2+y,1/2-z
1/2-x,1/2-y,-z
1/2+x,1/2-y,1/2+z
loop_
_atom_site_type_symbol
_atom_site_label
_atom_site_fract_x
_atom_site_fract_y
_atom_site_fract_z
Si Si1 0.646761 0.686711 0.432512
Si Si2 0.191811 0.483433 0.498501
Si Si3 0.731362 0.112843 0.218796
Si Si4 0.082529 0.699415 0.517474
Si Si5 0.967395 0.636515 0.099366
Si Si6 0.075001 0.007343 0.806117
Si Si7 0.000000 0.564137 0.750000
Si Si8 0.729991 0.105636 0.568637
O O1 0.691585 0.668088 0.346022
O O2 0.626781 0.759643 0.439784
O O3 0.850739 0.683550 0.426807
O O4 0.453185 0.643590 0.508505
O O5 0.097319 0.427137 0.562751
O O6 0.402195 0.462726 0.401095
O O7 0.253804 0.538025 0.532245
O O8 0.000000 0.500000 0.500000
O O9 0.500000 0.087935 0.250000
O O10 0.714246 0.133507 0.298214
O O11 0.920416 0.062417 0.171842
O O12 0.250000 0.750000 0.500000
O O13 0.047417 0.645512 0.578256
O O14 0.151473 0.662548 0.434282
O O15 0.325898 0.028396 0.749530
O O16 0.000000 0.016137 0.750000
O O17 0.849317 0.603531 0.836492
#
# Coordination Sequence:
#
# PCOD8143281 Si02
#       8
#     8   8   8   8   8   8   4   8
#     4  10  22  42  67  94 131 175 224 276 333 398
#     4  12  23  40  68 101 139 175 220 279 342 413
#     4  10  21  40  65 102 131 171 224 279 332 396
#     4  10  23  43  64  90 124 174 226 278 331 397
#     4  11  22  39  70  98 131 173 222 280 339 400
#     4  12  25  39  67 102 140 180 218 275 340 413
#     4  12  26  44  64  98 142 178 222 276 342 418
#     4  11  23  43  64  93 132 176 217 271 340 402
#
# _framework density 21.624883000000001
#
# number of rings (size 3 to 8) (size 9 to 14) (size 15 to 20)
#    0.000    1.067    3.333    3.600    1.867    1.067 
#    4.800    0.000    5.867    0.000    0.000    0.000 
#    0.000    0.000    0.000    0.000    0.000    0.000 
#
# Total GULP energy -371656.407502 kJ/mol
# GULP energy per Si atom -12388.546917 kJ/mol
# Density = 2.157566 g / cm^3
# Si number density = 21.624883 Si / 1000 Ang^3
#
#
#
# Elastic Constant Matrix: (Units=GPa)
#
#
# Indices 1 2 3 4 5 6 
#
# 1 68.0367 10.9906 21.5313 0.0000 9.8730 0.0000
# 2 10.9906 83.8644 28.5783 0.0000 13.6583 0.0000
# 3 21.5313 28.5783 135.2554 0.0000 16.0820 0.0000
# 4 0.0000 0.0000 0.0000 15.9811 0.0000 3.5975
# 5 9.8730 13.6583 16.0820 0.0000 39.5132 0.0000
# 6 0.0000 0.0000 0.0000 3.5975 0.0000 32.4132
#
#
#
# Elastic Compliance Matrix: (Units=1/GPa)
#
#
# Indices 1 2 3 4 5 6 
#
# 1 0.015892 -0.000942 -0.001994 0.000000 -0.002834 0.000000
# 2 -0.000942 0.013384 -0.002266 0.000000 -0.003469 0.000000
# 3 -0.001994 -0.002266 0.008446 0.000000 -0.002156 0.000000
# 4 0.000000 0.000000 0.000000 0.064177 0.000000 -0.007123
# 5 -0.002834 -0.003469 -0.002156 0.000000 0.028093 0.000000
# 6 0.000000 0.000000 0.000000 -0.007123 0.000000 0.031642
#
#
# Mechanical properties :
#
#
# Convention : Reuss Voigt Hill
#
# Bulk Modulus (GPa) = 36.60315 45.48412 41.04363
# Shear Modulus (GPa) = 27.60230 32.65193 30.12712
#
# Velocity S-wave (km/s) = 3.57657 3.88999 3.73657
# Velocity P-wave (km/s) = 5.83258 6.42300 6.13489
#
# Compressibility (1/GPa) = 0.02732006
#
# Stress axis : x y z
#
# Youngs Moduli (GPa) = 62.92347 74.71352 118.40049
#
# Poissons Ratio (x) = 0.07036 0.23609
# Poissons Ratio (y) = 0.05926 0.26825
# Poissons Ratio (z) = 0.12547 0.16927
#
# Static dielectric constant tensor:
#      x y z
#    x 4.175530 0.000000 -0.101420 
#    y 0.000000 3.890250 0.000000 
#    z -0.101420 0.000000 3.940040 
# 
# 
# High freq. dielectric constant tensor:
#      x y z
#    x 1.864350 0.000000 0.008650 
#    y 0.000000 1.837760 0.000000 
#    z 0.008650 0.000000 1.846710 
# 
# From -- ./inp_files/234045.got.cif
#   From: 2010.06.25/outbox.cif.g09.slc.cpg/sg15_118_cif.got.tgz:234045.got - 2010.06.28 07:06:18.
