data_PCOD8143313
_publ_section_title
;
Structure prediction by ZEFSAII (Michael W. Deem and Ramdas Pophale) SiO2 
 PCOD8143313
Probable space group: C 2/C
;
_chemical_formula_sum "Si O2"
_cell_formula_units_Z 48
_cell_length_a 20.844162
_cell_length_b 19.584952
_cell_length_c 13.903258
_cell_angle_alpha 90.000000
_cell_angle_beta 155.674369
_cell_angle_gamma 90.000000
_cell_volume 2337.967941
_symmetry_space_group_name_H-M "C 2/C"
_symmetry_group_IT_number 15
_symmetry_cell_setting 'monoclinic'
loop_
_space_group_symop_operation_xyz
x,y,z
-x,y,1/2-z
-x,-y,-z
x,-y,1/2+z
1/2+x,1/2+y,z
1/2-x,1/2+y,1/2-z
1/2-x,1/2-y,-z
1/2+x,1/2-y,1/2+z
loop_
_atom_site_type_symbol
_atom_site_label
_atom_site_fract_x
_atom_site_fract_y
_atom_site_fract_z
Si Si1 0.682908 0.990141 0.488676
Si Si2 0.626668 0.815691 0.795507
Si Si3 0.360584 0.954320 0.772454
Si Si4 0.197784 0.749690 0.630642
Si Si5 0.823990 0.111693 0.313100
Si Si6 0.683490 0.623292 0.772205
O O1 0.500000 0.981405 0.250000
O O2 0.724820 0.009415 0.435607
O O3 0.746012 0.048066 0.649686
O O4 0.765183 0.918854 0.630872
O O5 0.562776 0.882467 0.653053
O O6 0.762856 0.777990 0.922500
O O7 0.485553 0.763422 0.615295
O O8 0.697512 0.841622 0.991159
O O9 0.232905 0.939291 0.680158
O O10 0.500000 0.000000 0.000000
O O11 0.240889 0.810672 0.764277
O O12 0.299029 0.679595 0.790809
O O13 0.009695 0.114069 0.571608
#
# Coordination Sequence:
#
# PCOD8143313 Si02
#       6
#     8   8   8   8   8   8
#     4  11  22  41  64  92 125 165 215 264 322 383
#     4  10  22  34  62  91 130 163 209 266 324 386
#     4  10  21  40  65  91 122 169 215 261 324 384
#     4  11  21  37  58  94 133 167 207 262 329 383
#     4  11  24  38  63  98 129 167 210 266 326 387
#     4  11  22  37  61  94 131 160 211 264 330 373
#
# _framework density 20.530650000000001
#
# number of rings (size 3 to 8) (size 9 to 14) (size 15 to 20)
#    0.000    1.333    3.333    3.500    2.333    5.333 
#    0.000    0.000    0.000    4.000    0.000    0.000 
#    0.000    0.000    0.000    0.000    0.000    0.000 
#
# Total GULP energy -297382.468346 kJ/mol
# GULP energy per Si atom -12390.936181 kJ/mol
# Density = 2.048392 g / cm^3
# Si number density = 20.530650 Si / 1000 Ang^3
#
#
#
# Elastic Constant Matrix: (Units=GPa)
#
#
# Indices 1 2 3 4 5 6 
#
# 1 69.0621 46.6140 46.8448 0.0000 7.5109 0.0000
# 2 46.6140 143.8078 67.1275 0.0000 10.5208 0.0000
# 3 46.8448 67.1275 76.5125 0.0000 21.6648 0.0000
# 4 0.0000 0.0000 0.0000 40.7524 0.0000 3.6481
# 5 7.5109 10.5208 21.6648 0.0000 27.3176 0.0000
# 6 0.0000 0.0000 0.0000 3.6481 0.0000 31.0015
#
#
#
# Elastic Compliance Matrix: (Units=1/GPa)
#
#
# Indices 1 2 3 4 5 6 
#
# 1 0.025845 -0.001018 -0.016803 0.000000 0.006612 0.000000
# 2 -0.001018 0.012308 -0.011493 0.000000 0.004654 0.000000
# 3 -0.016803 -0.011493 0.039821 0.000000 -0.022535 0.000000
# 4 0.000000 0.000000 0.000000 0.024800 0.000000 -0.002918
# 5 0.006612 0.004654 -0.022535 0.000000 0.050868 0.000000
# 6 0.000000 0.000000 0.000000 -0.002918 0.000000 0.032600
#
#
# Mechanical properties :
#
#
# Convention : Reuss Voigt Hill
#
# Bulk Modulus (GPa) = 51.68729 67.83945 59.76337
# Shear Modulus (GPa) = 19.89518 28.40072 24.14795
#
# Velocity S-wave (km/s) = 3.11633 3.72335 3.43328
# Velocity P-wave (km/s) = 6.17892 7.18326 6.69993
#
# Compressibility (1/GPa) = 0.01934712
#
# Stress axis : x y z
#
# Youngs Moduli (GPa) = 38.69235 81.24879 25.11225
#
# Poissons Ratio (x) = 0.08270 0.42195
# Poissons Ratio (y) = 0.03938 0.28861
# Poissons Ratio (z) = 0.65013 0.93379
#
# Static dielectric constant tensor:
#      x y z
#    x 3.851580 0.000000 0.110290 
#    y 0.000000 4.706590 0.000000 
#    z 0.110290 0.000000 3.398820 
# 
# 
# High freq. dielectric constant tensor:
#      x y z
#    x 1.789770 0.000000 0.032070 
#    y 0.000000 1.833390 0.000000 
#    z 0.032070 0.000000 1.765210 
# 
# From -- ./inp_files/174531.got.cif
#   From: 2010.06.25/outbox.cif.g09.slc.cpg/sg15_88_cif.got.tgz:174531.got - 2010.06.28 07:06:18.
