data_PCOD8143070
_publ_section_title
;
Structure prediction by ZEFSAII (Michael W. Deem and Ramdas Pophale) SiO2 
 PCOD8143070
Probable space group: C 2/C
;
_chemical_formula_sum "Si O2"
_cell_formula_units_Z 48
_cell_length_a 7.623115
_cell_length_b 27.684598
_cell_length_c 11.833184
_cell_angle_alpha 90.000000
_cell_angle_beta 56.237287
_cell_angle_gamma 90.000000
_cell_volume 2076.128782
_symmetry_space_group_name_H-M "C 2/C"
_symmetry_group_IT_number 15
_symmetry_cell_setting 'monoclinic'
loop_
_space_group_symop_operation_xyz
x,y,z
-x,y,1/2-z
-x,-y,-z
x,-y,1/2+z
1/2+x,1/2+y,z
1/2-x,1/2+y,1/2-z
1/2-x,1/2-y,-z
1/2+x,1/2-y,1/2+z
loop_
_atom_site_type_symbol
_atom_site_label
_atom_site_fract_x
_atom_site_fract_y
_atom_site_fract_z
Si Si1 0.598569 0.804076 0.962657
Si Si2 0.505714 0.909781 0.928890
Si Si3 0.207215 0.764166 0.235542
Si Si4 0.765191 0.343232 0.366050
Si Si5 0.755462 0.446310 0.442908
Si Si6 0.279254 0.453666 0.634792
O O1 0.497479 0.852112 0.943685
O O2 0.744985 0.774490 0.822987
O O3 0.408648 0.770452 0.080802
O O4 0.768149 0.822214 0.995816
O O5 0.569387 0.936064 0.023535
O O6 0.673089 0.925397 0.774631
O O7 0.275401 0.926855 0.965554
O O8 0.129976 0.815072 0.320403
O O9 0.000000 0.743234 0.250000
O O10 0.734759 0.400410 0.367292
O O11 0.000000 0.327546 0.250000
O O12 0.524859 0.455434 0.577755
O O13 0.815599 0.492104 0.344424
#
# Coordination Sequence:
#
# PCOD8143070 Si02
#       6
#     8   8   8   8   8   8
#     4  10  23  42  63  91 127 174 213 265 328 394
#     4  10  22  40  64  92 131 167 214 270 326 381
#     4  11  23  39  64  93 126 163 214 270 322 386
#     4   9  21  40  61  87 127 163 214 259 333 384
#     4  10  21  40  61  91 125 170 213 263 322 392
#     4  10  22  37  63  92 126 164 219 263 323 382
#
# _framework density 23.119952000000001
#
# number of rings (size 3 to 8) (size 9 to 14) (size 15 to 20)
#    0.000    2.000    0.000    2.000    7.000    1.333 
#    3.000    5.000    0.000    0.000    0.000    0.000 
#    0.000    0.000    0.000    0.000    0.000    0.000 
#
# Total GULP energy -297375.061085 kJ/mol
# GULP energy per Si atom -12390.627545 kJ/mol
# Density = 2.306733 g / cm^3
# Si number density = 23.119952 Si / 1000 Ang^3
#
#
#
# Elastic Constant Matrix: (Units=GPa)
#
#
# Indices 1 2 3 4 5 6 
#
# 1 45.9296 4.8730 14.5195 0.0000 1.6011 0.0000
# 2 4.8730 131.0595 47.3379 0.0000 9.3827 0.0000
# 3 14.5195 47.3379 90.2019 0.0000 0.6848 0.0000
# 4 0.0000 0.0000 0.0000 -2.0645 0.0000 -23.9837
# 5 1.6011 9.3827 0.6848 0.0000 26.2408 0.0000
# 6 0.0000 0.0000 0.0000 -23.9837 0.0000 6.1225
#
#
#
# Elastic Compliance Matrix: (Units=1/GPa)
#
#
# Indices 1 2 3 4 5 6 
#
# 1 0.023039 0.000728 -0.004079 0.000000 -0.001560 0.000000
# 2 0.000728 0.009721 -0.005193 0.000000 -0.003385 0.000000
# 3 -0.004079 -0.005193 0.014455 0.000000 0.001729 0.000000
# 4 0.000000 0.000000 0.000000 -0.010415 0.000000 -0.040798
# 5 -0.001560 -0.003385 0.001729 0.000000 0.039369 0.000000
# 6 0.000000 0.000000 0.000000 -0.040798 0.000000 0.003512
#
#
# Mechanical properties :
#
#
# Convention : Reuss Voigt Hill
#
# Bulk Modulus (GPa) = 33.19209 44.51688 38.85448
# Shear Modulus (GPa) = 46.81161 19.42380 33.11770
#
# Velocity S-wave (km/s) = 4.50458 2.90165 3.78885
# Velocity P-wave (km/s) = 6.43759 5.52473 5.99855
#
# Compressibility (1/GPa) = 0.03012766
#
# Stress axis : x y z
#
# Youngs Moduli (GPa) = 43.40467 102.86891 69.17993
#
# Poissons Ratio (x) = -0.07492 0.28218
# Poissons Ratio (y) = -0.03161 0.35926
# Poissons Ratio (z) = 0.17704 0.53422
#
# Static dielectric constant tensor:
#      x y z
#    x 4.344190 0.000000 0.324280 
#    y 0.000000 4.284260 0.000000 
#    z 0.324280 0.000000 4.037170 
# 
# 
# High freq. dielectric constant tensor:
#      x y z
#    x 1.901980 0.000000 0.013830 
#    y 0.000000 1.926290 0.000000 
#    z 0.013830 0.000000 1.901970 
# 
# From -- ./inp_files/80546.got.cif
#   From: 2010.06.25/outbox.cif.g09.slc.cpg/sg15_41_cif.got.tgz:80546.got - 2010.06.28 07:06:18.
