data_PCOD8143653
_publ_section_title
;
Structure prediction by ZEFSAII (Michael W. Deem and Ramdas Pophale) SiO2 
 PCOD8143653
Probable space group: C 2/C
;
_chemical_formula_sum "Si O2"
_cell_formula_units_Z 48
_cell_length_a 12.938415
_cell_length_b 14.304355
_cell_length_c 13.158270
_cell_angle_alpha 90.000000
_cell_angle_beta 111.228052
_cell_angle_gamma 90.000000
_cell_volume 2270.034136
_symmetry_space_group_name_H-M "C 2/C"
_symmetry_group_IT_number 15
_symmetry_cell_setting 'monoclinic'
loop_
_space_group_symop_operation_xyz
x,y,z
-x,y,1/2-z
-x,-y,-z
x,-y,1/2+z
1/2+x,1/2+y,z
1/2-x,1/2+y,1/2-z
1/2-x,1/2-y,-z
1/2+x,1/2-y,1/2+z
loop_
_atom_site_type_symbol
_atom_site_label
_atom_site_fract_x
_atom_site_fract_y
_atom_site_fract_z
Si Si1 0.199386 0.845074 0.805580
Si Si2 0.000000 0.616342 0.250000
Si Si3 0.500000 0.538791 0.250000
Si Si4 0.926320 0.677970 0.824068
Si Si5 0.695148 0.995866 0.289429
Si Si6 0.579859 0.434797 0.089585
Si Si7 0.430035 0.781152 0.931454
O O1 0.153989 0.767797 0.709866
O O2 0.299106 0.800840 0.908153
O O3 0.095058 0.890396 0.831908
O O4 0.251524 0.927214 0.761446
O O5 0.099927 0.547495 0.320954
O O6 0.032429 0.677903 0.164028
O O7 0.561751 0.468283 0.197750
O O8 0.853390 0.584464 0.800838
O O9 0.000000 0.677199 0.750000
O O10 0.000074 0.676069 0.951633
O O11 0.791001 0.951658 0.395398
O O12 0.546266 0.328404 0.063026
O O13 0.500000 0.500000 0.000000
#
# Coordination Sequence:
#
# PCOD8143653 Si02
#       7
#     8   4   4   8   8   8   8
#     4  10  22  41  66  96 131 167 219 266 326 393
#     4  10  23  45  66  96 132 172 224 262 326 394
#     4  10  21  41  62  90 134 166 210 276 316 390
#     4  12  24  43  66  96 133 170 217 271 329 384
#     4  10  22  44  64  95 136 167 216 271 319 397
#     4  11  23  42  65  95 129 172 221 266 328 380
#     4  11  24  43  68  95 130 175 218 272 324 390
#
# _framework density 21.145057000000001
#
# number of rings (size 3 to 8) (size 9 to 14) (size 15 to 20)
#    0.000    1.333    3.333    2.500    0.000    4.667 
#    6.000    4.167    0.000    0.000    0.000    0.000 
#    0.000    0.000    0.000    0.000    0.000    0.000 
#
# Total GULP energy -297386.160119 kJ/mol
# GULP energy per Si atom -12391.090005 kJ/mol
# Density = 2.109693 g / cm^3
# Si number density = 21.145057 Si / 1000 Ang^3
#
#
#
# Elastic Constant Matrix: (Units=GPa)
#
#
# Indices 1 2 3 4 5 6 
#
# 1 105.3744 43.9253 37.7374 0.0000 22.9954 0.0000
# 2 43.9253 126.8207 27.6677 0.0000 12.1063 0.0000
# 3 37.7374 27.6677 113.9990 0.0000 23.8420 0.0000
# 4 0.0000 0.0000 0.0000 31.6311 0.0000 -3.9092
# 5 22.9954 12.1063 23.8420 0.0000 38.2524 0.0000
# 6 0.0000 0.0000 0.0000 -3.9092 0.0000 -14.5352
#
#
#
# Elastic Compliance Matrix: (Units=1/GPa)
#
#
# Indices 1 2 3 4 5 6 
#
# 1 0.012908 -0.003463 -0.002345 0.000000 -0.005203 0.000000
# 2 -0.003463 0.009339 -0.001078 0.000000 -0.000202 0.000000
# 3 -0.002345 -0.001078 0.010859 0.000000 -0.005018 0.000000
# 4 0.000000 0.000000 0.000000 0.030597 0.000000 -0.008229
# 5 -0.005203 -0.000202 -0.005018 0.000000 0.032461 0.000000
# 6 0.000000 0.000000 0.000000 -0.008229 0.000000 -0.066585
#
#
# Mechanical properties :
#
#
# Convention : Reuss Voigt Hill
#
# Bulk Modulus (GPa) = 51.71749 62.76164 57.23957
# Shear Modulus (GPa) = 100.40921 26.86056 63.63489
#
# Velocity S-wave (km/s) = 6.89848 3.56799 5.49179
# Velocity P-wave (km/s) = 9.37889 6.83520 8.20620
#
# Compressibility (1/GPa) = 0.01933582
#
# Stress axis : x y z
#
# Youngs Moduli (GPa) = 77.46860 107.07796 92.08782
#
# Poissons Ratio (x) = 0.37079 0.21591
# Poissons Ratio (y) = 0.26826 0.09927
# Poissons Ratio (z) = 0.18163 0.11543
#
# Static dielectric constant tensor:
#      x y z
#    x 4.068590 0.000000 1.101330 
#    y 0.000000 5.795450 0.000000 
#    z 1.101330 0.000000 4.239120 
# 
# 
# High freq. dielectric constant tensor:
#      x y z
#    x 1.838150 0.000000 0.032870 
#    y 0.000000 1.857840 0.000000 
#    z 0.032870 0.000000 1.805140 
# 
# From -- ./inp_files/144407.got.cif
#   From: 2010.06.25/outbox.cif.g09.slc.cpg/sg15_73_cif.got.tgz:144407.got - 2010.06.28 07:06:18.
