data_PCOD8143753
_publ_section_title
;
Structure prediction by ZEFSAII (Michael W. Deem and Ramdas Pophale) SiO2 
 PCOD8143753
Probable space group: C 2/C
;
_chemical_formula_sum "Si O2"
_cell_formula_units_Z 56
_cell_length_a 11.386962
_cell_length_b 7.999619
_cell_length_c 29.839458
_cell_angle_alpha 90.000000
_cell_angle_beta 109.130678
_cell_angle_gamma 90.000000
_cell_volume 2568.004865
_symmetry_space_group_name_H-M "C 2/C"
_symmetry_group_IT_number 15
_symmetry_cell_setting 'monoclinic'
loop_
_space_group_symop_operation_xyz
x,y,z
-x,y,1/2-z
-x,-y,-z
x,-y,1/2+z
1/2+x,1/2+y,z
1/2-x,1/2+y,1/2-z
1/2-x,1/2-y,-z
1/2+x,1/2-y,1/2+z
loop_
_atom_site_type_symbol
_atom_site_label
_atom_site_fract_x
_atom_site_fract_y
_atom_site_fract_z
Si Si1 0.850801 0.261155 0.814338
Si Si2 0.384428 0.721454 0.661133
Si Si3 0.590742 0.546018 0.407853
Si Si4 0.445310 0.662189 0.515590
Si Si5 0.343150 0.145200 0.411674
Si Si6 0.639189 0.512408 0.759228
Si Si7 0.860158 0.259035 0.413667
O O1 0.839486 0.240290 0.866605
O O2 0.742937 0.376098 0.781546
O O3 0.841671 0.080647 0.788903
O O4 0.990547 0.335610 0.821929
O O5 0.425866 0.548384 0.641336
O O6 0.342010 0.671929 0.705693
O O7 0.270467 0.813382 0.621649
O O8 0.623061 0.399865 0.448064
O O9 0.710933 0.665651 0.420026
O O10 0.471978 0.656260 0.405626
O O11 0.500000 0.500000 0.500000
O O12 0.552936 0.793062 0.541124
O O13 0.356324 0.746924 0.467438
O O14 0.369428 0.953220 0.400751
O O15 0.500000 0.438162 0.750000
#
# Coordination Sequence:
#
# PCOD8143753 Si02
#       7
#     8   8   8   8   8   8   8
#     4  11  22  45  67  94 127 164 210 266 324 384
#     4  10  21  42  67  90 130 164 210 265 316 375
#     4  10  21  41  64  89 132 170 211 265 314 372
#     4  10  22  41  63  98 132 174 219 260 316 375
#     4  11  22  43  64  95 132 170 214 265 318 377
#     4  10  23  44  66  90 127 163 207 266 327 381
#     4  10  22  40  66  97 129 173 216 255 322 376
#
# _framework density 21.806812000000001
#
# number of rings (size 3 to 8) (size 9 to 14) (size 15 to 20)
#    0.000    1.714    4.286    0.429    0.000    6.857 
#    7.714    6.429    0.000    0.000    0.000    0.000 
#    0.000    0.000    0.000    0.000    0.000    0.000 
#
# Total GULP energy -347016.804789 kJ/mol
# GULP energy per Si atom -12393.457314 kJ/mol
# Density = 2.175718 g / cm^3
# Si number density = 21.806812 Si / 1000 Ang^3
#
#
#
# Elastic Constant Matrix: (Units=GPa)
#
#
# Indices 1 2 3 4 5 6 
#
# 1 142.3973 40.4311 35.3756 0.0000 31.1641 0.0000
# 2 40.4311 45.8938 12.6767 0.0000 6.7625 0.0000
# 3 35.3756 12.6767 94.6808 0.0000 20.4890 0.0000
# 4 0.0000 0.0000 0.0000 29.4491 0.0000 1.1007
# 5 31.1641 6.7625 20.4890 0.0000 39.8749 0.0000
# 6 0.0000 0.0000 0.0000 1.1007 0.0000 40.2689
#
#
#
# Elastic Compliance Matrix: (Units=1/GPa)
#
#
# Indices 1 2 3 4 5 6 
#
# 1 0.011281 -0.008518 -0.001664 0.000000 -0.006517 0.000000
# 2 -0.008518 0.029294 -0.001243 0.000000 0.002328 0.000000
# 3 -0.001664 -0.001243 0.012402 0.000000 -0.004861 0.000000
# 4 0.000000 0.000000 0.000000 0.033992 0.000000 -0.000929
# 5 -0.006517 0.002328 -0.004861 0.000000 0.032275 0.000000
# 6 0.000000 0.000000 0.000000 -0.000929 0.000000 0.024858
#
#
# Mechanical properties :
#
#
# Convention : Reuss Voigt Hill
#
# Bulk Modulus (GPa) = 33.19432 51.10431 42.14932
# Shear Modulus (GPa) = 28.24947 34.88449 31.56698
#
# Velocity S-wave (km/s) = 3.60313 4.00397 3.80883
# Velocity P-wave (km/s) = 5.70658 6.69788 6.22201
#
# Compressibility (1/GPa) = 0.03012563
#
# Stress axis : x y z
#
# Youngs Moduli (GPa) = 88.64608 34.13665 80.63226
#
# Poissons Ratio (x) = 0.29078 0.13418
# Poissons Ratio (y) = 0.75510 0.10025
# Poissons Ratio (z) = 0.14752 0.04244
#
# Static dielectric constant tensor:
#      x y z
#    x 3.888930 0.000000 -0.191580 
#    y 0.000000 3.487000 0.000000 
#    z -0.191580 0.000000 4.591340 
# 
# 
# High freq. dielectric constant tensor:
#      x y z
#    x 1.865460 0.000000 0.006920 
#    y 0.000000 1.815070 0.000000 
#    z 0.006920 0.000000 1.882420 
# 
# From -- ./inp_files/310032.got.cif
#   From: 2010.06.25/outbox.cif.g09.slc.cpg/sg15_156_cif.got.tgz:310032.got - 2010.06.28 07:06:18.
