data_PCOD8143280
_publ_section_title
;
Structure prediction by ZEFSAII (Michael W. Deem and Ramdas Pophale) SiO2 
 PCOD8143280
Probable space group: C 2/C
;
_chemical_formula_sum "Si O2"
_cell_formula_units_Z 40
_cell_length_a 5.360119
_cell_length_b 15.349239
_cell_length_c 20.042303
_cell_angle_alpha 90.000000
_cell_angle_beta 108.712639
_cell_angle_gamma 90.000000
_cell_volume 1561.790822
_symmetry_space_group_name_H-M "C 2/C"
_symmetry_group_IT_number 15
_symmetry_cell_setting 'monoclinic'
loop_
_space_group_symop_operation_xyz
x,y,z
-x,y,1/2-z
-x,-y,-z
x,-y,1/2+z
1/2+x,1/2+y,z
1/2-x,1/2+y,1/2-z
1/2-x,1/2-y,-z
1/2+x,1/2-y,1/2+z
loop_
_atom_site_type_symbol
_atom_site_label
_atom_site_fract_x
_atom_site_fract_y
_atom_site_fract_z
Si Si1 0.296060 0.272087 0.355834
Si Si2 0.000000 0.129777 0.750000
Si Si3 0.881856 0.617429 0.061276
Si Si4 0.883707 0.492533 0.806422
Si Si5 0.000000 0.153415 0.250000
Si Si6 0.723084 0.350573 0.015185
O O1 0.349364 0.307802 0.287301
O O2 0.538865 0.213121 0.404275
O O3 0.222654 0.351576 0.399922
O O4 0.041868 0.209384 0.322111
O O5 0.179310 0.066837 0.812672
O O6 0.931846 0.537181 0.116594
O O7 0.570625 0.613183 0.021695
O O8 0.058355 0.597643 0.009481
O O9 0.755000 0.405964 0.763186
O O10 0.000000 0.537939 0.750000
O O11 0.750000 0.250000 0.000000
#
# Coordination Sequence:
#
# PCOD8143280 Si02
#       6
#     8   4   8   8   4   8
#     4  10  22  38  66  99 132 161 220 284 340 382
#     4  11  26  42  58 103 134 174 216 283 344 386
#     4  10  23  41  71  93 128 177 230 264 334 404
#     4  10  24  43  64  88 134 183 222 268 330 413
#     4   9  22  38  66  95 120 172 224 269 330 408
#     4  10  21  40  65 102 130 168 216 289 330 394
#
# _framework density 25.611626999999999
#
# number of rings (size 3 to 8) (size 9 to 14) (size 15 to 20)
#    0.000    2.000    0.000    2.400   18.200    1.600 
#    0.000    2.000    0.000    0.000    0.000    0.000 
#    0.000    0.000    0.000    0.000    0.000    0.000 
#
# Total GULP energy -247781.819296 kJ/mol
# GULP energy per Si atom -12389.090965 kJ/mol
# Density = 2.555333 g / cm^3
# Si number density = 25.611627 Si / 1000 Ang^3
#
#
#
# Elastic Constant Matrix: (Units=GPa)
#
#
# Indices 1 2 3 4 5 6 
#
# 1 119.2775 1.9456 23.9574 0.0000 -3.0865 0.0000
# 2 1.9456 46.0759 0.5202 0.0000 -3.4884 0.0000
# 3 23.9574 0.5202 85.1119 0.0000 -17.6669 0.0000
# 4 0.0000 0.0000 0.0000 11.2288 0.0000 -4.6808
# 5 -3.0865 -3.4884 -17.6669 0.0000 49.6170 0.0000
# 6 0.0000 0.0000 0.0000 -4.6808 0.0000 14.6832
#
#
#
# Elastic Compliance Matrix: (Units=1/GPa)
#
#
# Indices 1 2 3 4 5 6 
#
# 1 0.008899 -0.000376 -0.002584 0.000000 -0.000393 0.000000
# 2 -0.000376 0.021839 0.000309 0.000000 0.001622 0.000000
# 3 -0.002584 0.000309 0.013439 0.000000 0.004646 0.000000
# 4 0.000000 0.000000 0.000000 0.102704 0.000000 0.032741
# 5 -0.000393 0.001622 0.004646 0.000000 0.021898 0.000000
# 6 0.000000 0.000000 0.000000 0.032741 0.000000 0.078542
#
#
# Mechanical properties :
#
#
# Convention : Reuss Voigt Hill
#
# Bulk Modulus (GPa) = 25.72423 33.70130 29.71277
# Shear Modulus (GPa) = 18.82659 30.04197 24.43428
#
# Velocity S-wave (km/s) = 2.71418 3.42860 3.09209
# Velocity P-wave (km/s) = 4.45961 5.37223 4.93705
#
# Compressibility (1/GPa) = 0.03887385
#
# Stress axis : x y z
#
# Youngs Moduli (GPa) = 112.37455 45.79067 74.40948
#
# Poissons Ratio (x) = 0.01723 0.19228
# Poissons Ratio (y) = 0.04229 -0.02300
# Poissons Ratio (z) = 0.29039 -0.01416
#
# Static dielectric constant tensor:
#      x y z
#    x 4.580980 0.000000 -0.312360 
#    y 0.000000 4.590630 0.000000 
#    z -0.312360 0.000000 5.252780 
# 
# 
# High freq. dielectric constant tensor:
#      x y z
#    x 2.008750 0.000000 0.003090 
#    y 0.000000 2.024950 0.000000 
#    z 0.003090 0.000000 2.026880 
# 
# From -- ./inp_files/226880.got.cif
#   From: 2010.06.25/outbox.cif.g09.slc.cpg/sg15_114_cif.got.tgz:226880.got - 2010.06.28 07:06:18.
