data_PCOD8143612
_publ_section_title
;
Structure prediction by ZEFSAII (Michael W. Deem and Ramdas Pophale) SiO2 
 PCOD8143612
Probable space group: C 2/C
;
_chemical_formula_sum "Si O2"
_cell_formula_units_Z 40
_cell_length_a 7.148623
_cell_length_b 13.817128
_cell_length_c 23.372491
_cell_angle_alpha 90.000000
_cell_angle_beta 106.558813
_cell_angle_gamma 90.000000
_cell_volume 2212.839123
_symmetry_space_group_name_H-M "C 2/C"
_symmetry_group_IT_number 15
_symmetry_cell_setting 'monoclinic'
loop_
_space_group_symop_operation_xyz
x,y,z
-x,y,1/2-z
-x,-y,-z
x,-y,1/2+z
1/2+x,1/2+y,z
1/2-x,1/2+y,1/2-z
1/2-x,1/2-y,-z
1/2+x,1/2-y,1/2+z
loop_
_atom_site_type_symbol
_atom_site_label
_atom_site_fract_x
_atom_site_fract_y
_atom_site_fract_z
Si Si1 0.152334 0.879721 0.106420
Si Si2 0.232615 0.136947 0.991400
Si Si3 0.930872 0.387043 0.392205
Si Si4 0.136793 0.560602 0.375942
Si Si5 0.426074 0.266147 0.180216
O O1 0.353030 0.838956 0.095474
O O2 0.989752 0.888882 0.043298
O O3 0.622848 0.896903 0.046147
O O4 0.196529 0.988174 0.135472
O O5 0.913858 0.192441 0.849364
O O6 0.250000 0.250000 0.000000
O O7 0.292235 0.087139 0.054789
O O8 0.777710 0.321203 0.344885
O O9 0.938349 0.496050 0.365709
O O10 0.102809 0.651916 0.332724
O O11 0.500000 0.283192 0.250000
#
# Coordination Sequence:
#
# PCOD8143612 Si02
#       5
#     8   8   8   8   8
#     4   9  22  39  61  90 120 154 194 242 296 360
#     4  11  18  38  63  91 126 154 185 243 300 358
#     4   9  22  39  61  90 120 154 194 242 296 360
#     4  10  21  41  61  89 122 154 196 236 306 350
#     4  11  23  44  61  82 121 156 205 258 281 338
#
# _framework density 18.076325000000001
#
# number of rings (size 3 to 8) (size 9 to 14) (size 15 to 20)
#    1.200    0.800    4.000    1.200    0.000    3.200 
#    7.200    0.000    0.000    0.000    0.000    0.000 
#    0.000    0.000    0.000    0.000    0.000    0.000 
#
# Total GULP energy -247789.199375 kJ/mol
# GULP energy per Si atom -12389.459969 kJ/mol
# Density = 1.803518 g / cm^3
# Si number density = 18.076325 Si / 1000 Ang^3
#
#
#
# Elastic Constant Matrix: (Units=GPa)
#
#
# Indices 1 2 3 4 5 6 
#
# 1 120.7597 19.4983 24.3599 0.0000 16.4533 0.0000
# 2 19.4983 106.6560 1.9601 0.0000 10.9061 0.0000
# 3 24.3599 1.9601 50.7453 0.0000 0.1278 0.0000
# 4 0.0000 0.0000 0.0000 11.7854 0.0000 3.3444
# 5 16.4533 10.9061 0.1278 0.0000 4.0494 0.0000
# 6 0.0000 0.0000 0.0000 3.3444 0.0000 35.7466
#
#
#
# Elastic Compliance Matrix: (Units=1/GPa)
#
#
# Indices 1 2 3 4 5 6 
#
# 1 0.029207 0.009671 -0.014031 0.000000 -0.144278 0.000000
# 2 0.009671 0.016151 -0.005059 0.000000 -0.082634 0.000000
# 3 -0.014031 -0.005059 0.026461 0.000000 0.069799 0.000000
# 4 0.000000 0.000000 0.000000 0.087165 0.000000 -0.008155
# 5 -0.144278 -0.082634 0.069799 0.000000 1.053520 0.000000
# 6 0.000000 0.000000 0.000000 -0.008155 0.000000 0.028738
#
#
# Mechanical properties :
#
#
# Convention : Reuss Voigt Hill
#
# Bulk Modulus (GPa) = 18.87392 41.08863 29.98127
# Shear Modulus (GPa) = 3.91316 25.80580 14.85948
#
# Velocity S-wave (km/s) = 1.47292 3.78246 2.87024
# Velocity P-wave (km/s) = 3.65466 6.46962 5.25417
#
# Compressibility (1/GPa) = 0.05298318
#
# Stress axis : x y z
#
# Youngs Moduli (GPa) = 34.23797 61.91721 37.79087
#
# Poissons Ratio (x) = -0.59883 0.53025
# Poissons Ratio (y) = -0.33113 0.19117
# Poissons Ratio (z) = 0.48040 0.31321
#
# Static dielectric constant tensor:
#      x y z
#    x 3.267190 0.000000 0.023390 
#    y 0.000000 2.942780 0.000000 
#    z 0.023390 0.000000 2.925430 
# 
# 
# High freq. dielectric constant tensor:
#      x y z
#    x 1.698350 0.000000 0.004390 
#    y 0.000000 1.707560 0.000000 
#    z 0.004390 0.000000 1.686740 
# 
# From -- ./inp_files/226851.got.cif
#   From: 2010.06.25/outbox.cif.g09.slc.cpg/sg15_114_cif.got.tgz:226851.got - 2010.06.28 07:06:18.
