data_PCOD8143495
_publ_section_title
;
Structure prediction by ZEFSAII (Michael W. Deem and Ramdas Pophale) SiO2 
 PCOD8143495
Probable space group: C 2/C
;
_chemical_formula_sum "Si O2"
_cell_formula_units_Z 52
_cell_length_a 7.809127
_cell_length_b 18.281024
_cell_length_c 21.267439
_cell_angle_alpha 90.000000
_cell_angle_beta 128.018011
_cell_angle_gamma 90.000000
_cell_volume 2391.903466
_symmetry_space_group_name_H-M "C 2/C"
_symmetry_group_IT_number 15
_symmetry_cell_setting 'monoclinic'
loop_
_space_group_symop_operation_xyz
x,y,z
-x,y,1/2-z
-x,-y,-z
x,-y,1/2+z
1/2+x,1/2+y,z
1/2-x,1/2+y,1/2-z
1/2-x,1/2-y,-z
1/2+x,1/2-y,1/2+z
loop_
_atom_site_type_symbol
_atom_site_label
_atom_site_fract_x
_atom_site_fract_y
_atom_site_fract_z
Si Si1 0.769787 0.050819 0.733776
Si Si2 0.065762 0.825542 0.143442
Si Si3 0.118813 0.441924 0.450219
Si Si4 0.500000 0.064791 0.250000
Si Si5 0.137368 0.683253 0.377653
Si Si6 0.873353 0.804193 0.481734
Si Si7 0.849428 0.403562 0.503695
O O1 0.778818 0.122564 0.780348
O O2 0.587296 0.067979 0.641550
O O3 0.000000 0.034080 0.750000
O O4 0.687200 0.982911 0.757848
O O5 0.170918 0.792864 0.103018
O O6 0.001982 0.755264 0.172048
O O7 0.857994 0.874924 0.080390
O O8 0.314235 0.388892 0.477076
O O9 0.214483 0.523765 0.471119
O O10 0.049656 0.421253 0.504645
O O11 0.625363 0.118038 0.325537
O O12 0.381665 0.709419 0.442985
O O13 0.054712 0.655821 0.426789
O O14 0.750000 0.750000 0.500000
#
# Coordination Sequence:
#
# PCOD8143495 Si02
#       7
#     8   8   8   4   8   8   8
#     4  12  26  47  73 103 147 190 243 294 368 435
#     4  11  24  42  71  99 140 192 231 298 365 434
#     4  11  22  40  69 104 134 181 239 295 348 446
#     4  12  28  48  70 106 146 190 244 298 364 440
#     4  11  25  44  66 100 143 182 233 300 366 421
#     4  11  24  41  69 102 142 180 243 297 359 429
#     4  10  21  40  68  96 137 176 231 287 365 411
#
# _framework density 21.740006999999999
#
# number of rings (size 3 to 8) (size 9 to 14) (size 15 to 20)
#    0.000    0.923    3.077    4.615    3.231    1.231 
#    2.769    0.000    0.000    0.000    0.000    0.000 
#    0.000    0.000    0.000    0.000    0.000    0.000 
#
# Total GULP energy -322266.964157 kJ/mol
# GULP energy per Si atom -12394.883237 kJ/mol
# Density = 2.169053 g / cm^3
# Si number density = 21.740007 Si / 1000 Ang^3
#
#
#
# Elastic Constant Matrix: (Units=GPa)
#
#
# Indices 1 2 3 4 5 6 
#
# 1 94.8964 49.2303 20.5520 -0.0002 -22.9133 -0.0003
# 2 49.2303 149.0389 43.8817 0.0000 -7.2856 0.0000
# 3 20.5520 43.8817 74.6359 -0.0001 -16.5602 -0.0003
# 4 -0.0002 0.0000 -0.0001 31.3837 -0.0001 -3.9610
# 5 -22.9133 -7.2856 -16.5602 -0.0001 19.0517 -0.0003
# 6 -0.0003 0.0000 -0.0003 -3.9610 -0.0003 34.2593
#
#
#
# Elastic Compliance Matrix: (Units=1/GPa)
#
#
# Indices 1 2 3 4 5 6 
#
# 1 0.018429 -0.006012 0.003553 0.000000 0.022954 0.000000
# 2 -0.006012 0.010101 -0.006233 0.000000 -0.008785 0.000000
# 3 0.003553 -0.006233 0.020447 0.000000 0.019663 0.000000
# 4 0.000000 0.000000 0.000000 0.032335 0.000001 0.003739
# 5 0.022954 -0.008785 0.019663 0.000001 0.093827 0.000001
# 6 0.000000 0.000000 0.000000 0.003739 0.000001 0.029621
#
#
# Mechanical properties :
#
#
# Convention : Reuss Voigt Hill
#
# Bulk Modulus (GPa) = 31.65079 60.65549 46.15314
# Shear Modulus (GPa) = 21.48906 30.59943 26.04424
#
# Velocity S-wave (km/s) = 3.14738 3.75576 3.46495
# Velocity P-wave (km/s) = 5.27242 6.83876 6.10602
#
# Compressibility (1/GPa) = 0.03159479
#
# Stress axis : x y z
#
# Youngs Moduli (GPa) = 54.26097 98.99982 48.90625
#
# Poissons Ratio (x) = 0.59514 -0.17375
# Poissons Ratio (y) = 0.32619 0.30482
# Poissons Ratio (z) = -0.19277 0.61703
#
# Static dielectric constant tensor:
#      x y z
#    x 3.977480 0.000000 -0.319300 
#    y 0.000000 4.295540 0.000000 
#    z -0.319300 0.000000 4.050430 
# 
# 
# High freq. dielectric constant tensor:
#      x y z
#    x 1.852280 0.000000 -0.020130 
#    y 0.000000 1.874860 0.000000 
#    z -0.020130 0.000000 1.849200 
# 
# From -- ./inp_files/233115.got.cif
#   From: 2010.06.25/outbox.cif.g09.slc.cpg/sg15_117_cif.got.tgz:233115.got - 2010.06.28 07:06:18.
