data_PCOD8143572
_publ_section_title
;
Structure prediction by ZEFSAII (Michael W. Deem and Ramdas Pophale) SiO2 
 PCOD8143572
Probable space group: C 2/C
;
_chemical_formula_sum "Si O2"
_cell_formula_units_Z 56
_cell_length_a 5.251242
_cell_length_b 17.644254
_cell_length_c 28.807429
_cell_angle_alpha 90.000000
_cell_angle_beta 61.147534
_cell_angle_gamma 90.000000
_cell_volume 2337.798577
_symmetry_space_group_name_H-M "C 2/C"
_symmetry_group_IT_number 15
_symmetry_cell_setting 'monoclinic'
loop_
_space_group_symop_operation_xyz
x,y,z
-x,y,1/2-z
-x,-y,-z
x,-y,1/2+z
1/2+x,1/2+y,z
1/2-x,1/2+y,1/2-z
1/2-x,1/2-y,-z
1/2+x,1/2-y,1/2+z
loop_
_atom_site_type_symbol
_atom_site_label
_atom_site_fract_x
_atom_site_fract_y
_atom_site_fract_z
Si Si1 0.709001 0.697702 0.056219
Si Si2 0.500000 0.568584 0.250000
Si Si3 0.884384 0.274282 0.857486
Si Si4 0.531748 0.337911 0.016368
Si Si5 0.339594 0.369277 0.130962
Si Si6 0.500000 0.169432 0.250000
Si Si7 0.990003 0.594938 0.089382
Si Si8 0.295849 0.955876 0.153136
O O1 0.431449 0.751682 0.094127
O O2 0.011932 0.747475 0.033745
O O3 0.687950 0.628998 0.095675
O O4 0.704337 0.663002 0.004757
O O5 0.275149 0.619516 0.241051
O O6 0.671964 0.516113 0.199623
O O7 0.901692 0.274891 0.800352
O O8 0.932231 0.360669 0.870387
O O9 0.132362 0.218997 0.857061
O O10 0.442219 0.385789 0.069353
O O11 0.810866 0.380693 0.971962
O O12 0.533862 0.414220 0.150797
O O13 0.003790 0.396820 0.162144
O O14 0.980090 0.505347 0.099245
#
# Coordination Sequence:
#
# PCOD8143572 Si02
#       8
#     8   4   8   8   8   4   8   8
#     4  10  21  40  73 108 143 192 246 306 359 423
#     4  12  26  53  80 109 142 198 244 306 380 441
#     4  11  25  45  76 109 142 181 253 304 360 425
#     4  10  23  39  71 103 148 196 240 303 360 420
#     4  12  28  47  68 111 156 193 230 298 374 439
#     4  12  26  47  88 115 132 182 260 328 350 419
#     4  11  23  43  75 107 137 197 253 295 345 444
#     4  12  29  48  74 104 152 195 237 298 371 442
#
# _framework density 23.954159000000001
#
# number of rings (size 3 to 8) (size 9 to 14) (size 15 to 20)
#    0.000    0.857    2.857    3.000   10.000    1.714 
#    0.000    1.429    0.000    0.000    0.000    0.000 
#    0.000    0.000    0.000    0.000    0.000    0.000 
#
# Total GULP energy -346908.310441 kJ/mol
# GULP energy per Si atom -12389.582516 kJ/mol
# Density = 2.389964 g / cm^3
# Si number density = 23.954159 Si / 1000 Ang^3
#
#
#
# Elastic Constant Matrix: (Units=GPa)
#
#
# Indices 1 2 3 4 5 6 
#
# 1 126.1134 31.9089 43.0984 0.0000 5.0696 0.0000
# 2 31.9089 60.9138 23.2542 0.0000 -3.6224 0.0000
# 3 43.0984 23.2542 130.3350 0.0000 16.1026 0.0000
# 4 0.0000 0.0000 0.0000 14.0989 0.0000 5.0740
# 5 5.0696 -3.6224 16.1026 0.0000 28.1255 0.0000
# 6 0.0000 0.0000 0.0000 5.0740 0.0000 47.7490
#
#
#
# Elastic Compliance Matrix: (Units=1/GPa)
#
#
# Indices 1 2 3 4 5 6 
#
# 1 0.009874 -0.004325 -0.002372 0.000000 -0.000978 0.000000
# 2 -0.004325 0.020026 -0.002753 0.000000 0.004935 0.000000
# 3 -0.002372 -0.002753 0.009620 0.000000 -0.005434 0.000000
# 4 0.000000 0.000000 0.000000 0.073748 0.000000 -0.007837
# 5 -0.000978 0.004935 -0.005434 0.000000 0.039478 0.000000
# 6 0.000000 0.000000 0.000000 -0.007837 0.000000 0.021776
#
#
# Mechanical properties :
#
#
# Convention : Reuss Voigt Hill
#
# Bulk Modulus (GPa) = 48.49678 57.09835 52.79756
# Shear Modulus (GPa) = 24.96327 32.60140 28.78233
#
# Velocity S-wave (km/s) = 3.23170 3.69316 3.47011
# Velocity P-wave (km/s) = 5.84934 6.48646 6.17612
#
# Compressibility (1/GPa) = 0.02061993
#
# Stress axis : x y z
#
# Youngs Moduli (GPa) = 101.27913 49.93411 103.95453
#
# Poissons Ratio (x) = 0.21595 0.24663
# Poissons Ratio (y) = 0.43800 0.28616
# Poissons Ratio (z) = 0.24028 0.13745
#
# Static dielectric constant tensor:
#      x y z
#    x 4.610960 0.000000 0.068220 
#    y 0.000000 4.171130 0.000000 
#    z 0.068220 0.000000 4.521660 
# 
# 
# High freq. dielectric constant tensor:
#      x y z
#    x 1.964890 0.000000 0.013090 
#    y 0.000000 1.931020 0.000000 
#    z 0.013090 0.000000 1.952660 
# 
# From -- ./inp_files/305763.got.cif
#   From: 2010.06.25/outbox.cif.g09.slc.cpg/sg15_153_cif.got.tgz:305763.got - 2010.06.28 07:06:18.
