data_PCOD8143880
_publ_section_title
;
Structure prediction by ZEFSAII (Michael W. Deem and Ramdas Pophale) SiO2 
 PCOD8143880
Probable space group: C 2/C
;
_chemical_formula_sum "Si O2"
_cell_formula_units_Z 48
_cell_length_a 10.014282
_cell_length_b 17.428059
_cell_length_c 13.094150
_cell_angle_alpha 90.000000
_cell_angle_beta 75.692078
_cell_angle_gamma 90.000000
_cell_volume 2214.428526
_symmetry_space_group_name_H-M "C 2/C"
_symmetry_group_IT_number 15
_symmetry_cell_setting 'monoclinic'
loop_
_space_group_symop_operation_xyz
x,y,z
-x,y,1/2-z
-x,-y,-z
x,-y,1/2+z
1/2+x,1/2+y,z
1/2-x,1/2+y,1/2-z
1/2-x,1/2-y,-z
1/2+x,1/2-y,1/2+z
loop_
_atom_site_type_symbol
_atom_site_label
_atom_site_fract_x
_atom_site_fract_y
_atom_site_fract_z
Si Si1 0.539121 0.286638 0.989437
Si Si2 0.830825 0.710345 0.150121
Si Si3 0.083957 0.100943 0.135791
Si Si4 0.727628 0.688201 0.646272
Si Si5 0.494034 0.933914 0.862887
Si Si6 0.785066 0.470600 0.061641
O O1 0.521216 0.364500 0.927819
O O2 0.627664 0.226124 0.909851
O O3 0.386516 0.252065 0.037463
O O4 0.609724 0.301896 0.084392
O O5 0.689346 0.666741 0.153633
O O6 0.815899 0.776185 0.238160
O O7 0.952432 0.652685 0.161421
O O8 0.000000 0.072221 0.250000
O O9 0.155040 0.026815 0.070725
O O10 0.751100 0.596680 0.648696
O O11 0.500000 0.972958 0.750000
O O12 0.594022 0.978450 0.917696
O O13 0.339673 0.935587 0.942242
#
# Coordination Sequence:
#
# PCOD8143880 Si02
#       6
#     8   8   8   8   8   8
#     4  11  23  40  65  97 127 170 222 267 326 387
#     4  11  22  42  70  92 130 174 220 264 325 395
#     4  11  24  43  65  97 134 174 211 275 339 385
#     4  11  23  40  66  97 128 166 222 274 313 399
#     4  10  21  41  66  92 125 175 216 261 329 396
#     4  10  24  41  63  96 133 164 218 275 323 389
#
# _framework density 21.676022
#
# number of rings (size 3 to 8) (size 9 to 14) (size 15 to 20)
#    0.000    1.333    3.333    2.000    2.333    3.333 
#    3.000    0.000    0.000    0.000    0.000    0.000 
#    0.000    0.000    0.000    0.000    0.000    0.000 
#
# Total GULP energy -297552.439166 kJ/mol
# GULP energy per Si atom -12398.018299 kJ/mol
# Density = 2.162669 g / cm^3
# Si number density = 21.676022 Si / 1000 Ang^3
#
#
#
# Elastic Constant Matrix: (Units=GPa)
#
#
# Indices 1 2 3 4 5 6 
#
# 1 66.9273 30.5415 33.2396 0.0000 -17.5513 0.0000
# 2 30.5415 123.3686 35.7477 0.0000 -12.5780 0.0000
# 3 33.2396 35.7477 110.5689 0.0000 -23.3101 0.0000
# 4 0.0000 0.0000 0.0000 24.5714 0.0000 5.6921
# 5 -17.5513 -12.5780 -23.3101 0.0000 29.9864 0.0000
# 6 0.0000 0.0000 0.0000 5.6921 0.0000 -5.9725
#
#
#
# Elastic Compliance Matrix: (Units=1/GPa)
#
#
# Indices 1 2 3 4 5 6 
#
# 1 0.020128 -0.003211 -0.003365 0.000000 0.007819 0.000000
# 2 -0.003211 0.009538 -0.001999 0.000000 0.000568 0.000000
# 3 -0.003365 -0.001999 0.012091 0.000000 0.006592 0.000000
# 4 0.000000 0.000000 0.000000 0.033337 0.000000 0.031772
# 5 0.007819 0.000568 0.006592 0.000000 0.043287 0.000000
# 6 0.000000 0.000000 0.000000 0.031772 0.000000 -0.137153
#
#
# Mechanical properties :
#
#
# Convention : Reuss Voigt Hill
#
# Bulk Modulus (GPa) = 40.63516 55.54694 48.09105
# Shear Modulus (GPa) = 759.88800 23.13948 391.51374
#
# Velocity S-wave (km/s) = 18.74372 3.27083 13.45410
# Velocity P-wave (km/s) = 22.07314 6.32029 16.23530
#
# Compressibility (1/GPa) = 0.02460923
#
# Stress axis : x y z
#
# Youngs Moduli (GPa) = 49.68115 104.84704 82.70325
#
# Poissons Ratio (x) = 0.33666 0.27826
# Poissons Ratio (y) = 0.15952 0.16530
# Poissons Ratio (z) = 0.16715 0.20955
#
# Static dielectric constant tensor:
#      x y z
#    x 3.885390 0.000000 -0.346370 
#    y 0.000000 4.046790 0.000000 
#    z -0.346370 0.000000 4.044270 
# 
# 
# High freq. dielectric constant tensor:
#      x y z
#    x 1.849500 0.000000 -0.019570 
#    y 0.000000 1.851000 0.000000 
#    z -0.019570 0.000000 1.852890 
# 
# From -- ./inp_files/87791.got.cif
#   From: 2010.06.25/outbox.cif.g09.slc.cpg/sg15_44_cif.got.tgz:87791.got - 2010.06.28 07:06:18.
