data_PCOD8143035
_publ_section_title
;
Structure prediction by ZEFSAII (Michael W. Deem and Ramdas Pophale) SiO2 
 PCOD8143035
Probable space group: C 2/C
;
_chemical_formula_sum "Si O2"
_cell_formula_units_Z 64
_cell_length_a 14.876903
_cell_length_b 13.604192
_cell_length_c 19.565697
_cell_angle_alpha 90.000000
_cell_angle_beta 119.688155
_cell_angle_gamma 90.000000
_cell_volume 3440.070862
_symmetry_space_group_name_H-M "C 2/C"
_symmetry_group_IT_number 15
_symmetry_cell_setting 'monoclinic'
loop_
_space_group_symop_operation_xyz
x,y,z
-x,y,1/2-z
-x,-y,-z
x,-y,1/2+z
1/2+x,1/2+y,z
1/2-x,1/2+y,1/2-z
1/2-x,1/2-y,-z
1/2+x,1/2-y,1/2+z
loop_
_atom_site_type_symbol
_atom_site_label
_atom_site_fract_x
_atom_site_fract_y
_atom_site_fract_z
Si Si1 0.660498 0.758409 0.667820
Si Si2 0.003523 0.884655 0.171873
Si Si3 0.997499 0.939727 0.929393
Si Si4 0.346707 0.730150 0.989579
Si Si5 0.018849 0.587461 0.414736
Si Si6 0.182019 0.213292 0.161409
Si Si7 0.472510 0.878194 0.428263
Si Si8 0.328530 0.227360 0.089237
O O1 0.610468 0.667832 0.690781
O O2 0.688330 0.721032 0.602474
O O3 0.583220 0.849404 0.635482
O O4 0.764632 0.795719 0.744372
O O5 0.000000 0.907700 0.250000
O O6 0.908718 0.816193 0.115496
O O7 0.992311 0.988426 0.130514
O O8 0.890910 0.878894 0.883236
O O9 0.096087 0.868598 0.965348
O O10 0.000000 0.000000 0.000000
O O11 0.250000 0.750000 0.000000
O O12 0.419863 0.822605 0.027550
O O13 0.989310 0.474681 0.387911
O O14 0.062616 0.594765 0.508292
O O15 0.110481 0.624882 0.399849
O O16 0.117024 0.313472 0.138920
O O17 0.273137 0.218625 0.140520
O O18 0.250000 0.250000 0.000000
#
# Coordination Sequence:
#
# PCOD8143035 Si02
#       8
#     8   8   8   8   8   8   8   8
#     4  10  21  40  60  89 125 153 195 260 310 352
#     4  11  22  39  63  91 125 158 201 260 311 357
#     4  11  23  41  61  89 128 165 205 251 309 367
#     4  10  22  41  64  84 119 167 200 243 304 368
#     4   9  19  35  59  83 118 151 196 246 292 355
#     4  11  22  37  61  88 122 157 198 253 306 352
#     4   9  19  38  57  85 115 153 195 245 294 347
#     4  11  20  35  61  90 114 158 206 241 295 368
#
# _framework density 18.604268000000001
#
# number of rings (size 3 to 8) (size 9 to 14) (size 15 to 20)
#    0.000    1.750    3.750    0.750    0.000    4.000 
#    2.250    1.875    2.750    0.000    0.000    0.000 
#    0.000    0.000    0.000    0.000    0.000    0.000 
#
# Total GULP energy -396866.244864 kJ/mol
# GULP energy per Si atom -12402.070152 kJ/mol
# Density = 1.856192 g / cm^3
# Si number density = 18.604268 Si / 1000 Ang^3
#
#
#
# Elastic Constant Matrix: (Units=GPa)
#
#
# Indices 1 2 3 4 5 6 
#
# 1 114.7957 48.3376 42.1873 0.0000 -4.8221 0.0000
# 2 48.3376 135.2415 47.0605 0.0000 -1.9066 0.0000
# 3 42.1873 47.0605 124.7821 0.0000 4.2660 0.0000
# 4 0.0000 0.0000 0.0000 25.7087 0.0000 -6.1691
# 5 -4.8221 -1.9066 4.2660 0.0000 30.8217 0.0000
# 6 0.0000 0.0000 0.0000 -6.1691 0.0000 20.1931
#
#
#
# Elastic Compliance Matrix: (Units=1/GPa)
#
#
# Indices 1 2 3 4 5 6 
#
# 1 0.011029 -0.002987 -0.002668 0.000000 0.001910 0.000000
# 2 -0.002987 0.009349 -0.002532 0.000000 0.000461 0.000000
# 3 -0.002668 -0.002532 0.009937 0.000000 -0.001949 0.000000
# 4 0.000000 0.000000 0.000000 0.041974 0.000000 0.012823
# 5 0.001910 0.000461 -0.001949 0.000000 0.033042 0.000000
# 6 0.000000 0.000000 0.000000 0.012823 0.000000 0.053439
#
#
# Mechanical properties :
#
#
# Convention : Reuss Voigt Hill
#
# Bulk Modulus (GPa) = 71.72039 72.22114 71.97077
# Shear Modulus (GPa) = 27.80980 31.16029 29.48505
#
# Velocity S-wave (km/s) = 3.87047 4.09699 3.98534
# Velocity P-wave (km/s) = 7.65560 7.82844 7.74250
#
# Compressibility (1/GPa) = 0.01394304
#
# Stress axis : x y z
#
# Youngs Moduli (GPa) = 90.66636 106.95986 100.62934
#
# Poissons Ratio (x) = 0.31948 0.26845
# Poissons Ratio (y) = 0.27081 0.25479
# Poissons Ratio (z) = 0.24188 0.27082
#
# Static dielectric constant tensor:
#      x y z
#    x 3.398120 0.000000 -0.040420 
#    y 0.000000 3.701530 0.000000 
#    z -0.040420 0.000000 3.531580 
# 
# 
# High freq. dielectric constant tensor:
#      x y z
#    x 1.718500 0.000000 0.004530 
#    y 0.000000 1.726850 0.000000 
#    z 0.004530 0.000000 1.723700 
# 
# From -- ./inp_files/205438.got.cif
#   From: 2010.06.25/outbox.cif.g09.slc.cpg/sg15_103_cif.got.tgz:205438.got - 2010.06.28 07:06:18.
