data_PCOD8143490
_publ_section_title
;
Structure prediction by ZEFSAII (Michael W. Deem and Ramdas Pophale) SiO2 
 PCOD8143490
Probable space group: C 2/C
;
_chemical_formula_sum "Si O2"
_cell_formula_units_Z 44
_cell_length_a 27.633978
_cell_length_b 9.293740
_cell_length_c 16.810708
_cell_angle_alpha 90.000000
_cell_angle_beta 150.911368
_cell_angle_gamma 90.000000
_cell_volume 2098.944458
_symmetry_space_group_name_H-M "C 2/C"
_symmetry_group_IT_number 15
_symmetry_cell_setting 'monoclinic'
loop_
_space_group_symop_operation_xyz
x,y,z
-x,y,1/2-z
-x,-y,-z
x,-y,1/2+z
1/2+x,1/2+y,z
1/2-x,1/2+y,1/2-z
1/2-x,1/2-y,-z
1/2+x,1/2-y,1/2+z
loop_
_atom_site_type_symbol
_atom_site_label
_atom_site_fract_x
_atom_site_fract_y
_atom_site_fract_z
Si Si1 0.695269 0.213709 0.337840
Si Si2 0.612567 0.055400 0.652512
Si Si3 0.182739 0.429322 0.071991
Si Si4 0.024021 0.899178 0.132316
Si Si5 0.500000 0.218214 0.250000
Si Si6 0.144341 0.879969 0.727683
O O1 0.750000 0.250000 0.500000
O O2 0.746358 0.290574 0.335508
O O3 0.581867 0.268646 0.172595
O O4 0.689914 0.044514 0.312123
O O5 0.641525 0.056663 0.601455
O O6 0.632284 0.210061 0.720605
O O7 0.500000 0.000000 0.500000
O O8 0.241391 0.572007 0.125558
O O9 0.092132 0.392255 0.882030
O O10 0.995721 0.836514 0.175726
O O11 0.098733 0.038301 0.240257
O O12 0.921759 0.937305 0.941078
#
# Coordination Sequence:
#
# PCOD8143490 Si02
#       6
#     8   8   8   8   4   8
#     4  11  22  42  71  97 134 183 230 277 340 410
#     4  12  23  42  68 102 134 182 228 283 346 409
#     4  11  24  39  70 100 134 178 231 280 344 416
#     4  10  21  40  68  94 133 176 223 277 333 413
#     4  12  20  40  70 100 130 182 228 276 350 404
#     4  10  22  42  63 101 135 174 227 280 334 410
#
# _framework density 20.962917000000001
#
# number of rings (size 3 to 8) (size 9 to 14) (size 15 to 20)
#    0.000    1.091    5.455    1.091    0.000    0.000 
#    0.000    3.636    4.000    1.091    0.000    0.000 
#    0.000    0.000    0.000    0.000    0.000    0.000 
#
# Total GULP energy -272544.693528 kJ/mol
# GULP energy per Si atom -12388.395160 kJ/mol
# Density = 2.091520 g / cm^3
# Si number density = 20.962917 Si / 1000 Ang^3
#
#
#
# Elastic Constant Matrix: (Units=GPa)
#
#
# Indices 1 2 3 4 5 6 
#
# 1 83.3544 27.8762 20.5505 0.0000 16.4392 0.0000
# 2 27.8762 159.3754 24.7821 0.0000 6.3873 0.0000
# 3 20.5505 24.7821 62.5292 0.0000 3.9987 0.0000
# 4 0.0000 0.0000 0.0000 33.6742 0.0000 -4.7392
# 5 16.4392 6.3873 3.9987 0.0000 29.0432 0.0000
# 6 0.0000 0.0000 0.0000 -4.7392 0.0000 16.9819
#
#
#
# Elastic Compliance Matrix: (Units=1/GPa)
#
#
# Indices 1 2 3 4 5 6 
#
# 1 0.015001 -0.001735 -0.003757 0.000000 -0.007592 0.000000
# 2 -0.001735 0.006923 -0.002158 0.000000 -0.000243 0.000000
# 3 -0.003757 -0.002158 0.018075 0.000000 0.000112 0.000000
# 4 0.000000 0.000000 0.000000 0.030910 0.000000 0.008626
# 5 -0.007592 -0.000243 0.000112 0.000000 0.038767 0.000000
# 6 0.000000 0.000000 0.000000 0.008626 0.000000 0.061294
#
#
# Mechanical properties :
#
#
# Convention : Reuss Voigt Hill
#
# Bulk Modulus (GPa) = 40.48731 50.18629 45.33680
# Shear Modulus (GPa) = 25.70645 31.40985 28.55815
#
# Velocity S-wave (km/s) = 3.50563 3.87506 3.69496
# Velocity P-wave (km/s) = 5.97843 6.63430 6.31488
#
# Compressibility (1/GPa) = 0.02469910
#
# Stress axis : x y z
#
# Youngs Moduli (GPa) = 66.66298 144.43901 55.32404
#
# Poissons Ratio (x) = 0.25065 0.20784
# Poissons Ratio (y) = 0.11568 0.11939
# Poissons Ratio (z) = 0.25044 0.31170
#
# Static dielectric constant tensor:
#      x y z
#    x 3.985680 0.000000 0.293690 
#    y 0.000000 3.978340 0.000000 
#    z 0.293690 0.000000 3.830520 
# 
# 
# High freq. dielectric constant tensor:
#      x y z
#    x 1.822880 0.000000 0.023610 
#    y 0.000000 1.820250 0.000000 
#    z 0.023610 0.000000 1.815670 
# 
# From -- ./inp_files/159818.got.cif
#   From: 2010.06.25/outbox.cif.g09.slc.cpg/sg15_80_cif.got.tgz:159818.got - 2010.06.28 07:06:18.
