data_PCOD8143062
_publ_section_title
;
Structure prediction by ZEFSAII (Michael W. Deem and Ramdas Pophale) SiO2 
 PCOD8143062
Probable space group: C 2/C
;
_chemical_formula_sum "Si O2"
_cell_formula_units_Z 32
_cell_length_a 15.427686
_cell_length_b 16.725788
_cell_length_c 5.442751
_cell_angle_alpha 90.000000
_cell_angle_beta 128.866846
_cell_angle_gamma 90.000000
_cell_volume 1093.512639
_symmetry_space_group_name_H-M "C 2/C"
_symmetry_group_IT_number 15
_symmetry_cell_setting 'monoclinic'
loop_
_space_group_symop_operation_xyz
x,y,z
-x,y,1/2-z
-x,-y,-z
x,-y,1/2+z
1/2+x,1/2+y,z
1/2-x,1/2+y,1/2-z
1/2-x,1/2-y,-z
1/2+x,1/2-y,1/2+z
loop_
_atom_site_type_symbol
_atom_site_label
_atom_site_fract_x
_atom_site_fract_y
_atom_site_fract_z
Si Si1 0.124083 0.278331 0.817622
Si Si2 0.128145 0.032049 0.461206
Si Si3 0.128927 0.786281 0.829276
Si Si4 0.876832 0.533371 0.222195
O O1 0.065881 0.243653 0.467270
O O2 0.116641 0.373158 0.810983
O O3 0.250000 0.250000 0.000000
O O4 0.067296 0.243974 0.969954
O O5 0.141290 0.119233 0.369023
O O6 0.000000 0.006454 0.250000
O O7 0.178822 0.026743 0.833960
O O8 0.250000 0.750000 0.000000
O O9 0.816301 0.506388 0.369852
O O10 0.000000 0.500000 0.500000
#
# Coordination Sequence:
#
# PCOD8143062 Si02
#       4
#     8   8   8   8
#     4  10  21  40  61  88 130 163 214 260 318 383
#     4  10  21  40  64  91 123 160 211 262 316 371
#     4  10  21  40  61  93 126 164 211 260 320 385
#     4  10  21  40  62  88 126 168 210 261 315 385
#
# _framework density 29.263494999999999
#
# number of rings (size 3 to 8) (size 9 to 14) (size 15 to 20)
#    0.000    2.000    0.000    3.000    0.000    0.000 
#   13.500   30.000    0.000    0.000    0.000    0.000 
#    0.000    0.000    0.000    0.000    0.000    0.000 
#
# Total GULP energy -198331.383088 kJ/mol
# GULP energy per Si atom -12395.711443 kJ/mol
# Density = 2.919689 g / cm^3
# Si number density = 29.263495 Si / 1000 Ang^3
#
#
#
# Elastic Constant Matrix: (Units=GPa)
#
#
# Indices 1 2 3 4 5 6 
#
# 1 188.9537 40.4244 89.1088 0.0000 -66.7673 0.0000
# 2 40.4244 238.6726 97.0357 0.0000 -49.3041 0.0000
# 3 89.1088 97.0357 322.6454 0.0000 -60.2963 0.0000
# 4 0.0000 0.0000 0.0000 59.4305 0.0000 -15.4127
# 5 -66.7673 -49.3041 -60.2963 0.0000 69.0382 0.0000
# 6 0.0000 0.0000 0.0000 -15.4127 0.0000 46.0668
#
#
#
# Elastic Compliance Matrix: (Units=1/GPa)
#
#
# Indices 1 2 3 4 5 6 
#
# 1 0.008338 0.000581 -0.001067 0.000000 0.007546 0.000000
# 2 0.000581 0.005231 -0.001112 0.000000 0.003326 0.000000
# 3 -0.001067 -0.001112 0.004048 0.000000 0.001709 0.000000
# 4 0.000000 0.000000 0.000000 0.018425 0.000000 0.006165
# 5 0.007546 0.003326 0.001709 0.000000 0.025651 0.000000
# 6 0.000000 0.000000 0.000000 0.006165 0.000000 0.023770
#
#
# Mechanical properties :
#
#
# Convention : Reuss Voigt Hill
#
# Bulk Modulus (GPa) = 69.35137 133.71217 101.53177
# Shear Modulus (GPa) = 53.49561 69.82061 61.65811
#
# Velocity S-wave (km/s) = 4.28023 4.88990 4.59518
# Velocity P-wave (km/s) = 6.94100 8.81324 7.93255
#
# Compressibility (1/GPa) = 0.01441933
#
# Stress axis : x y z
#
# Youngs Moduli (GPa) = 119.93581 191.18247 247.03961
#
# Poissons Ratio (x) = -0.11098 0.26362
# Poissons Ratio (y) = -0.06962 0.27469
# Poissons Ratio (z) = 0.12798 0.21258
#
# Static dielectric constant tensor:
#      x y z
#    x 5.399840 0.000000 0.979640 
#    y 0.000000 5.563630 0.000000 
#    z 0.979640 0.000000 5.367700 
# 
# 
# High freq. dielectric constant tensor:
#      x y z
#    x 2.295970 0.000000 0.019360 
#    y 0.000000 2.148250 0.000000 
#    z 0.019360 0.000000 2.275720 
# 
# From -- ./inp_files/9540.got.cif
#   From: 2010.06.25/outbox.cif.g09.slc.cpg/sg15_5_cif.got.tgz:9540.got - 2010.06.28 07:06:18.
