data_PCOD8143620
_publ_section_title
;
Structure prediction by ZEFSAII (Michael W. Deem and Ramdas Pophale) SiO2 
 PCOD8143620
Probable space group: C 2/C
;
_chemical_formula_sum "Si O2"
_cell_formula_units_Z 56
_cell_length_a 11.394519
_cell_length_b 29.146378
_cell_length_c 8.381665
_cell_angle_alpha 90.000000
_cell_angle_beta 106.129913
_cell_angle_gamma 90.000000
_cell_volume 2674.046482
_symmetry_space_group_name_H-M "C 2/C"
_symmetry_group_IT_number 15
_symmetry_cell_setting 'monoclinic'
loop_
_space_group_symop_operation_xyz
x,y,z
-x,y,1/2-z
-x,-y,-z
x,-y,1/2+z
1/2+x,1/2+y,z
1/2-x,1/2+y,1/2-z
1/2-x,1/2-y,-z
1/2+x,1/2-y,1/2+z
loop_
_atom_site_type_symbol
_atom_site_label
_atom_site_fract_x
_atom_site_fract_y
_atom_site_fract_z
Si Si1 0.856774 0.716996 0.003112
Si Si2 0.500000 0.154238 0.250000
Si Si3 0.757146 0.535147 0.242336
Si Si4 0.065819 0.229850 0.431991
Si Si5 0.588350 0.524360 0.907952
Si Si6 0.395867 0.100490 0.491161
Si Si7 0.791397 0.683637 0.642721
Si Si8 0.000000 0.523725 0.750000
O O1 0.821153 0.684736 0.840776
O O2 0.969470 0.751286 0.021071
O O3 0.750000 0.750000 0.000000
O O4 0.881969 0.685816 0.168452
O O5 0.487427 0.125792 0.406841
O O6 0.664662 0.509472 0.324118
O O7 0.785664 0.582577 0.340418
O O8 0.881699 0.506684 0.251536
O O9 0.689345 0.550790 0.051888
O O10 0.141542 0.274778 0.416216
O O11 0.147900 0.190104 0.545575
O O12 0.000000 0.208867 0.250000
O O13 0.500000 0.553100 0.750000
O O14 0.500000 0.500000 0.000000
O O15 0.342620 0.134624 0.603939
O O16 0.465211 0.056662 0.590068
#
# Coordination Sequence:
#
# PCOD8143620 Si02
#       8
#     8   4   8   8   8   8   8   4
#     4  11  22  38  66  91 126 174 219 261 322 397
#     4  12  25  38  58 100 130 164 220 272 324 387
#     4  11  22  42  67  99 128 173 223 273 348 402
#     4   9  19  37  65  88 122 169 215 250 318 391
#     4   9  20  41  69  91 120 165 227 269 319 406
#     4  12  25  39  64  95 137 167 214 281 337 398
#     4  10  21  41  61  91 128 172 209 265 326 387
#     4  12  25  42  66  98 136 176 216 284 356 397
#
# _framework density 20.942043999999999
#
# number of rings (size 3 to 8) (size 9 to 14) (size 15 to 20)
#    0.000    1.429    2.857    2.571    7.000    0.000 
#    0.000    2.143    0.000    1.714    0.000    0.000 
#    0.000    0.000    0.000    0.000    0.000    0.000 
#
# Total GULP energy -346882.693185 kJ/mol
# GULP energy per Si atom -12388.667614 kJ/mol
# Density = 2.089438 g / cm^3
# Si number density = 20.942044 Si / 1000 Ang^3
#
#
#
# Elastic Constant Matrix: (Units=GPa)
#
#
# Indices 1 2 3 4 5 6 
#
# 1 100.5121 25.8852 55.5235 0.0000 6.2484 0.0000
# 2 25.8852 67.2705 46.6331 0.0000 5.6269 0.0000
# 3 55.5235 46.6331 139.7872 0.0000 17.3888 0.0000
# 4 0.0000 0.0000 0.0000 28.8884 0.0000 1.3911
# 5 6.2484 5.6269 17.3888 0.0000 40.1544 0.0000
# 6 0.0000 0.0000 0.0000 1.3911 0.0000 2.1230
#
#
#
# Elastic Compliance Matrix: (Units=1/GPa)
#
#
# Indices 1 2 3 4 5 6 
#
# 1 0.012920 -0.001839 -0.004545 0.000000 0.000215 0.000000
# 2 -0.001839 0.019599 -0.005815 0.000000 0.000058 0.000000
# 3 -0.004545 -0.005815 0.011319 0.000000 -0.003380 0.000000
# 4 0.000000 0.000000 0.000000 0.035744 0.000000 -0.023422
# 5 0.000215 0.000058 -0.003380 0.000000 0.026326 0.000000
# 6 0.000000 0.000000 0.000000 -0.023422 0.000000 0.486389
#
#
# Mechanical properties :
#
#
# Convention : Reuss Voigt Hill
#
# Bulk Modulus (GPa) = 51.43920 62.62815 57.03367
# Shear Modulus (GPa) = 8.02342 26.20170 17.11256
#
# Velocity S-wave (km/s) = 1.95948 3.54100 2.86167
# Velocity P-wave (km/s) = 5.45302 6.83291 6.18159
#
# Compressibility (1/GPa) = 0.01944043
#
# Stress axis : x y z
#
# Youngs Moduli (GPa) = 77.39939 51.02248 88.34350
#
# Poissons Ratio (x) = 0.09382 0.40154
# Poissons Ratio (y) = 0.14232 0.51373
# Poissons Ratio (z) = 0.35180 0.29670
#
# Static dielectric constant tensor:
#      x y z
#    x 3.839840 0.000000 0.522460 
#    y 0.000000 3.503510 0.000000 
#    z 0.522460 0.000000 3.739270 
# 
# 
# High freq. dielectric constant tensor:
#      x y z
#    x 1.824860 0.000000 0.011200 
#    y 0.000000 1.779430 0.000000 
#    z 0.011200 0.000000 1.854110 
# 
# From -- ./inp_files/34368.got.cif
#   From: 2010.06.25/outbox.cif.g09.slc.cpg/sg15_18_cif.got.tgz:34368.got - 2010.06.28 07:06:18.
