data_PCOD8143205
_publ_section_title
;
Structure prediction by ZEFSAII (Michael W. Deem and Ramdas Pophale) SiO2 
 PCOD8143205
Probable space group: C 2/C
;
_chemical_formula_sum "Si O2"
_cell_formula_units_Z 56
_cell_length_a 32.421546
_cell_length_b 8.952498
_cell_length_c 20.482810
_cell_angle_alpha 90.000000
_cell_angle_beta 26.126972
_cell_angle_gamma 90.000000
_cell_volume 2618.045525
_symmetry_space_group_name_H-M "C 2/C"
_symmetry_group_IT_number 15
_symmetry_cell_setting 'monoclinic'
loop_
_space_group_symop_operation_xyz
x,y,z
-x,y,1/2-z
-x,-y,-z
x,-y,1/2+z
1/2+x,1/2+y,z
1/2-x,1/2+y,1/2-z
1/2-x,1/2-y,-z
1/2+x,1/2-y,1/2+z
loop_
_atom_site_type_symbol
_atom_site_label
_atom_site_fract_x
_atom_site_fract_y
_atom_site_fract_z
Si Si1 0.970218 0.061610 0.445118
Si Si2 0.757890 0.324722 0.584567
Si Si3 0.928369 0.134066 0.793335
Si Si4 0.250326 0.019662 0.966054
Si Si5 0.437130 0.179612 0.902119
Si Si6 0.569259 0.708382 0.422955
Si Si7 0.457928 0.077319 0.171396
O O1 0.916332 0.169069 0.471913
O O2 0.997244 0.152097 0.470991
O O3 0.908128 0.919195 0.555074
O O4 0.058729 0.987945 0.282599
O O5 0.792267 0.176079 0.498929
O O6 0.745715 0.462867 0.551718
O O7 0.836363 0.381859 0.523580
O O8 0.667245 0.261463 0.750038
O O9 0.944724 0.302533 0.747361
O O10 0.000000 0.099318 0.750000
O O11 0.817801 0.110715 0.965869
O O12 0.355836 0.979178 0.792331
O O13 0.500000 0.215718 0.750000
O O14 0.487671 0.063034 0.877171
O O15 0.520891 0.854878 0.523269
#
# Coordination Sequence:
#
# PCOD8143205 Si02
#       7
#     8   8   8   8   8   8   8
#     4  10  21  40  64  86 126 175 218 260 337 399
#     4  11  23  39  68  95 130 171 231 267 329 409
#     4  11  22  40  66 100 131 170 223 287 333 395
#     4  11  22  41  66 100 127 178 224 271 333 411
#     4  12  23  40  66  98 130 172 222 290 327 389
#     4  10  23  43  62  94 130 178 215 271 335 415
#     4  11  25  42  66  98 140 174 220 281 348 389
#
# _framework density 21.390001999999999
#
# number of rings (size 3 to 8) (size 9 to 14) (size 15 to 20)
#    0.000    1.143    2.857    3.857    0.000    3.429 
#    0.000    2.857    0.000    0.000    0.000    0.000 
#    0.000    0.000    0.000    0.000    0.000    0.000 
#
# Total GULP energy -347050.313749 kJ/mol
# GULP energy per Si atom -12394.654062 kJ/mol
# Density = 2.134132 g / cm^3
# Si number density = 21.390002 Si / 1000 Ang^3
#
#
#
# Elastic Constant Matrix: (Units=GPa)
#
#
# Indices 1 2 3 4 5 6 
#
# 1 73.3174 27.8990 27.1465 0.0009 -6.9660 -0.0001
# 2 27.8990 79.7827 13.7030 -0.0032 2.7952 0.0011
# 3 27.1465 13.7030 99.1331 -0.0026 -8.5739 0.0000
# 4 0.0009 -0.0032 -0.0026 25.2314 0.0001 0.7376
# 5 -6.9660 2.7952 -8.5739 0.0001 38.5059 0.0000
# 6 -0.0001 0.0011 0.0000 0.7376 0.0000 33.1779
#
#
#
# Elastic Compliance Matrix: (Units=1/GPa)
#
#
# Indices 1 2 3 4 5 6 
#
# 1 0.017396 -0.005531 -0.003765 -0.000002 0.002710 0.000000
# 2 -0.005531 0.014667 -0.000705 0.000002 -0.002222 -0.000001
# 3 -0.003765 -0.000705 0.011380 0.000001 0.001904 0.000000
# 4 -0.000002 0.000002 0.000001 0.039659 0.000000 -0.000882
# 5 0.002710 -0.002222 0.001904 0.000000 0.027046 0.000000
# 6 0.000000 -0.000001 0.000000 -0.000882 0.000000 0.030160
#
#
# Mechanical properties :
#
#
# Convention : Reuss Voigt Hill
#
# Bulk Modulus (GPa) = 42.65942 43.30335 42.98139
# Shear Modulus (GPa) = 29.74003 31.61535 30.67769
#
# Velocity S-wave (km/s) = 3.73281 3.84870 3.79120
# Velocity P-wave (km/s) = 6.21011 6.32761 6.26913
#
# Compressibility (1/GPa) = 0.02344148
#
# Stress axis : x y z
#
# Youngs Moduli (GPa) = 57.48611 68.17922 87.86983
#
# Poissons Ratio (x) = 0.37712 0.33079
# Poissons Ratio (y) = 0.31798 0.06194
# Poissons Ratio (z) = 0.21641 0.04806
#
# Static dielectric constant tensor:
#      x y z
#    x 3.941410 0.000000 0.141440 
#    y 0.000000 3.900450 0.000010 
#    z 0.141440 0.000010 3.777680 
# 
# 
# High freq. dielectric constant tensor:
#      x y z
#    x 1.836910 0.000000 0.002750 
#    y 0.000000 1.844010 0.000000 
#    z 0.002750 0.000000 1.828300 
# 
# From -- ./inp_files/258943.got.cif
#   From: 2010.06.25/outbox.cif.g09.slc.cpg/sg15_130_cif.got.tgz:258943.got - 2010.06.28 07:06:18.
