data_PCOD8143398
_publ_section_title
;
Structure prediction by ZEFSAII (Michael W. Deem and Ramdas Pophale) SiO2 
 PCOD8143398
Probable space group: C 2/C
;
_chemical_formula_sum "Si O2"
_cell_formula_units_Z 64
_cell_length_a 8.822741
_cell_length_b 27.978710
_cell_length_c 23.768861
_cell_angle_alpha 90.000000
_cell_angle_beta 30.610100
_cell_angle_gamma 90.000000
_cell_volume 2987.597796
_symmetry_space_group_name_H-M "C 2/C"
_symmetry_group_IT_number 15
_symmetry_cell_setting 'monoclinic'
loop_
_space_group_symop_operation_xyz
x,y,z
-x,y,1/2-z
-x,-y,-z
x,-y,1/2+z
1/2+x,1/2+y,z
1/2-x,1/2+y,1/2-z
1/2-x,1/2-y,-z
1/2+x,1/2-y,1/2+z
loop_
_atom_site_type_symbol
_atom_site_label
_atom_site_fract_x
_atom_site_fract_y
_atom_site_fract_z
Si Si1 0.191790 0.967030 0.741160
Si Si2 0.108694 0.768784 0.487479
Si Si3 0.183750 0.411635 0.947087
Si Si4 0.827793 0.401158 0.946209
Si Si5 0.485829 0.183584 0.315770
Si Si6 0.820803 0.364416 0.361885
Si Si7 0.906272 0.813092 0.841662
Si Si8 0.802358 0.425549 0.176419
O O1 0.523700 0.943790 0.638390
O O2 0.000000 0.946672 0.750000
O O3 0.966015 0.948146 0.860942
O O4 0.222899 0.023574 0.729565
O O5 0.250000 0.750000 0.500000
O O6 0.237234 0.819687 0.427267
O O7 0.160468 0.728898 0.422241
O O8 0.756376 0.774387 0.606943
O O9 0.306081 0.357785 0.911831
O O10 0.948020 0.411200 0.970681
O O11 0.021972 0.429636 0.054196
O O12 0.945900 0.352190 0.881039
O O13 0.467899 0.397841 0.060262
O O14 0.500000 0.157398 0.250000
O O15 0.801419 0.209678 0.222948
O O16 0.000000 0.346456 0.250000
O O17 0.058812 0.395308 0.318706
O O18 0.000000 0.830604 0.750000
O O19 0.500000 0.401283 0.250000
#
# Coordination Sequence:
#
# PCOD8143398 Si02
#       8
#     8   8   8   8   8   8   8   8
#     4   9  20  39  66  98 128 168 220 269 321 384
#     4  11  24  42  63  93 125 169 217 268 321 384
#     4  11  21  42  70  97 128 172 221 269 322 388
#     4  10  21  40  66  93 130 169 217 273 321 379
#     4  11  22  40  65  94 130 168 212 272 322 379
#     4  11  25  45  62  92 138 173 208 269 337 389
#     4  12  22  42  67  96 127 167 223 266 317 390
#     4  11  25  42  65  97 131 175 220 266 328 392
#
# _framework density 21.421893000000001
#
# number of rings (size 3 to 8) (size 9 to 14) (size 15 to 20)
#    0.000    1.250    3.750    2.250    1.750    6.500 
#    6.750    0.625    0.000    0.000    0.000    0.000 
#    0.000    0.000    0.000    0.000    0.000    0.000 
#
# Total GULP energy -396469.145593 kJ/mol
# GULP energy per Si atom -12389.660800 kJ/mol
# Density = 2.137314 g / cm^3
# Si number density = 21.421893 Si / 1000 Ang^3
#
#
#
# Elastic Constant Matrix: (Units=GPa)
#
#
# Indices 1 2 3 4 5 6 
#
# 1 82.1606 35.2682 40.3432 -0.0005 -15.3227 -0.0007
# 2 35.2682 109.3020 46.3734 0.0009 -12.5046 0.0008
# 3 40.3432 46.3734 122.7585 0.0021 -13.8658 0.0044
# 4 -0.0005 0.0009 0.0021 29.0222 -0.0005 -2.7328
# 5 -15.3227 -12.5046 -13.8658 -0.0005 42.6871 -0.0007
# 6 -0.0007 0.0008 0.0044 -2.7328 -0.0007 20.9074
#
#
#
# Elastic Compliance Matrix: (Units=1/GPa)
#
#
# Indices 1 2 3 4 5 6 
#
# 1 0.016012 -0.003207 -0.003641 0.000001 0.003625 0.000002
# 2 -0.003207 0.011692 -0.003224 0.000000 0.001227 0.000000
# 3 -0.003641 -0.003224 0.010699 -0.000001 0.001224 -0.000002
# 4 0.000001 0.000000 -0.000001 0.034886 0.000000 0.004560
# 5 0.003625 0.001227 0.001224 0.000000 0.025484 0.000001
# 6 0.000002 0.000000 -0.000002 0.004560 0.000001 0.048426
#
#
# Mechanical properties :
#
#
# Convention : Reuss Voigt Hill
#
# Bulk Modulus (GPa) = 54.77045 62.02118 58.39581
# Shear Modulus (GPa) = 28.83009 31.33911 30.08460
#
# Velocity S-wave (km/s) = 3.67253 3.82900 3.75158
# Velocity P-wave (km/s) = 6.60351 6.96875 6.78858
#
# Compressibility (1/GPa) = 0.01825802
#
# Stress axis : x y z
#
# Youngs Moduli (GPa) = 62.45341 85.52828 93.46704
#
# Poissons Ratio (x) = 0.27428 0.34033
# Poissons Ratio (y) = 0.20028 0.30137
# Poissons Ratio (z) = 0.22740 0.27577
#
# Static dielectric constant tensor:
#      x y z
#    x 3.944110 0.000000 -0.177610 
#    y 0.000000 3.624970 0.000000 
#    z -0.177610 0.000000 4.286150 
# 
# 
# High freq. dielectric constant tensor:
#      x y z
#    x 1.832250 0.000000 -0.004800 
#    y 0.000000 1.821470 0.000000 
#    z -0.004800 0.000000 1.864130 
# 
# From -- ./inp_files/266719.got.cif
#   From: 2010.06.25/outbox.cif.g09.slc.cpg/sg15_134_cif.got.tgz:266719.got - 2010.06.28 07:06:18.
