data_PCOD8143257
_publ_section_title
;
Structure prediction by ZEFSAII (Michael W. Deem and Ramdas Pophale) SiO2 
 PCOD8143257
Probable space group: C 2/C
;
_chemical_formula_sum "Si O2"
_cell_formula_units_Z 48
_cell_length_a 9.794547
_cell_length_b 14.410073
_cell_length_c 29.648016
_cell_angle_alpha 90.000000
_cell_angle_beta 34.010783
_cell_angle_gamma 90.000000
_cell_volume 2340.609556
_symmetry_space_group_name_H-M "C 2/C"
_symmetry_group_IT_number 15
_symmetry_cell_setting 'monoclinic'
loop_
_space_group_symop_operation_xyz
x,y,z
-x,y,1/2-z
-x,-y,-z
x,-y,1/2+z
1/2+x,1/2+y,z
1/2-x,1/2+y,1/2-z
1/2-x,1/2-y,-z
1/2+x,1/2-y,1/2+z
loop_
_atom_site_type_symbol
_atom_site_label
_atom_site_fract_x
_atom_site_fract_y
_atom_site_fract_z
Si Si1 0.575633 0.096005 0.424681
Si Si2 0.433034 0.107687 0.175926
Si Si3 0.997330 0.220978 0.333666
Si Si4 0.367378 0.083866 0.740035
Si Si5 0.701378 0.412107 0.104536
Si Si6 0.776800 0.739830 0.342851
O O1 0.491138 0.112708 0.396849
O O2 0.332030 0.083503 0.520461
O O3 0.724154 0.185468 0.401111
O O4 0.749580 0.006040 0.381172
O O5 0.181538 0.162930 0.251849
O O6 0.648316 0.153016 0.146613
O O7 0.400129 0.001157 0.197461
O O8 0.007497 0.328123 0.317351
O O9 0.058231 0.207488 0.370025
O O10 0.500000 0.059172 0.750000
O O11 0.083341 0.103312 0.826775
O O12 0.807560 0.326349 0.104036
O O13 0.000000 0.773118 0.250000
#
# Coordination Sequence:
#
# PCOD8143257 Si02
#       6
#     8   8   8   8   8   8
#     4  11  25  41  64  96 127 168 202 264 314 379
#     4  11  22  39  66  92 126 165 212 257 311 368
#     4  11  22  39  67  95 123 164 218 248 312 372
#     4  12  23  40  67  97 122 166 217 262 301 375
#     4  11  24  42  65  91 132 162 211 256 323 362
#     4  10  21  40  64  95 121 167 204 261 307 367
#
# _framework density 20.507477999999999
#
# number of rings (size 3 to 8) (size 9 to 14) (size 15 to 20)
#    0.000    1.000    5.000    4.000    0.000    1.333 
#    0.000    0.833    0.000    0.000    0.000    0.000 
#    0.000    0.000    0.000    0.000    0.000    0.000 
#
# Total GULP energy -297760.872815 kJ/mol
# GULP energy per Si atom -12406.703034 kJ/mol
# Density = 2.046080 g / cm^3
# Si number density = 20.507478 Si / 1000 Ang^3
#
#
#
# Elastic Constant Matrix: (Units=GPa)
#
#
# Indices 1 2 3 4 5 6 
#
# 1 118.2389 21.3610 45.3128 0.0106 21.8691 0.0002
# 2 21.3610 128.6626 31.2740 -0.0166 5.4160 -0.0017
# 3 45.3128 31.2740 57.4683 -0.0055 12.5142 -0.0373
# 4 0.0106 -0.0166 -0.0055 27.6934 -0.0170 6.7082
# 5 21.8691 5.4160 12.5142 -0.0170 31.1128 0.0089
# 6 0.0002 -0.0017 -0.0373 6.7082 0.0089 28.2202
#
#
#
# Elastic Compliance Matrix: (Units=1/GPa)
#
#
# Indices 1 2 3 4 5 6 
#
# 1 0.012925 0.000314 -0.009175 -0.000008 -0.005449 -0.000009
# 2 0.000314 0.008970 -0.005196 0.000006 0.000308 -0.000008
# 3 -0.009175 -0.005196 0.028344 -0.000006 -0.004047 0.000040
# 4 -0.000008 0.000006 -0.000006 0.038316 0.000030 -0.009108
# 5 -0.005449 0.000308 -0.004047 0.000030 0.037545 -0.000024
# 6 -0.000009 -0.000008 0.000040 -0.009108 -0.000024 0.037601
#
#
# Mechanical properties :
#
#
# Convention : Reuss Voigt Hill
#
# Bulk Modulus (GPa) = 45.19879 55.58504 50.39191
# Shear Modulus (GPa) = 25.10151 31.16674 28.13413
#
# Velocity S-wave (km/s) = 3.50239 3.90266 3.70793
# Velocity P-wave (km/s) = 6.20030 6.88994 6.55419
#
# Compressibility (1/GPa) = 0.02212449
#
# Stress axis : x y z
#
# Youngs Moduli (GPa) = 77.37054 111.48023 35.28043
#
# Poissons Ratio (x) = -0.03498 0.32371
# Poissons Ratio (y) = -0.02428 0.18332
# Poissons Ratio (z) = 0.70989 0.57925
#
# Static dielectric constant tensor:
#      x y z
#    x 3.855370 0.000010 0.108550 
#    y 0.000010 3.853280 -0.000010 
#    z 0.108550 -0.000010 3.420420 
# 
# 
# High freq. dielectric constant tensor:
#      x y z
#    x 1.810730 0.000000 0.012730 
#    y 0.000000 1.816730 0.000000 
#    z 0.012730 0.000000 1.776980 
# 
# From -- ./inp_files/182537.got.cif
#   From: 2010.06.25/outbox.cif.g09.slc.cpg/sg15_92_cif.got.tgz:182537.got - 2010.06.28 07:06:18.
