data_PCOD8143228
_publ_section_title
;
Structure prediction by ZEFSAII (Michael W. Deem and Ramdas Pophale) SiO2 
 PCOD8143228
Probable space group: C 2/C
;
_chemical_formula_sum "Si O2"
_cell_formula_units_Z 52
_cell_length_a 16.531518
_cell_length_b 9.464290
_cell_length_c 21.115187
_cell_angle_alpha 90.000000
_cell_angle_beta 52.579422
_cell_angle_gamma 90.000000
_cell_volume 2623.757149
_symmetry_space_group_name_H-M "C 2/C"
_symmetry_group_IT_number 15
_symmetry_cell_setting 'monoclinic'
loop_
_space_group_symop_operation_xyz
x,y,z
-x,y,1/2-z
-x,-y,-z
x,-y,1/2+z
1/2+x,1/2+y,z
1/2-x,1/2+y,1/2-z
1/2-x,1/2-y,-z
1/2+x,1/2-y,1/2+z
loop_
_atom_site_type_symbol
_atom_site_label
_atom_site_fract_x
_atom_site_fract_y
_atom_site_fract_z
Si Si1 0.868403 0.240363 0.207670
Si Si2 0.617919 0.972048 0.585979
Si Si3 0.553141 0.788708 0.028753
Si Si4 0.000000 0.633990 0.750000
Si Si5 0.990541 0.222167 0.925280
Si Si6 0.331872 0.509248 0.539170
Si Si7 0.815730 0.058358 0.693112
O O1 0.781078 0.355070 0.236482
O O2 0.947144 0.253883 0.113010
O O3 0.921477 0.266032 0.250172
O O4 0.821138 0.083804 0.232128
O O5 0.572213 0.818310 0.593207
O O6 0.604452 0.070575 0.531243
O O7 0.560291 0.035007 0.673385
O O8 0.736853 0.955661 0.543492
O O9 0.534957 0.813183 0.962708
O O10 0.631714 0.660945 0.003519
O O11 0.083216 0.151199 0.842973
O O12 0.923020 0.100018 0.988070
O O13 0.301205 0.518060 0.626860
#
# Coordination Sequence:
#
# PCOD8143228 Si02
#       7
#     8   8   8   4   8   8   8
#     4  11  22  43  64  88 125 165 207 254 318 370
#     4  11  23  38  65  92 127 166 207 251 311 368
#     4  10  21  40  64  90 126 161 209 253 303 373
#     4  10  24  42  60  88 130 162 204 262 310 374
#     4  11  22  41  64  94 127 159 209 261 304 366
#     4  11  20  43  62  91 123 165 205 258 314 354
#     4  11  23  40  66  90 124 169 206 254 315 372
#
# _framework density 19.818906999999999
#
# number of rings (size 3 to 8) (size 9 to 14) (size 15 to 20)
#    0.000    1.231    4.615    2.308    4.308    0.000 
#    0.000    2.308    0.000    0.000    0.000    0.000 
#    0.000    0.000    0.000    0.000    0.000    0.000 
#
# Total GULP energy -322545.844082 kJ/mol
# GULP energy per Si atom -12405.609388 kJ/mol
# Density = 1.977380 g / cm^3
# Si number density = 19.818907 Si / 1000 Ang^3
#
#
#
# Elastic Constant Matrix: (Units=GPa)
#
#
# Indices 1 2 3 4 5 6 
#
# 1 105.9357 39.9837 22.5496 0.0000 -17.0224 0.0000
# 2 39.9837 89.8238 18.1758 0.0000 3.1228 0.0001
# 3 22.5496 18.1758 54.0900 0.0000 1.3919 0.0000
# 4 0.0000 0.0000 0.0000 26.9927 0.0000 -4.5372
# 5 -17.0224 3.1228 1.3919 0.0000 20.2100 0.0000
# 6 0.0000 0.0001 0.0000 -4.5372 0.0000 44.2471
#
#
#
# Elastic Compliance Matrix: (Units=1/GPa)
#
#
# Indices 1 2 3 4 5 6 
#
# 1 0.014989 -0.006243 -0.004509 0.000000 0.013900 0.000000
# 2 -0.006243 0.014596 -0.002112 0.000000 -0.007368 0.000000
# 3 -0.004509 -0.002112 0.021204 0.000000 -0.004932 0.000000
# 4 0.000000 0.000000 0.000000 0.037697 0.000000 0.003866
# 5 0.013900 -0.007368 -0.004932 0.000000 0.062667 0.000000
# 6 0.000000 0.000000 0.000000 0.003866 0.000000 0.022997
#
#
# Mechanical properties :
#
#
# Convention : Reuss Voigt Hill
#
# Bulk Modulus (GPa) = 39.90315 45.69642 42.79978
# Shear Modulus (GPa) = 24.01179 29.56598 26.78888
#
# Velocity S-wave (km/s) = 3.48452 3.86658 3.68051
# Velocity P-wave (km/s) = 6.03049 6.56056 6.30110
#
# Compressibility (1/GPa) = 0.02506068
#
# Stress axis : x y z
#
# Youngs Moduli (GPa) = 66.71359 68.51397 47.16089
#
# Poissons Ratio (x) = 0.42775 0.21264
# Poissons Ratio (y) = 0.41651 0.09961
# Poissons Ratio (z) = 0.30079 0.14471
#
# Static dielectric constant tensor:
#      x y z
#    x 3.749350 0.000000 -0.088240 
#    y 0.000000 3.616540 0.000000 
#    z -0.088240 0.000000 3.485960 
# 
# 
# High freq. dielectric constant tensor:
#      x y z
#    x 1.781700 0.000000 -0.011470 
#    y 0.000000 1.775980 0.000000 
#    z -0.011470 0.000000 1.766600 
# 
# From -- ./inp_files/209071.got.cif
#   From: 2010.06.25/outbox.cif.g09.slc.cpg/sg15_105_cif.got.tgz:209071.got - 2010.06.28 07:06:18.
