data_PCOD8143058
_publ_section_title
;
Structure prediction by ZEFSAII (Michael W. Deem and Ramdas Pophale) SiO2 
 PCOD8143058
Probable space group: C 2/C
;
_chemical_formula_sum "Si O2"
_cell_formula_units_Z 48
_cell_length_a 18.152623
_cell_length_b 11.068832
_cell_length_c 13.771170
_cell_angle_alpha 90.000000
_cell_angle_beta 122.982987
_cell_angle_gamma 90.000000
_cell_volume 2321.064151
_symmetry_space_group_name_H-M "C 2/C"
_symmetry_group_IT_number 15
_symmetry_cell_setting 'monoclinic'
loop_
_space_group_symop_operation_xyz
x,y,z
-x,y,1/2-z
-x,-y,-z
x,-y,1/2+z
1/2+x,1/2+y,z
1/2-x,1/2+y,1/2-z
1/2-x,1/2-y,-z
1/2+x,1/2-y,1/2+z
loop_
_atom_site_type_symbol
_atom_site_label
_atom_site_fract_x
_atom_site_fract_y
_atom_site_fract_z
Si Si1 0.411568 0.211567 0.975695
Si Si2 0.106929 0.189216 0.642795
Si Si3 0.596319 0.174271 0.313960
Si Si4 0.825579 0.936522 0.807772
Si Si5 0.234595 0.761259 0.877687
Si Si6 0.142496 0.450974 0.230921
O O1 0.356809 0.324204 0.895252
O O2 0.402431 0.089810 0.903324
O O3 0.513475 0.249626 0.053449
O O4 0.368348 0.176899 0.049889
O O5 0.146929 0.237024 0.774852
O O6 0.174174 0.232637 0.609741
O O7 0.101483 0.042990 0.642691
O O8 0.500000 0.231334 0.250000
O O9 0.585764 0.041921 0.256158
O O10 0.802421 0.891886 0.682020
O O11 0.737132 0.988299 0.788952
O O12 0.155093 0.670994 0.799121
O O13 0.250000 0.750000 0.000000
#
# Coordination Sequence:
#
# PCOD8143058 Si02
#       6
#     8   8   8   8   8   8
#     4  10  23  40  63  90 123 166 203 254 314 361
#     4  10  21  40  61  88 124 156 207 257 298 372
#     4  10  22  38  62  92 120 161 205 252 312 364
#     4  10  21  41  59  88 124 159 205 254 300 369
#     4  10  22  38  59  88 121 163 203 250 311 360
#     4  10  22  38  58  90 122 158 204 255 302 362
#
# _framework density 20.68017
#
# number of rings (size 3 to 8) (size 9 to 14) (size 15 to 20)
#    0.000    2.000    1.667    0.500    2.333    7.333 
#    0.000    4.167    0.000    0.000    0.000    0.000 
#    0.000    0.000    0.000    0.000    0.000    0.000 
#
# Total GULP energy -297328.754027 kJ/mol
# GULP energy per Si atom -12388.698084 kJ/mol
# Density = 2.063310 g / cm^3
# Si number density = 20.680170 Si / 1000 Ang^3
#
#
#
# Elastic Constant Matrix: (Units=GPa)
#
#
# Indices 1 2 3 4 5 6 
#
# 1 68.6219 32.3533 47.2902 0.0000 -15.1414 0.0000
# 2 32.3533 118.4300 55.7240 0.0000 -11.0314 0.0000
# 3 47.2902 55.7240 165.5736 0.0000 -29.8305 0.0000
# 4 0.0000 0.0000 0.0000 29.5602 0.0000 5.2043
# 5 -15.1414 -11.0314 -29.8305 0.0000 36.7951 0.0000
# 6 0.0000 0.0000 0.0000 5.2043 0.0000 19.1750
#
#
#
# Elastic Compliance Matrix: (Units=1/GPa)
#
#
# Indices 1 2 3 4 5 6 
#
# 1 0.019578 -0.003189 -0.003794 0.000000 0.004025 0.000000
# 2 -0.003189 0.010555 -0.002703 0.000000 -0.000339 0.000000
# 3 -0.003794 -0.002703 0.008906 0.000000 0.004849 0.000000
# 4 0.000000 0.000000 0.000000 0.035527 0.000000 -0.009642
# 5 0.004025 -0.000339 0.004849 0.000000 0.032664 0.000000
# 6 0.000000 0.000000 0.000000 -0.009642 0.000000 0.054768
#
#
# Mechanical properties :
#
#
# Convention : Reuss Voigt Hill
#
# Bulk Modulus (GPa) = 50.83852 69.26228 60.05040
# Shear Modulus (GPa) = 26.60641 31.58994 29.09817
#
# Velocity S-wave (km/s) = 3.59076 3.91263 3.75514
# Velocity P-wave (km/s) = 6.46746 7.34686 6.92114
#
# Compressibility (1/GPa) = 0.01967012
#
# Stress axis : x y z
#
# Youngs Moduli (GPa) = 51.07672 94.74206 112.27989
#
# Poissons Ratio (x) = 0.30210 0.42594
# Poissons Ratio (y) = 0.16287 0.30345
# Poissons Ratio (z) = 0.19376 0.25605
#
# Static dielectric constant tensor:
#      x y z
#    x 3.647460 0.000000 -0.121020 
#    y 0.000000 4.234570 0.000000 
#    z -0.121020 0.000000 4.114430 
# 
# 
# High freq. dielectric constant tensor:
#      x y z
#    x 1.795890 0.000000 -0.002410 
#    y 0.000000 1.819740 0.000000 
#    z -0.002410 0.000000 1.813700 
# 
# From -- ./inp_files/104287.got.cif
#   From: 2010.06.25/outbox.cif.g09.slc.cpg/sg15_53_cif.got.tgz:104287.got - 2010.06.28 07:06:18.
