data_PCOD8143663
_publ_section_title
;
Structure prediction by ZEFSAII (Michael W. Deem and Ramdas Pophale) SiO2 
 PCOD8143663
Probable space group: C 2/C
;
_chemical_formula_sum "Si O2"
_cell_formula_units_Z 64
_cell_length_a 32.516325
_cell_length_b 17.310349
_cell_length_c 12.881948
_cell_angle_alpha 90.000000
_cell_angle_beta 155.408806
_cell_angle_gamma 90.000000
_cell_volume 3017.375594
_symmetry_space_group_name_H-M "C 2/C"
_symmetry_group_IT_number 15
_symmetry_cell_setting 'monoclinic'
loop_
_space_group_symop_operation_xyz
x,y,z
-x,y,1/2-z
-x,-y,-z
x,-y,1/2+z
1/2+x,1/2+y,z
1/2-x,1/2+y,1/2-z
1/2-x,1/2-y,-z
1/2+x,1/2-y,1/2+z
loop_
_atom_site_type_symbol
_atom_site_label
_atom_site_fract_x
_atom_site_fract_y
_atom_site_fract_z
Si Si1 0.603717 0.285758 0.158098
Si Si2 0.603178 0.431445 0.025116
Si Si3 0.764511 0.114829 0.859800
Si Si4 0.279988 0.864740 0.879162
Si Si5 0.396790 0.260361 0.757653
Si Si6 0.297138 0.140402 0.185978
Si Si7 0.882893 0.744879 0.959540
Si Si8 0.743889 0.011472 0.004202
O O1 0.578690 0.346201 0.010370
O O2 0.618172 0.203131 0.136490
O O3 0.694277 0.313978 0.435379
O O4 0.513459 0.274336 0.029396
O O5 0.688069 0.425876 0.131922
O O6 0.642799 0.488459 0.206556
O O7 0.500000 0.468042 0.750000
O O8 0.673427 0.171624 0.616186
O O9 0.848283 0.159005 0.115908
O O10 0.729306 0.049718 0.858859
O O11 0.299343 0.893996 0.807189
O O12 0.170350 0.825771 0.632832
O O13 0.296709 0.936359 0.995419
O O14 0.363799 0.802324 0.097623
O O15 0.361593 0.232276 0.789097
O O16 0.312182 0.071268 0.136966
O O17 0.000000 0.746784 0.250000
#
# Coordination Sequence:
#
# PCOD8143663 Si02
#       8
#     8   8   8   8   8   8   8   8
#     4  10  21  41  62  93 121 153 219 263 298 364
#     4  11  23  38  64  94 120 167 204 253 313 362
#     4  11  21  42  63  88 129 162 204 256 309 364
#     4  11  21  40  63  91 124 163 207 253 309 370
#     4  11  20  38  68  89 120 159 206 264 302 354
#     4  10  23  39  63  90 124 168 203 257 311 360
#     4  11  22  37  66  94 118 162 210 260 304 358
#     4  11  23  41  59  89 136 162 199 247 311 383
#
# _framework density 21.210486
#
# number of rings (size 3 to 8) (size 9 to 14) (size 15 to 20)
#    0.000    1.250    3.750    3.750    0.000    3.000 
#    2.250    0.625    5.500    0.000    0.000    0.000 
#    0.000    0.000    0.000    0.000    0.000    0.000 
#
# Total GULP energy -396712.544262 kJ/mol
# GULP energy per Si atom -12397.267008 kJ/mol
# Density = 2.116221 g / cm^3
# Si number density = 21.210486 Si / 1000 Ang^3
#
#
#
# Elastic Constant Matrix: (Units=GPa)
#
#
# Indices 1 2 3 4 5 6 
#
# 1 76.2298 12.4776 -4.9475 0.0000 -10.7814 0.0000
# 2 12.4776 85.6187 2.5961 0.0000 -3.9781 0.0000
# 3 -4.9475 2.5961 47.2124 0.0000 0.7193 0.0000
# 4 0.0000 0.0000 0.0000 19.5288 0.0000 -7.8656
# 5 -10.7814 -3.9781 0.7193 0.0000 33.6434 0.0000
# 6 0.0000 0.0000 0.0000 -7.8656 0.0000 25.5638
#
#
#
# Elastic Compliance Matrix: (Units=1/GPa)
#
#
# Indices 1 2 3 4 5 6 
#
# 1 0.014133 -0.001907 0.001521 0.000000 0.004271 0.000000
# 2 -0.001907 0.012023 -0.000874 0.000000 0.000829 0.000000
# 3 0.001521 -0.000874 0.021389 0.000000 -0.000073 0.000000
# 4 0.000000 0.000000 0.000000 0.058450 0.000000 0.017984
# 5 0.004271 0.000829 -0.000073 0.000000 0.031192 0.000000
# 6 0.000000 0.000000 0.000000 0.017984 0.000000 0.044651
#
#
# Mechanical properties :
#
#
# Convention : Reuss Voigt Hill
#
# Bulk Modulus (GPa) = 22.20985 25.47927 23.84456
# Shear Modulus (GPa) = 25.07940 29.00953 27.04446
#
# Velocity S-wave (km/s) = 3.44234 3.70225 3.57466
# Velocity P-wave (km/s) = 5.12772 5.50583 5.32014
#
# Compressibility (1/GPa) = 0.04502507
#
# Stress axis : x y z
#
# Youngs Moduli (GPa) = 70.75534 83.17622 46.75214
#
# Poissons Ratio (x) = 0.15865 -0.07110
# Poissons Ratio (y) = 0.13496 0.04084
# Poissons Ratio (z) = -0.10761 0.07266
#
# Static dielectric constant tensor:
#      x y z
#    x 3.748500 0.000000 -0.106300 
#    y 0.000000 3.882150 0.000000 
#    z -0.106300 0.000000 3.655820 
# 
# 
# High freq. dielectric constant tensor:
#      x y z
#    x 1.826530 0.000000 -0.016110 
#    y 0.000000 1.831910 0.000000 
#    z -0.016110 0.000000 1.820810 
# 
# From -- ./inp_files/127312.got.cif
#   From: 2010.06.25/outbox.cif.g09.slc.cpg/sg15_64_cif.got.tgz:127312.got - 2010.06.28 07:06:18.
