data_PCOD8143103
_publ_section_title
;
Structure prediction by ZEFSAII (Michael W. Deem and Ramdas Pophale) SiO2 
 PCOD8143103
Probable space group: C 2/C
;
_chemical_formula_sum "Si O2"
_cell_formula_units_Z 56
_cell_length_a 9.353151
_cell_length_b 17.291320
_cell_length_c 29.799107
_cell_angle_alpha 90.000000
_cell_angle_beta 36.140544
_cell_angle_gamma 90.000000
_cell_volume 2842.303973
_symmetry_space_group_name_H-M "C 2/C"
_symmetry_group_IT_number 15
_symmetry_cell_setting 'monoclinic'
loop_
_space_group_symop_operation_xyz
x,y,z
-x,y,1/2-z
-x,-y,-z
x,-y,1/2+z
1/2+x,1/2+y,z
1/2-x,1/2+y,1/2-z
1/2-x,1/2-y,-z
1/2+x,1/2-y,1/2+z
loop_
_atom_site_type_symbol
_atom_site_label
_atom_site_fract_x
_atom_site_fract_y
_atom_site_fract_z
Si Si1 0.422796 0.309097 0.980517
Si Si2 0.724290 0.443384 0.538011
Si Si3 0.453962 0.102002 0.465617
Si Si4 0.435116 0.662130 0.580356
Si Si5 0.576735 0.842877 0.679438
Si Si6 0.773837 0.305585 0.675689
Si Si7 0.782129 0.494051 0.337956
O O1 0.330965 0.395217 0.992718
O O2 0.682649 0.294488 0.892053
O O3 0.250000 0.250000 0.000000
O O4 0.442005 0.299704 0.029289
O O5 0.897523 0.511348 0.476914
O O6 0.467439 0.475959 0.623541
O O7 0.865213 0.387888 0.537730
O O8 0.588846 0.128411 0.386819
O O9 0.205553 0.151200 0.532052
O O10 0.298215 0.721147 0.647569
O O11 0.289139 0.581157 0.614854
O O12 0.500000 0.832570 0.750000
O O13 0.369756 0.805512 0.701889
O O14 0.619455 0.934214 0.657100
O O15 0.500000 0.330558 0.750000
O O16 0.000000 0.469026 0.250000
#
# Coordination Sequence:
#
# PCOD8143103 Si02
#       7
#     8   8   8   8   8   8   8
#     4  11  23  38  64  88 123 162 207 256 305 369
#     4   9  21  37  63  91 121 160 207 254 304 366
#     4  10  21  40  62  89 123 158 206 257 305 359
#     4  11  23  40  64  92 121 162 210 253 310 365
#     4  10  24  42  62  88 120 165 202 249 309 374
#     4  12  26  38  63  92 127 161 204 256 312 369
#     4   9  20  39  64  87 124 160 203 247 305 368
#
# _framework density 19.702325999999999
#
# number of rings (size 3 to 8) (size 9 to 14) (size 15 to 20)
#    0.000    1.714    1.429    1.714   12.000    1.714 
#    0.000    0.000    0.000    0.857    0.000    0.000 
#    0.000    0.000    0.000    0.000    0.000    0.000 
#
# Total GULP energy -347083.153153 kJ/mol
# GULP energy per Si atom -12395.826898 kJ/mol
# Density = 1.965748 g / cm^3
# Si number density = 19.702326 Si / 1000 Ang^3
#
#
#
# Elastic Constant Matrix: (Units=GPa)
#
#
# Indices 1 2 3 4 5 6 
#
# 1 116.6161 38.1944 42.1750 -0.0015 1.1099 0.0058
# 2 38.1944 61.2865 38.4373 0.0030 3.3140 0.0021
# 3 42.1750 38.4373 115.6712 0.0152 -9.7189 0.0008
# 4 -0.0015 0.0030 0.0152 24.5031 -0.0052 -0.6128
# 5 1.1099 3.3140 -9.7189 -0.0052 35.0301 -0.0009
# 6 0.0058 0.0021 0.0008 -0.6128 -0.0009 33.0514
#
#
#
# Elastic Compliance Matrix: (Units=1/GPa)
#
#
# Indices 1 2 3 4 5 6 
#
# 1 0.011220 -0.005529 -0.002293 0.000003 -0.000469 -0.000002
# 2 -0.005529 0.023883 -0.006241 0.000000 -0.003816 -0.000001
# 3 -0.002293 -0.006241 0.011888 -0.000006 0.003961 0.000001
# 4 0.000003 0.000000 -0.000006 0.040830 0.000004 0.000757
# 5 -0.000469 -0.003816 0.003961 0.000004 0.030022 0.000001
# 6 -0.000002 -0.000001 0.000001 0.000757 0.000001 0.030270
#
#
# Mechanical properties :
#
#
# Convention : Reuss Voigt Hill
#
# Bulk Modulus (GPa) = 53.00817 59.02079 56.01448
# Shear Modulus (GPa) = 27.39333 30.16808 28.78070
#
# Velocity S-wave (km/s) = 3.73280 3.91729 3.82616
# Velocity P-wave (km/s) = 6.74843 7.10504 6.92903
#
# Compressibility (1/GPa) = 0.01886502
#
# Stress axis : x y z
#
# Youngs Moduli (GPa) = 89.12909 41.87092 84.11878
#
# Poissons Ratio (x) = 0.23150 0.19288
# Poissons Ratio (y) = 0.49277 0.52499
# Poissons Ratio (z) = 0.20437 0.26132
#
# Static dielectric constant tensor:
#      x y z
#    x 3.700290 0.000090 -0.282650 
#    y 0.000090 3.635000 0.000050 
#    z -0.282650 0.000050 3.596430 
# 
# 
# High freq. dielectric constant tensor:
#      x y z
#    x 1.768280 0.000000 -0.018580 
#    y 0.000000 1.771400 0.000000 
#    z -0.018580 0.000000 1.763820 
# 
# From -- ./inp_files/191053.got.cif
#   From: 2010.06.25/outbox.cif.g09.slc.cpg/sg15_96_cif.got.tgz:191053.got - 2010.06.28 07:06:18.
