data_PCOD8143278
_publ_section_title
;
Structure prediction by ZEFSAII (Michael W. Deem and Ramdas Pophale) SiO2 
 PCOD8143278
Probable space group: C 2/C
;
_chemical_formula_sum "Si O2"
_cell_formula_units_Z 40
_cell_length_a 24.217435
_cell_length_b 5.733627
_cell_length_c 13.188289
_cell_angle_alpha 90.000000
_cell_angle_beta 102.394867
_cell_angle_gamma 90.000000
_cell_volume 1788.559730
_symmetry_space_group_name_H-M "C 2/C"
_symmetry_group_IT_number 15
_symmetry_cell_setting 'monoclinic'
loop_
_space_group_symop_operation_xyz
x,y,z
-x,y,1/2-z
-x,-y,-z
x,-y,1/2+z
1/2+x,1/2+y,z
1/2-x,1/2+y,1/2-z
1/2-x,1/2-y,-z
1/2+x,1/2-y,1/2+z
loop_
_atom_site_type_symbol
_atom_site_label
_atom_site_fract_x
_atom_site_fract_y
_atom_site_fract_z
Si Si1 0.125074 0.427302 0.929521
Si Si2 0.189617 0.421660 0.637397
Si Si3 0.810925 0.104791 0.680569
Si Si4 0.468202 0.251805 0.972870
Si Si5 0.390626 0.781188 0.259575
O O1 0.179050 0.301934 0.899872
O O2 0.090579 0.553801 0.826130
O O3 0.150856 0.610342 0.021831
O O4 0.083162 0.245979 0.967641
O O5 0.192258 0.187040 0.703592
O O6 0.252815 0.482240 0.627799
O O7 0.161757 0.622058 0.695244
O O8 0.867045 0.949169 0.697194
O O9 0.445782 0.260659 0.848967
O O10 0.500000 0.500000 0.000000
O O11 0.500000 0.000000 0.000000
#
# Coordination Sequence:
#
# PCOD8143278 Si02
#       5
#     8   8   8   8   8
#     4  10  25  42  68 102 133 178 238 287 348 421
#     4  10  21  40  64  99 143 177 219 273 351 417
#     4  11  21  40  67  99 140 184 222 278 346 430
#     4  11  28  51  75  99 139 186 237 303 361 402
#     4  10  24  43  68 100 136 178 230 285 342 426
#
# _framework density 22.364363999999998
#
# number of rings (size 3 to 8) (size 9 to 14) (size 15 to 20)
#    0.000    1.600    2.000    0.600   11.200    3.200 
#    0.000    0.000    0.000    0.000    0.000    0.000 
#    0.000    0.000    0.000    0.000    0.000    0.000 
#
# Total GULP energy -247861.249885 kJ/mol
# GULP energy per Si atom -12393.062494 kJ/mol
# Density = 2.231346 g / cm^3
# Si number density = 22.364364 Si / 1000 Ang^3
#
#
#
# Elastic Constant Matrix: (Units=GPa)
#
#
# Indices 1 2 3 4 5 6 
#
# 1 80.8378 30.9870 54.2136 0.0000 7.5061 0.0000
# 2 30.9870 91.9952 38.7872 0.0000 9.3793 0.0000
# 3 54.2136 38.7872 156.1617 0.0000 6.1926 0.0000
# 4 0.0000 0.0000 0.0000 31.9030 0.0000 6.7105
# 5 7.5061 9.3793 6.1926 0.0000 37.6632 0.0000
# 6 0.0000 0.0000 0.0000 6.7105 0.0000 33.4274
#
#
#
# Elastic Compliance Matrix: (Units=1/GPa)
#
#
# Indices 1 2 3 4 5 6 
#
# 1 0.017266 -0.003508 -0.005054 0.000000 -0.001736 0.000000
# 2 -0.003508 0.013101 -0.001947 0.000000 -0.002243 0.000000
# 3 -0.005054 -0.001947 0.008639 0.000000 0.000072 0.000000
# 4 0.000000 0.000000 0.000000 0.032727 0.000000 -0.006570
# 5 -0.001736 -0.002243 0.000072 0.000000 0.027444 0.000000
# 6 0.000000 0.000000 0.000000 -0.006570 0.000000 0.031234
#
#
# Mechanical properties :
#
#
# Convention : Reuss Voigt Hill
#
# Bulk Modulus (GPa) = 55.59262 64.10783 59.85022
# Shear Modulus (GPa) = 31.76100 34.26583 33.01341
#
# Velocity S-wave (km/s) = 3.77259 3.91853 3.84625
# Velocity P-wave (km/s) = 6.62482 7.01431 6.82235
#
# Compressibility (1/GPa) = 0.01798800
#
# Stress axis : x y z
#
# Youngs Moduli (GPa) = 57.91844 76.32737 115.75440
#
# Poissons Ratio (x) = 0.26774 0.58501
# Poissons Ratio (y) = 0.20317 0.22542
# Poissons Ratio (z) = 0.29271 0.14864
#
# Static dielectric constant tensor:
#      x y z
#    x 3.887860 0.000000 -0.076260 
#    y 0.000000 3.897810 0.000000 
#    z -0.076260 0.000000 4.217090 
# 
# 
# High freq. dielectric constant tensor:
#      x y z
#    x 1.874650 0.000000 -0.005760 
#    y 0.000000 1.867700 0.000000 
#    z -0.005760 0.000000 1.896420 
# 
# From -- ./inp_files/120755.got.cif
#   From: 2010.06.25/outbox.cif.g09.slc.cpg/sg15_61_cif.got.tgz:120755.got - 2010.06.28 07:06:18.
