data_PCOD8143121
_publ_section_title
;
Structure prediction by ZEFSAII (Michael W. Deem and Ramdas Pophale) SiO2 
 PCOD8143121
Probable space group: C 2/C
;
_chemical_formula_sum "Si O2"
_cell_formula_units_Z 56
_cell_length_a 28.382661
_cell_length_b 9.179910
_cell_length_c 20.022175
_cell_angle_alpha 90.000000
_cell_angle_beta 32.069421
_cell_angle_gamma 90.000000
_cell_volume 2769.832200
_symmetry_space_group_name_H-M "C 2/C"
_symmetry_group_IT_number 15
_symmetry_cell_setting 'monoclinic'
loop_
_space_group_symop_operation_xyz
x,y,z
-x,y,1/2-z
-x,-y,-z
x,-y,1/2+z
1/2+x,1/2+y,z
1/2-x,1/2+y,1/2-z
1/2-x,1/2-y,-z
1/2+x,1/2-y,1/2+z
loop_
_atom_site_type_symbol
_atom_site_label
_atom_site_fract_x
_atom_site_fract_y
_atom_site_fract_z
Si Si1 0.552271 0.199382 0.286061
Si Si2 0.635187 0.703202 0.924686
Si Si3 0.119377 0.116180 0.483092
Si Si4 0.474247 0.080699 0.597721
Si Si5 0.183856 0.727900 0.019366
Si Si6 0.323197 0.393549 0.271385
Si Si7 0.675619 0.708032 0.270599
O O1 0.460218 0.282061 0.397319
O O2 0.589099 0.186599 0.165794
O O3 0.615079 0.298885 0.255631
O O4 0.544858 0.035177 0.321665
O O5 0.672669 0.679935 0.805776
O O6 0.720128 0.756201 0.865799
O O7 0.595684 0.552257 0.000927
O O8 0.555183 0.817157 0.023666
O O9 0.182878 0.128576 0.472144
O O10 0.159603 0.188644 0.368664
O O11 0.384338 0.168020 0.690309
O O12 0.500000 0.000000 0.500000
O O13 0.250000 0.750000 0.000000
O O14 0.223122 0.604047 0.922192
O O15 0.353743 0.560504 0.231405
#
# Coordination Sequence:
#
# PCOD8143121 Si02
#       7
#     8   8   8   8   8   8   8
#     4  11  23  40  69  89 133 172 217 260 324 397
#     4  11  24  38  68  98 133 165 214 273 339 378
#     4  11  22  40  64  91 125 171 219 260 328 381
#     4  12  24  40  64 106 136 163 211 276 333 381
#     4  10  23  40  65  89 123 171 222 259 310 397
#     4  10  21  40  62  94 127 167 215 259 326 382
#     4  11  24  38  68  96 137 161 211 279 330 377
#
# _framework density 20.217831
#
# number of rings (size 3 to 8) (size 9 to 14) (size 15 to 20)
#    0.000    1.143    4.286    1.286   10.000    2.286 
#    0.000    0.714    6.286    0.000    0.000    0.000 
#    0.000    0.000    0.000    0.000    0.000    0.000 
#
# Total GULP energy -346973.610131 kJ/mol
# GULP energy per Si atom -12391.914648 kJ/mol
# Density = 2.017181 g / cm^3
# Si number density = 20.217831 Si / 1000 Ang^3
#
#
#
# Elastic Constant Matrix: (Units=GPa)
#
#
# Indices 1 2 3 4 5 6 
#
# 1 90.8300 56.0158 29.0091 0.0029 -1.0393 -0.0002
# 2 56.0158 142.3966 83.6521 -0.0415 -3.0072 0.0118
# 3 29.0091 83.6521 210.7277 -0.0450 -14.0840 0.0045
# 4 0.0029 -0.0415 -0.0450 26.0722 0.0124 -9.2214
# 5 -1.0393 -3.0072 -14.0840 0.0124 48.0438 -0.0011
# 6 -0.0002 0.0118 0.0045 -9.2214 -0.0011 34.9568
#
#
#
# Elastic Compliance Matrix: (Units=1/GPa)
#
#
# Indices 1 2 3 4 5 6 
#
# 1 0.014556 -0.005933 0.000355 -0.000011 0.000047 -0.000001
# 2 -0.005933 0.011589 -0.003819 0.000013 -0.000522 0.000000
# 3 0.000355 -0.003819 0.006321 0.000005 0.001622 0.000002
# 4 -0.000011 0.000013 0.000005 0.042302 -0.000009 0.011159
# 5 0.000047 -0.000522 0.001622 -0.000009 0.021258 -0.000002
# 6 -0.000001 0.000000 0.000002 0.011159 -0.000002 0.031550
#
#
# Mechanical properties :
#
#
# Convention : Reuss Voigt Hill
#
# Bulk Modulus (GPa) = 73.14562 86.81205 79.97884
# Shear Modulus (GPa) = 33.12842 40.16636 36.64739
#
# Velocity S-wave (km/s) = 4.05232 4.46205 4.26211
# Velocity P-wave (km/s) = 7.62577 8.34135 7.99158
#
# Compressibility (1/GPa) = 0.01367136
#
# Stress axis : x y z
#
# Youngs Moduli (GPa) = 68.70002 86.28919 158.20678
#
# Poissons Ratio (x) = 0.51199 -0.05612
# Poissons Ratio (y) = 0.40763 0.60412
# Poissons Ratio (z) = -0.02437 0.32950
#
# Static dielectric constant tensor:
#      x y z
#    x 3.609220 0.000130 0.222980 
#    y 0.000130 3.613040 -0.000110 
#    z 0.222980 -0.000110 4.028030 
# 
# 
# High freq. dielectric constant tensor:
#      x y z
#    x 1.794180 0.000000 -0.009750 
#    y 0.000000 1.783290 0.000000 
#    z -0.009750 0.000000 1.796920 
# 
# From -- ./inp_files/258944.got.cif
#   From: 2010.06.25/outbox.cif.g09.slc.cpg/sg15_130_cif.got.tgz:258944.got - 2010.06.28 07:06:18.
