data_PCOD8143195
_publ_section_title
;
Structure prediction by ZEFSAII (Michael W. Deem and Ramdas Pophale) SiO2 
 PCOD8143195
Probable space group: C 2/C
;
_chemical_formula_sum "Si O2"
_cell_formula_units_Z 48
_cell_length_a 14.540684
_cell_length_b 19.020242
_cell_length_c 8.430107
_cell_angle_alpha 90.000000
_cell_angle_beta 106.457724
_cell_angle_gamma 90.000000
_cell_volume 2235.968691
_symmetry_space_group_name_H-M "C 2/C"
_symmetry_group_IT_number 15
_symmetry_cell_setting 'monoclinic'
loop_
_space_group_symop_operation_xyz
x,y,z
-x,y,1/2-z
-x,-y,-z
x,-y,1/2+z
1/2+x,1/2+y,z
1/2-x,1/2+y,1/2-z
1/2-x,1/2-y,-z
1/2+x,1/2-y,1/2+z
loop_
_atom_site_type_symbol
_atom_site_label
_atom_site_fract_x
_atom_site_fract_y
_atom_site_fract_z
Si Si1 0.050181 0.292481 0.535606
Si Si2 0.190705 0.556637 0.407341
Si Si3 0.398996 0.576479 0.400084
Si Si4 0.500000 0.307952 0.750000
Si Si5 0.652948 0.792213 0.915262
Si Si6 0.500000 0.460429 0.250000
Si Si7 0.587727 0.051287 0.048607
O O1 0.067883 0.238631 0.398864
O O2 0.128378 0.284316 0.714965
O O3 0.060904 0.371424 0.468817
O O4 0.942478 0.270836 0.536811
O O5 0.287677 0.561049 0.356023
O O6 0.177023 0.629724 0.493147
O O7 0.104500 0.557964 0.241972
O O8 0.179446 0.485974 0.507174
O O9 0.424384 0.644654 0.310145
O O10 0.434695 0.506839 0.331478
O O11 0.438375 0.587521 0.599540
O O12 0.750000 0.750000 0.000000
O O13 0.500000 0.000000 0.000000
#
# Coordination Sequence:
#
# PCOD8143195 Si02
#       7
#     8   8   8   4   8   4   8
#     4  10  23  41  62  94 131 174 214 268 333 395
#     4  11  22  37  62  93 122 161 214 267 316 391
#     4  10  21  40  63  96 126 168 218 271 330 389
#     4  11  24  40  64  90 137 174 216 270 335 396
#     4  10  21  41  64  89 125 169 221 264 327 399
#     4   9  20  40  66  88 127 168 216 278 329 384
#     4  11  22  39  64  92 126 168 212 263 325 384
#
# _framework density 21.467205
#
# number of rings (size 3 to 8) (size 9 to 14) (size 15 to 20)
#    0.000    1.667    1.667    2.500    2.333    2.667 
#    0.000   10.833    0.000    0.000    0.000    0.000 
#    0.000    0.000    0.000    0.000    0.000    0.000 
#
# Total GULP energy -297369.454334 kJ/mol
# GULP energy per Si atom -12390.393931 kJ/mol
# Density = 2.141834 g / cm^3
# Si number density = 21.467205 Si / 1000 Ang^3
#
#
#
# Elastic Constant Matrix: (Units=GPa)
#
#
# Indices 1 2 3 4 5 6 
#
# 1 110.6178 49.9483 38.1296 0.0000 10.4729 0.0000
# 2 49.9483 138.2051 59.8522 0.0000 0.2093 0.0000
# 3 38.1296 59.8522 105.9126 0.0000 2.2540 0.0000
# 4 0.0000 0.0000 0.0000 33.5450 0.0000 15.7459
# 5 10.4729 0.2093 2.2540 0.0000 30.5078 0.0000
# 6 0.0000 0.0000 0.0000 15.7459 0.0000 -20.4746
#
#
#
# Elastic Compliance Matrix: (Units=1/GPa)
#
#
# Indices 1 2 3 4 5 6 
#
# 1 0.011640 -0.003206 -0.002298 0.000000 -0.003804 0.000000
# 2 -0.003206 0.010467 -0.004790 0.000000 0.001383 0.000000
# 3 -0.002298 -0.004790 0.012979 0.000000 -0.000137 0.000000
# 4 0.000000 0.000000 0.000000 0.021904 0.000000 0.016845
# 5 -0.003804 0.001383 -0.000137 0.000000 0.034085 0.000000
# 6 0.000000 0.000000 0.000000 0.016845 0.000000 -0.035887
#
#
# Mechanical properties :
#
#
# Convention : Reuss Voigt Hill
#
# Bulk Modulus (GPa) = 68.97608 72.28838 70.63223
# Shear Modulus (GPa) = 62.02885 22.50268 42.26577
#
# Velocity S-wave (km/s) = 5.38121 3.24116 4.44199
# Velocity P-wave (km/s) = 8.41490 6.91041 7.69949
#
# Compressibility (1/GPa) = 0.01449778
#
# Stress axis : x y z
#
# Youngs Moduli (GPa) = 85.91119 95.54240 77.04859
#
# Poissons Ratio (x) = 0.30629 0.17705
# Poissons Ratio (y) = 0.27542 0.36907
# Poissons Ratio (z) = 0.19741 0.45765
#
# Static dielectric constant tensor:
#      x y z
#    x 3.826100 0.000000 -0.145880 
#    y 0.000000 4.230660 0.000000 
#    z -0.145880 0.000000 3.875530 
# 
# 
# High freq. dielectric constant tensor:
#      x y z
#    x 1.837280 0.000000 0.001860 
#    y 0.000000 1.849460 0.000000 
#    z 0.001860 0.000000 1.841380 
# 
# From -- ./inp_files/40981.got.cif
#   From: 2010.06.25/outbox.cif.g09.slc.cpg/sg15_21_cif.got.tgz:40981.got - 2010.06.28 07:06:18.
