data_PCOD8143188
_publ_section_title
;
Structure prediction by ZEFSAII (Michael W. Deem and Ramdas Pophale) SiO2 
 PCOD8143188
Probable space group: C 2/C
;
_chemical_formula_sum "Si O2"
_cell_formula_units_Z 64
_cell_length_a 12.143505
_cell_length_b 14.954027
_cell_length_c 28.750754
_cell_angle_alpha 90.000000
_cell_angle_beta 34.742384
_cell_angle_gamma 90.000000
_cell_volume 2975.367517
_symmetry_space_group_name_H-M "C 2/C"
_symmetry_group_IT_number 15
_symmetry_cell_setting 'monoclinic'
loop_
_space_group_symop_operation_xyz
x,y,z
-x,y,1/2-z
-x,-y,-z
x,-y,1/2+z
1/2+x,1/2+y,z
1/2-x,1/2+y,1/2-z
1/2-x,1/2-y,-z
1/2+x,1/2-y,1/2+z
loop_
_atom_site_type_symbol
_atom_site_label
_atom_site_fract_x
_atom_site_fract_y
_atom_site_fract_z
Si Si1 0.713559 0.367759 0.046518
Si Si2 0.406019 0.961832 0.487070
Si Si3 0.759230 0.664979 0.931070
Si Si4 0.209945 0.342819 0.767618
Si Si5 0.590041 0.665707 0.083463
Si Si6 0.088296 0.459871 0.329561
Si Si7 0.073518 0.746147 0.406459
Si Si8 0.561053 0.666297 0.780159
O O1 0.733566 0.472597 0.028715
O O2 0.568830 0.325526 0.059733
O O3 0.637599 0.348751 0.124053
O O4 0.934498 0.333455 0.970052
O O5 0.292055 0.869863 0.535551
O O6 0.570881 0.953468 0.391265
O O7 0.500000 0.000000 0.500000
O O8 0.906440 0.728034 0.909210
O O9 0.696595 0.712166 0.905371
O O10 0.892443 0.578744 0.873242
O O11 0.585300 0.643858 0.028886
O O12 0.414572 0.372582 0.674933
O O13 0.097560 0.436906 0.809873
O O14 0.213878 0.292022 0.816709
O O15 0.116434 0.271587 0.764309
O O16 0.277409 0.399693 0.253066
O O17 0.500000 0.639813 0.750000
#
# Coordination Sequence:
#
# PCOD8143188 Si02
#       8
#     8   8   8   8   8   8   8   8
#     4  10  21  40  63  94 129 166 223 266 322 398
#     4  11  21  38  65  97 129 170 218 273 331 389
#     4  10  22  43  67  93 133 177 212 267 341 390
#     4  11  23  43  65 100 131 169 226 279 321 394
#     4  10  22  38  66  95 132 168 221 269 325 401
#     4  11  23  43  63  98 136 167 224 281 322 399
#     4  10  22  41  68  91 130 175 217 269 330 393
#     4  11  24  42  66  95 134 175 214 275 338 390
#
# _framework density 21.509948000000001
#
# number of rings (size 3 to 8) (size 9 to 14) (size 15 to 20)
#    0.000    1.500    2.500    2.250    1.750    0.500 
#    0.000    6.250    0.000    0.000    0.000    0.000 
#    0.000    0.000    0.000    0.000    0.000    0.000 
#
# Total GULP energy -396504.043565 kJ/mol
# GULP energy per Si atom -12390.751361 kJ/mol
# Density = 2.146099 g / cm^3
# Si number density = 21.509948 Si / 1000 Ang^3
#
#
#
# Elastic Constant Matrix: (Units=GPa)
#
#
# Indices 1 2 3 4 5 6 
#
# 1 79.6224 24.0772 22.8381 0.0015 11.6261 -0.0020
# 2 24.0772 103.2873 15.5503 -0.0008 -5.7223 -0.0007
# 3 22.8381 15.5503 121.3748 -0.0048 1.5449 -0.0023
# 4 0.0015 -0.0008 -0.0048 37.0790 0.0001 -2.4959
# 5 11.6261 -5.7223 1.5449 0.0001 19.1832 0.0021
# 6 -0.0020 -0.0007 -0.0023 -2.4959 0.0021 5.6893
#
#
#
# Elastic Compliance Matrix: (Units=1/GPa)
#
#
# Indices 1 2 3 4 5 6 
#
# 1 0.015998 -0.003965 -0.002366 0.000000 -0.010688 0.000008
# 2 -0.003965 0.011036 -0.000741 0.000000 0.005755 -0.000002
# 3 -0.002366 -0.000741 0.008773 0.000001 0.000506 0.000003
# 4 0.000000 0.000000 0.000001 0.027790 -0.000001 0.012191
# 5 -0.010688 0.005755 0.000506 -0.000001 0.060282 -0.000026
# 6 0.000008 -0.000002 0.000003 0.012191 -0.000026 0.181117
#
#
# Mechanical properties :
#
#
# Convention : Reuss Voigt Hill
#
# Bulk Modulus (GPa) = 46.16375 47.69065 46.92720
# Shear Modulus (GPa) = 15.32046 28.51154 21.91600
#
# Velocity S-wave (km/s) = 2.67170 3.64470 3.19545
# Velocity P-wave (km/s) = 5.57005 6.31912 5.95637
#
# Compressibility (1/GPa) = 0.02166202
#
# Stress axis : x y z
#
# Youngs Moduli (GPa) = 62.50971 90.60885 113.99049
#
# Poissons Ratio (x) = 0.35927 0.26971
# Poissons Ratio (y) = 0.24786 0.08448
# Poissons Ratio (z) = 0.14790 0.06715
#
# Static dielectric constant tensor:
#      x y z
#    x 3.405360 -0.000010 0.082620 
#    y -0.000010 4.243540 0.000010 
#    z 0.082620 0.000010 4.161810 
# 
# 
# High freq. dielectric constant tensor:
#      x y z
#    x 1.805060 0.000000 0.007230 
#    y 0.000000 1.859620 0.000000 
#    z 0.007230 0.000000 1.862380 
# 
# From -- ./inp_files/293039.got.cif
#   From: 2010.06.25/outbox.cif.g09.slc.cpg/sg15_147_cif.got.tgz:293039.got - 2010.06.28 07:06:18.
