data_PCOD8143059
_publ_section_title
;
Structure prediction by ZEFSAII (Michael W. Deem and Ramdas Pophale) SiO2 
 PCOD8143059
Probable space group: C 2/C
;
_chemical_formula_sum "Si O2"
_cell_formula_units_Z 60
_cell_length_a 23.255230
_cell_length_b 11.662554
_cell_length_c 18.178471
_cell_angle_alpha 90.000000
_cell_angle_beta 36.219025
_cell_angle_gamma 90.000000
_cell_volume 2913.172717
_symmetry_space_group_name_H-M "C 2/C"
_symmetry_group_IT_number 15
_symmetry_cell_setting 'monoclinic'
loop_
_space_group_symop_operation_xyz
x,y,z
-x,y,1/2-z
-x,-y,-z
x,-y,1/2+z
1/2+x,1/2+y,z
1/2-x,1/2+y,1/2-z
1/2-x,1/2-y,-z
1/2+x,1/2-y,1/2+z
loop_
_atom_site_type_symbol
_atom_site_label
_atom_site_fract_x
_atom_site_fract_y
_atom_site_fract_z
Si Si1 0.148633 0.057587 0.975280
Si Si2 0.613152 0.005550 0.891144
Si Si3 0.821936 0.296206 0.274108
Si Si4 0.222137 0.145206 0.313948
Si Si5 0.000000 0.754599 0.250000
Si Si6 0.840927 0.346095 0.016551
Si Si7 0.160297 0.067793 0.616523
Si Si8 0.452237 0.637612 0.220060
O O1 0.214762 0.172652 0.915465
O O2 0.172007 0.978210 0.880609
O O3 0.039794 0.104695 0.074944
O O4 0.163612 0.974888 0.029450
O O5 0.643050 0.084703 0.793298
O O6 0.664223 0.882049 0.822534
O O7 0.643738 0.055301 0.938948
O O8 0.500000 0.000000 0.000000
O O9 0.825314 0.196942 0.209863
O O10 0.897376 0.256035 0.258702
O O11 0.206890 0.233029 0.397158
O O12 0.943951 0.679419 0.369879
O O13 0.919538 0.832110 0.292241
O O14 0.765937 0.389010 0.032002
O O15 0.127711 0.962855 0.701535
O O16 0.500000 0.650788 0.250000
#
# Coordination Sequence:
#
# PCOD8143059 Si02
#       8
#     8   8   8   8   4   8   8   8
#     4  10  21  40  61  88 125 157 205 264 303 365
#     4  10  24  42  58  92 130 162 206 266 307 377
#     4  10  23  39  62  87 119 166 204 252 316 366
#     4  10  21  42  62  89 126 161 208 257 314 380
#     4  12  22  38  64  98 124 164 210 266 316 384
#     4  11  24  39  68  95 122 175 209 253 335 372
#     4  11  21  40  62  93 126 158 208 265 303 376
#     4  10  21  40  62  90 120 162 208 252 309 375
#
# _framework density 20.596101000000001
#
# number of rings (size 3 to 8) (size 9 to 14) (size 15 to 20)
#    0.000    1.600    3.333    1.200    3.733    3.733 
#    2.400    0.000    0.000    0.000    0.000    0.000 
#    0.000    0.000    0.000    0.000    0.000    0.000 
#
# Total GULP energy -371876.641416 kJ/mol
# GULP energy per Si atom -12395.888047 kJ/mol
# Density = 2.054922 g / cm^3
# Si number density = 20.596101 Si / 1000 Ang^3
#
#
#
# Elastic Constant Matrix: (Units=GPa)
#
#
# Indices 1 2 3 4 5 6 
#
# 1 47.9630 34.8413 32.0815 0.0000 -9.7303 0.0000
# 2 34.8413 76.7063 41.5001 0.0000 -3.5544 0.0000
# 3 32.0815 41.5001 124.4153 0.0000 -3.4105 0.0000
# 4 0.0000 0.0000 0.0000 30.1851 0.0000 -14.1923
# 5 -9.7303 -3.5544 -3.4105 0.0000 26.9084 0.0000
# 6 0.0000 0.0000 0.0000 -14.1923 0.0000 22.9826
#
#
#
# Elastic Compliance Matrix: (Units=1/GPa)
#
#
# Indices 1 2 3 4 5 6 
#
# 1 0.035623 -0.013274 -0.004469 0.000000 0.010562 0.000000
# 2 -0.013274 0.020909 -0.003620 0.000000 -0.002497 0.000000
# 3 -0.004469 -0.003620 0.010376 0.000000 -0.000779 0.000000
# 4 0.000000 0.000000 0.000000 0.046683 0.000000 0.028828
# 5 0.010562 -0.002497 -0.000779 0.000000 0.040554 0.000000
# 6 0.000000 0.000000 0.000000 0.028828 0.000000 0.061313
#
#
# Mechanical properties :
#
#
# Convention : Reuss Voigt Hill
#
# Bulk Modulus (GPa) = 41.35078 51.77005 46.56042
# Shear Modulus (GPa) = 18.77974 25.39265 22.08620
#
# Velocity S-wave (km/s) = 3.02290 3.51506 3.27823
# Velocity P-wave (km/s) = 5.68370 6.45481 6.08149
#
# Compressibility (1/GPa) = 0.02418334
#
# Stress axis : x y z
#
# Youngs Moduli (GPa) = 28.07147 47.82701 96.37586
#
# Poissons Ratio (x) = 0.63484 0.43067
# Poissons Ratio (y) = 0.37261 0.34889
# Poissons Ratio (z) = 0.12544 0.17314
#
# Static dielectric constant tensor:
#      x y z
#    x 3.477790 0.000000 -0.103100 
#    y 0.000000 3.705530 0.000000 
#    z -0.103100 0.000000 3.585510 
# 
# 
# High freq. dielectric constant tensor:
#      x y z
#    x 1.789410 0.000000 0.000750 
#    y 0.000000 1.805230 0.000000 
#    z 0.000750 0.000000 1.820270 
# 
# From -- ./inp_files/255552.got.cif
#   From: 2010.06.25/outbox.cif.g09.slc.cpg/sg15_128_cif.got.tgz:255552.got - 2010.06.28 07:06:18.
