data_PCOD8143006
_publ_section_title
;
Structure prediction by ZEFSAII (Michael W. Deem and Ramdas Pophale) SiO2 
 PCOD8143006
Probable space group: C 2/C
;
_chemical_formula_sum "Si O2"
_cell_formula_units_Z 48
_cell_length_a 28.126473
_cell_length_b 5.381867
_cell_length_c 11.688507
_cell_angle_alpha 90.000000
_cell_angle_beta 77.392426
_cell_angle_gamma 90.000000
_cell_volume 1726.661554
_symmetry_space_group_name_H-M "C 2/C"
_symmetry_group_IT_number 15
_symmetry_cell_setting 'monoclinic'
loop_
_space_group_symop_operation_xyz
x,y,z
-x,y,1/2-z
-x,-y,-z
x,-y,1/2+z
1/2+x,1/2+y,z
1/2-x,1/2+y,1/2-z
1/2-x,1/2-y,-z
1/2+x,1/2-y,1/2+z
loop_
_atom_site_type_symbol
_atom_site_label
_atom_site_fract_x
_atom_site_fract_y
_atom_site_fract_z
Si Si1 0.555022 0.591442 0.964052
Si Si2 0.404116 0.616107 0.309513
Si Si3 0.444465 0.114269 0.277134
Si Si4 0.196593 0.473091 0.846837
Si Si5 0.093695 0.404884 0.453370
Si Si6 0.198207 0.972505 0.701636
O O1 0.573101 0.678614 0.079661
O O2 0.590259 0.370304 0.892845
O O3 0.561378 0.874754 0.904518
O O4 0.500000 0.500000 0.000000
O O5 0.435710 0.395517 0.227744
O O6 0.348124 0.528383 0.358667
O O7 0.409619 0.890392 0.245180
O O8 0.500000 0.028392 0.250000
O O9 0.429598 0.179073 0.414928
O O10 0.196211 0.708240 0.764279
O O11 0.248457 0.484567 0.888829
O O12 0.192396 0.209518 0.786312
O O13 0.148749 0.501849 0.950295
#
# Coordination Sequence:
#
# PCOD8143006 Si02
#       6
#     8   8   8   8   8   8
#     4  10  21  40  59  82 125 157 201 254 303 353
#     4  10  21  40  60  87 116 161 206 244 307 365
#     4  10  21  40  59  82 125 157 201 254 303 353
#     4  10  21  40  63  90 123 159 200 255 311 362
#     4  10  21  40  60  87 116 161 206 244 307 365
#     4  10  21  40  63  90 123 159 200 255 311 362
#
# _framework density 27.799309999999998
#
# number of rings (size 3 to 8) (size 9 to 14) (size 15 to 20)
#    0.000    2.000    0.000    3.000    0.000    0.000 
#   36.000    6.667    0.000    0.000    0.000    0.000 
#    0.000    0.000    0.000    0.000    0.000    0.000 
#
# Total GULP energy -297544.254675 kJ/mol
# GULP energy per Si atom -12397.677278 kJ/mol
# Density = 2.773604 g / cm^3
# Si number density = 27.799310 Si / 1000 Ang^3
#
#
#
# Elastic Constant Matrix: (Units=GPa)
#
#
# Indices 1 2 3 4 5 6 
#
# 1 224.2655 62.5128 39.3425 0.0000 -54.5095 0.0000
# 2 62.5128 226.2911 49.2295 0.0000 3.7530 0.0000
# 3 39.3425 49.2295 70.2917 0.0000 -11.4366 0.0000
# 4 0.0000 0.0000 0.0000 38.0662 0.0000 -6.4789
# 5 -54.5095 3.7530 -11.4366 0.0000 47.6611 0.0000
# 6 0.0000 0.0000 0.0000 -6.4789 0.0000 51.2370
#
#
#
# Elastic Compliance Matrix: (Units=1/GPa)
#
#
# Indices 1 2 3 4 5 6 
#
# 1 0.007150 -0.001792 -0.001450 0.000000 0.007971 0.000000
# 2 -0.001792 0.005746 -0.003568 0.000000 -0.003358 0.000000
# 3 -0.001450 -0.003568 0.018016 0.000000 0.002945 0.000000
# 4 0.000000 0.000000 0.000000 0.026848 0.000000 0.003395
# 5 0.007971 -0.003358 0.002945 0.000000 0.031069 0.000000
# 6 0.000000 0.000000 0.000000 0.003395 0.000000 0.019946
#
#
# Mechanical properties :
#
#
# Convention : Reuss Voigt Hill
#
# Bulk Modulus (GPa) = 57.82789 91.44643 74.63716
# Shear Modulus (GPa) = 39.01407 52.04376 45.52892
#
# Velocity S-wave (km/s) = 3.75029 4.33150 4.05133
# Velocity P-wave (km/s) = 6.29285 7.61462 6.98507
#
# Compressibility (1/GPa) = 0.01729269
#
# Stress axis : x y z
#
# Youngs Moduli (GPa) = 139.85473 174.03588 55.50650
#
# Poissons Ratio (x) = 0.31187 0.08049
# Poissons Ratio (y) = 0.25062 0.19803
# Poissons Ratio (z) = 0.20281 0.62089
#
# Static dielectric constant tensor:
#      x y z
#    x 5.590350 0.000000 0.188610 
#    y 0.000000 6.158510 0.000000 
#    z 0.188610 0.000000 5.807920 
# 
# 
# High freq. dielectric constant tensor:
#      x y z
#    x 2.121590 0.000000 0.015640 
#    y 0.000000 2.203510 0.000000 
#    z 0.015640 0.000000 2.148400 
# 
# From -- ./inp_files/217739.got.cif
#   From: 2010.06.25/outbox.cif.g09.slc.cpg/sg15_109_cif.got.tgz:217739.got - 2010.06.28 07:06:18.
