data_PCOD8143866
_publ_section_title
;
Structure prediction by ZEFSAII (Michael W. Deem and Ramdas Pophale) SiO2 
 PCOD8143866
Probable space group: C 2/C
;
_chemical_formula_sum "Si O2"
_cell_formula_units_Z 40
_cell_length_a 8.952933
_cell_length_b 8.870941
_cell_length_c 24.118422
_cell_angle_alpha 90.000000
_cell_angle_beta 106.398511
_cell_angle_gamma 90.000000
_cell_volume 1837.587414
_symmetry_space_group_name_H-M "C 2/C"
_symmetry_group_IT_number 15
_symmetry_cell_setting 'monoclinic'
loop_
_space_group_symop_operation_xyz
x,y,z
-x,y,1/2-z
-x,-y,-z
x,-y,1/2+z
1/2+x,1/2+y,z
1/2-x,1/2+y,1/2-z
1/2-x,1/2-y,-z
1/2+x,1/2-y,1/2+z
loop_
_atom_site_type_symbol
_atom_site_label
_atom_site_fract_x
_atom_site_fract_y
_atom_site_fract_z
Si Si1 0.555455 0.320565 0.382565
Si Si2 0.085307 0.846256 0.924583
Si Si3 0.946720 0.337319 0.973871
Si Si4 0.179716 0.250961 0.173071
Si Si5 0.647446 0.551378 0.727592
O O1 0.551772 0.477881 0.414958
O O2 0.537933 0.191465 0.426579
O O3 0.717532 0.284179 0.370195
O O4 0.416038 0.323859 0.322771
O O5 0.267291 0.820253 0.939053
O O6 0.000135 0.753557 0.865809
O O7 0.015960 0.787148 0.975527
O O8 0.000000 0.500000 0.000000
O O9 0.211481 0.379793 0.221743
O O10 0.222919 0.090474 0.204576
O O11 0.500000 0.500825 0.750000
#
# Coordination Sequence:
#
# PCOD8143866 Si02
#       5
#     8   8   8   8   8
#     4  10  22  42  62  88 124 160 199 247 305 362
#     4  10  23  41  62  89 124 163 202 249 301 360
#     4  11  24  40  62  92 124 161 206 251 302 360
#     4  10  21  41  66  88 120 161 201 251 303 360
#     4   9  21  40  61  89 121 154 199 251 305 361
#
# _framework density 21.767672000000001
#
# number of rings (size 3 to 8) (size 9 to 14) (size 15 to 20)
#    0.000    2.000    0.000    1.800    0.000   16.000 
#    0.000   13.000    0.000    0.000    0.000    0.000 
#    0.000    0.000    0.000    0.000    0.000    0.000 
#
# Total GULP energy -247959.997483 kJ/mol
# GULP energy per Si atom -12397.999874 kJ/mol
# Density = 2.171813 g / cm^3
# Si number density = 21.767672 Si / 1000 Ang^3
#
#
#
# Elastic Constant Matrix: (Units=GPa)
#
#
# Indices 1 2 3 4 5 6 
#
# 1 69.6460 53.2832 61.2037 0.0000 16.1095 0.0000
# 2 53.2832 95.5622 71.0850 0.0000 -9.3669 0.0000
# 3 61.2037 71.0850 151.6860 0.0000 6.7186 0.0000
# 4 0.0000 0.0000 0.0000 47.2281 0.0000 -2.4587
# 5 16.1095 -9.3669 6.7186 0.0000 34.4807 0.0000
# 6 0.0000 0.0000 0.0000 -2.4587 0.0000 30.3483
#
#
#
# Elastic Compliance Matrix: (Units=1/GPa)
#
#
# Indices 1 2 3 4 5 6 
#
# 1 0.040648 -0.020799 -0.005611 0.000000 -0.023548 0.000000
# 2 -0.020799 0.027983 -0.005537 0.000000 0.018398 0.000000
# 3 -0.005611 -0.005537 0.011501 0.000000 -0.001123 0.000000
# 4 0.000000 0.000000 0.000000 0.021264 0.000000 0.001723
# 5 -0.023548 0.018398 -0.001123 0.000000 0.045220 0.000000
# 6 0.000000 0.000000 0.000000 0.001723 0.000000 0.033090
#
#
# Mechanical properties :
#
#
# Convention : Reuss Voigt Hill
#
# Bulk Modulus (GPa) = 61.57879 76.44865 69.01372
# Shear Modulus (GPa) = 20.07933 31.16624 25.62278
#
# Velocity S-wave (km/s) = 3.04046 3.78797 3.43461
# Velocity P-wave (km/s) = 6.37780 7.37077 6.89219
#
# Compressibility (1/GPa) = 0.01623936
#
# Stress axis : x y z
#
# Youngs Moduli (GPa) = 24.60130 35.73598 86.94874
#
# Poissons Ratio (x) = 0.74326 0.48789
# Poissons Ratio (y) = 0.51167 0.48140
# Poissons Ratio (z) = 0.13804 0.19786
#
# Static dielectric constant tensor:
#      x y z
#    x 3.709150 0.000000 0.163150 
#    y 0.000000 3.819070 0.000000 
#    z 0.163150 0.000000 4.401360 
# 
# 
# High freq. dielectric constant tensor:
#      x y z
#    x 1.837750 0.000000 0.010100 
#    y 0.000000 1.846610 0.000000 
#    z 0.010100 0.000000 1.882810 
# 
# From -- ./inp_files/262420.got.cif
#   From: 2010.06.25/outbox.cif.g09.slc.cpg/sg15_132_cif.got.tgz:262420.got - 2010.06.28 07:06:18.
