data_PCOD8143267
_publ_section_title
;
Structure prediction by ZEFSAII (Michael W. Deem and Ramdas Pophale) SiO2 
 PCOD8143267
Probable space group: C 2/C
;
_chemical_formula_sum "Si O2"
_cell_formula_units_Z 48
_cell_length_a 23.260806
_cell_length_b 10.122032
_cell_length_c 12.765558
_cell_angle_alpha 90.000000
_cell_angle_beta 48.325202
_cell_angle_gamma 90.000000
_cell_volume 2244.980578
_symmetry_space_group_name_H-M "C 2/C"
_symmetry_group_IT_number 15
_symmetry_cell_setting 'monoclinic'
loop_
_space_group_symop_operation_xyz
x,y,z
-x,y,1/2-z
-x,-y,-z
x,-y,1/2+z
1/2+x,1/2+y,z
1/2-x,1/2+y,1/2-z
1/2-x,1/2-y,-z
1/2+x,1/2-y,1/2+z
loop_
_atom_site_type_symbol
_atom_site_label
_atom_site_fract_x
_atom_site_fract_y
_atom_site_fract_z
Si Si1 0.433764 0.266593 0.253400
Si Si2 0.826679 0.407152 0.763493
Si Si3 0.853205 0.690214 0.788338
Si Si4 0.316690 0.239662 0.057411
Si Si5 0.150872 0.957290 0.001828
Si Si6 0.041902 0.136785 0.461919
O O1 0.500000 0.211717 0.250000
O O2 0.365088 0.164941 0.316478
O O3 0.397622 0.406747 0.337737
O O4 0.474843 0.275296 0.091889
O O5 0.863015 0.553790 0.712290
O O6 0.839095 0.333779 0.637571
O O7 0.738533 0.413791 0.904879
O O8 0.775142 0.759694 0.843418
O O9 0.925334 0.788357 0.679858
O O10 0.850543 0.661104 0.916184
O O11 0.354584 0.385502 0.007419
O O12 0.115537 0.880692 0.946800
O O13 0.000000 0.000000 0.500000
#
# Coordination Sequence:
#
# PCOD8143267 Si02
#       6
#     8   8   8   8   8   8
#     4  10  23  39  61  95 132 171 219 273 333 394
#     4  11  22  42  67  95 129 180 223 274 337 399
#     4  10  23  40  62  97 134 169 221 280 324 411
#     4  10  21  40  64  96 129 170 224 278 333 381
#     4  10  21  40  65  95 128 173 228 272 326 407
#     4  11  21  39  63  94 133 170 214 272 332 399
#
# _framework density 21.381031
#
# number of rings (size 3 to 8) (size 9 to 14) (size 15 to 20)
#    0.000    1.667    1.667    2.500    0.000    3.333 
#    9.000    4.167    0.000    0.000    0.000    0.000 
#    0.000    0.000    0.000    0.000    0.000    0.000 
#
# Total GULP energy -297438.867048 kJ/mol
# GULP energy per Si atom -12393.286127 kJ/mol
# Density = 2.133237 g / cm^3
# Si number density = 21.381031 Si / 1000 Ang^3
#
#
#
# Elastic Constant Matrix: (Units=GPa)
#
#
# Indices 1 2 3 4 5 6 
#
# 1 91.1488 54.1367 37.9755 0.0000 -0.2962 0.0000
# 2 54.1367 119.9222 69.2769 0.0000 -1.0155 0.0000
# 3 37.9755 69.2769 118.0703 0.0000 9.7331 0.0000
# 4 0.0000 0.0000 0.0000 36.3532 0.0000 -1.7669
# 5 -0.2962 -1.0155 9.7331 0.0000 28.5591 0.0000
# 6 0.0000 0.0000 0.0000 -1.7669 0.0000 40.5416
#
#
#
# Elastic Compliance Matrix: (Units=1/GPa)
#
#
# Indices 1 2 3 4 5 6 
#
# 1 0.015125 -0.006044 -0.001352 0.000000 0.000403 0.000000
# 2 -0.006044 0.015294 -0.007274 0.000000 0.002960 0.000000
# 3 -0.001352 -0.007274 0.013576 0.000000 -0.004899 0.000000
# 4 0.000000 0.000000 0.000000 0.027566 0.000000 0.001201
# 5 0.000403 0.002960 -0.004899 0.000000 0.036794 0.000000
# 6 0.000000 0.000000 0.000000 0.001201 0.000000 0.024718
#
#
# Mechanical properties :
#
#
# Convention : Reuss Voigt Hill
#
# Bulk Modulus (GPa) = 68.22879 72.43548 70.33213
# Shear Modulus (GPa) = 29.88672 32.27429 31.08051
#
# Velocity S-wave (km/s) = 3.74279 3.88942 3.81681
# Velocity P-wave (km/s) = 7.11745 7.35677 7.23810
#
# Compressibility (1/GPa) = 0.01465657
#
# Stress axis : x y z
#
# Youngs Moduli (GPa) = 66.11512 65.38503 73.65872
#
# Poissons Ratio (x) = 0.39516 0.09958
# Poissons Ratio (y) = 0.39957 0.53578
# Poissons Ratio (z) = 0.08938 0.47560
#
# Static dielectric constant tensor:
#      x y z
#    x 3.933930 0.000000 -0.004890 
#    y 0.000000 4.060510 0.000000 
#    z -0.004890 0.000000 3.897410 
# 
# 
# High freq. dielectric constant tensor:
#      x y z
#    x 1.840400 0.000000 -0.006750 
#    y 0.000000 1.827520 0.000000 
#    z -0.006750 0.000000 1.842260 
# 
# From -- ./inp_files/104158.got.cif
#   From: 2010.06.25/outbox.cif.g09.slc.cpg/sg15_53_cif.got.tgz:104158.got - 2010.06.28 07:06:18.
