data_PCOD8143871
_publ_section_title
;
Structure prediction by ZEFSAII (Michael W. Deem and Ramdas Pophale) SiO2 
 PCOD8143871
Probable space group: C 2/C
;
_chemical_formula_sum "Si O2"
_cell_formula_units_Z 48
_cell_length_a 5.018768
_cell_length_b 23.382507
_cell_length_c 18.490199
_cell_angle_alpha 90.000000
_cell_angle_beta 96.728112
_cell_angle_gamma 90.000000
_cell_volume 2154.907191
_symmetry_space_group_name_H-M "C 2/C"
_symmetry_group_IT_number 15
_symmetry_cell_setting 'monoclinic'
loop_
_space_group_symop_operation_xyz
x,y,z
-x,y,1/2-z
-x,-y,-z
x,-y,1/2+z
1/2+x,1/2+y,z
1/2-x,1/2+y,1/2-z
1/2-x,1/2-y,-z
1/2+x,1/2-y,1/2+z
loop_
_atom_site_type_symbol
_atom_site_label
_atom_site_fract_x
_atom_site_fract_y
_atom_site_fract_z
Si Si1 0.091635 0.429760 0.379574
Si Si2 0.485623 0.238241 0.409007
Si Si3 0.647410 0.554510 0.471911
Si Si4 0.488311 0.678846 0.461310
Si Si5 0.079792 0.006109 0.831931
Si Si6 0.273507 0.324234 0.296806
O O1 0.091832 0.433223 0.467980
O O2 0.298138 0.476315 0.356663
O O3 0.197797 0.368161 0.358159
O O4 0.796734 0.441857 0.336438
O O5 0.554172 0.292009 0.462384
O O6 0.752692 0.201678 0.401431
O O7 0.385144 0.264740 0.331131
O O8 0.274214 0.195006 0.437336
O O9 0.500000 0.500000 0.500000
O O10 0.461370 0.610711 0.469264
O O11 0.716090 0.541713 0.389394
O O12 0.000000 0.982548 0.750000
O O13 0.500000 0.350448 0.250000
O O14 0.000000 0.307692 0.250000
#
# Coordination Sequence:
#
# PCOD8143871 Si02
#       6
#     8   8   8   8   8   8
#     4  11  22  40  61  92 128 171 220 272 325 390
#     4  10  22  40  63  91 125 170 211 268 321 399
#     4  10  23  42  67  99 129 172 225 278 318 398
#     4  10  21  41  66  90 125 166 218 265 324 376
#     4  11  23  39  60  89 131 173 214 266 334 395
#     4  12  23  38  63  96 134 173 219 281 339 390
#
# _framework density 22.274742
#
# number of rings (size 3 to 8) (size 9 to 14) (size 15 to 20)
#    0.000    1.333    1.667    4.500    0.000    5.333 
#    0.000    2.500    0.000    2.000    0.000    0.000 
#    0.000    0.000    0.000    0.000    0.000    0.000 
#
# Total GULP energy -297500.975540 kJ/mol
# GULP energy per Si atom -12395.873981 kJ/mol
# Density = 2.222404 g / cm^3
# Si number density = 22.274742 Si / 1000 Ang^3
#
#
#
# Elastic Constant Matrix: (Units=GPa)
#
#
# Indices 1 2 3 4 5 6 
#
# 1 98.4527 29.4639 36.4640 0.0000 18.1259 0.0000
# 2 29.4639 131.7749 42.3572 0.0000 9.3944 0.0000
# 3 36.4640 42.3572 159.1225 0.0000 28.8122 0.0000
# 4 0.0000 0.0000 0.0000 15.8924 0.0000 3.8513
# 5 18.1259 9.3944 28.8122 0.0000 33.8045 0.0000
# 6 0.0000 0.0000 0.0000 3.8513 0.0000 20.9761
#
#
#
# Elastic Compliance Matrix: (Units=1/GPa)
#
#
# Indices 1 2 3 4 5 6 
#
# 1 0.012131 -0.001921 -0.001404 0.000000 -0.004774 0.000000
# 2 -0.001921 0.008610 -0.001898 0.000000 0.000255 0.000000
# 3 -0.001404 -0.001898 0.008135 0.000000 -0.005653 0.000000
# 4 0.000000 0.000000 0.000000 0.065853 0.000000 -0.012091
# 5 -0.004774 0.000255 -0.005653 0.000000 0.036889 0.000000
# 6 0.000000 0.000000 0.000000 -0.012091 0.000000 0.049893
#
#
# Mechanical properties :
#
#
# Convention : Reuss Voigt Hill
#
# Bulk Modulus (GPa) = 54.25780 67.32445 60.79113
# Shear Modulus (GPa) = 25.23969 32.87228 29.05599
#
# Velocity S-wave (km/s) = 3.36982 3.84574 3.61562
# Velocity P-wave (km/s) = 6.28906 7.07176 6.69186
#
# Compressibility (1/GPa) = 0.01843053
#
# Stress axis : x y z
#
# Youngs Moduli (GPa) = 82.43361 116.14332 122.92410
#
# Poissons Ratio (x) = 0.22308 0.17261
# Poissons Ratio (y) = 0.15833 0.23330
# Poissons Ratio (z) = 0.11575 0.22043
#
# Static dielectric constant tensor:
#      x y z
#    x 3.984730 0.000000 0.261370 
#    y 0.000000 3.869430 0.000000 
#    z 0.261370 0.000000 4.635780 
# 
# 
# High freq. dielectric constant tensor:
#      x y z
#    x 1.876700 0.000000 0.018930 
#    y 0.000000 1.858250 0.000000 
#    z 0.018930 0.000000 1.876210 
# 
# From -- ./inp_files/185342.got.cif
#   From: 2010.06.25/outbox.cif.g09.slc.cpg/sg15_93_cif.got.tgz:185342.got - 2010.06.28 07:06:18.
