data_PCOD8143529
_publ_section_title
;
Structure prediction by ZEFSAII (Michael W. Deem and Ramdas Pophale) SiO2 
 PCOD8143529
Probable space group: C 2/C
;
_chemical_formula_sum "Si O2"
_cell_formula_units_Z 48
_cell_length_a 21.464608
_cell_length_b 10.391391
_cell_length_c 17.793296
_cell_angle_alpha 90.000000
_cell_angle_beta 29.588080
_cell_angle_gamma 90.000000
_cell_volume 1959.610705
_symmetry_space_group_name_H-M "C 2/C"
_symmetry_group_IT_number 15
_symmetry_cell_setting 'monoclinic'
loop_
_space_group_symop_operation_xyz
x,y,z
-x,y,1/2-z
-x,-y,-z
x,-y,1/2+z
1/2+x,1/2+y,z
1/2-x,1/2+y,1/2-z
1/2-x,1/2-y,-z
1/2+x,1/2-y,1/2+z
loop_
_atom_site_type_symbol
_atom_site_label
_atom_site_fract_x
_atom_site_fract_y
_atom_site_fract_z
Si Si1 0.630632 0.643588 0.187610
Si Si2 0.144546 0.517561 0.475106
Si Si3 0.500000 0.421337 0.250000
Si Si4 0.017720 0.145472 0.457503
Si Si5 0.294568 0.831326 0.724673
Si Si6 0.195815 0.235019 0.473484
Si Si7 0.000000 0.360297 0.250000
O O1 0.761475 0.628074 0.092821
O O2 0.612914 0.509974 0.161516
O O3 0.518613 0.657734 0.366230
O O4 0.620383 0.767972 0.143578
O O5 0.142084 0.548262 0.387717
O O6 0.186073 0.371944 0.442311
O O7 0.020988 0.548195 0.654942
O O8 0.442010 0.330506 0.376032
O O9 0.150284 0.201789 0.350747
O O10 0.891916 0.214762 0.616421
O O11 0.000000 0.000000 0.500000
O O12 0.283352 0.854446 0.827171
O O13 0.250000 0.250000 0.500000
#
# Coordination Sequence:
#
# PCOD8143529 Si02
#       7
#     8   8   4   8   8   8   4
#     4  10  21  40  69  98 140 188 244 288 368 445
#     4  11  23  46  67 104 142 189 239 307 368 437
#     4  11  23  42  68 106 135 197 242 296 372 449
#     4  11  23  46  73 103 148 197 249 314 375 453
#     4  11  25  45  75 106 147 196 255 306 378 453
#     4  12  26  45  73 105 146 191 249 304 371 451
#     4  11  21  40  66 102 143 179 238 300 368 429
#
# _framework density 24.494662000000002
#
# number of rings (size 3 to 8) (size 9 to 14) (size 15 to 20)
#    0.000    1.000    3.333    4.000    2.333    0.000 
#    0.000    5.000    0.000    0.000    0.000    0.000 
#    0.000    0.000    0.000    0.000    0.000    0.000 
#
# Total GULP energy -297351.659320 kJ/mol
# GULP energy per Si atom -12389.652472 kJ/mol
# Density = 2.443891 g / cm^3
# Si number density = 24.494662 Si / 1000 Ang^3
#
#
#
# Elastic Constant Matrix: (Units=GPa)
#
#
# Indices 1 2 3 4 5 6 
#
# 1 78.7173 30.7482 31.7372 0.0000 18.2371 0.0000
# 2 30.7482 82.8041 52.0640 -0.0001 19.1451 0.0000
# 3 31.7372 52.0640 151.5608 0.0000 34.6563 0.0000
# 4 0.0000 -0.0001 0.0000 19.6311 0.0000 11.6531
# 5 18.2371 19.1451 34.6563 0.0000 64.9793 0.0000
# 6 0.0000 0.0000 0.0000 11.6531 0.0000 27.9416
#
#
#
# Elastic Compliance Matrix: (Units=1/GPa)
#
#
# Indices 1 2 3 4 5 6 
#
# 1 0.015471 -0.004461 -0.001156 0.000000 -0.002411 0.000000
# 2 -0.004461 0.016911 -0.004581 0.000000 -0.001288 0.000000
# 3 -0.001156 -0.004581 0.009146 0.000000 -0.003204 0.000000
# 4 0.000000 0.000000 0.000000 0.067700 0.000000 -0.028234
# 5 -0.002411 -0.001288 -0.003204 0.000000 0.018154 0.000000
# 6 0.000000 0.000000 0.000000 -0.028234 0.000000 0.047564
#
#
# Mechanical properties :
#
#
# Convention : Reuss Voigt Hill
#
# Bulk Modulus (GPa) = 47.31835 60.24233 53.78034
# Shear Modulus (GPa) = 24.70540 35.74594 30.22567
#
# Velocity S-wave (km/s) = 3.17930 3.82427 3.51660
# Velocity P-wave (km/s) = 5.73036 6.64436 6.20421
#
# Compressibility (1/GPa) = 0.02113345
#
# Stress axis : x y z
#
# Youngs Moduli (GPa) = 64.63821 59.13329 109.33379
#
# Poissons Ratio (x) = 0.26376 0.12639
# Poissons Ratio (y) = 0.28832 0.50083
# Poissons Ratio (z) = 0.07472 0.27088
#
# Static dielectric constant tensor:
#      x y z
#    x 4.871640 0.000000 0.313300 
#    y 0.000000 4.161180 0.000000 
#    z 0.313300 0.000000 4.988990 
# 
# 
# High freq. dielectric constant tensor:
#      x y z
#    x 1.960240 0.000000 0.022270 
#    y 0.000000 1.962000 0.000000 
#    z 0.022270 0.000000 1.996320 
# 
# From -- ./inp_files/219263.got.cif
#   From: 2010.06.25/outbox.cif.g09.slc.cpg/sg15_110_cif.got.tgz:219263.got - 2010.06.28 07:06:18.
