data_PCOD8143568
_publ_section_title
;
Structure prediction by ZEFSAII (Michael W. Deem and Ramdas Pophale) SiO2 
 PCOD8143568
Probable space group: C 2/C
;
_chemical_formula_sum "Si O2"
_cell_formula_units_Z 56
_cell_length_a 15.298676
_cell_length_b 8.481730
_cell_length_c 27.729417
_cell_angle_alpha 90.000000
_cell_angle_beta 41.573489
_cell_angle_gamma 90.000000
_cell_volume 2387.659561
_symmetry_space_group_name_H-M "C 2/C"
_symmetry_group_IT_number 15
_symmetry_cell_setting 'monoclinic'
loop_
_space_group_symop_operation_xyz
x,y,z
-x,y,1/2-z
-x,-y,-z
x,-y,1/2+z
1/2+x,1/2+y,z
1/2-x,1/2+y,1/2-z
1/2-x,1/2-y,-z
1/2+x,1/2-y,1/2+z
loop_
_atom_site_type_symbol
_atom_site_label
_atom_site_fract_x
_atom_site_fract_y
_atom_site_fract_z
Si Si1 0.146079 0.238760 0.851415
Si Si2 0.001601 0.240676 0.386046
Si Si3 0.233791 0.587791 0.230623
Si Si4 0.027044 0.317639 0.996958
Si Si5 0.472292 0.019340 0.811452
Si Si6 0.264299 0.320808 0.570109
Si Si7 0.886752 0.092164 0.925307
O O1 0.214792 0.389185 0.796911
O O2 0.996942 0.221588 0.893883
O O3 0.226728 0.087290 0.801005
O O4 0.139866 0.261696 0.912266
O O5 0.974496 0.370566 0.357152
O O6 0.158217 0.215817 0.331696
O O7 0.928237 0.290328 0.466141
O O8 0.945410 0.077510 0.388550
O O9 0.087740 0.614283 0.268753
O O10 0.897562 0.209329 0.044334
O O11 0.000000 0.500000 0.000000
O O12 0.500000 0.114983 0.750000
O O13 0.333084 0.932925 0.859934
O O14 0.194665 0.153406 0.587147
O O15 0.289603 0.418928 0.510816
#
# Coordination Sequence:
#
# PCOD8143568 Si02
#       7
#     8   8   8   8   8   8   8
#     4  10  21  40  72  97 135 177 232 277 336 413
#     4  11  25  44  68 100 137 177 229 283 337 410
#     4  11  21  42  69  98 136 181 221 279 338 408
#     4  11  25  44  70 104 133 184 237 285 342 411
#     4  12  25  43  67 100 135 180 224 281 350 407
#     4  10  22  44  68  96 134 177 224 280 342 405
#     4   9  21  41  70  96 132 175 223 280 337 395
#
# _framework density 23.453931000000001
#
# number of rings (size 3 to 8) (size 9 to 14) (size 15 to 20)
#    0.000    1.429    2.857    1.714    4.000    6.857 
#    2.571    0.714    0.000    0.000    0.000    0.000 
#    0.000    0.000    0.000    0.000    0.000    0.000 
#
# Total GULP energy -346997.667655 kJ/mol
# GULP energy per Si atom -12392.773845 kJ/mol
# Density = 2.340055 g / cm^3
# Si number density = 23.453931 Si / 1000 Ang^3
#
#
#
# Elastic Constant Matrix: (Units=GPa)
#
#
# Indices 1 2 3 4 5 6 
#
# 1 41.3755 19.1966 37.2593 -0.0002 18.2526 -0.0002
# 2 19.1966 102.1507 62.8220 -0.0007 10.8511 0.0000
# 3 37.2593 62.8220 176.5706 0.0001 31.8002 0.0000
# 4 -0.0002 -0.0007 0.0001 37.3450 0.0000 -4.0971
# 5 18.2526 10.8511 31.8002 0.0000 49.3984 -0.0001
# 6 -0.0002 0.0000 0.0000 -4.0971 -0.0001 24.4882
#
#
#
# Elastic Compliance Matrix: (Units=1/GPa)
#
#
# Indices 1 2 3 4 5 6 
#
# 1 0.033331 -0.002532 -0.004541 0.000000 -0.008836 0.000000
# 2 -0.002532 0.012725 -0.004138 0.000000 0.000804 0.000000
# 3 -0.004541 -0.004138 0.008628 0.000000 -0.002968 0.000000
# 4 0.000000 0.000000 0.000000 0.027278 0.000000 0.004564
# 5 -0.008836 0.000804 -0.002968 0.000000 0.025242 0.000000
# 6 0.000000 0.000000 0.000000 0.004564 0.000000 0.041600
#
#
# Mechanical properties :
#
#
# Convention : Reuss Voigt Hill
#
# Bulk Modulus (GPa) = 30.99646 62.07249 46.53447
# Shear Modulus (GPa) = 27.47551 35.63426 31.55489
#
# Velocity S-wave (km/s) = 3.42638 3.90209 3.67195
# Velocity P-wave (km/s) = 5.37569 6.84287 6.15317
#
# Compressibility (1/GPa) = 0.03226175
#
# Stress axis : x y z
#
# Youngs Moduli (GPa) = 30.00197 78.58785 115.89730
#
# Poissons Ratio (x) = 0.19902 0.52629
# Poissons Ratio (y) = 0.07598 0.47955
# Poissons Ratio (z) = 0.13624 0.32518
#
# Static dielectric constant tensor:
#      x y z
#    x 4.114080 0.000000 -0.194670 
#    y 0.000000 3.918900 0.000000 
#    z -0.194670 0.000000 4.748080 
# 
# 
# High freq. dielectric constant tensor:
#      x y z
#    x 1.907510 0.000000 -0.005670 
#    y 0.000000 1.906510 0.000000 
#    z -0.005670 0.000000 1.953850 
# 
# From -- ./inp_files/298489.got.cif
#   From: 2010.06.25/outbox.cif.g09.slc.cpg/sg15_150_cif.got.tgz:298489.got - 2010.06.28 07:06:18.
