data_PCOD8143142
_publ_section_title
;
Structure prediction by ZEFSAII (Michael W. Deem and Ramdas Pophale) SiO2 
 PCOD8143142
Probable space group: C 2/C
;
_chemical_formula_sum "Si O2"
_cell_formula_units_Z 52
_cell_length_a 11.079405
_cell_length_b 9.508363
_cell_length_c 27.876670
_cell_angle_alpha 90.000000
_cell_angle_beta 66.974005
_cell_angle_gamma 90.000000
_cell_volume 2702.747519
_symmetry_space_group_name_H-M "C 2/C"
_symmetry_group_IT_number 15
_symmetry_cell_setting 'monoclinic'
loop_
_space_group_symop_operation_xyz
x,y,z
-x,y,1/2-z
-x,-y,-z
x,-y,1/2+z
1/2+x,1/2+y,z
1/2-x,1/2+y,1/2-z
1/2-x,1/2-y,-z
1/2+x,1/2-y,1/2+z
loop_
_atom_site_type_symbol
_atom_site_label
_atom_site_fract_x
_atom_site_fract_y
_atom_site_fract_z
Si Si1 0.628442 0.565051 0.432093
Si Si2 0.500000 0.078096 0.250000
Si Si3 0.843157 0.883300 0.985333
Si Si4 0.047839 0.021174 0.615515
Si Si5 0.810734 0.237608 0.842570
Si Si6 0.091985 0.084531 0.278392
Si Si7 0.316348 0.884970 0.224582
O O1 0.700361 0.489624 0.465443
O O2 0.498496 0.654148 0.469563
O O3 0.572790 0.447717 0.402819
O O4 0.730584 0.666257 0.391030
O O5 0.613662 0.172777 0.209347
O O6 0.443511 0.981343 0.215473
O O7 0.830399 0.959334 0.934892
O O8 0.750000 0.750000 0.000000
O O9 0.994380 0.900150 0.659962
O O10 0.086535 0.156006 0.640181
O O11 0.714115 0.132237 0.827884
O O12 0.161753 0.231740 0.255352
O O13 0.000000 0.034903 0.250000
O O14 0.195031 0.958679 0.270208
#
# Coordination Sequence:
#
# PCOD8143142 Si02
#       7
#     8   4   8   8   8   8   8
#     4   9  21  41  63  89 120 162 203 272 316 375
#     4  12  26  38  60  94 132 174 212 260 308 388
#     4   9  20  44  66  88 121 161 212 270 327 375
#     4  10  21  40  63  88 123 166 202 264 321 371
#     4  12  23  40  61  94 131 165 217 259 323 380
#     4  12  23  40  62  90 131 168 216 257 315 383
#     4  12  23  39  60  90 126 175 210 259 310 376
#
# _framework density 19.23968
#
# number of rings (size 3 to 8) (size 9 to 14) (size 15 to 20)
#    0.923    0.308    5.385    0.923    0.000    3.077 
#    5.538    0.769    0.000    0.000    0.000    0.000 
#    0.000    0.000    0.000    0.000    0.000    0.000 
#
# Total GULP energy -322118.690394 kJ/mol
# GULP energy per Si atom -12389.180400 kJ/mol
# Density = 1.919589 g / cm^3
# Si number density = 19.239680 Si / 1000 Ang^3
#
#
#
# Elastic Constant Matrix: (Units=GPa)
#
#
# Indices 1 2 3 4 5 6 
#
# 1 79.8333 50.8966 29.2545 0.0000 11.0491 0.0000
# 2 50.8966 109.2526 52.4442 0.0000 -0.2157 0.0000
# 3 29.2545 52.4442 113.0394 0.0000 10.8407 0.0000
# 4 0.0000 0.0000 0.0000 23.4647 0.0000 3.4638
# 5 11.0491 -0.2157 10.8407 0.0000 27.7202 0.0000
# 6 0.0000 0.0000 0.0000 3.4638 0.0000 34.8568
#
#
#
# Elastic Compliance Matrix: (Units=1/GPa)
#
#
# Indices 1 2 3 4 5 6 
#
# 1 0.019366 -0.008991 -0.000098 0.000000 -0.007751 0.000000
# 2 -0.008991 0.016094 -0.005710 0.000000 0.005942 0.000000
# 3 -0.000098 -0.005710 0.011970 0.000000 -0.004687 0.000000
# 4 0.000000 0.000000 0.000000 0.043252 0.000000 -0.004298
# 5 -0.007751 0.005942 -0.004687 0.000000 0.041044 0.000000
# 6 0.000000 0.000000 0.000000 -0.004298 0.000000 0.029116
#
#
# Mechanical properties :
#
#
# Convention : Reuss Voigt Hill
#
# Bulk Modulus (GPa) = 56.06999 63.03509 59.55254
# Shear Modulus (GPa) = 25.46050 28.51035 26.98542
#
# Velocity S-wave (km/s) = 3.64171 3.85366 3.74918
# Velocity P-wave (km/s) = 6.84755 7.25501 7.05422
#
# Compressibility (1/GPa) = 0.01783485
#
# Stress axis : x y z
#
# Youngs Moduli (GPa) = 51.63581 62.13470 83.54038
#
# Poissons Ratio (x) = 0.55863 0.00815
# Poissons Ratio (y) = 0.46423 0.47700
# Poissons Ratio (z) = 0.00504 0.35478
#
# Static dielectric constant tensor:
#      x y z
#    x 3.589650 0.000000 0.113220 
#    y 0.000000 3.314930 0.000000 
#    z 0.113220 0.000000 3.646380 
# 
# 
# High freq. dielectric constant tensor:
#      x y z
#    x 1.748340 0.000000 0.009850 
#    y 0.000000 1.726970 0.000000 
#    z 0.009850 0.000000 1.750640 
# 
# From -- ./inp_files/291093.got.cif
#   From: 2010.06.25/outbox.cif.g09.slc.cpg/sg15_146_cif.got.tgz:291093.got - 2010.06.28 07:06:18.
