data_PCOD8143047
_publ_section_title
;
Structure prediction by ZEFSAII (Michael W. Deem and Ramdas Pophale) SiO2 
 PCOD8143047
Probable space group: C 2/C
;
_chemical_formula_sum "Si O2"
_cell_formula_units_Z 56
_cell_length_a 11.607392
_cell_length_b 8.528422
_cell_length_c 28.960007
_cell_angle_alpha 90.000000
_cell_angle_beta 113.558827
_cell_angle_gamma 90.000000
_cell_volume 2627.880586
_symmetry_space_group_name_H-M "C 2/C"
_symmetry_group_IT_number 15
_symmetry_cell_setting 'monoclinic'
loop_
_space_group_symop_operation_xyz
x,y,z
-x,y,1/2-z
-x,-y,-z
x,-y,1/2+z
1/2+x,1/2+y,z
1/2-x,1/2+y,1/2-z
1/2-x,1/2-y,-z
1/2+x,1/2-y,1/2+z
loop_
_atom_site_type_symbol
_atom_site_label
_atom_site_fract_x
_atom_site_fract_y
_atom_site_fract_z
Si Si1 0.083540 0.313113 0.513321
Si Si2 0.708179 0.928454 0.448481
Si Si3 0.888505 0.279085 0.154928
Si Si4 0.794438 0.512922 0.387949
Si Si5 0.294923 0.245954 0.955575
Si Si6 0.647339 0.035283 0.276465
Si Si7 0.166911 0.324844 0.194642
O O1 0.161820 0.156288 0.517685
O O2 0.130129 0.447774 0.484187
O O3 0.102260 0.380338 0.568365
O O4 0.943908 0.268466 0.477697
O O5 0.627279 0.822405 0.401141
O O6 0.744240 0.088605 0.428040
O O7 0.814412 0.118129 0.152272
O O8 0.832013 0.416876 0.177678
O O9 0.035008 0.245616 0.188640
O O10 0.732923 0.390591 0.414610
O O11 0.859407 0.418387 0.357003
O O12 0.250000 0.250000 0.000000
O O13 0.500000 0.080399 0.250000
O O14 0.725666 0.195196 0.295568
O O15 0.702077 0.950085 0.239737
#
# Coordination Sequence:
#
# PCOD8143047 Si02
#       7
#     8   8   8   8   8   8   8
#     4  10  22  40  58  84 124 167 212 254 306 352
#     4  10  21  40  61  84 121 168 209 259 302 358
#     4  10  23  42  62  90 127 157 205 252 309 367
#     4  11  23  41  60  92 124 164 208 253 301 366
#     4  12  23  36  58  88 124 165 213 255 299 353
#     4  10  23  44  66  95 120 154 197 251 311 374
#     4  11  23  42  69  90 124 158 195 254 312 368
#
# _framework density 21.309949
#
# number of rings (size 3 to 8) (size 9 to 14) (size 15 to 20)
#    0.000    1.429    1.429    3.429    2.000    1.143 
#    7.714    0.000    0.000    0.000    0.000    0.000 
#    0.000    0.000    0.000    0.000    0.000    0.000 
#
# Total GULP energy -347169.438134 kJ/mol
# GULP energy per Si atom -12398.908505 kJ/mol
# Density = 2.126145 g / cm^3
# Si number density = 21.309949 Si / 1000 Ang^3
#
#
#
# Elastic Constant Matrix: (Units=GPa)
#
#
# Indices 1 2 3 4 5 6 
#
# 1 95.3224 39.9493 22.7443 0.0000 1.2395 0.0000
# 2 39.9493 81.7577 11.3544 0.0000 5.8755 0.0000
# 3 22.7443 11.3544 75.8630 0.0000 -17.0268 0.0000
# 4 0.0000 0.0000 0.0000 44.2429 0.0000 -1.0078
# 5 1.2395 5.8755 -17.0268 0.0000 33.9579 0.0000
# 6 0.0000 0.0000 0.0000 -1.0078 0.0000 33.5980
#
#
#
# Elastic Compliance Matrix: (Units=1/GPa)
#
#
# Indices 1 2 3 4 5 6 
#
# 1 0.013965 -0.006249 -0.003519 0.000000 -0.001193 0.000000
# 2 -0.006249 0.015666 -0.001159 0.000000 -0.003063 0.000000
# 3 -0.003519 -0.001159 0.016321 0.000000 0.008512 0.000000
# 4 0.000000 0.000000 0.000000 0.022618 0.000000 0.000678
# 5 -0.001193 -0.003063 0.008512 0.000000 0.034290 0.000000
# 6 0.000000 0.000000 0.000000 0.000678 0.000000 0.029784
#
#
# Mechanical properties :
#
#
# Convention : Reuss Voigt Hill
#
# Bulk Modulus (GPa) = 41.49863 44.55988 43.02925
# Shear Modulus (GPa) = 30.76351 34.28610 32.52481
#
# Velocity S-wave (km/s) = 3.80362 4.01549 3.91099
# Velocity P-wave (km/s) = 6.22946 6.51572 6.37420
#
# Compressibility (1/GPa) = 0.02409718
#
# Stress axis : x y z
#
# Youngs Moduli (GPa) = 71.60782 63.83298 61.27187
#
# Poissons Ratio (x) = 0.39891 0.21563
# Poissons Ratio (y) = 0.44749 0.07100
# Poissons Ratio (z) = 0.25201 0.07397
#
# Static dielectric constant tensor:
#      x y z
#    x 1.555650 0.000000 -0.302270 
#    y 0.000000 4.314940 0.000000 
#    z -0.302270 0.000000 3.852450 
# 
# 
# High freq. dielectric constant tensor:
#      x y z
#    x 1.827600 0.000000 -0.006300 
#    y 0.000000 1.841420 0.000000 
#    z -0.006300 0.000000 1.841090 
# 
# From -- ./inp_files/291606.got.cif
#   From: 2010.06.25/outbox.cif.g09.slc.cpg/sg15_146_cif.got.tgz:291606.got - 2010.06.28 07:06:18.
