data_PCOD8143330
_publ_section_title
;
Structure prediction by ZEFSAII (Michael W. Deem and Ramdas Pophale) SiO2 
 PCOD8143330
Probable space group: C 2/C
;
_chemical_formula_sum "Si O2"
_cell_formula_units_Z 60
_cell_length_a 24.832779
_cell_length_b 8.712705
_cell_length_c 21.766480
_cell_angle_alpha 90.000000
_cell_angle_beta 34.192534
_cell_angle_gamma 90.000000
_cell_volume 2646.573712
_symmetry_space_group_name_H-M "C 2/C"
_symmetry_group_IT_number 15
_symmetry_cell_setting 'monoclinic'
loop_
_space_group_symop_operation_xyz
x,y,z
-x,y,1/2-z
-x,-y,-z
x,-y,1/2+z
1/2+x,1/2+y,z
1/2-x,1/2+y,1/2-z
1/2-x,1/2-y,-z
1/2+x,1/2-y,1/2+z
loop_
_atom_site_type_symbol
_atom_site_label
_atom_site_fract_x
_atom_site_fract_y
_atom_site_fract_z
Si Si1 0.652047 0.169814 0.789838
Si Si2 0.305681 0.091885 0.881439
Si Si3 0.096169 0.198896 0.634367
Si Si4 0.500000 0.163986 0.750000
Si Si5 0.965499 0.843755 0.001983
Si Si6 0.239317 0.757914 0.099475
Si Si7 0.596804 0.617670 0.074233
Si Si8 0.805532 0.314069 0.725431
O O1 0.660250 0.188681 0.709268
O O2 0.547353 0.220906 0.909602
O O3 0.724358 0.291186 0.751482
O O4 0.677072 0.994684 0.783383
O O5 0.398912 0.073387 0.837442
O O6 0.272017 0.922519 0.898134
O O7 0.203417 0.165312 0.000533
O O8 0.160274 0.153993 0.633528
O O9 0.156208 0.302648 0.528301
O O10 0.000000 0.285607 0.750000
O O11 0.062288 0.046193 0.631926
O O12 0.483017 0.264766 0.826766
O O13 0.903050 0.882988 0.000180
O O14 0.903394 0.761783 0.112188
O O15 0.000000 0.000000 0.000000
O O16 0.228881 0.783374 0.181813
#
# Coordination Sequence:
#
# PCOD8143330 Si02
#       8
#     8   8   8   4   8   8   8   8
#     4  11  23  44  68  99 137 180 234 290 350 421
#     4  10  22  42  64  90 137 167 224 284 343 414
#     4  10  21  40  65  93 132 166 215 280 340 409
#     4  12  22  40  64  92 122 184 216 268 344 412
#     4  12  26  42  70 101 137 189 236 290 359 415
#     4   9  23  41  64  97 129 170 221 280 345 408
#     4  11  23  42  63  96 134 174 226 285 340 417
#     4  11  24  45  69  99 140 183 233 297 350 418
#
# _framework density 22.670819999999999
#
# number of rings (size 3 to 8) (size 9 to 14) (size 15 to 20)
#    0.000    1.333    3.333    1.600    6.533    0.000 
#    2.400    2.667    0.000    0.000    0.000    0.000 
#    0.000    0.000    0.000    0.000    0.000    0.000 
#
# Total GULP energy -371725.854384 kJ/mol
# GULP energy per Si atom -12390.861813 kJ/mol
# Density = 2.261922 g / cm^3
# Si number density = 22.670820 Si / 1000 Ang^3
#
#
#
# Elastic Constant Matrix: (Units=GPa)
#
#
# Indices 1 2 3 4 5 6 
#
# 1 84.5948 10.3348 31.1268 -0.0142 -8.4204 0.0039
# 2 10.3348 28.6438 16.0660 -0.0638 -4.0660 0.0128
# 3 31.1268 16.0660 173.0355 -0.0273 -11.9780 0.0102
# 4 -0.0142 -0.0638 -0.0273 24.7378 0.0229 -4.7205
# 5 -8.4204 -4.0660 -11.9780 0.0229 43.0840 -0.0037
# 6 0.0039 0.0128 0.0102 -4.7205 -0.0037 24.6895
#
#
#
# Elastic Compliance Matrix: (Units=1/GPa)
#
#
# Indices 1 2 3 4 5 6 
#
# 1 0.013116 -0.003410 -0.001925 -0.000005 0.001706 0.000000
# 2 -0.003410 0.037999 -0.002766 0.000091 0.002151 0.000000
# 3 -0.001925 -0.002766 0.006462 -0.000002 0.001160 -0.000001
# 4 -0.000005 0.000091 -0.000002 0.041955 -0.000015 0.008021
# 5 0.001706 0.002151 0.001160 -0.000015 0.024069 -0.000001
# 6 0.000000 0.000000 -0.000001 0.008021 -0.000001 0.042037
#
#
# Mechanical properties :
#
#
# Convention : Reuss Voigt Hill
#
# Bulk Modulus (GPa) = 24.16899 44.59215 34.38057
# Shear Modulus (GPa) = 25.55829 33.75202 29.65515
#
# Velocity S-wave (km/s) = 3.36127 3.86267 3.62066
# Velocity P-wave (km/s) = 5.07426 6.29330 5.71637
#
# Compressibility (1/GPa) = 0.04137534
#
# Stress axis : x y z
#
# Youngs Moduli (GPa) = 76.24440 26.31664 154.74075
#
# Poissons Ratio (x) = 0.08975 0.29781
# Poissons Ratio (y) = 0.26003 0.42797
# Poissons Ratio (z) = 0.14674 0.07278
#
# Static dielectric constant tensor:
#      x y z
#    x 4.120310 -0.000030 0.131300 
#    y -0.000030 3.767540 0.000050 
#    z 0.131300 0.000050 4.592250 
# 
# 
# High freq. dielectric constant tensor:
#      x y z
#    x 1.890980 0.000000 -0.003070 
#    y 0.000000 1.870770 0.000000 
#    z -0.003070 0.000000 1.921330 
# 
# From -- ./inp_files/283379.got.cif
#   From: 2010.06.25/outbox.cif.g09.slc.cpg/sg15_142_cif.got.tgz:283379.got - 2010.06.28 07:06:18.
