data_PCOD8143929
_publ_section_title
;
Structure prediction by ZEFSAII (Michael W. Deem and Ramdas Pophale) SiO2 
 PCOD8143929
Probable space group: C 2/C
;
_chemical_formula_sum "Si O2"
_cell_formula_units_Z 44
_cell_length_a 15.174051
_cell_length_b 19.171361
_cell_length_c 9.658319
_cell_angle_alpha 90.000000
_cell_angle_beta 130.353250
_cell_angle_gamma 90.000000
_cell_volume 2141.159984
_symmetry_space_group_name_H-M "C 2/C"
_symmetry_group_IT_number 15
_symmetry_cell_setting 'monoclinic'
loop_
_space_group_symop_operation_xyz
x,y,z
-x,y,1/2-z
-x,-y,-z
x,-y,1/2+z
1/2+x,1/2+y,z
1/2-x,1/2+y,1/2-z
1/2-x,1/2-y,-z
1/2+x,1/2-y,1/2+z
loop_
_atom_site_type_symbol
_atom_site_label
_atom_site_fract_x
_atom_site_fract_y
_atom_site_fract_z
Si Si1 0.329085 0.356901 0.086707
Si Si2 0.406609 0.839565 0.544294
Si Si3 0.979816 0.805017 0.016031
Si Si4 0.500000 0.618029 0.250000
Si Si5 0.867709 0.478462 0.354431
Si Si6 0.783448 0.015511 0.063354
O O1 0.371141 0.345514 0.971937
O O2 0.409037 0.317028 0.276903
O O3 0.204214 0.320860 0.974513
O O4 0.339179 0.439175 0.125141
O O5 0.500000 0.866698 0.750000
O O6 0.452303 0.777371 0.493802
O O7 0.361343 0.899267 0.397425
O O8 0.003259 0.831357 0.885270
O O9 0.615363 0.570982 0.362860
O O10 0.782988 0.528416 0.358968
O O11 0.820262 0.481555 0.151854
O O12 0.000000 0.500000 0.500000
#
# Coordination Sequence:
#
# PCOD8143929 Si02
#       6
#     8   8   8   4   8   8
#     4  10  21  41  67  91 116 163 223 257 307 365
#     4  11  22  40  67  90 121 165 218 263 299 380
#     4  11  23  39  62  92 128 168 201 261 313 387
#     4  12  24  40  58 100 138 164 206 252 348 386
#     4  11  23  43  66  94 122 164 216 265 321 367
#     4  11  23  41  67  94 127 166 210 273 312 379
#
# _framework density 20.549609
#
# number of rings (size 3 to 8) (size 9 to 14) (size 15 to 20)
#    0.000    1.091    1.818    7.636    0.000    2.182 
#    3.273    1.818    0.000    0.000    0.000    0.000 
#    0.000    0.000    0.000    0.000    0.000    0.000 
#
# Total GULP energy -272741.045752 kJ/mol
# GULP energy per Si atom -12397.320261 kJ/mol
# Density = 2.050284 g / cm^3
# Si number density = 20.549609 Si / 1000 Ang^3
#
#
#
# Elastic Constant Matrix: (Units=GPa)
#
#
# Indices 1 2 3 4 5 6 
#
# 1 119.9465 40.3673 38.7812 0.0000 6.5383 0.0000
# 2 40.3673 77.5936 21.4438 0.0000 -1.4160 0.0000
# 3 38.7812 21.4438 78.0192 0.0000 2.4920 0.0000
# 4 0.0000 0.0000 0.0000 22.3357 0.0000 10.8394
# 5 6.5383 -1.4160 2.4920 0.0000 42.8004 0.0000
# 6 0.0000 0.0000 0.0000 10.8394 0.0000 26.6323
#
#
#
# Elastic Compliance Matrix: (Units=1/GPa)
#
#
# Indices 1 2 3 4 5 6 
#
# 1 0.011433 -0.004786 -0.004315 0.000000 -0.001654 0.000000
# 2 -0.004786 0.015970 -0.002055 0.000000 0.001379 0.000000
# 3 -0.004315 -0.002055 0.015537 0.000000 -0.000313 0.000000
# 4 0.000000 0.000000 0.000000 0.055791 0.000000 -0.022707
# 5 -0.001654 0.001379 -0.000313 0.000000 0.023681 0.000000
# 6 0.000000 0.000000 0.000000 -0.022707 0.000000 0.046790
#
#
# Mechanical properties :
#
#
# Convention : Reuss Voigt Hill
#
# Bulk Modulus (GPa) = 48.47359 52.97155 50.72257
# Shear Modulus (GPa) = 25.20300 30.01812 27.61056
#
# Velocity S-wave (km/s) = 3.50587 3.82614 3.66950
# Velocity P-wave (km/s) = 6.32676 6.73443 6.53377
#
# Compressibility (1/GPa) = 0.02062979
#
# Stress axis : x y z
#
# Youngs Moduli (GPa) = 87.46762 62.61616 64.36292
#
# Poissons Ratio (x) = 0.29965 0.27771
# Poissons Ratio (y) = 0.41858 0.13225
# Poissons Ratio (z) = 0.37741 0.12866
#
# Static dielectric constant tensor:
#      x y z
#    x 4.473080 0.000000 -0.141270 
#    y 0.000000 3.687310 0.000000 
#    z -0.141270 0.000000 3.659020 
# 
# 
# High freq. dielectric constant tensor:
#      x y z
#    x 1.824060 0.000000 0.010490 
#    y 0.000000 1.802770 0.000000 
#    z 0.010490 0.000000 1.798940 
# 
# From -- ./inp_files/41024.got.cif
#   From: 2010.06.25/outbox.cif.g09.slc.cpg/sg15_21_cif.got.tgz:41024.got - 2010.06.28 07:06:18.
