data_PCOD8143282
_publ_section_title
;
Structure prediction by ZEFSAII (Michael W. Deem and Ramdas Pophale) SiO2 
 PCOD8143282
Probable space group: C 2/C
;
_chemical_formula_sum "Si O2"
_cell_formula_units_Z 52
_cell_length_a 13.787169
_cell_length_b 19.083000
_cell_length_c 8.685056
_cell_angle_alpha 90.000000
_cell_angle_beta 77.497738
_cell_angle_gamma 90.000000
_cell_volume 2230.858806
_symmetry_space_group_name_H-M "C 2/C"
_symmetry_group_IT_number 15
_symmetry_cell_setting 'monoclinic'
loop_
_space_group_symop_operation_xyz
x,y,z
-x,y,1/2-z
-x,-y,-z
x,-y,1/2+z
1/2+x,1/2+y,z
1/2-x,1/2+y,1/2-z
1/2-x,1/2-y,-z
1/2+x,1/2-y,1/2+z
loop_
_atom_site_type_symbol
_atom_site_label
_atom_site_fract_x
_atom_site_fract_y
_atom_site_fract_z
Si Si1 0.000000 0.307531 0.750000
Si Si2 0.950016 0.861386 0.912536
Si Si3 0.293396 0.283557 0.799113
Si Si4 0.781902 0.133653 0.690321
Si Si5 0.614650 0.970122 0.171616
Si Si6 0.627141 0.304046 0.050020
Si Si7 0.359423 0.096717 0.148342
O O1 0.093149 0.263011 0.659466
O O2 0.042574 0.355202 0.872795
O O3 0.901279 0.793732 0.841218
O O4 0.000000 0.905331 0.750000
O O5 0.864740 0.899826 0.044809
O O6 0.031219 0.839908 0.008755
O O7 0.243501 0.211145 0.873449
O O8 0.299391 0.278020 0.610141
O O9 0.234087 0.354824 0.858323
O O10 0.683747 0.086934 0.733717
O O11 0.822575 0.140803 0.850377
O O12 0.500000 0.957449 0.250000
O O13 0.652414 0.049030 0.194743
O O14 0.625880 0.961380 0.986375
#
# Coordination Sequence:
#
# PCOD8143282 Si02
#       7
#     4   8   8   8   8   8   8
#     4  12  24  40  74 102 150 184 240 288 364 418
#     4  10  21  40  65 102 138 174 224 296 357 407
#     4  11  24  40  70 102 145 182 239 299 354 415
#     4  12  23  42  69 107 139 183 240 292 356 423
#     4  12  30  46  71 101 148 194 239 289 361 428
#     4  11  23  39  70 108 141 184 229 300 358 418
#     4  12  27  48  69 101 148 192 238 291 354 433
#
# _framework density 23.309408999999999
#
# number of rings (size 3 to 8) (size 9 to 14) (size 15 to 20)
#    0.000    0.615    5.385    1.385    6.462    0.615 
#    0.000    0.000    0.000   10.154    2.000    0.000 
#    0.000    0.000    0.000    0.000    0.000    0.000 
#
# Total GULP energy -322317.888841 kJ/mol
# GULP energy per Si atom -12396.841879 kJ/mol
# Density = 2.325636 g / cm^3
# Si number density = 23.309409 Si / 1000 Ang^3
#
#
#
# Elastic Constant Matrix: (Units=GPa)
#
#
# Indices 1 2 3 4 5 6 
#
# 1 125.2959 42.4679 28.0118 0.0000 9.0674 0.0000
# 2 42.4679 86.7117 14.0216 0.0000 -3.0775 0.0000
# 3 28.0118 14.0216 80.4444 0.0000 -4.2286 0.0000
# 4 0.0000 0.0000 0.0000 25.6959 0.0000 9.2492
# 5 9.0674 -3.0775 -4.2286 0.0000 52.7905 0.0000
# 6 0.0000 0.0000 0.0000 9.2492 0.0000 30.3556
#
#
#
# Elastic Compliance Matrix: (Units=1/GPa)
#
#
# Indices 1 2 3 4 5 6 
#
# 1 0.010393 -0.004699 -0.002920 0.000000 -0.002293 0.000000
# 2 -0.004699 0.014006 -0.000723 0.000000 0.001566 0.000000
# 3 -0.002920 -0.000723 0.013655 0.000000 0.001553 0.000000
# 4 0.000000 0.000000 0.000000 0.043711 0.000000 -0.013318
# 5 -0.002293 0.001566 0.001553 0.000000 0.019552 0.000000
# 6 0.000000 0.000000 0.000000 -0.013318 0.000000 0.037001
#
#
# Mechanical properties :
#
#
# Convention : Reuss Voigt Hill
#
# Bulk Modulus (GPa) = 46.79421 51.27274 49.03347
# Shear Modulus (GPa) = 30.84021 35.63177 33.23599
#
# Velocity S-wave (km/s) = 3.64136 3.91403 3.78015
# Velocity P-wave (km/s) = 6.14802 6.51694 6.33517
#
# Compressibility (1/GPa) = 0.02137017
#
# Stress axis : x y z
#
# Youngs Moduli (GPa) = 96.22209 71.39633 73.23069
#
# Poissons Ratio (x) = 0.33549 0.21386
# Poissons Ratio (y) = 0.45215 0.05293
# Poissons Ratio (z) = 0.28100 0.05160
#
# Static dielectric constant tensor:
#      x y z
#    x 4.427210 0.000000 0.047130 
#    y 0.000000 3.684120 0.000000 
#    z 0.047130 0.000000 4.560070 
# 
# 
# High freq. dielectric constant tensor:
#      x y z
#    x 1.948460 0.000000 0.016580 
#    y 0.000000 1.869480 0.000000 
#    z 0.016580 0.000000 1.945930 
# 
# From -- ./inp_files/40753.got.cif
#   From: 2010.06.25/outbox.cif.g09.slc.cpg/sg15_21_cif.got.tgz:40753.got - 2010.06.28 07:06:18.
