data_PCOD8143897
_publ_section_title
;
Structure prediction by ZEFSAII (Michael W. Deem and Ramdas Pophale) SiO2 
 PCOD8143897
Probable space group: C 2/C
;
_chemical_formula_sum "Si O2"
_cell_formula_units_Z 60
_cell_length_a 19.074816
_cell_length_b 18.272644
_cell_length_c 8.972887
_cell_angle_alpha 90.000000
_cell_angle_beta 63.377414
_cell_angle_gamma 90.000000
_cell_volume 2795.893442
_symmetry_space_group_name_H-M "C 2/C"
_symmetry_group_IT_number 15
_symmetry_cell_setting 'monoclinic'
loop_
_space_group_symop_operation_xyz
x,y,z
-x,y,1/2-z
-x,-y,-z
x,-y,1/2+z
1/2+x,1/2+y,z
1/2-x,1/2+y,1/2-z
1/2-x,1/2-y,-z
1/2+x,1/2-y,1/2+z
loop_
_atom_site_type_symbol
_atom_site_label
_atom_site_fract_x
_atom_site_fract_y
_atom_site_fract_z
Si Si1 0.946968 0.156005 0.439541
Si Si2 0.636790 0.071876 0.106243
Si Si3 0.188615 0.905821 0.008035
Si Si4 0.840485 0.737092 0.877070
Si Si5 0.000000 0.666417 0.250000
Si Si6 0.417768 0.711627 0.009514
Si Si7 0.669767 0.540390 0.843751
Si Si8 0.840276 0.579170 0.759924
O O1 0.892576 0.227726 0.460499
O O2 0.900893 0.082168 0.512596
O O3 0.000000 0.138233 0.250000
O O4 0.002127 0.169363 0.529368
O O5 0.566652 0.114154 0.259052
O O6 0.633261 0.988388 0.163522
O O7 0.718562 0.111610 0.073196
O O8 0.622096 0.074863 0.941259
O O9 0.165029 0.955028 0.171052
O O10 0.136143 0.832436 0.057372
O O11 0.168344 0.954127 0.882059
O O12 0.861476 0.778088 0.704213
O O13 0.862809 0.652017 0.831327
O O14 0.750000 0.750000 0.000000
O O15 0.948177 0.712354 0.415119
O O16 0.747040 0.579327 0.832236
#
# Coordination Sequence:
#
# PCOD8143897 Si02
#       8
#     8   8   8   8   4   8   8   8
#     4  10  23  39  59  95 133 173 217 278 336 400
#     4  10  24  43  68  98 134 174 222 284 332 408
#     4  10  24  42  69  97 130 178 228 274 333 407
#     4  11  22  41  72  95 132 181 224 281 330 407
#     4  12  24  44  64  96 140 172 220 288 338 400
#     4  11  25  42  62  97 137 174 229 277 345 397
#     4  10  21  41  66  95 132 173 227 277 329 404
#     4  10  21  44  67 102 129 176 234 269 337 404
#
# _framework density 21.460045000000001
#
# number of rings (size 3 to 8) (size 9 to 14) (size 15 to 20)
#    0.000    1.600    2.667    0.800    3.733    5.867 
#    4.800    0.000    0.000    0.000    0.000    0.000 
#    0.000    0.000    0.000    0.000    0.000    0.000 
#
# Total GULP energy -371933.011202 kJ/mol
# GULP energy per Si atom -12397.767040 kJ/mol
# Density = 2.141120 g / cm^3
# Si number density = 21.460045 Si / 1000 Ang^3
#
#
#
# Elastic Constant Matrix: (Units=GPa)
#
#
# Indices 1 2 3 4 5 6 
#
# 1 109.6569 57.0883 51.6718 0.0000 -16.0603 0.0000
# 2 57.0883 103.1400 41.2339 0.0000 -12.5606 0.0000
# 3 51.6718 41.2339 79.0024 0.0000 -18.7342 0.0000
# 4 0.0000 0.0000 0.0000 37.3693 0.0000 -6.4169
# 5 -16.0603 -12.5606 -18.7342 0.0000 30.6642 0.0000
# 6 0.0000 0.0000 0.0000 -6.4169 0.0000 39.8636
#
#
#
# Elastic Compliance Matrix: (Units=1/GPa)
#
#
# Indices 1 2 3 4 5 6 
#
# 1 0.015516 -0.005669 -0.006798 0.000000 0.001651 0.000000
# 2 -0.005669 0.014368 -0.003625 0.000000 0.000702 0.000000
# 3 -0.006798 -0.003625 0.020815 0.000000 0.007672 0.000000
# 4 0.000000 0.000000 0.000000 0.027521 0.000000 0.004430
# 5 0.001651 0.000702 0.007672 0.000000 0.038450 0.000000
# 6 0.000000 0.000000 0.000000 0.004430 0.000000 0.025799
#
#
# Mechanical properties :
#
#
# Convention : Reuss Voigt Hill
#
# Bulk Modulus (GPa) = 54.00892 65.75415 59.88153
# Shear Modulus (GPa) = 27.65119 31.03312 29.34215
#
# Velocity S-wave (km/s) = 3.59346 3.80687 3.70170
# Velocity P-wave (km/s) = 6.51453 7.07318 6.79959
#
# Compressibility (1/GPa) = 0.01851546
#
# Stress axis : x y z
#
# Youngs Moduli (GPa) = 64.45027 69.59834 48.04234
#
# Poissons Ratio (x) = 0.39458 0.32657
# Poissons Ratio (y) = 0.36539 0.17414
# Poissons Ratio (z) = 0.43811 0.25228
#
# Static dielectric constant tensor:
#      x y z
#    x 4.098460 0.000000 -0.122820 
#    y 0.000000 3.812390 0.000000 
#    z -0.122820 0.000000 3.888230 
# 
# 
# High freq. dielectric constant tensor:
#      x y z
#    x 1.838830 0.000000 -0.012860 
#    y 0.000000 1.842210 0.000000 
#    z -0.012860 0.000000 1.845870 
# 
# From -- ./inp_files/50633.got.cif
#   From: 2010.06.25/outbox.cif.g09.slc.cpg/sg15_26_cif.got.tgz:50633.got - 2010.06.28 07:06:18.
