data_PCOD8143658
_publ_section_title
;
Structure prediction by ZEFSAII (Michael W. Deem and Ramdas Pophale) SiO2 
 PCOD8143658
Probable space group: C 2/C
;
_chemical_formula_sum "Si O2"
_cell_formula_units_Z 64
_cell_length_a 14.782803
_cell_length_b 18.243584
_cell_length_c 18.209382
_cell_angle_alpha 90.000000
_cell_angle_beta 144.159271
_cell_angle_gamma 90.000000
_cell_volume 2875.506352
_symmetry_space_group_name_H-M "C 2/C"
_symmetry_group_IT_number 15
_symmetry_cell_setting 'monoclinic'
loop_
_space_group_symop_operation_xyz
x,y,z
-x,y,1/2-z
-x,-y,-z
x,-y,1/2+z
1/2+x,1/2+y,z
1/2-x,1/2+y,1/2-z
1/2-x,1/2-y,-z
1/2+x,1/2-y,1/2+z
loop_
_atom_site_type_symbol
_atom_site_label
_atom_site_fract_x
_atom_site_fract_y
_atom_site_fract_z
Si Si1 0.935659 0.765318 0.285414
Si Si2 0.661514 0.692643 0.376468
Si Si3 0.167948 0.823012 0.046176
Si Si4 0.673615 0.990540 0.694724
Si Si5 0.346412 0.507342 0.945588
Si Si6 0.030278 0.061597 0.687120
Si Si7 0.063927 0.391584 0.503236
Si Si8 0.583980 0.246873 0.534748
O O1 0.941707 0.852428 0.297319
O O2 0.000000 0.738781 0.250000
O O3 0.041175 0.732923 0.420778
O O4 0.761089 0.734318 0.169030
O O5 0.500000 0.655166 0.250000
O O6 0.690886 0.765672 0.343047
O O7 0.633404 0.710478 0.443379
O O8 0.794574 0.632268 0.454855
O O9 0.205717 0.908846 0.071671
O O10 0.023884 0.812734 0.006499
O O11 0.711780 0.973796 0.805343
O O12 0.818352 0.024056 0.746249
O O13 0.526507 0.044071 0.597250
O O14 0.628540 0.915468 0.625415
O O15 0.500000 0.500000 0.000000
O O16 0.375713 0.461913 0.039607
O O17 0.000000 0.034909 0.750000
O O18 0.947247 0.325647 0.439301
#
# Coordination Sequence:
#
# PCOD8143658 Si02
#       8
#     8   8   8   8   8   8   8   8
#     4  11  24  43  66  96 129 166 222 275 333 400
#     4  10  24  41  63  97 130 174 223 275 337 409
#     4  10  24  39  61  96 131 167 220 271 333 403
#     4  10  21  41  62  91 130 170 223 263 330 398
#     4  10  22  37  64  95 124 172 217 268 318 399
#     4  10  22  39  65  93 127 166 215 268 330 390
#     4  10  23  39  67  91 129 177 218 272 336 403
#     4  11  23  41  69  93 129 176 210 277 341 395
#
# _framework density 22.25695
#
# number of rings (size 3 to 8) (size 9 to 14) (size 15 to 20)
#    0.000    1.750    1.250    1.875    8.750    3.000 
#    0.000    0.000    0.000    0.000    0.000    0.875 
#    0.000    0.000    0.000    0.000    0.000    0.000 
#
# Total GULP energy -396554.259177 kJ/mol
# GULP energy per Si atom -12392.320599 kJ/mol
# Density = 2.220629 g / cm^3
# Si number density = 22.256950 Si / 1000 Ang^3
#
#
#
# Elastic Constant Matrix: (Units=GPa)
#
#
# Indices 1 2 3 4 5 6 
#
# 1 95.3271 14.2093 38.3057 0.0006 -3.7374 0.0003
# 2 14.2093 32.5751 13.1919 0.0038 2.3031 0.0028
# 3 38.3057 13.1919 138.3255 0.0044 -9.7775 0.0033
# 4 0.0006 0.0038 0.0044 20.2518 0.0015 -8.8802
# 5 -3.7374 2.3031 -9.7775 0.0015 38.8056 0.0009
# 6 0.0003 0.0028 0.0033 -8.8802 0.0009 22.6362
#
#
#
# Elastic Compliance Matrix: (Units=1/GPa)
#
#
# Indices 1 2 3 4 5 6 
#
# 1 0.012339 -0.004231 -0.002965 0.000002 0.000693 0.000001
# 2 -0.004231 0.033665 -0.002249 -0.000009 -0.002972 -0.000007
# 3 -0.002965 -0.002249 0.008404 -0.000002 0.001965 -0.000002
# 4 0.000002 -0.000009 -0.000002 0.059637 -0.000003 0.023396
# 5 0.000693 -0.002972 0.001965 -0.000003 0.026508 -0.000002
# 6 0.000001 -0.000007 -0.000002 0.023396 -0.000002 0.053355
#
#
# Mechanical properties :
#
#
# Convention : Reuss Voigt Hill
#
# Bulk Modulus (GPa) = 28.15407 44.18239 36.16823
# Shear Modulus (GPa) = 22.25821 29.70678 25.98249
#
# Velocity S-wave (km/s) = 3.16580 3.65734 3.42041
# Velocity P-wave (km/s) = 5.10295 6.14240 5.64664
#
# Compressibility (1/GPa) = 0.03551884
#
# Stress axis : x y z
#
# Youngs Moduli (GPa) = 81.04210 29.70468 118.99520
#
# Poissons Ratio (x) = 0.12567 0.35277
# Poissons Ratio (y) = 0.34287 0.26762
# Poissons Ratio (z) = 0.24026 0.06681
#
# Static dielectric constant tensor:
#      x y z
#    x 4.051910 0.000000 -0.139090 
#    y 0.000000 3.872300 0.000000 
#    z -0.139090 0.000000 4.443150 
# 
# 
# High freq. dielectric constant tensor:
#      x y z
#    x 1.869270 0.000000 -0.007980 
#    y 0.000000 1.866350 0.000000 
#    z -0.007980 0.000000 1.880870 
# 
# From -- ./inp_files/206489.got.cif
#   From: 2010.06.25/outbox.cif.g09.slc.cpg/sg15_104_cif.got.tgz:206489.got - 2010.06.28 07:06:18.
