data_PCOD8143258
_publ_section_title
;
Structure prediction by ZEFSAII (Michael W. Deem and Ramdas Pophale) SiO2 
 PCOD8143258
Probable space group: C 2/C
;
_chemical_formula_sum "Si O2"
_cell_formula_units_Z 64
_cell_length_a 12.622959
_cell_length_b 28.625574
_cell_length_c 18.696133
_cell_angle_alpha 90.000000
_cell_angle_beta 151.227829
_cell_angle_gamma 90.000000
_cell_volume 3251.683597
_symmetry_space_group_name_H-M "C 2/C"
_symmetry_group_IT_number 15
_symmetry_cell_setting 'monoclinic'
loop_
_space_group_symop_operation_xyz
x,y,z
-x,y,1/2-z
-x,-y,-z
x,-y,1/2+z
1/2+x,1/2+y,z
1/2-x,1/2+y,1/2-z
1/2-x,1/2-y,-z
1/2+x,1/2-y,1/2+z
loop_
_atom_site_type_symbol
_atom_site_label
_atom_site_fract_x
_atom_site_fract_y
_atom_site_fract_z
Si Si1 0.075027 0.462200 0.599564
Si Si2 0.324077 0.677520 0.583738
Si Si3 0.974689 0.286257 0.979526
Si Si4 0.816471 0.796506 0.305139
Si Si5 0.371158 0.525449 0.862012
Si Si6 0.152151 0.073144 0.910014
Si Si7 0.258979 0.120582 0.398358
Si Si8 0.577639 0.112405 0.716620
O O1 0.279728 0.481783 0.763854
O O2 0.133515 0.414060 0.595248
O O3 0.000000 0.500000 0.500000
O O4 0.872115 0.456584 0.532961
O O5 0.500000 0.674489 0.750000
O O6 0.437965 0.702735 0.583662
O O7 0.265442 0.625273 0.526422
O O8 0.105074 0.702660 0.482876
O O9 0.830697 0.239655 0.879777
O O10 0.805300 0.327270 0.898392
O O11 0.139992 0.277695 0.143154
O O12 0.749776 0.848091 0.292327
O O13 0.529652 0.555803 0.907141
O O14 0.186129 0.561047 0.781552
O O15 0.500000 0.500000 0.000000
O O16 0.000000 0.068340 0.750000
O O17 0.367367 0.111796 0.539847
O O18 0.000000 0.111605 0.250000
O O19 0.500000 0.125345 0.750000
#
# Coordination Sequence:
#
# PCOD8143258 Si02
#       8
#     8   8   8   8   8   8   8   8
#     4  12  24  40  68  96 122 165 219 255 303 373
#     4   9  17  35  65  93 124 157 198 252 310 367
#     4  10  21  40  64  95 125 159 204 257 313 380
#     4  10  21  40  66  92 124 162 206 252 317 378
#     4  12  28  42  64  95 132 170 207 260 320 373
#     4  11  20  40  67  93 125 166 210 258 305 368
#     4  11  25  43  65  95 124 163 218 268 308 370
#     4  11  25  45  63  90 130 169 209 259 322 381
#
# _framework density 19.682112
#
# number of rings (size 3 to 8) (size 9 to 14) (size 15 to 20)
#    0.000    1.250    5.000    0.375    5.250    1.500 
#    0.000    2.500    2.750    0.000    0.000    0.000 
#    0.000    0.000    0.000    0.000    0.000    0.000 
#
# Total GULP energy -396807.996628 kJ/mol
# GULP energy per Si atom -12400.249895 kJ/mol
# Density = 1.963731 g / cm^3
# Si number density = 19.682112 Si / 1000 Ang^3
#
#
#
# Elastic Constant Matrix: (Units=GPa)
#
#
# Indices 1 2 3 4 5 6 
#
# 1 84.7698 15.7909 33.6474 -0.0032 -5.2207 0.0002
# 2 15.7909 98.2377 41.5823 0.0004 -15.5005 0.0002
# 3 33.6474 41.5823 93.8136 -0.0178 -8.0686 -0.0007
# 4 -0.0032 0.0004 -0.0178 56.9875 -0.0104 0.9438
# 5 -5.2207 -15.5005 -8.0686 -0.0104 34.5218 -0.0001
# 6 0.0002 0.0002 -0.0007 0.9438 -0.0001 27.4535
#
#
#
# Elastic Compliance Matrix: (Units=1/GPa)
#
#
# Indices 1 2 3 4 5 6 
#
# 1 0.013785 -0.000010 -0.004858 -0.000001 0.000945 0.000000
# 2 -0.000010 0.013227 -0.005458 -0.000001 0.004662 0.000000
# 3 -0.004858 -0.005458 0.014846 0.000004 0.000284 0.000000
# 4 -0.000001 -0.000001 0.000004 0.017558 0.000006 -0.000604
# 5 0.000945 0.004662 0.000284 0.000006 0.031270 0.000000
# 6 0.000000 0.000000 0.000000 -0.000604 0.000000 0.036446
#
#
# Mechanical properties :
#
#
# Convention : Reuss Voigt Hill
#
# Bulk Modulus (GPa) = 47.16069 50.98470 49.07269
# Shear Modulus (GPa) = 32.28873 36.17926 34.23399
#
# Velocity S-wave (km/s) = 4.05472 4.29205 4.17507
# Velocity P-wave (km/s) = 6.77748 7.10792 6.94467
#
# Compressibility (1/GPa) = 0.02120410
#
# Stress axis : x y z
#
# Youngs Moduli (GPa) = 72.54165 75.60334 67.35964
#
# Poissons Ratio (x) = 0.00078 0.32726
# Poissons Ratio (y) = 0.00075 0.36766
# Poissons Ratio (z) = 0.35244 0.41265
#
# Static dielectric constant tensor:
#      x y z
#    x 3.588370 0.000000 0.115680 
#    y 0.000000 3.656470 0.000000 
#    z 0.115680 0.000000 3.394870 
# 
# 
# High freq. dielectric constant tensor:
#      x y z
#    x 1.769010 0.000000 0.007460 
#    y 0.000000 1.780700 0.000000 
#    z 0.007460 0.000000 1.753900 
# 
# From -- ./inp_files/52817.got.cif
#   From: 2010.06.25/outbox.cif.g09.slc.cpg/sg15_27_cif.got.tgz:52817.got - 2010.06.28 07:06:18.
