data_PCOD8143049
_publ_section_title
;
Structure prediction by ZEFSAII (Michael W. Deem and Ramdas Pophale) SiO2 
 PCOD8143049
Probable space group: C 2/C
;
_chemical_formula_sum "Si O2"
_cell_formula_units_Z 44
_cell_length_a 28.052008
_cell_length_b 11.680025
_cell_length_c 14.824082
_cell_angle_alpha 90.000000
_cell_angle_beta 26.906830
_cell_angle_gamma 90.000000
_cell_volume 2198.029316
_symmetry_space_group_name_H-M "C 2/C"
_symmetry_group_IT_number 15
_symmetry_cell_setting 'monoclinic'
loop_
_space_group_symop_operation_xyz
x,y,z
-x,y,1/2-z
-x,-y,-z
x,-y,1/2+z
1/2+x,1/2+y,z
1/2-x,1/2+y,1/2-z
1/2-x,1/2-y,-z
1/2+x,1/2-y,1/2+z
loop_
_atom_site_type_symbol
_atom_site_label
_atom_site_fract_x
_atom_site_fract_y
_atom_site_fract_z
Si Si1 0.500000 0.782608 0.250000
Si Si2 0.789168 0.241621 0.832407
Si Si3 0.676712 0.070081 0.360818
Si Si4 0.105142 0.896518 0.916436
Si Si5 0.000364 0.124344 0.414399
Si Si6 0.897370 0.664710 0.476382
O O1 0.402532 0.859059 0.443127
O O2 0.536696 0.703028 0.270793
O O3 0.805321 0.369216 0.765476
O O4 0.896930 0.170528 0.641816
O O5 0.750000 0.250000 0.000000
O O6 0.699241 0.180401 0.927515
O O7 0.780548 0.062514 0.246475
O O8 0.633965 0.943734 0.408436
O O9 0.097157 0.879687 0.821721
O O10 0.074601 0.776503 0.013646
O O11 0.022680 0.996215 0.083988
O O12 0.000000 0.626656 0.250000
#
# Coordination Sequence:
#
# PCOD8143049 Si02
#       6
#     4   8   8   8   8   8
#     4  10  22  40  64  84 122 158 192 252 302 348
#     4  10  21  40  61  86 119 160 201 247 298 356
#     4  10  21  41  60  88 123 154 197 251 298 353
#     4  10  22  39  60  87 122 157 200 244 289 363
#     4  10  21  41  61  88 119 155 205 241 298 355
#     4  11  21  38  61  89 122 158 200 244 303 354
#
# _framework density 20.017931999999998
#
# number of rings (size 3 to 8) (size 9 to 14) (size 15 to 20)
#    0.000    1.818    2.727    1.091    1.273    0.727 
#    6.545    2.727    0.000    0.000    0.000    0.000 
#    0.000    0.000    0.000    0.000    0.000    0.000 
#
# Total GULP energy -272774.652836 kJ/mol
# GULP energy per Si atom -12398.847856 kJ/mol
# Density = 1.997237 g / cm^3
# Si number density = 20.017932 Si / 1000 Ang^3
#
#
#
# Elastic Constant Matrix: (Units=GPa)
#
#
# Indices 1 2 3 4 5 6 
#
# 1 93.3322 52.9773 28.7456 0.0000 8.2225 0.0000
# 2 52.9773 159.4313 40.8177 0.0000 11.2276 0.0000
# 3 28.7456 40.8177 71.8650 0.0000 15.2867 0.0000
# 4 0.0000 0.0000 0.0000 16.1409 0.0000 2.9911
# 5 8.2225 11.2276 15.2867 0.0000 32.3844 0.0000
# 6 0.0000 0.0000 0.0000 2.9911 0.0000 22.3658
#
#
#
# Elastic Compliance Matrix: (Units=1/GPa)
#
#
# Indices 1 2 3 4 5 6 
#
# 1 0.013907 -0.003728 -0.003300 0.000000 -0.000681 0.000000
# 2 -0.003728 0.008351 -0.003154 0.000000 -0.000460 0.000000
# 3 -0.003300 -0.003154 0.018470 0.000000 -0.006787 0.000000
# 4 0.000000 0.000000 0.000000 0.063529 0.000000 -0.008496
# 5 -0.000681 -0.000460 -0.006787 0.000000 0.034415 0.000000
# 6 0.000000 0.000000 0.000000 -0.008496 0.000000 0.045847
#
#
# Mechanical properties :
#
#
# Convention : Reuss Voigt Hill
#
# Bulk Modulus (GPa) = 49.10899 63.30106 56.20502
# Shear Modulus (GPa) = 23.62135 27.65077 25.63606
#
# Velocity S-wave (km/s) = 3.43885 3.72062 3.58251
# Velocity P-wave (km/s) = 6.35243 7.08154 6.72687
#
# Compressibility (1/GPa) = 0.02036287
#
# Stress axis : x y z
#
# Youngs Moduli (GPa) = 71.90557 119.74533 54.14085
#
# Poissons Ratio (x) = 0.44644 0.17869
# Poissons Ratio (y) = 0.26808 0.17077
# Poissons Ratio (z) = 0.23732 0.37769
#
# Static dielectric constant tensor:
#      x y z
#    x 3.553710 0.000000 -0.176790 
#    y 0.000000 3.923870 0.000000 
#    z -0.176790 0.000000 3.528410 
# 
# 
# High freq. dielectric constant tensor:
#      x y z
#    x 1.776980 0.000000 -0.012740 
#    y 0.000000 1.802420 0.000000 
#    z -0.012740 0.000000 1.770830 
# 
# From -- ./inp_files/118118.got.cif
#   From: 2010.06.25/outbox.cif.g09.slc.cpg/sg15_60_cif.got.tgz:118118.got - 2010.06.28 07:06:18.
