data_PCOD8143862
_publ_section_title
;
Structure prediction by ZEFSAII (Michael W. Deem and Ramdas Pophale) SiO2 
 PCOD8143862
Probable space group: C 2/C
;
_chemical_formula_sum "Si O2"
_cell_formula_units_Z 40
_cell_length_a 9.461842
_cell_length_b 17.292796
_cell_length_c 10.519862
_cell_angle_alpha 90.000000
_cell_angle_beta 90.153188
_cell_angle_gamma 90.000000
_cell_volume 1721.271589
_symmetry_space_group_name_H-M "C 2/C"
_symmetry_group_IT_number 15
_symmetry_cell_setting 'monoclinic'
loop_
_space_group_symop_operation_xyz
x,y,z
-x,y,1/2-z
-x,-y,-z
x,-y,1/2+z
1/2+x,1/2+y,z
1/2-x,1/2+y,1/2-z
1/2-x,1/2-y,-z
1/2+x,1/2-y,1/2+z
loop_
_atom_site_type_symbol
_atom_site_label
_atom_site_fract_x
_atom_site_fract_y
_atom_site_fract_z
Si Si1 0.438453 0.330310 0.016511
Si Si2 0.368154 0.478856 0.173147
Si Si3 0.733762 0.228597 0.310166
Si Si4 0.757511 0.134856 0.068730
Si Si5 0.645207 0.121291 0.803579
O O1 0.423515 0.415617 0.073846
O O2 0.404980 0.262838 0.119541
O O3 0.327267 0.325621 0.901353
O O4 0.599834 0.319478 0.972054
O O5 0.500000 0.515070 0.250000
O O6 0.288045 0.546068 0.099781
O O7 0.267611 0.439832 0.276718
O O8 0.687512 0.178088 0.188685
O O9 0.832620 0.299675 0.272058
O O10 0.643368 0.136987 0.954771
O O11 0.500000 0.085567 0.750000
#
# Coordination Sequence:
#
# PCOD8143862 Si02
#       5
#     8   8   8   8   8
#     4  10  21  41  66 105 137 172 230 290 334 414
#     4  11  23  41  71 105 133 178 233 285 345 412
#     4  10  23  40  68 102 138 179 230 285 350 403
#     4  12  23  40  75  96 141 183 234 282 350 407
#     4  11  25  44  63  95 143 184 230 285 339 413
#
# _framework density 23.238634999999999
#
# number of rings (size 3 to 8) (size 9 to 14) (size 15 to 20)
#    0.000    1.200    2.000    4.200    2.800    0.800 
#    0.000    2.000    8.800    0.000    0.000    0.000 
#    0.000    0.000    0.000    0.000    0.000    0.000 
#
# Total GULP energy -248113.181538 kJ/mol
# GULP energy per Si atom -12405.659077 kJ/mol
# Density = 2.318574 g / cm^3
# Si number density = 23.238635 Si / 1000 Ang^3
#
#
#
# Elastic Constant Matrix: (Units=GPa)
#
#
# Indices 1 2 3 4 5 6 
#
# 1 49.5139 31.8991 37.7959 0.0000 13.8400 0.0000
# 2 31.8991 74.0406 40.8689 0.0000 1.0407 0.0000
# 3 37.7959 40.8689 158.1297 0.0000 8.5199 0.0000
# 4 0.0000 0.0000 0.0000 27.6059 0.0000 7.9698
# 5 13.8400 1.0407 8.5199 0.0000 34.8653 0.0000
# 6 0.0000 0.0000 0.0000 7.9698 0.0000 13.8830
#
#
#
# Elastic Compliance Matrix: (Units=1/GPa)
#
#
# Indices 1 2 3 4 5 6 
#
# 1 0.035174 -0.012492 -0.004506 0.000000 -0.012489 0.000000
# 2 -0.012492 0.020199 -0.002502 0.000000 0.004967 0.000000
# 3 -0.004506 -0.002502 0.008053 0.000000 -0.000105 0.000000
# 4 0.000000 0.000000 0.000000 0.043421 0.000000 -0.024927
# 5 -0.012489 0.004967 -0.000105 0.000000 0.033517 0.000000
# 6 0.000000 0.000000 0.000000 -0.024927 0.000000 0.086340
#
#
# Mechanical properties :
#
#
# Convention : Reuss Voigt Hill
#
# Bulk Modulus (GPa) = 40.93811 55.86800 48.40306
# Shear Modulus (GPa) = 18.25839 26.67886 22.46862
#
# Velocity S-wave (km/s) = 2.80606 3.39195 3.11282
# Velocity P-wave (km/s) = 5.30597 6.27962 5.81321
#
# Compressibility (1/GPa) = 0.02442712
#
# Stress axis : x y z
#
# Youngs Moduli (GPa) = 28.42978 49.50651 124.17207
#
# Poissons Ratio (x) = 0.61841 0.55952
# Poissons Ratio (y) = 0.35513 0.31074
# Poissons Ratio (z) = 0.12810 0.12389
#
# Static dielectric constant tensor:
#      x y z
#    x 3.906920 0.000000 -0.149030 
#    y 0.000000 4.062580 0.000000 
#    z -0.149030 0.000000 4.467210 
# 
# 
# High freq. dielectric constant tensor:
#      x y z
#    x 1.899910 0.000000 0.001970 
#    y 0.000000 1.916920 0.000000 
#    z 0.001970 0.000000 1.938440 
# 
# From -- ./inp_files/76824.got.cif
#   From: 2010.06.25/outbox.cif.g09.slc.cpg/sg15_39_cif.got.tgz:76824.got - 2010.06.28 07:06:18.
