data_PCOD8143266
_publ_section_title
;
Structure prediction by ZEFSAII (Michael W. Deem and Ramdas Pophale) SiO2 
 PCOD8143266
Probable space group: C 2/C
;
_chemical_formula_sum "Si O2"
_cell_formula_units_Z 60
_cell_length_a 19.486894
_cell_length_b 9.898409
_cell_length_c 15.304725
_cell_angle_alpha 90.000000
_cell_angle_beta 101.895178
_cell_angle_gamma 90.000000
_cell_volume 2888.724113
_symmetry_space_group_name_H-M "C 2/C"
_symmetry_group_IT_number 15
_symmetry_cell_setting 'monoclinic'
loop_
_space_group_symop_operation_xyz
x,y,z
-x,y,1/2-z
-x,-y,-z
x,-y,1/2+z
1/2+x,1/2+y,z
1/2-x,1/2+y,1/2-z
1/2-x,1/2-y,-z
1/2+x,1/2-y,1/2+z
loop_
_atom_site_type_symbol
_atom_site_label
_atom_site_fract_x
_atom_site_fract_y
_atom_site_fract_z
Si Si1 0.077167 0.444485 0.527122
Si Si2 0.148625 0.721664 0.518082
Si Si3 0.448097 0.540171 0.562373
Si Si4 0.268042 0.131000 0.122062
Si Si5 0.736666 0.329460 0.115456
Si Si6 0.639967 0.273904 0.937795
Si Si7 0.000000 0.150926 0.750000
Si Si8 0.868119 0.292114 0.790738
O O1 0.128188 0.571827 0.540042
O O2 0.084168 0.345536 0.443992
O O3 0.090801 0.368838 0.622063
O O4 0.000000 0.500000 0.500000
O O5 0.084311 0.820692 0.480512
O O6 0.195371 0.783867 0.609892
O O7 0.189620 0.713614 0.438498
O O8 0.500000 0.500000 0.500000
O O9 0.392285 0.423102 0.569957
O O10 0.492575 0.559958 0.662024
O O11 0.315696 0.113481 0.221006
O O12 0.246818 0.981989 0.087120
O O13 0.814036 0.255471 0.138627
O O14 0.688091 0.320550 0.189441
O O15 0.692701 0.250297 0.031604
O O16 0.071785 0.235290 0.757475
#
# Coordination Sequence:
#
# PCOD8143266 Si02
#       8
#     8   8   8   8   8   8   4   8
#     4  11  23  43  68  97 134 185 231 273 351 417
#     4  11  23  42  70  97 131 178 230 281 346 419
#     4  12  24  45  71 100 141 187 232 285 349 420
#     4  11  23  41  66  98 132 171 226 285 344 406
#     4  10  21  40  64  95 132 169 221 276 353 402
#     4  10  21  41  66  93 131 177 219 281 340 409
#     4  12  26  46  66 102 140 180 236 282 352 424
#     4  11  26  41  67  98 136 180 223 293 345 418
#
# _framework density 20.770413999999999
#
# number of rings (size 3 to 8) (size 9 to 14) (size 15 to 20)
#    0.000    1.067    4.000    3.200    1.867    1.067 
#    0.000    1.333    0.000    0.000    0.000    0.000 
#    0.000    0.000    0.000    0.000    0.000    0.000 
#
# Total GULP energy -371717.559801 kJ/mol
# GULP energy per Si atom -12390.585327 kJ/mol
# Density = 2.072314 g / cm^3
# Si number density = 20.770414 Si / 1000 Ang^3
#
#
#
# Elastic Constant Matrix: (Units=GPa)
#
#
# Indices 1 2 3 4 5 6 
#
# 1 95.6628 20.6936 36.8433 0.0000 -8.4448 0.0000
# 2 20.6936 92.9102 13.8209 0.0000 -3.4961 0.0000
# 3 36.8433 13.8209 90.6477 0.0000 8.1079 0.0000
# 4 0.0000 0.0000 0.0000 23.4396 0.0000 5.1363
# 5 -8.4448 -3.4961 8.1079 0.0000 30.2074 0.0000
# 6 0.0000 0.0000 0.0000 5.1363 0.0000 44.5266
#
#
#
# Elastic Compliance Matrix: (Units=1/GPa)
#
#
# Indices 1 2 3 4 5 6 
#
# 1 0.013499 -0.001978 -0.005637 0.000000 0.005058 0.000000
# 2 -0.001978 0.011395 -0.001027 0.000000 0.001042 0.000000
# 3 -0.005637 -0.001027 0.013966 0.000000 -0.005444 0.000000
# 4 0.000000 0.000000 0.000000 0.043769 0.000000 -0.005049
# 5 0.005058 0.001042 -0.005444 0.000000 0.036100 0.000000
# 6 0.000000 0.000000 0.000000 -0.005049 0.000000 0.023041
#
#
# Mechanical properties :
#
#
# Convention : Reuss Voigt Hill
#
# Bulk Modulus (GPa) = 46.34548 46.88180 46.61364
# Shear Modulus (GPa) = 30.07569 33.49224 31.78397
#
# Velocity S-wave (km/s) = 3.80940 4.01995 3.91609
# Velocity P-wave (km/s) = 6.45835 6.64583 6.55276
#
# Compressibility (1/GPa) = 0.02157708
#
# Stress axis : x y z
#
# Youngs Moduli (GPa) = 74.08030 87.75397 71.60013
#
# Poissons Ratio (x) = 0.17355 0.40364
# Poissons Ratio (y) = 0.14650 0.07352
# Poissons Ratio (z) = 0.41762 0.09011
#
# Static dielectric constant tensor:
#      x y z
#    x 4.310060 0.000000 -0.055880 
#    y 0.000000 4.055570 0.000000 
#    z -0.055880 0.000000 3.636500 
# 
# 
# High freq. dielectric constant tensor:
#      x y z
#    x 1.835510 0.000000 0.002330 
#    y 0.000000 1.815440 0.000000 
#    z 0.002330 0.000000 1.788540 
# 
# From -- ./inp_files/213960.got.cif
#   From: 2010.06.25/outbox.cif.g09.slc.cpg/sg15_107_cif.got.tgz:213960.got - 2010.06.28 07:06:18.
