data_PCOD8143354
_publ_section_title
;
Structure prediction by ZEFSAII (Michael W. Deem and Ramdas Pophale) SiO2 
 PCOD8143354
Probable space group: C 2/C
;
_chemical_formula_sum "Si O2"
_cell_formula_units_Z 56
_cell_length_a 28.320590
_cell_length_b 11.710763
_cell_length_c 9.405770
_cell_angle_alpha 90.000000
_cell_angle_beta 52.160506
_cell_angle_gamma 90.000000
_cell_volume 2463.552209
_symmetry_space_group_name_H-M "C 2/C"
_symmetry_group_IT_number 15
_symmetry_cell_setting 'monoclinic'
loop_
_space_group_symop_operation_xyz
x,y,z
-x,y,1/2-z
-x,-y,-z
x,-y,1/2+z
1/2+x,1/2+y,z
1/2-x,1/2+y,1/2-z
1/2-x,1/2-y,-z
1/2+x,1/2-y,1/2+z
loop_
_atom_site_type_symbol
_atom_site_label
_atom_site_fract_x
_atom_site_fract_y
_atom_site_fract_z
Si Si1 0.534586 0.069028 0.319254
Si Si2 0.803753 0.082295 0.783432
Si Si3 0.147333 0.428107 0.071920
Si Si4 0.520127 0.680692 0.941250
Si Si5 0.103824 0.210001 0.026722
Si Si6 0.092048 0.042627 0.283828
Si Si7 0.274113 0.004607 0.328514
O O1 0.500000 0.021188 0.250000
O O2 0.528049 0.205760 0.334587
O O3 0.500000 0.000000 0.500000
O O4 0.604616 0.036090 0.182150
O O5 0.841873 0.199462 0.689981
O O6 0.849091 0.975513 0.728327
O O7 0.767175 0.064109 0.705154
O O8 0.762116 0.093351 0.002088
O O9 0.193831 0.418620 0.117257
O O10 0.108776 0.312466 0.131016
O O11 0.177352 0.433617 0.860423
O O12 0.540175 0.715168 0.064527
O O13 0.561221 0.578634 0.807414
O O14 0.452119 0.635637 0.062500
O O15 0.109960 0.090046 0.097247
#
# Coordination Sequence:
#
# PCOD8143354 Si02
#       7
#     8   8   8   8   8   8   8
#     4  12  25  44  69 100 136 177 226 278 339 411
#     4  10  21  40  66  93 135 175 226 273 331 397
#     4  11  24  42  70  95 138 174 226 275 341 397
#     4  10  23  39  65 101 134 178 220 278 339 408
#     4  11  21  39  67  98 134 176 220 280 342 402
#     4  10  21  40  65  98 140 173 219 275 343 403
#     4  10  22  44  64  95 133 179 224 280 324 402
#
# _framework density 22.731404000000001
#
# number of rings (size 3 to 8) (size 9 to 14) (size 15 to 20)
#    0.000    1.429    1.429    3.857    0.000    4.571 
#    0.000    1.429    0.000    0.000    0.000    0.000 
#    0.000    0.000    0.000    0.000    0.000    0.000 
#
# Total GULP energy -346945.973136 kJ/mol
# GULP energy per Si atom -12390.927612 kJ/mol
# Density = 2.267967 g / cm^3
# Si number density = 22.731404 Si / 1000 Ang^3
#
#
#
# Elastic Constant Matrix: (Units=GPa)
#
#
# Indices 1 2 3 4 5 6 
#
# 1 144.5083 31.1923 45.5985 0.0000 14.5082 0.0000
# 2 31.1923 102.8233 42.5363 0.0000 -5.2172 0.0000
# 3 45.5985 42.5363 129.7083 0.0000 3.3532 0.0000
# 4 0.0000 0.0000 0.0000 31.2827 0.0000 4.5672
# 5 14.5082 -5.2172 3.3532 0.0000 44.5832 0.0000
# 6 0.0000 0.0000 0.0000 4.5672 0.0000 26.9571
#
#
#
# Elastic Compliance Matrix: (Units=1/GPa)
#
#
# Indices 1 2 3 4 5 6 
#
# 1 0.008282 -0.001707 -0.002281 0.000000 -0.002723 0.000000
# 2 -0.001707 0.011718 -0.003299 0.000000 0.002175 0.000000
# 3 -0.002281 -0.003299 0.009603 0.000000 -0.000366 0.000000
# 4 0.000000 0.000000 0.000000 0.032777 0.000000 -0.005553
# 5 -0.002723 0.002175 -0.000366 0.000000 0.023598 0.000000
# 6 0.000000 0.000000 0.000000 -0.005553 0.000000 0.038037
#
#
# Mechanical properties :
#
#
# Convention : Reuss Voigt Hill
#
# Bulk Modulus (GPa) = 66.53962 68.41048 67.47505
# Shear Modulus (GPa) = 34.81918 37.74546 36.28232
#
# Velocity S-wave (km/s) = 3.91802 4.07934 3.99950
# Velocity P-wave (km/s) = 7.05716 7.23523 7.14675
#
# Compressibility (1/GPa) = 0.01502864
#
# Stress axis : x y z
#
# Youngs Moduli (GPa) = 120.74873 85.33652 104.13474
#
# Poissons Ratio (x) = 0.14565 0.23756
# Poissons Ratio (y) = 0.20609 0.34355
# Poissons Ratio (z) = 0.27546 0.28153
#
# Static dielectric constant tensor:
#      x y z
#    x 4.286780 0.000000 -0.133600 
#    y 0.000000 3.838680 0.000000 
#    z -0.133600 0.000000 4.246720 
# 
# 
# High freq. dielectric constant tensor:
#      x y z
#    x 1.910920 0.000000 -0.003780 
#    y 0.000000 1.871180 0.000000 
#    z -0.003780 0.000000 1.907070 
# 
# From -- ./inp_files/66151.got.cif
#   From: 2010.06.25/outbox.cif.g09.slc.cpg/sg15_34_cif.got.tgz:66151.got - 2010.06.28 07:06:18.
