data_PCOD8143197
_publ_section_title
;
Structure prediction by ZEFSAII (Michael W. Deem and Ramdas Pophale) SiO2 
 PCOD8143197
Probable space group: C 2/C
;
_chemical_formula_sum "Si O2"
_cell_formula_units_Z 60
_cell_length_a 24.271817
_cell_length_b 9.121715
_cell_length_c 21.128381
_cell_angle_alpha 90.000000
_cell_angle_beta 142.356322
_cell_angle_gamma 90.000000
_cell_volume 2856.983617
_symmetry_space_group_name_H-M "C 2/C"
_symmetry_group_IT_number 15
_symmetry_cell_setting 'monoclinic'
loop_
_space_group_symop_operation_xyz
x,y,z
-x,y,1/2-z
-x,-y,-z
x,-y,1/2+z
1/2+x,1/2+y,z
1/2-x,1/2+y,1/2-z
1/2-x,1/2-y,-z
1/2+x,1/2-y,1/2+z
loop_
_atom_site_type_symbol
_atom_site_label
_atom_site_fract_x
_atom_site_fract_y
_atom_site_fract_z
Si Si1 0.615251 0.373099 0.182939
Si Si2 0.516634 0.217599 0.875079
Si Si3 0.140011 0.793850 0.679000
Si Si4 0.475497 0.548833 0.657404
Si Si5 0.653580 0.784700 0.941117
Si Si6 0.000000 0.480691 0.750000
Si Si7 0.841188 0.687495 0.391336
Si Si8 0.686111 0.131759 0.605785
O O1 0.617767 0.536100 0.158447
O O2 0.537988 0.362193 0.165096
O O3 0.598436 0.263177 0.108662
O O4 0.708106 0.331106 0.301241
O O5 0.433634 0.205222 0.847978
O O6 0.519198 0.374643 0.843214
O O7 0.500327 0.085966 0.811404
O O8 0.612011 0.210666 0.998208
O O9 0.238452 0.750540 0.797545
O O10 0.134729 0.754945 0.599787
O O11 0.500000 0.594252 0.750000
O O12 0.377871 0.623827 0.562624
O O13 0.588282 0.874431 0.833399
O O14 0.750000 0.750000 0.000000
O O15 0.655493 0.884661 0.005806
O O16 0.834417 0.514838 0.373034
#
# Coordination Sequence:
#
# PCOD8143197 Si02
#       8
#     8   8   8   8   8   4   8   8
#     4   9  21  40  65  92 131 171 222 277 326 405
#     4  11  24  43  69  96 133 177 224 280 341 393
#     4   9  22  40  62  97 131 167 223 278 329 404
#     4  11  23  42  65  91 130 176 222 267 336 398
#     4  12  27  45  67  98 133 179 224 277 338 402
#     4  12  26  50  66 102 136 170 236 280 324 418
#     4  10  21  40  63  96 131 175 220 277 340 392
#     4  10  21  41  63  93 132 170 221 269 342 396
#
# _framework density 21.001169999999998
#
# number of rings (size 3 to 8) (size 9 to 14) (size 15 to 20)
#    0.000    1.600    2.667    0.800    3.733    3.733 
#    4.800    1.333    0.000    0.000    0.000    0.000 
#    0.000    0.000    0.000    0.000    0.000    0.000 
#
# Total GULP energy -371807.084764 kJ/mol
# GULP energy per Si atom -12393.569492 kJ/mol
# Density = 2.095337 g / cm^3
# Si number density = 21.001170 Si / 1000 Ang^3
#
#
#
# Elastic Constant Matrix: (Units=GPa)
#
#
# Indices 1 2 3 4 5 6 
#
# 1 153.4188 60.5803 57.3307 0.0000 7.1738 0.0000
# 2 60.5803 78.0610 36.0925 0.0000 4.1336 0.0000
# 3 57.3307 36.0925 105.4327 0.0000 -8.6749 0.0000
# 4 0.0000 0.0000 0.0000 37.3884 0.0000 -11.8635
# 5 7.1738 4.1336 -8.6749 0.0000 35.1968 0.0000
# 6 0.0000 0.0000 0.0000 -11.8635 0.0000 52.1392
#
#
#
# Elastic Compliance Matrix: (Units=1/GPa)
#
#
# Indices 1 2 3 4 5 6 
#
# 1 0.010519 -0.006305 -0.003753 0.000000 -0.002329 0.000000
# 2 -0.006305 0.019345 -0.003343 0.000000 -0.001811 0.000000
# 3 -0.003753 -0.003343 0.013029 0.000000 0.004369 0.000000
# 4 0.000000 0.000000 0.000000 0.028828 0.000000 0.006559
# 5 -0.002329 -0.001811 0.004369 0.000000 0.030176 0.000000
# 6 0.000000 0.000000 0.000000 0.006559 0.000000 0.020672
#
#
# Mechanical properties :
#
#
# Convention : Reuss Voigt Hill
#
# Bulk Modulus (GPa) = 62.14445 71.65772 66.90109
# Shear Modulus (GPa) = 32.31339 37.13881 34.72610
#
# Velocity S-wave (km/s) = 3.92681 4.20982 4.07078
# Velocity P-wave (km/s) = 7.08626 7.60427 7.34983
#
# Compressibility (1/GPa) = 0.01609154
#
# Stress axis : x y z
#
# Youngs Moduli (GPa) = 95.06516 51.69291 76.74931
#
# Poissons Ratio (x) = 0.32592 0.28806
# Poissons Ratio (y) = 0.59937 0.25657
# Poissons Ratio (z) = 0.35680 0.17281
#
# Static dielectric constant tensor:
#      x y z
#    x 3.812970 0.000000 0.058130 
#    y 0.000000 3.800810 0.000000 
#    z 0.058130 0.000000 3.942690 
# 
# 
# High freq. dielectric constant tensor:
#      x y z
#    x 1.820800 0.000000 -0.001430 
#    y 0.000000 1.827190 0.000000 
#    z -0.001430 0.000000 1.827680 
# 
# From -- ./inp_files/255193.got.cif
#   From: 2010.06.25/outbox.cif.g09.slc.cpg/sg15_128_cif.got.tgz:255193.got - 2010.06.28 07:06:18.
