data_PCOD8143593
_publ_section_title
;
Structure prediction by ZEFSAII (Michael W. Deem and Ramdas Pophale) SiO2 
 PCOD8143593
Probable space group: C 2/C
;
_chemical_formula_sum "Si O2"
_cell_formula_units_Z 48
_cell_length_a 21.299111
_cell_length_b 9.672910
_cell_length_c 17.074923
_cell_angle_alpha 90.000000
_cell_angle_beta 45.048190
_cell_angle_gamma 90.000000
_cell_volume 2489.587225
_symmetry_space_group_name_H-M "C 2/C"
_symmetry_group_IT_number 15
_symmetry_cell_setting 'monoclinic'
loop_
_space_group_symop_operation_xyz
x,y,z
-x,y,1/2-z
-x,-y,-z
x,-y,1/2+z
1/2+x,1/2+y,z
1/2-x,1/2+y,1/2-z
1/2-x,1/2-y,-z
1/2+x,1/2-y,1/2+z
loop_
_atom_site_type_symbol
_atom_site_label
_atom_site_fract_x
_atom_site_fract_y
_atom_site_fract_z
Si Si1 0.543662 0.270509 0.629441
Si Si2 0.680827 0.949789 0.982914
Si Si3 0.008763 0.163032 0.998853
Si Si4 0.662410 0.751728 0.432066
Si Si5 0.205123 0.967803 0.464321
Si Si6 0.787435 0.767921 0.172373
O O1 0.500000 0.296850 0.750000
O O2 0.587298 0.119059 0.588317
O O3 0.477876 0.285815 0.613090
O O4 0.611008 0.395485 0.556638
O O5 0.722357 0.870754 0.871548
O O6 0.668695 0.109112 0.975248
O O7 0.741301 0.933035 0.005424
O O8 0.940584 0.233271 0.999088
O O9 0.109696 0.211369 0.891546
O O10 0.000000 0.000000 0.000000
O O11 0.694678 0.630840 0.461390
O O12 0.725895 0.753492 0.301312
O O13 0.247657 0.897854 0.348756
#
# Coordination Sequence:
#
# PCOD8143593 Si02
#       6
#     8   8   8   8   8   8
#     4  10  22  39  62  86 114 164 200 243 297 356
#     4  10  23  39  57  91 122 151 203 244 304 356
#     4  10  21  41  62  91 120 151 214 245 286 376
#     4  12  22  39  65  90 125 155 194 264 302 343
#     4  10  21  41  60  88 119 159 204 240 293 375
#     4  10  22  39  64  90 116 166 202 240 307 355
#
# _framework density 19.280304999999998
#
# number of rings (size 3 to 8) (size 9 to 14) (size 15 to 20)
#    0.000    2.000    3.333    3.500    4.667    2.667 
#    3.000    0.833    0.000    0.000    0.000    0.000 
#    0.000    0.000    0.000    0.000    0.000    0.000 
#
# Total GULP energy -297493.299712 kJ/mol
# GULP energy per Si atom -12395.554155 kJ/mol
# Density = 1.923642 g / cm^3
# Si number density = 19.280305 Si / 1000 Ang^3
#
#
#
# Elastic Constant Matrix: (Units=GPa)
#
#
# Indices 1 2 3 4 5 6 
#
# 1 74.7673 12.0688 10.9697 0.0002 -3.9241 -0.0003
# 2 12.0688 132.7566 19.8930 -0.0001 -0.8676 -0.0001
# 3 10.9697 19.8930 72.1547 0.0000 5.3031 0.0000
# 4 0.0002 -0.0001 0.0000 10.0832 0.0001 4.8600
# 5 -3.9241 -0.8676 5.3031 0.0001 17.6092 -0.0001
# 6 -0.0003 -0.0001 0.0000 4.8600 -0.0001 34.6343
#
#
#
# Elastic Compliance Matrix: (Units=1/GPa)
#
#
# Indices 1 2 3 4 5 6 
#
# 1 0.014036 -0.000929 -0.002152 0.000000 0.003730 0.000000
# 2 -0.000929 0.007938 -0.002107 0.000000 0.000819 0.000000
# 3 -0.002152 -0.002107 0.015145 0.000000 -0.005144 0.000000
# 4 0.000000 0.000000 0.000000 0.106370 -0.000001 -0.014926
# 5 0.003730 0.000819 -0.005144 -0.000001 0.059209 0.000000
# 6 0.000000 0.000000 0.000000 -0.014926 0.000000 0.030968
#
#
# Mechanical properties :
#
#
# Convention : Reuss Voigt Hill
#
# Bulk Modulus (GPa) = 37.39330 40.61572 39.00451
# Shear Modulus (GPa) = 19.76613 28.24848 24.00730
#
# Velocity S-wave (km/s) = 3.20535 3.83188 3.53253
# Velocity P-wave (km/s) = 5.75636 6.37882 6.07557
#
# Compressibility (1/GPa) = 0.02674276
#
# Stress axis : x y z
#
# Youngs Moduli (GPa) = 71.24380 125.97320 66.02672
#
# Poissons Ratio (x) = 0.11705 0.14208
# Poissons Ratio (y) = 0.06620 0.13915
# Poissons Ratio (z) = 0.15331 0.26548
#
# Static dielectric constant tensor:
#      x y z
#    x 4.083930 0.000000 0.086470 
#    y 0.000000 3.627500 0.000000 
#    z 0.086470 0.000000 3.636640 
# 
# 
# High freq. dielectric constant tensor:
#      x y z
#    x 1.762630 0.000000 0.011470 
#    y 0.000000 1.759620 0.000000 
#    z 0.011470 0.000000 1.731970 
# 
# From -- ./inp_files/213750.got.cif
#   From: 2010.06.25/outbox.cif.g09.slc.cpg/sg15_107_cif.got.tgz:213750.got - 2010.06.28 07:06:18.
