data_PCOD8143073
_publ_section_title
;
Structure prediction by ZEFSAII (Michael W. Deem and Ramdas Pophale) SiO2 
 PCOD8143073
Probable space group: C 2/C
;
_chemical_formula_sum "Si O2"
_cell_formula_units_Z 52
_cell_length_a 8.201903
_cell_length_b 22.606265
_cell_length_c 17.976418
_cell_angle_alpha 90.000000
_cell_angle_beta 44.956825
_cell_angle_gamma 90.000000
_cell_volume 2355.071494
_symmetry_space_group_name_H-M "C 2/C"
_symmetry_group_IT_number 15
_symmetry_cell_setting 'monoclinic'
loop_
_space_group_symop_operation_xyz
x,y,z
-x,y,1/2-z
-x,-y,-z
x,-y,1/2+z
1/2+x,1/2+y,z
1/2-x,1/2+y,1/2-z
1/2-x,1/2-y,-z
1/2+x,1/2-y,1/2+z
loop_
_atom_site_type_symbol
_atom_site_label
_atom_site_fract_x
_atom_site_fract_y
_atom_site_fract_z
Si Si1 0.500000 0.241875 0.750000
Si Si2 0.830722 0.377598 0.039285
Si Si3 0.410190 0.592202 0.499369
Si Si4 0.312579 0.360299 0.191690
Si Si5 0.740112 0.308362 0.549630
Si Si6 0.084213 0.574194 0.142610
Si Si7 0.560466 0.956848 0.372834
O O1 0.332073 0.200550 0.753931
O O2 0.654404 0.288697 0.656923
O O3 0.575529 0.351205 0.134116
O O4 0.842405 0.443620 0.074650
O O5 0.906166 0.378418 0.928014
O O6 0.004071 0.336117 0.028737
O O7 0.316796 0.621094 0.604947
O O8 0.436843 0.645215 0.430757
O O9 0.647815 0.555784 0.431469
O O10 0.215993 0.547707 0.533753
O O11 0.186124 0.411324 0.277950
O O12 0.750000 0.250000 0.500000
O O13 0.000000 0.599509 0.250000
O O14 0.908706 0.522557 0.171358
#
# Coordination Sequence:
#
# PCOD8143073 Si02
#       7
#     4   8   8   8   8   8   8
#     4  12  22  38  72  90 128 170 222 264 338 380
#     4  10  25  42  64  97 138 162 222 276 325 389
#     4  10  21  40  61  91 132 164 220 263 320 391
#     4  11  20  41  68  99 123 167 220 276 313 398
#     4  11  23  43  65  93 129 177 217 276 332 385
#     4  11  24  40  62  95 131 178 211 261 327 392
#     4  11  20  40  67  94 126 169 215 267 326 384
#
# _framework density 22.080010999999999
#
# number of rings (size 3 to 8) (size 9 to 14) (size 15 to 20)
#    0.000    1.231    3.077    3.231    2.154    1.846 
#    0.000    3.077    0.000    0.000    0.000    0.000 
#    0.000    0.000    0.000    0.000    0.000    0.000 
#
# Total GULP energy -322168.742657 kJ/mol
# GULP energy per Si atom -12391.105487 kJ/mol
# Density = 2.202976 g / cm^3
# Si number density = 22.080011 Si / 1000 Ang^3
#
#
#
# Elastic Constant Matrix: (Units=GPa)
#
#
# Indices 1 2 3 4 5 6 
#
# 1 118.9303 18.6991 35.0957 0.0000 -5.4124 0.0000
# 2 18.6991 55.5011 24.8130 0.0000 0.8831 0.0000
# 3 35.0957 24.8130 89.3435 0.0000 -2.7915 0.0000
# 4 0.0000 0.0000 0.0000 27.0009 0.0000 3.0688
# 5 -5.4124 0.8831 -2.7915 0.0000 27.7715 0.0000
# 6 0.0000 0.0000 0.0000 3.0688 0.0000 25.9172
#
#
#
# Elastic Compliance Matrix: (Units=1/GPa)
#
#
# Indices 1 2 3 4 5 6 
#
# 1 0.009735 -0.001848 -0.003260 0.000000 0.001628 0.000000
# 2 -0.001848 0.020965 -0.005145 0.000000 -0.001544 0.000000
# 3 -0.003260 -0.005145 0.013931 0.000000 0.000929 0.000000
# 4 0.000000 0.000000 0.000000 0.037541 0.000000 -0.004445
# 5 0.001628 -0.001544 0.000929 0.000000 0.036468 0.000000
# 6 0.000000 0.000000 0.000000 -0.004445 0.000000 0.039111
#
#
# Mechanical properties :
#
#
# Convention : Reuss Voigt Hill
#
# Bulk Modulus (GPa) = 41.45032 46.77672 44.11352
# Shear Modulus (GPa) = 26.83868 28.48241 27.66054
#
# Velocity S-wave (km/s) = 3.49021 3.59550 3.54325
# Velocity P-wave (km/s) = 5.92078 6.20225 6.06315
#
# Compressibility (1/GPa) = 0.02412526
#
# Stress axis : x y z
#
# Youngs Moduli (GPa) = 102.72247 47.69850 71.78181
#
# Poissons Ratio (x) = 0.08816 0.23400
# Poissons Ratio (y) = 0.18987 0.36930
# Poissons Ratio (z) = 0.33486 0.24539
#
# Static dielectric constant tensor:
#      x y z
#    x 4.292060 0.000000 0.010420 
#    y 0.000000 3.549460 0.000000 
#    z 0.010420 0.000000 4.062660 
# 
# 
# High freq. dielectric constant tensor:
#      x y z
#    x 1.876990 0.000000 0.005830 
#    y 0.000000 1.840490 0.000000 
#    z 0.005830 0.000000 1.879050 
# 
# From -- ./inp_files/192462.got.cif
#   From: 2010.06.25/outbox.cif.g09.slc.cpg/sg15_97_cif.got.tgz:192462.got - 2010.06.28 07:06:18.
