data_PCOD8143615
_publ_section_title
;
Structure prediction by ZEFSAII (Michael W. Deem and Ramdas Pophale) SiO2 
 PCOD8143615
Probable space group: C 2/C
;
_chemical_formula_sum "Si O2"
_cell_formula_units_Z 64
_cell_length_a 12.367661
_cell_length_b 26.087501
_cell_length_c 15.085604
_cell_angle_alpha 90.000000
_cell_angle_beta 39.127683
_cell_angle_gamma 90.000000
_cell_volume 3071.475102
_symmetry_space_group_name_H-M "C 2/C"
_symmetry_group_IT_number 15
_symmetry_cell_setting 'monoclinic'
loop_
_space_group_symop_operation_xyz
x,y,z
-x,y,1/2-z
-x,-y,-z
x,-y,1/2+z
1/2+x,1/2+y,z
1/2-x,1/2+y,1/2-z
1/2-x,1/2-y,-z
1/2+x,1/2-y,1/2+z
loop_
_atom_site_type_symbol
_atom_site_label
_atom_site_fract_x
_atom_site_fract_y
_atom_site_fract_z
Si Si1 0.904223 0.946287 0.561951
Si Si2 0.666942 0.717134 0.196358
Si Si3 0.523873 0.932678 0.486932
Si Si4 0.718196 0.165553 0.916654
Si Si5 0.970321 0.759146 0.534240
Si Si6 0.938262 0.499690 0.192964
Si Si7 0.142758 0.903034 0.725425
Si Si8 0.462390 0.648431 0.912631
O O1 0.941486 0.912659 0.625213
O O2 0.959884 0.911226 0.443476
O O3 0.704559 0.959431 0.688391
O O4 0.000000 0.000000 0.500000
O O5 0.500000 0.737254 0.250000
O O6 0.656094 0.737051 0.302971
O O7 0.678510 0.656216 0.183651
O O8 0.842819 0.741884 0.048566
O O9 0.580405 0.876282 0.475720
O O10 0.616526 0.951579 0.335802
O O11 0.319165 0.933873 0.600069
O O12 0.568471 0.969631 0.543257
O O13 0.617210 0.219120 0.977305
O O14 0.783882 0.158809 0.975036
O O15 0.877998 0.160719 0.750289
O O16 0.977306 0.815024 0.487244
O O17 0.000000 0.478964 0.250000
O O18 0.000000 0.925174 0.750000
#
# Coordination Sequence:
#
# PCOD8143615 Si02
#       8
#     8   8   8   8   8   8   8   8
#     4  11  23  41  62  90 124 163 210 267 311 380
#     4  11  23  42  67  96 130 172 213 260 319 384
#     4  10  21  41  61  89 129 163 212 267 309 386
#     4  11  23  41  63  94 126 169 208 264 326 378
#     4  12  22  43  66  96 133 167 216 265 321 389
#     4  10  22  39  63  91 122 166 209 258 319 375
#     4  10  22  40  63  88 124 168 208 258 319 376
#     4  11  24  41  64  93 128 166 213 266 321 389
#
# _framework density 20.836893
#
# number of rings (size 3 to 8) (size 9 to 14) (size 15 to 20)
#    0.000    1.250    3.750    2.250    1.750    0.000 
#    4.500    1.875    0.000    0.000    0.000    0.000 
#    0.000    0.000    0.000    0.000    0.000    0.000 
#
# Total GULP energy -396655.463727 kJ/mol
# GULP energy per Si atom -12395.483241 kJ/mol
# Density = 2.078947 g / cm^3
# Si number density = 20.836893 Si / 1000 Ang^3
#
#
#
# Elastic Constant Matrix: (Units=GPa)
#
#
# Indices 1 2 3 4 5 6 
#
# 1 97.1571 23.4329 19.9985 0.0000 -0.7023 0.0002
# 2 23.4329 98.4416 12.3890 0.0001 -3.2562 0.0000
# 3 19.9985 12.3890 60.3113 -0.0003 0.0851 0.0003
# 4 0.0000 0.0001 -0.0003 28.4361 0.0000 1.8001
# 5 -0.7023 -3.2562 0.0851 0.0000 34.2242 -0.0002
# 6 0.0002 0.0000 0.0003 1.8001 -0.0002 31.8377
#
#
#
# Elastic Compliance Matrix: (Units=1/GPa)
#
#
# Indices 1 2 3 4 5 6 
#
# 1 0.011543 -0.002325 -0.003350 0.000000 0.000024 0.000000
# 2 -0.002325 0.010930 -0.001476 0.000000 0.000996 0.000000
# 3 -0.003350 -0.001476 0.017995 0.000000 -0.000254 0.000000
# 4 0.000000 0.000000 0.000000 0.035293 0.000000 -0.001995
# 5 0.000024 0.000996 -0.000254 0.000000 0.029315 0.000000
# 6 0.000000 0.000000 0.000000 -0.001995 0.000000 0.031522
#
#
# Mechanical properties :
#
#
# Convention : Reuss Voigt Hill
#
# Bulk Modulus (GPa) = 38.21653 40.83899 39.52776
# Shear Modulus (GPa) = 31.32388 32.23892 31.78140
#
# Velocity S-wave (km/s) = 3.88143 3.93772 3.90968
# Velocity P-wave (km/s) = 6.20226 6.34949 6.27631
#
# Compressibility (1/GPa) = 0.02616669
#
# Stress axis : x y z
#
# Youngs Moduli (GPa) = 86.63144 91.48722 55.57120
#
# Poissons Ratio (x) = 0.21274 0.18616
# Poissons Ratio (y) = 0.20145 0.08201
# Poissons Ratio (z) = 0.29021 0.13501
#
# Static dielectric constant tensor:
#      x y z
#    x 3.943040 0.000000 0.198080 
#    y 0.000000 3.690890 0.000000 
#    z 0.198080 0.000000 4.175820 
# 
# 
# High freq. dielectric constant tensor:
#      x y z
#    x 1.815110 0.000000 0.003630 
#    y 0.000000 1.819550 0.000000 
#    z 0.003630 0.000000 1.813020 
# 
# From -- ./inp_files/148738.got.cif
#   From: 2010.06.25/outbox.cif.g09.slc.cpg/sg15_75_cif.got.tgz:148738.got - 2010.06.28 07:06:18.
