data_PCOD8143735
_publ_section_title
;
Structure prediction by ZEFSAII (Michael W. Deem and Ramdas Pophale) SiO2 
 PCOD8143735
Probable space group: C 2/C
;
_chemical_formula_sum "Si O2"
_cell_formula_units_Z 48
_cell_length_a 15.697792
_cell_length_b 28.821483
_cell_length_c 9.137349
_cell_angle_alpha 90.000000
_cell_angle_beta 147.609855
_cell_angle_gamma 90.000000
_cell_volume 2214.531205
_symmetry_space_group_name_H-M "C 2/C"
_symmetry_group_IT_number 15
_symmetry_cell_setting 'monoclinic'
loop_
_space_group_symop_operation_xyz
x,y,z
-x,y,1/2-z
-x,-y,-z
x,-y,1/2+z
1/2+x,1/2+y,z
1/2-x,1/2+y,1/2-z
1/2-x,1/2-y,-z
1/2+x,1/2-y,1/2+z
loop_
_atom_site_type_symbol
_atom_site_label
_atom_site_fract_x
_atom_site_fract_y
_atom_site_fract_z
Si Si1 0.157376 0.535512 0.038781
Si Si2 0.940263 0.635865 0.511756
Si Si3 0.379387 0.292429 0.302506
Si Si4 0.342873 0.875037 0.426048
Si Si5 0.698098 0.288310 0.636359
Si Si6 0.813920 0.040775 0.957667
O O1 0.256480 0.507401 0.302681
O O2 0.098235 0.581251 0.038373
O O3 0.254553 0.549454 0.035824
O O4 0.000000 0.508462 0.750000
O O5 0.783544 0.662660 0.237011
O O6 0.000000 0.656535 0.750000
O O7 0.086067 0.647592 0.616346
O O8 0.283785 0.340470 0.183838
O O9 0.573127 0.295833 0.589807
O O10 0.319825 0.254995 0.337574
O O11 0.370601 0.274946 0.122421
O O12 0.243143 0.920668 0.240183
O O13 0.500000 0.887011 0.750000
O O14 0.000000 0.040053 0.250000
#
# Coordination Sequence:
#
# PCOD8143735 Si02
#       6
#     8   8   8   8   8   8
#     4  11  24  46  70  96 131 180 223 275 333 404
#     4  11  23  43  66  96 138 173 220 278 334 398
#     4  10  22  38  69  96 134 169 224 274 321 394
#     4  12  24  42  68 100 132 181 227 270 333 402
#     4  10  21  41  64 101 131 173 219 274 328 388
#     4  12  27  45  67  99 136 172 223 282 335 399
#
# _framework density 21.675014999999998
#
# number of rings (size 3 to 8) (size 9 to 14) (size 15 to 20)
#    0.000    1.000    5.000    2.500    7.000    0.000 
#    3.000    4.167    0.000    0.000    0.000    0.000 
#    0.000    0.000    0.000    0.000    0.000    0.000 
#
# Total GULP energy -297324.740664 kJ/mol
# GULP energy per Si atom -12388.530861 kJ/mol
# Density = 2.162568 g / cm^3
# Si number density = 21.675015 Si / 1000 Ang^3
#
#
#
# Elastic Constant Matrix: (Units=GPa)
#
#
# Indices 1 2 3 4 5 6 
#
# 1 132.7005 35.8846 39.4954 0.0000 28.1057 0.0000
# 2 35.8846 89.6619 36.0246 0.0000 19.6116 0.0000
# 3 39.4954 36.0246 97.8324 0.0000 23.9409 0.0000
# 4 0.0000 0.0000 0.0000 16.3689 0.0000 -11.4640
# 5 28.1057 19.6116 23.9409 0.0000 44.3063 0.0000
# 6 0.0000 0.0000 0.0000 -11.4640 0.0000 -8.9181
#
#
#
# Elastic Compliance Matrix: (Units=1/GPa)
#
#
# Indices 1 2 3 4 5 6 
#
# 1 0.009583 -0.002111 -0.002112 0.000000 -0.004004 0.000000
# 2 -0.002111 0.014096 -0.003617 0.000000 -0.002945 0.000000
# 3 -0.002112 -0.003617 0.013467 0.000000 -0.004336 0.000000
# 4 0.000000 0.000000 0.000000 0.032149 0.000000 -0.041326
# 5 -0.004004 -0.002945 -0.004336 0.000000 0.028757 0.000000
# 6 0.000000 0.000000 0.000000 -0.041326 0.000000 -0.059008
#
#
# Mechanical properties :
#
#
# Convention : Reuss Voigt Hill
#
# Bulk Modulus (GPa) = 46.58631 60.33376 53.46004
# Shear Modulus (GPa) = 80.80297 24.27077 52.53687
#
# Velocity S-wave (km/s) = 6.11230 3.34991 4.92860
# Velocity P-wave (km/s) = 8.44709 6.54665 7.55685
#
# Compressibility (1/GPa) = 0.02146553
#
# Stress axis : x y z
#
# Youngs Moduli (GPa) = 104.35042 70.94421 74.25461
#
# Poissons Ratio (x) = 0.14978 0.15680
# Poissons Ratio (y) = 0.22031 0.26860
# Poissons Ratio (z) = 0.22035 0.25663
#
# Static dielectric constant tensor:
#      x y z
#    x 4.450050 0.000000 0.257050 
#    y 0.000000 3.694420 0.000000 
#    z 0.257050 0.000000 4.050500 
# 
# 
# High freq. dielectric constant tensor:
#      x y z
#    x 1.867930 0.000000 0.014110 
#    y 0.000000 1.841920 0.000000 
#    z 0.014110 0.000000 1.842330 
# 
# From -- ./inp_files/43933.got.cif
#   From: 2010.06.25/outbox.cif.g09.slc.cpg/sg15_22_cif.got.tgz:43933.got - 2010.06.28 07:06:18.
