data_PCOD8143678
_publ_section_title
;
Structure prediction by ZEFSAII (Michael W. Deem and Ramdas Pophale) SiO2 
 PCOD8143678
Probable space group: C 2/C
;
_chemical_formula_sum "Si O2"
_cell_formula_units_Z 56
_cell_length_a 10.776371
_cell_length_b 13.358607
_cell_length_c 22.149587
_cell_angle_alpha 90.000000
_cell_angle_beta 60.887471
_cell_angle_gamma 90.000000
_cell_volume 2785.766446
_symmetry_space_group_name_H-M "C 2/C"
_symmetry_group_IT_number 15
_symmetry_cell_setting 'monoclinic'
loop_
_space_group_symop_operation_xyz
x,y,z
-x,y,1/2-z
-x,-y,-z
x,-y,1/2+z
1/2+x,1/2+y,z
1/2-x,1/2+y,1/2-z
1/2-x,1/2-y,-z
1/2+x,1/2-y,1/2+z
loop_
_atom_site_type_symbol
_atom_site_label
_atom_site_fract_x
_atom_site_fract_y
_atom_site_fract_z
Si Si1 0.610175 0.894381 0.139825
Si Si2 0.000000 0.564489 0.250000
Si Si3 0.382767 0.638522 0.008386
Si Si4 0.600461 0.861478 0.508386
Si Si5 0.500000 0.276443 0.750000
Si Si6 0.890354 0.979834 0.104948
Si Si7 0.600249 0.979834 0.395052
Si Si8 0.271345 0.573518 0.250000
O O1 0.568006 0.791419 0.181993
O O2 0.527470 0.905027 0.096232
O O3 0.565962 0.995012 0.184038
O O4 0.780065 0.905027 0.096233
O O5 0.868116 0.625109 0.250000
O O6 0.215963 0.642036 0.034037
O O7 0.461082 0.578601 0.935698
O O8 0.444453 0.750000 0.000000
O O9 0.403837 0.585718 0.067795
O O10 0.667521 0.921401 0.435699
O O11 0.460574 0.914281 0.567796
O O12 0.624247 0.342192 0.750000
O O13 0.852519 0.000593 0.183755
O O14 0.720029 0.000593 0.316245
#
# Coordination Sequence:
#
# PCOD8143678 Si02
#       8
#     8   4   8   8   4   8   8   8
#     4   9  18  38  59  82 121 164 191 237 309 381
#     4   7  16  38  60  75 120 164 185 234 312 369
#     4  10  22  40  62  88 119 161 209 253 302 368
#     4  10  22  40  62  88 119 161 209 253 302 368
#     4  11  24  34  62  99 126 148 213 260 306 361
#     4  10  21  41  63  86 126 162 200 249 318 364
#     4  10  21  41  63  86 126 162 200 249 318 364
#     4  10  22  38  64  95 123 159 204 258 313 360
#
# _framework density 20.102187000000001
#
# number of rings (size 3 to 8) (size 9 to 14) (size 15 to 20)
#    0.000    2.286    1.429    0.857    6.000    0.000 
#    0.000    0.714    0.000    5.143    0.000    0.000 
#    0.000    0.000    0.000    0.000    0.000    0.000 
#
# Total GULP energy -347036.514578 kJ/mol
# GULP energy per Si atom -12394.161235 kJ/mol
# Density = 2.005643 g / cm^3
# Si number density = 20.102187 Si / 1000 Ang^3
#
#
#
# Elastic Constant Matrix: (Units=GPa)
#
#
# Indices 1 2 3 4 5 6 
#
# 1 83.1749 42.0124 5.5961 0.0000 -0.0001 0.0000
# 2 42.0124 121.5130 46.3788 0.0000 -0.0005 0.0000
# 3 5.5961 46.3788 118.9083 0.0000 -0.0005 0.0000
# 4 0.0000 0.0000 0.0000 31.6332 0.0000 -0.0003
# 5 -0.0001 -0.0005 -0.0005 0.0000 20.9607 0.0000
# 6 0.0000 0.0000 0.0000 -0.0003 0.0000 20.3701
#
#
#
# Elastic Compliance Matrix: (Units=1/GPa)
#
#
# Indices 1 2 3 4 5 6 
#
# 1 0.014799 -0.005699 0.001526 0.000000 0.000000 0.000000
# 2 -0.005699 0.011864 -0.004359 0.000000 0.000000 0.000000
# 3 0.001526 -0.004359 0.010038 0.000000 0.000000 0.000000
# 4 0.000000 0.000000 0.000000 0.031612 0.000000 0.000000
# 5 0.000000 0.000000 0.000000 0.000000 0.047708 0.000000
# 6 0.000000 0.000000 0.000000 0.000000 0.000000 0.049091
#
#
# Mechanical properties :
#
#
# Convention : Reuss Voigt Hill
#
# Bulk Modulus (GPa) = 50.92396 56.84119 53.88257
# Shear Modulus (GPa) = 26.49392 29.90008 28.19700
#
# Velocity S-wave (km/s) = 3.63431 3.86087 3.74930
# Velocity P-wave (km/s) = 6.55733 6.94353 6.75319
#
# Compressibility (1/GPa) = 0.01963712
#
# Stress axis : x y z
#
# Youngs Moduli (GPa) = 67.57265 84.28988 99.61919
#
# Poissons Ratio (x) = 0.48039 -0.15206
# Poissons Ratio (y) = 0.38511 0.43425
# Poissons Ratio (z) = -0.10315 0.36743
#
# Static dielectric constant tensor:
#      x y z
#    x 3.919520 0.000000 0.000000 
#    y 0.000000 3.453520 0.000000 
#    z 0.000000 0.000000 3.471310 
# 
# 
# High freq. dielectric constant tensor:
#      x y z
#    x 1.783360 0.000000 0.000000 
#    y 0.000000 1.764060 0.000000 
#    z 0.000000 0.000000 1.786380 
# 
# From -- ./inp_files/268754.got.cif
#   From: 2010.06.25/outbox.cif.g09.slc.cpg/sg15_135_cif.got.tgz:268754.got - 2010.06.28 07:06:18.
