data_PCOD8143348
_publ_section_title
;
Structure prediction by ZEFSAII (Michael W. Deem and Ramdas Pophale) SiO2 
 PCOD8143348
Probable space group: C 2/C
;
_chemical_formula_sum "Si O2"
_cell_formula_units_Z 48
_cell_length_a 33.096213
_cell_length_b 5.564804
_cell_length_c 21.476223
_cell_angle_alpha 90.000000
_cell_angle_beta 148.451888
_cell_angle_gamma 90.000000
_cell_volume 2069.501425
_symmetry_space_group_name_H-M "C 2/C"
_symmetry_group_IT_number 15
_symmetry_cell_setting 'monoclinic'
loop_
_space_group_symop_operation_xyz
x,y,z
-x,y,1/2-z
-x,-y,-z
x,-y,1/2+z
1/2+x,1/2+y,z
1/2-x,1/2+y,1/2-z
1/2-x,1/2-y,-z
1/2+x,1/2-y,1/2+z
loop_
_atom_site_type_symbol
_atom_site_label
_atom_site_fract_x
_atom_site_fract_y
_atom_site_fract_z
Si Si1 0.150987 0.365485 0.078529
Si Si2 0.590103 0.634387 0.884020
Si Si3 0.074602 0.716425 0.066431
Si Si4 0.298587 0.405145 0.742678
Si Si5 0.583799 0.163096 0.681351
Si Si6 0.916873 0.633925 0.673291
O O1 0.085234 0.531988 0.022100
O O2 0.212848 0.501070 0.114600
O O3 0.206460 0.284781 0.207882
O O4 0.108485 0.157603 0.982176
O O5 0.500000 0.621293 0.750000
O O6 0.626501 0.381133 0.906703
O O7 0.625302 0.881454 0.900198
O O8 0.141417 0.906753 0.150034
O O9 0.079073 0.592657 0.140173
O O10 0.988204 0.821904 0.940455
O O11 0.334945 0.291620 0.727818
O O12 0.576467 0.133888 0.744509
O O13 0.000000 0.627276 0.750000
#
# Coordination Sequence:
#
# PCOD8143348 Si02
#       6
#     8   8   8   8   8   8
#     4  11  23  40  66  98 133 176 230 272 348 413
#     4  10  23  39  66  96 128 179 230 281 322 400
#     4  10  21  40  65  96 132 169 222 286 344 397
#     4  11  23  39  65  98 132 176 212 294 343 402
#     4  10  23  39  65  98 132 171 226 285 338 401
#     4  10  22  41  64  96 128 179 227 281 332 396
#
# _framework density 23.193992000000001
#
# number of rings (size 3 to 8) (size 9 to 14) (size 15 to 20)
#    0.000    1.667    1.667    2.500    9.333    0.000 
#    0.000    1.667    0.000    0.000    0.000    0.000 
#    0.000    0.000    0.000    0.000    0.000    0.000 
#
# Total GULP energy -297331.446101 kJ/mol
# GULP energy per Si atom -12388.810254 kJ/mol
# Density = 2.314120 g / cm^3
# Si number density = 23.193992 Si / 1000 Ang^3
#
#
#
# Elastic Constant Matrix: (Units=GPa)
#
#
# Indices 1 2 3 4 5 6 
#
# 1 138.0546 19.8805 26.4312 -0.0010 -14.4016 -0.0028
# 2 19.8805 107.2746 -10.0330 -0.0045 -12.9626 -0.0078
# 3 26.4312 -10.0330 33.7342 0.0007 -2.6077 -0.0024
# 4 -0.0010 -0.0045 0.0007 29.8723 -0.0017 0.3159
# 5 -14.4016 -12.9626 -2.6077 -0.0017 27.1143 -0.0038
# 6 -0.0028 -0.0078 -0.0024 0.3159 -0.0038 7.9627
#
#
#
# Elastic Compliance Matrix: (Units=1/GPa)
#
#
# Indices 1 2 3 4 5 6 
#
# 1 0.009350 -0.002060 -0.007688 0.000000 0.003242 0.000001
# 2 -0.002060 0.010734 0.005157 0.000002 0.004533 0.000013
# 3 -0.007688 0.005157 0.037354 0.000000 0.001974 0.000015
# 4 0.000000 0.000002 0.000000 0.033490 0.000003 -0.001329
# 5 0.003242 0.004533 0.001974 0.000003 0.040960 0.000025
# 6 0.000001 0.000013 0.000015 -0.001329 0.000025 0.125638
#
#
# Mechanical properties :
#
#
# Convention : Reuss Voigt Hill
#
# Bulk Modulus (GPa) = 20.72324 39.06897 29.89610
# Shear Modulus (GPa) = 17.68072 29.17550 23.42811
#
# Velocity S-wave (km/s) = 2.76397 3.55052 3.18165
# Velocity P-wave (km/s) = 4.37495 5.80425 5.13953
#
# Compressibility (1/GPa) = 0.04825501
#
# Stress axis : x y z
#
# Youngs Moduli (GPa) = 106.94814 93.16405 26.77109
#
# Poissons Ratio (x) = 0.19193 0.20582
# Poissons Ratio (y) = 0.22033 -0.13806
# Poissons Ratio (z) = 0.82224 -0.48044
#
# Static dielectric constant tensor:
#      x y z
#    x 4.086040 0.000000 0.027680 
#    y 0.000000 5.032960 0.000010 
#    z 0.027680 0.000010 3.769760 
# 
# 
# High freq. dielectric constant tensor:
#      x y z
#    x 1.910210 0.000000 -0.007710 
#    y 0.000000 1.921660 0.000000 
#    z -0.007710 0.000000 1.895310 
# 
# From -- ./inp_files/253970.got.cif
#   From: 2010.06.25/outbox.cif.g09.slc.cpg/sg15_127_cif.got.tgz:253970.got - 2010.06.28 07:06:18.
