data_PCOD8143950
_publ_section_title
;
Structure prediction by ZEFSAII (Michael W. Deem and Ramdas Pophale) SiO2 
 PCOD8143950
Probable space group: C 2/C
;
_chemical_formula_sum "Si O2"
_cell_formula_units_Z 52
_cell_length_a 15.214568
_cell_length_b 11.290013
_cell_length_c 17.570388
_cell_angle_alpha 90.000000
_cell_angle_beta 48.462901
_cell_angle_gamma 90.000000
_cell_volume 2259.137216
_symmetry_space_group_name_H-M "C 2/C"
_symmetry_group_IT_number 15
_symmetry_cell_setting 'monoclinic'
loop_
_space_group_symop_operation_xyz
x,y,z
-x,y,1/2-z
-x,-y,-z
x,-y,1/2+z
1/2+x,1/2+y,z
1/2-x,1/2+y,1/2-z
1/2-x,1/2-y,-z
1/2+x,1/2-y,1/2+z
loop_
_atom_site_type_symbol
_atom_site_label
_atom_site_fract_x
_atom_site_fract_y
_atom_site_fract_z
Si Si1 0.531557 0.738272 0.894886
Si Si2 0.255655 0.081968 0.224731
Si Si3 0.366011 0.256366 0.818033
Si Si4 0.687154 0.470587 0.564408
Si Si5 0.500000 0.375737 0.250000
Si Si6 0.675618 0.440863 0.404898
Si Si7 0.884250 0.565270 0.539414
O O1 0.631195 0.836523 0.837897
O O2 0.515624 0.703663 0.816237
O O3 0.567469 0.628578 0.928347
O O4 0.414551 0.798345 0.999955
O O5 0.151567 0.154086 0.242958
O O6 0.210410 0.052137 0.333932
O O7 0.289803 0.957212 0.162180
O O8 0.500000 0.215876 0.750000
O O9 0.326227 0.329586 0.915475
O O10 0.289287 0.139583 0.853732
O O11 0.611558 0.541740 0.670227
O O12 0.640504 0.498301 0.506242
O O13 0.824176 0.505899 0.498766
O O14 0.000000 0.500000 0.500000
#
# Coordination Sequence:
#
# PCOD8143950 Si02
#       7
#     8   8   8   8   4   8   8
#     4  10  23  42  67  97 133 176 226 273 338 409
#     4   9  21  43  65  97 139 171 215 281 334 392
#     4  10  21  41  67  94 133 176 213 272 330 395
#     4  11  24  43  67  94 137 175 222 279 336 393
#     4  12  26  46  66  94 140 180 220 282 340 398
#     4  11  24  41  66 101 129 175 227 274 334 400
#     4   9  20  42  67  92 132 174 211 275 331 392
#
# _framework density 23.017636
#
# number of rings (size 3 to 8) (size 9 to 14) (size 15 to 20)
#    0.000    1.846    0.769    3.231    2.154    4.923 
#    5.538    0.000    0.000    0.000    0.000    0.000 
#    0.000    0.000    0.000    0.000    0.000    0.000 
#
# Total GULP energy -322222.570271 kJ/mol
# GULP energy per Si atom -12393.175780 kJ/mol
# Density = 2.296525 g / cm^3
# Si number density = 23.017636 Si / 1000 Ang^3
#
#
#
# Elastic Constant Matrix: (Units=GPa)
#
#
# Indices 1 2 3 4 5 6 
#
# 1 123.3538 4.9554 31.3727 0.0000 9.7937 0.0000
# 2 4.9554 29.7935 11.9201 0.0000 3.9002 0.0000
# 3 31.3727 11.9201 71.9887 0.0000 25.0341 0.0000
# 4 0.0000 0.0000 0.0000 39.5132 0.0000 9.7986
# 5 9.7937 3.9002 25.0341 0.0000 44.7729 0.0000
# 6 0.0000 0.0000 0.0000 9.7986 0.0000 17.8524
#
#
#
# Elastic Compliance Matrix: (Units=1/GPa)
#
#
# Indices 1 2 3 4 5 6 
#
# 1 0.009120 0.000081 -0.004086 0.000000 0.000283 0.000000
# 2 0.000081 0.035949 -0.006074 0.000000 0.000247 0.000000
# 3 -0.004086 -0.006074 0.020089 0.000000 -0.009809 0.000000
# 4 0.000000 0.000000 0.000000 0.029295 0.000000 -0.016079
# 5 0.000283 0.000247 -0.009809 0.000000 0.027736 0.000000
# 6 0.000000 0.000000 0.000000 -0.016079 0.000000 0.064840
#
#
# Mechanical properties :
#
#
# Convention : Reuss Voigt Hill
#
# Bulk Modulus (GPa) = 22.22232 35.73693 28.97962
# Shear Modulus (GPa) = 22.50350 32.22023 27.36187
#
# Velocity S-wave (km/s) = 3.13015 3.74546 3.45154
# Velocity P-wave (km/s) = 4.76857 5.85356 5.33870
#
# Compressibility (1/GPa) = 0.04499981
#
# Stress axis : x y z
#
# Youngs Moduli (GPa) = 109.64484 27.81746 49.77890
#
# Poissons Ratio (x) = -0.00225 0.20342
# Poissons Ratio (y) = -0.00888 0.30234
# Poissons Ratio (z) = 0.44805 0.16895
#
# Static dielectric constant tensor:
#      x y z
#    x 4.479790 0.000000 0.103890 
#    y 0.000000 4.144520 0.000000 
#    z 0.103890 0.000000 4.082500 
# 
# 
# High freq. dielectric constant tensor:
#      x y z
#    x 1.931970 0.000000 0.005700 
#    y 0.000000 1.900050 0.000000 
#    z 0.005700 0.000000 1.893550 
# 
# From -- ./inp_files/203909.got.cif
#   From: 2010.06.25/outbox.cif.g09.slc.cpg/sg15_102_cif.got.tgz:203909.got - 2010.06.28 07:06:18.
