data_PCOD8143623
_publ_section_title
;
Structure prediction by ZEFSAII (Michael W. Deem and Ramdas Pophale) SiO2 
 PCOD8143623
Probable space group: C 2/C
;
_chemical_formula_sum "Si O2"
_cell_formula_units_Z 40
_cell_length_a 12.117211
_cell_length_b 9.936624
_cell_length_c 16.595737
_cell_angle_alpha 90.000000
_cell_angle_beta 103.581535
_cell_angle_gamma 90.000000
_cell_volume 1942.319842
_symmetry_space_group_name_H-M "C 2/C"
_symmetry_group_IT_number 15
_symmetry_cell_setting 'monoclinic'
loop_
_space_group_symop_operation_xyz
x,y,z
-x,y,1/2-z
-x,-y,-z
x,-y,1/2+z
1/2+x,1/2+y,z
1/2-x,1/2+y,1/2-z
1/2-x,1/2-y,-z
1/2+x,1/2-y,1/2+z
loop_
_atom_site_type_symbol
_atom_site_label
_atom_site_fract_x
_atom_site_fract_y
_atom_site_fract_z
Si Si1 0.893043 0.701280 0.782493
Si Si2 0.323058 0.536840 0.003216
Si Si3 0.049540 0.956993 0.621135
Si Si4 0.887601 0.498632 0.427615
Si Si5 0.327195 0.286938 0.362002
O O1 0.890006 0.623337 0.866051
O O2 0.777285 0.685925 0.714609
O O3 0.000000 0.646437 0.750000
O O4 0.905831 0.859646 0.801953
O O5 0.381353 0.429556 0.951213
O O6 0.289265 0.670829 0.946409
O O7 0.416178 0.573619 0.087142
O O8 0.214951 0.473817 0.028000
O O9 0.071835 0.112937 0.650872
O O10 0.871573 0.634694 0.372514
O O11 0.000000 0.500000 0.500000
#
# Coordination Sequence:
#
# PCOD8143623 Si02
#       5
#     8   8   8   8   8
#     4  12  24  40  61  91 132 167 204 257 321 365
#     4   9  20  42  68  86 121 166 215 240 306 382
#     4   9  21  41  67  84 119 169 211 246 296 387
#     4  12  24  39  67  97 127 160 207 265 317 357
#     4  10  21  41  61  93 123 162 207 255 310 367
#
# _framework density 20.59393
#
# number of rings (size 3 to 8) (size 9 to 14) (size 15 to 20)
#    1.200    0.400    0.000    5.400    0.000    0.800 
#    0.000    1.000    0.000    0.000    0.000    0.000 
#    0.000    0.000    0.000    0.000    0.000    0.000 
#
# Total GULP energy -247901.219825 kJ/mol
# GULP energy per Si atom -12395.060991 kJ/mol
# Density = 2.054706 g / cm^3
# Si number density = 20.593930 Si / 1000 Ang^3
#
#
#
# Elastic Constant Matrix: (Units=GPa)
#
#
# Indices 1 2 3 4 5 6 
#
# 1 112.0294 20.6345 40.5555 0.0000 15.9208 0.0000
# 2 20.6345 66.1209 23.1649 0.0000 5.6337 0.0000
# 3 40.5555 23.1649 97.3356 0.0000 40.7788 0.0000
# 4 0.0000 0.0000 0.0000 45.4864 0.0000 -2.0766
# 5 15.9208 5.6337 40.7788 0.0000 43.5837 0.0000
# 6 0.0000 0.0000 0.0000 -2.0766 0.0000 13.2800
#
#
#
# Elastic Compliance Matrix: (Units=1/GPa)
#
#
# Indices 1 2 3 4 5 6 
#
# 1 0.010737 -0.001936 -0.004070 0.000000 0.000136 0.000000
# 2 -0.001936 0.017021 -0.004307 0.000000 0.002537 0.000000
# 3 -0.004070 -0.004307 0.019964 0.000000 -0.016636 0.000000
# 4 0.000000 0.000000 0.000000 0.022143 0.000000 0.003462
# 5 0.000136 0.002537 -0.016636 0.000000 0.038132 0.000000
# 6 0.000000 0.000000 0.000000 0.003462 0.000000 0.075842
#
#
# Mechanical properties :
#
#
# Convention : Reuss Voigt Hill
#
# Bulk Modulus (GPa) = 36.90612 49.35508 43.13060
# Shear Modulus (GPa) = 23.41961 33.21210 28.31585
#
# Velocity S-wave (km/s) = 3.37591 4.02022 3.71207
# Velocity P-wave (km/s) = 5.75808 6.75036 6.27387
#
# Compressibility (1/GPa) = 0.02709578
#
# Stress axis : x y z
#
# Youngs Moduli (GPa) = 93.13729 58.75163 50.09026
#
# Poissons Ratio (x) = 0.11377 0.20385
# Poissons Ratio (y) = 0.18036 0.21573
# Poissons Ratio (z) = 0.37904 0.25303
#
# Static dielectric constant tensor:
#      x y z
#    x 3.625020 0.000000 0.075000 
#    y 0.000000 3.563380 0.000000 
#    z 0.075000 0.000000 3.715110 
# 
# 
# High freq. dielectric constant tensor:
#      x y z
#    x 1.800000 0.000000 0.014210 
#    y 0.000000 1.792730 0.000000 
#    z 0.014210 0.000000 1.816810 
# 
# From -- ./inp_files/235937.got.cif
#   From: 2010.06.25/outbox.cif.g09.slc.cpg/sg15_118_cif.got.tgz:235937.got - 2010.06.28 07:06:18.
