data_PCOD8143919
_publ_section_title
;
Structure prediction by ZEFSAII (Michael W. Deem and Ramdas Pophale) SiO2 
 PCOD8143919
Probable space group: C 2/C
;
_chemical_formula_sum "Si O2"
_cell_formula_units_Z 48
_cell_length_a 9.624154
_cell_length_b 15.517063
_cell_length_c 21.773145
_cell_angle_alpha 90.000000
_cell_angle_beta 44.341184
_cell_angle_gamma 90.000000
_cell_volume 2272.619085
_symmetry_space_group_name_H-M "C 2/C"
_symmetry_group_IT_number 15
_symmetry_cell_setting 'monoclinic'
loop_
_space_group_symop_operation_xyz
x,y,z
-x,y,1/2-z
-x,-y,-z
x,-y,1/2+z
1/2+x,1/2+y,z
1/2-x,1/2+y,1/2-z
1/2-x,1/2-y,-z
1/2+x,1/2-y,1/2+z
loop_
_atom_site_type_symbol
_atom_site_label
_atom_site_fract_x
_atom_site_fract_y
_atom_site_fract_z
Si Si1 0.837326 0.224847 0.750593
Si Si2 0.662346 0.761761 0.960564
Si Si3 0.919535 0.177498 0.945058
Si Si4 0.211456 0.000606 0.049562
Si Si5 0.982272 0.138785 0.187844
Si Si6 0.913293 0.598383 0.589305
O O1 0.718858 0.311577 0.768540
O O2 0.693837 0.147443 0.820400
O O3 0.000000 0.251569 0.750000
O O4 0.952625 0.186573 0.656733
O O5 0.562921 0.680111 0.959455
O O6 0.843057 0.791087 0.861302
O O7 0.750000 0.750000 0.000000
O O8 0.483008 0.830850 0.017565
O O9 0.842430 0.080540 0.974760
O O10 0.750000 0.250000 0.000000
O O11 0.274042 0.969142 0.098169
O O12 0.030704 0.067351 0.120065
O O13 0.384688 0.048163 0.955388
O O14 0.000000 0.096183 0.250000
#
# Coordination Sequence:
#
# PCOD8143919 Si02
#       6
#     8   8   8   8   8   8
#     4  12  23  41  72  98 136 180 233 288 342 425
#     4  11  21  41  71  93 136 179 229 276 342 414
#     4  12  24  43  68 105 133 185 229 279 349 416
#     4  10  23  41  70 101 138 178 229 289 343 414
#     4  11  24  41  67 101 133 180 233 282 345 413
#     4  10  21  41  67 100 134 182 228 279 345 411
#
# _framework density 21.121005
#
# number of rings (size 3 to 8) (size 9 to 14) (size 15 to 20)
#    0.000    1.000    6.667    0.000    2.333    0.000 
#    0.000    3.333    7.333    0.000    0.000    0.000 
#    0.000    0.000    0.000    0.000    0.000    0.000 
#
# Total GULP energy -297334.385348 kJ/mol
# GULP energy per Si atom -12388.932723 kJ/mol
# Density = 2.107293 g / cm^3
# Si number density = 21.121005 Si / 1000 Ang^3
#
#
#
# Elastic Constant Matrix: (Units=GPa)
#
#
# Indices 1 2 3 4 5 6 
#
# 1 110.2977 56.7052 49.5961 -0.0002 11.7505 0.0001
# 2 56.7052 121.9456 32.0765 -0.0005 -11.3391 0.0005
# 3 49.5961 32.0765 94.1879 -0.0012 -14.9034 0.0014
# 4 -0.0002 -0.0005 -0.0012 35.1793 0.0001 -1.0647
# 5 11.7505 -11.3391 -14.9034 0.0001 26.0543 -0.0002
# 6 0.0001 0.0005 0.0014 -1.0647 -0.0002 38.9715
#
#
#
# Elastic Compliance Matrix: (Units=1/GPa)
#
#
# Indices 1 2 3 4 5 6 
#
# 1 0.020218 -0.008318 -0.010807 0.000000 -0.018920 0.000000
# 2 -0.008318 0.012566 0.001715 0.000000 0.010201 0.000000
# 3 -0.010807 0.001715 0.018266 0.000000 0.016069 -0.000001
# 4 0.000000 0.000000 0.000000 0.028449 0.000000 0.000777
# 5 -0.018920 0.010201 0.016069 0.000000 0.060545 0.000000
# 6 0.000000 0.000000 -0.000001 0.000777 0.000000 0.025681
#
#
# Mechanical properties :
#
#
# Convention : Reuss Voigt Hill
#
# Bulk Modulus (GPa) = 61.61683 67.02075 64.31879
# Shear Modulus (GPa) = 24.27705 32.57792 28.42749
#
# Velocity S-wave (km/s) = 3.39400 3.93165 3.67268
# Velocity P-wave (km/s) = 6.67799 7.23956 6.96444
#
# Compressibility (1/GPa) = 0.01622933
#
# Stress axis : x y z
#
# Youngs Moduli (GPa) = 49.46141 79.58130 54.74573
#
# Poissons Ratio (x) = 0.66195 0.59164
# Poissons Ratio (y) = 0.41142 -0.09387
# Poissons Ratio (z) = 0.53453 -0.13646
#
# Static dielectric constant tensor:
#      x y z
#    x 2.810570 -0.000020 -2.275660 
#    y -0.000020 4.446700 -0.000040 
#    z -2.275660 -0.000040 0.105120 
# 
# 
# High freq. dielectric constant tensor:
#      x y z
#    x 1.817020 0.000000 -0.015650 
#    y 0.000000 1.825880 0.000000 
#    z -0.015650 0.000000 1.833050 
# 
# From -- ./inp_files/232489.got.cif
#   From: 2010.06.25/outbox.cif.g09.slc.cpg/sg15_117_cif.got.tgz:232489.got - 2010.06.28 07:06:18.
