data_PCOD8143487
_publ_section_title
;
Structure prediction by ZEFSAII (Michael W. Deem and Ramdas Pophale) SiO2 
 PCOD8143487
Probable space group: C 2/C
;
_chemical_formula_sum "Si O2"
_cell_formula_units_Z 56
_cell_length_a 16.726279
_cell_length_b 18.076114
_cell_length_c 8.985712
_cell_angle_alpha 90.000000
_cell_angle_beta 98.183825
_cell_angle_gamma 90.000000
_cell_volume 2689.128611
_symmetry_space_group_name_H-M "C 2/C"
_symmetry_group_IT_number 15
_symmetry_cell_setting 'monoclinic'
loop_
_space_group_symop_operation_xyz
x,y,z
-x,y,1/2-z
-x,-y,-z
x,-y,1/2+z
1/2+x,1/2+y,z
1/2-x,1/2+y,1/2-z
1/2-x,1/2-y,-z
1/2+x,1/2-y,1/2+z
loop_
_atom_site_type_symbol
_atom_site_label
_atom_site_fract_x
_atom_site_fract_y
_atom_site_fract_z
Si Si1 0.163381 0.410982 0.331640
Si Si2 0.000000 0.668490 0.750000
Si Si3 0.154839 0.883990 0.432717
Si Si4 0.000000 0.866492 0.250000
Si Si5 0.267776 0.987232 0.888985
Si Si6 0.064808 0.782673 0.988044
Si Si7 0.279138 0.720284 0.787660
Si Si8 0.841018 0.855850 0.739144
O O1 0.163791 0.445546 0.496454
O O2 0.186482 0.480628 0.238609
O O3 0.230121 0.346783 0.349002
O O4 0.077974 0.382442 0.250307
O O5 0.012926 0.715791 0.904083
O O6 0.187504 0.808573 0.362731
O O7 0.120512 0.866537 0.587347
O O8 0.080265 0.914061 0.308561
O O9 0.223948 0.945654 0.464816
O O10 0.988003 0.817882 0.395382
O O11 0.198687 0.931042 0.823794
O O12 0.087295 0.836773 0.856532
O O13 0.149366 0.755310 0.081529
O O14 0.223664 0.790971 0.754602
#
# Coordination Sequence:
#
# PCOD8143487 Si02
#       8
#     8   4   8   4   8   8   8   8
#     4  11  23  43  65  95 139 171 227 273 325 388
#     4  12  24  40  67  99 138 174 216 276 336 392
#     4  10  23  40  63  94 134 167 217 270 329 395
#     4  10  24  42  59  97 146 156 206 288 342 392
#     4  11  23  42  66  94 128 184 222 266 318 402
#     4  11  22  40  64  98 131 170 213 275 337 387
#     4  10  21  40  68  93 127 170 226 279 311 385
#     4  12  20  39  71  94 119 175 231 263 322 389
#
# _framework density 20.824590000000001
#
# number of rings (size 3 to 8) (size 9 to 14) (size 15 to 20)
#    0.000    1.143    4.286    2.571    0.000    0.571 
#    2.571    3.571    0.000    0.857    0.000    0.000 
#    0.000    0.000    0.000    0.000    0.000    0.000 
#
# Total GULP energy -347103.825685 kJ/mol
# GULP energy per Si atom -12396.565203 kJ/mol
# Density = 2.077719 g / cm^3
# Si number density = 20.824590 Si / 1000 Ang^3
#
#
#
# Elastic Constant Matrix: (Units=GPa)
#
#
# Indices 1 2 3 4 5 6 
#
# 1 77.2860 16.8047 28.4462 0.0000 9.3606 0.0000
# 2 16.8047 68.8116 28.9543 0.0000 5.0888 0.0000
# 3 28.4462 28.9543 103.3313 0.0000 2.8857 0.0000
# 4 0.0000 0.0000 0.0000 25.4353 0.0000 17.6541
# 5 9.3606 5.0888 2.8857 0.0000 47.1250 0.0000
# 6 0.0000 0.0000 0.0000 17.6541 0.0000 26.6162
#
#
#
# Elastic Compliance Matrix: (Units=1/GPa)
#
#
# Indices 1 2 3 4 5 6 
#
# 1 0.014966 -0.001999 -0.003489 0.000000 -0.002543 0.000000
# 2 -0.001999 0.016848 -0.004138 0.000000 -0.001169 0.000000
# 3 -0.003489 -0.004138 0.011786 0.000000 0.000418 0.000000
# 4 0.000000 0.000000 0.000000 0.072857 0.000000 -0.048324
# 5 -0.002543 -0.001169 0.000418 0.000000 0.021826 0.000000
# 6 0.000000 0.000000 0.000000 -0.048324 0.000000 0.069624
#
#
# Mechanical properties :
#
#
# Convention : Reuss Voigt Hill
#
# Bulk Modulus (GPa) = 41.07041 44.20437 42.63739
# Shear Modulus (GPa) = 21.25184 31.51686 26.38435
#
# Velocity S-wave (km/s) = 3.19802 3.89452 3.56333
# Velocity P-wave (km/s) = 5.77939 6.44175 6.11954
#
# Compressibility (1/GPa) = 0.02434843
#
# Stress axis : x y z
#
# Youngs Moduli (GPa) = 66.81951 59.35346 84.84694
#
# Poissons Ratio (x) = 0.11863 0.29602
# Poissons Ratio (y) = 0.13355 0.35111
# Poissons Ratio (z) = 0.23312 0.24561
#
# Static dielectric constant tensor:
#      x y z
#    x 3.842700 0.000000 0.050490 
#    y 0.000000 3.711350 0.000000 
#    z 0.050490 0.000000 4.018800 
# 
# 
# High freq. dielectric constant tensor:
#      x y z
#    x 1.808710 0.000000 0.005780 
#    y 0.000000 1.801450 0.000000 
#    z 0.005780 0.000000 1.836570 
# 
# From -- ./inp_files/49191.got.cif
#   From: 2010.06.25/outbox.cif.g09.slc.cpg/sg15_25_cif.got.tgz:49191.got - 2010.06.28 07:06:18.
