data_PCOD8143015
_publ_section_title
;
Structure prediction by ZEFSAII (Michael W. Deem and Ramdas Pophale) SiO2 
 PCOD8143015
Probable space group: C 2/C
;
_chemical_formula_sum "Si O2"
_cell_formula_units_Z 52
_cell_length_a 21.604082
_cell_length_b 13.338709
_cell_length_c 16.896123
_cell_angle_alpha 90.000000
_cell_angle_beta 147.724724
_cell_angle_gamma 90.000000
_cell_volume 2599.966870
_symmetry_space_group_name_H-M "C 2/C"
_symmetry_group_IT_number 15
_symmetry_cell_setting 'monoclinic'
loop_
_space_group_symop_operation_xyz
x,y,z
-x,y,1/2-z
-x,-y,-z
x,-y,1/2+z
1/2+x,1/2+y,z
1/2-x,1/2+y,1/2-z
1/2-x,1/2-y,-z
1/2+x,1/2-y,1/2+z
loop_
_atom_site_type_symbol
_atom_site_label
_atom_site_fract_x
_atom_site_fract_y
_atom_site_fract_z
Si Si1 0.208459 0.496091 0.069146
Si Si2 0.691822 0.819391 0.871741
Si Si3 0.639335 0.614507 0.159260
Si Si4 0.750761 0.200272 0.707307
Si Si5 0.500000 0.058108 0.250000
Si Si6 0.371965 0.473723 0.098416
Si Si7 0.589317 0.581607 0.507845
O O1 0.240078 0.581757 0.166905
O O2 0.192004 0.389628 0.095135
O O3 0.313467 0.493898 0.119788
O O4 0.085292 0.514753 0.892602
O O5 0.663801 0.758331 0.761448
O O6 0.573935 0.870119 0.773095
O O7 0.750000 0.750000 0.000000
O O8 0.789652 0.901686 0.957785
O O9 0.654472 0.722170 0.134492
O O10 0.600124 0.530256 0.054818
O O11 0.538814 0.624726 0.116060
O O12 0.820448 0.158588 0.856946
O O13 0.500000 0.425745 0.250000
O O14 0.387867 0.574239 0.062017
#
# Coordination Sequence:
#
# PCOD8143015 Si02
#       7
#     8   8   8   8   4   8   8
#     4  10  22  39  62  89 120 165 200 256 301 368
#     4  11  22  33  57  92 122 158 192 259 310 360
#     4  10  21  40  59  87 127 158 208 247 310 373
#     4  11  22  37  57  95 122 156 207 249 318 361
#     4  10  22  36  54  86 128 150 206 236 312 360
#     4  11  20  37  63  88 116 155 217 251 299 351
#     4  10  22  36  62  88 121 168 198 261 304 363
#
# _framework density 20.000254999999999
#
# number of rings (size 3 to 8) (size 9 to 14) (size 15 to 20)
#    0.000    1.538    6.154    0.000    3.231    0.000 
#    0.000    4.615    1.692    0.000    0.000    0.000 
#    0.000    0.000    0.000    0.000    0.000    0.000 
#
# Total GULP energy -322250.099013 kJ/mol
# GULP energy per Si atom -12394.234577 kJ/mol
# Density = 1.995473 g / cm^3
# Si number density = 20.000255 Si / 1000 Ang^3
#
#
#
# Elastic Constant Matrix: (Units=GPa)
#
#
# Indices 1 2 3 4 5 6 
#
# 1 98.0210 47.7978 35.7296 0.0000 7.0567 0.0000
# 2 47.7978 62.0150 19.5386 0.0000 -0.3133 0.0000
# 3 35.7296 19.5386 102.9464 0.0000 13.1860 0.0000
# 4 0.0000 0.0000 0.0000 17.8899 0.0000 -8.4473
# 5 7.0567 -0.3133 13.1860 0.0000 30.4655 0.0000
# 6 0.0000 0.0000 0.0000 -8.4473 0.0000 39.7058
#
#
#
# Elastic Compliance Matrix: (Units=1/GPa)
#
#
# Indices 1 2 3 4 5 6 
#
# 1 0.017834 -0.012680 -0.003427 0.000000 -0.002778 0.000000
# 2 -0.012680 0.026247 -0.001050 0.000000 0.003661 0.000000
# 3 -0.003427 -0.001050 0.011648 0.000000 -0.004258 0.000000
# 4 0.000000 0.000000 0.000000 0.062140 0.000000 0.013220
# 5 -0.002778 0.003661 -0.004258 0.000000 0.035348 0.000000
# 6 0.000000 0.000000 0.000000 0.013220 0.000000 0.027998
#
#
# Mechanical properties :
#
#
# Convention : Reuss Voigt Hill
#
# Bulk Modulus (GPa) = 46.69484 52.12381 49.40933
# Shear Modulus (GPa) = 22.45496 28.27332 25.36414
#
# Velocity S-wave (km/s) = 3.35436 3.76393 3.56503
# Velocity P-wave (km/s) = 6.19678 6.70878 6.45786
#
# Compressibility (1/GPa) = 0.02141564
#
# Stress axis : x y z
#
# Youngs Moduli (GPa) = 56.07183 38.09910 85.85161
#
# Poissons Ratio (x) = 0.48309 0.29425
# Poissons Ratio (y) = 0.71098 0.09012
# Poissons Ratio (z) = 0.19218 0.03999
#
# Static dielectric constant tensor:
#      x y z
#    x 3.798640 0.000000 0.103610 
#    y 0.000000 3.480720 0.000000 
#    z 0.103610 0.000000 3.944240 
# 
# 
# High freq. dielectric constant tensor:
#      x y z
#    x 1.786350 0.000000 -0.005910 
#    y 0.000000 1.746310 0.000000 
#    z -0.005910 0.000000 1.778550 
# 
# From -- ./inp_files/118511.got.cif
#   From: 2010.06.25/outbox.cif.g09.slc.cpg/sg15_60_cif.got.tgz:118511.got - 2010.06.28 07:06:18.
