data_PCOD8143681
_publ_section_title
;
Structure prediction by ZEFSAII (Michael W. Deem and Ramdas Pophale) SiO2 
 PCOD8143681
Probable space group: C 2/C
;
_chemical_formula_sum "Si O2"
_cell_formula_units_Z 56
_cell_length_a 14.200895
_cell_length_b 25.136469
_cell_length_c 11.380030
_cell_angle_alpha 90.000000
_cell_angle_beta 136.947161
_cell_angle_gamma 90.000000
_cell_volume 2773.165732
_symmetry_space_group_name_H-M "C 2/C"
_symmetry_group_IT_number 15
_symmetry_cell_setting 'monoclinic'
loop_
_space_group_symop_operation_xyz
x,y,z
-x,y,1/2-z
-x,-y,-z
x,-y,1/2+z
1/2+x,1/2+y,z
1/2-x,1/2+y,1/2-z
1/2-x,1/2-y,-z
1/2+x,1/2-y,1/2+z
loop_
_atom_site_type_symbol
_atom_site_label
_atom_site_fract_x
_atom_site_fract_y
_atom_site_fract_z
Si Si1 0.939527 0.807052 0.809895
Si Si2 0.145628 0.108255 0.089614
Si Si3 0.916986 0.446218 0.400298
Si Si4 0.056771 0.642589 0.176898
Si Si5 0.000000 0.617639 0.750000
Si Si6 0.854654 0.002797 0.300279
Si Si7 0.375543 0.205497 0.482998
Si Si8 0.000000 0.050644 0.750000
O O1 0.941076 0.846448 0.922324
O O2 0.786783 0.782239 0.663205
O O3 0.000000 0.837959 0.750000
O O4 0.045946 0.758623 0.913937
O O5 0.285188 0.126846 0.155892
O O6 0.195815 0.063461 0.229872
O O7 0.045908 0.087505 0.898223
O O8 0.937577 0.421172 0.290927
O O9 0.755232 0.460182 0.253005
O O10 0.000000 0.500000 0.500000
O O11 0.959843 0.405232 0.542087
O O12 0.061096 0.689573 0.085574
O O13 0.000000 0.663454 0.250000
O O14 0.889692 0.656703 0.587867
O O15 0.000000 0.000000 0.500000
O O16 0.878001 0.988146 0.184534
#
# Coordination Sequence:
#
# PCOD8143681 Si02
#       8
#     8   8   8   8   4   8   8   4
#     4  11  23  42  69  90 126 162 207 270 315 370
#     4  10  22  41  59  96 120 163 216 247 315 381
#     4  11  22  37  63  90 120 168 201 250 307 366
#     4  10  21  41  63  87 127 159 207 260 307 372
#     4  10  24  40  65  94 131 154 218 258 308 380
#     4  10  22  39  56  89 126 163 206 247 306 371
#     4  10  23  44  62  95 123 160 212 261 317 376
#     4  10  22  40  59  82 135 162 200 260 300 378
#
# _framework density 20.193528000000001
#
# number of rings (size 3 to 8) (size 9 to 14) (size 15 to 20)
#    0.000    1.714    2.143    1.286    2.000    4.571 
#    9.000    1.429    0.000    0.000    0.000    0.000 
#    0.000    0.000    0.000    0.000    0.000    0.000 
#
# Total GULP energy -346984.550642 kJ/mol
# GULP energy per Si atom -12392.305380 kJ/mol
# Density = 2.014757 g / cm^3
# Si number density = 20.193528 Si / 1000 Ang^3
#
#
#
# Elastic Constant Matrix: (Units=GPa)
#
#
# Indices 1 2 3 4 5 6 
#
# 1 153.5619 52.4383 46.0574 0.0000 -16.4159 0.0000
# 2 52.4383 81.7012 29.0927 0.0000 -10.8475 0.0000
# 3 46.0574 29.0927 77.4396 0.0000 -8.4618 0.0000
# 4 0.0000 0.0000 0.0000 24.8696 0.0000 1.9448
# 5 -16.4159 -10.8475 -8.4618 0.0000 31.0021 0.0000
# 6 0.0000 0.0000 0.0000 1.9448 0.0000 23.5850
#
#
#
# Elastic Compliance Matrix: (Units=1/GPa)
#
#
# Indices 1 2 3 4 5 6 
#
# 1 0.009367 -0.004387 -0.003657 0.000000 0.002426 0.000000
# 2 -0.004387 0.016586 -0.003341 0.000000 0.002568 0.000000
# 3 -0.003657 -0.003341 0.016496 0.000000 0.001397 0.000000
# 4 0.000000 0.000000 0.000000 0.040471 0.000000 -0.003337
# 5 0.002426 0.002568 0.001397 0.000000 0.034821 0.000000
# 6 0.000000 0.000000 0.000000 -0.003337 0.000000 0.042675
#
#
# Mechanical properties :
#
#
# Convention : Reuss Voigt Hill
#
# Bulk Modulus (GPa) = 50.81940 63.09773 56.95857
# Shear Modulus (GPa) = 26.35093 28.23229 27.29161
#
# Velocity S-wave (km/s) = 3.61629 3.74316 3.68027
# Velocity P-wave (km/s) = 6.53127 7.07078 6.80637
#
# Compressibility (1/GPa) = 0.01967752
#
# Stress axis : x y z
#
# Youngs Moduli (GPa) = 106.76326 60.29057 60.61910
#
# Poissons Ratio (x) = 0.26451 0.22171
# Poissons Ratio (y) = 0.46839 0.20254
# Poissons Ratio (z) = 0.39048 0.20145
#
# Static dielectric constant tensor:
#      x y z
#    x 4.061900 0.000000 -0.035860 
#    y 0.000000 3.753460 0.000000 
#    z -0.035860 0.000000 3.621340 
# 
# 
# High freq. dielectric constant tensor:
#      x y z
#    x 1.804750 0.000000 0.002600 
#    y 0.000000 1.783070 0.000000 
#    z 0.002600 0.000000 1.785240 
# 
# From -- ./inp_files/92120.got.cif
#   From: 2010.06.25/outbox.cif.g09.slc.cpg/sg15_47_cif.got.tgz:92120.got - 2010.06.28 07:06:18.
