data_PCOD8143773
_publ_section_title
;
Structure prediction by ZEFSAII (Michael W. Deem and Ramdas Pophale) SiO2 
 PCOD8143773
Probable space group: C 2/C
;
_chemical_formula_sum "Si O2"
_cell_formula_units_Z 44
_cell_length_a 8.172840
_cell_length_b 12.793495
_cell_length_c 22.642957
_cell_angle_alpha 90.000000
_cell_angle_beta 53.459863
_cell_angle_gamma 90.000000
_cell_volume 1902.167597
_symmetry_space_group_name_H-M "C 2/C"
_symmetry_group_IT_number 15
_symmetry_cell_setting 'monoclinic'
loop_
_space_group_symop_operation_xyz
x,y,z
-x,y,1/2-z
-x,-y,-z
x,-y,1/2+z
1/2+x,1/2+y,z
1/2-x,1/2+y,1/2-z
1/2-x,1/2-y,-z
1/2+x,1/2-y,1/2+z
loop_
_atom_site_type_symbol
_atom_site_label
_atom_site_fract_x
_atom_site_fract_y
_atom_site_fract_z
Si Si1 0.710934 0.351366 0.782930
Si Si2 0.219911 0.846633 0.576596
Si Si3 0.500000 0.320508 0.250000
Si Si4 0.277324 0.033908 0.385990
Si Si5 0.944819 0.853973 0.014588
Si Si6 0.215473 0.497249 0.837884
O O1 0.494959 0.304704 0.850748
O O2 0.868282 0.256020 0.735295
O O3 0.804879 0.426692 0.813391
O O4 0.674463 0.419562 0.732244
O O5 0.197150 0.873621 0.512710
O O6 0.398406 0.761528 0.548677
O O7 0.286686 0.950660 0.596146
O O8 0.664084 0.393225 0.181424
O O9 0.182558 0.129561 0.445808
O O10 0.115347 0.938894 0.422777
O O11 0.486222 0.987605 0.365556
#
# Coordination Sequence:
#
# PCOD8143773 Si02
#       6
#     8   8   4   8   8   8
#     4  11  22  43  63  95 137 171 213 281 328 391
#     4  10  21  41  65  92 135 166 229 270 325 398
#     4  12  24  40  66  96 134 170 214 268 342 378
#     4  10  21  41  64  92 134 170 226 265 328 394
#     4   9  21  41  65  91 125 188 210 274 329 382
#     4  12  23  40  66 100 128 174 218 275 330 395
#
# _framework density 23.131505000000001
#
# number of rings (size 3 to 8) (size 9 to 14) (size 15 to 20)
#    0.000    1.455    3.636    1.091    0.000    2.909 
#    3.273    3.636    0.000    0.000    0.000    0.000 
#    0.000    0.000    0.000    0.000    0.000    0.000 
#
# Total GULP energy -272688.380361 kJ/mol
# GULP energy per Si atom -12394.926380 kJ/mol
# Density = 2.307886 g / cm^3
# Si number density = 23.131505 Si / 1000 Ang^3
#
#
#
# Elastic Constant Matrix: (Units=GPa)
#
#
# Indices 1 2 3 4 5 6 
#
# 1 62.6253 11.4224 5.2016 0.0001 -5.8006 -0.0002
# 2 11.4224 96.7109 25.8238 0.0001 7.5387 -0.0001
# 3 5.2016 25.8238 69.7289 -0.0001 0.3216 0.0000
# 4 0.0001 0.0001 -0.0001 40.1253 0.0000 -17.7174
# 5 -5.8006 7.5387 0.3216 0.0000 30.0362 0.0001
# 6 -0.0002 -0.0001 0.0000 -17.7174 0.0001 30.4498
#
#
#
# Elastic Compliance Matrix: (Units=1/GPa)
#
#
# Indices 1 2 3 4 5 6 
#
# 1 0.016749 -0.002147 -0.000472 0.000000 0.003778 0.000000
# 2 -0.002147 0.011997 -0.004267 0.000000 -0.003380 0.000000
# 3 -0.000472 -0.004267 0.015953 0.000000 0.000809 0.000000
# 4 0.000000 0.000000 0.000000 0.033539 0.000000 0.019515
# 5 0.003778 -0.003380 0.000809 0.000000 0.034863 0.000000
# 6 0.000000 0.000000 0.000000 0.019515 0.000000 0.044196
#
#
# Mechanical properties :
#
#
# Convention : Reuss Voigt Hill
#
# Bulk Modulus (GPa) = 32.33430 34.88454 33.60942
# Shear Modulus (GPa) = 27.56714 32.56341 30.06528
#
# Velocity S-wave (km/s) = 3.45593 3.75607 3.60912
# Velocity P-wave (km/s) = 5.47114 5.82447 5.65057
#
# Compressibility (1/GPa) = 0.03092691
#
# Stress axis : x y z
#
# Youngs Moduli (GPa) = 59.70621 83.35755 62.68402
#
# Poissons Ratio (x) = 0.17894 0.02957
# Poissons Ratio (y) = 0.12817 0.26748
# Poissons Ratio (z) = 0.02817 0.35570
#
# Static dielectric constant tensor:
#      x y z
#    x 4.079620 0.000000 -0.241580 
#    y 0.000000 4.066760 0.000000 
#    z -0.241580 0.000000 4.199030 
# 
# 
# High freq. dielectric constant tensor:
#      x y z
#    x 1.906340 0.000000 -0.023490 
#    y 0.000000 1.901520 0.000000 
#    z -0.023490 0.000000 1.910690 
# 
# From -- ./inp_files/263439.got.cif
#   From: 2010.06.25/outbox.cif.g09.slc.cpg/sg15_132_cif.got.tgz:263439.got - 2010.06.28 07:06:18.
