data_PCOD8143634
_publ_section_title
;
Structure prediction by ZEFSAII (Michael W. Deem and Ramdas Pophale) SiO2 
 PCOD8143634
Probable space group: C 2/C
;
_chemical_formula_sum "Si O2"
_cell_formula_units_Z 64
_cell_length_a 14.144546
_cell_length_b 9.521604
_cell_length_c 28.194380
_cell_angle_alpha 90.000000
_cell_angle_beta 119.985244
_cell_angle_gamma 90.000000
_cell_volume 3288.946923
_symmetry_space_group_name_H-M "C 2/C"
_symmetry_group_IT_number 15
_symmetry_cell_setting 'monoclinic'
loop_
_space_group_symop_operation_xyz
x,y,z
-x,y,1/2-z
-x,-y,-z
x,-y,1/2+z
1/2+x,1/2+y,z
1/2-x,1/2+y,1/2-z
1/2-x,1/2-y,-z
1/2+x,1/2-y,1/2+z
loop_
_atom_site_type_symbol
_atom_site_label
_atom_site_fract_x
_atom_site_fract_y
_atom_site_fract_z
Si Si1 0.096710 0.582126 0.499996
Si Si2 0.755410 0.330472 0.120674
Si Si3 0.531764 0.356181 0.364431
Si Si4 0.994287 0.124622 0.961106
Si Si5 0.418431 0.035754 0.112080
Si Si6 0.227109 0.020854 0.387128
Si Si7 0.662570 0.012648 0.684915
Si Si8 0.708125 0.297777 0.215086
O O1 0.107798 0.525074 0.449733
O O2 0.212221 0.550389 0.553271
O O3 0.000000 0.500000 0.500000
O O4 0.070370 0.747446 0.497388
O O5 0.630046 0.327466 0.073693
O O6 0.821283 0.461449 0.116300
O O7 0.766946 0.334809 0.180366
O O8 0.800852 0.184222 0.111462
O O9 0.534532 0.418620 0.418684
O O10 0.574539 0.197730 0.372152
O O11 0.610460 0.447265 0.351036
O O12 0.410784 0.368925 0.312900
O O13 0.000000 0.000000 0.000000
O O14 0.532909 0.961538 0.153575
O O15 0.303295 0.998968 0.360975
O O16 0.719218 0.144359 0.723974
O O17 0.696823 0.869192 0.719896
#
# Coordination Sequence:
#
# PCOD8143634 Si02
#       8
#     8   8   8   8   8   8   8   8
#     4  11  20  39  59  83 122 158 188 235 287 342
#     4  10  22  39  57  85 117 150 191 240 283 339
#     4   9  22  40  56  84 118 150 190 237 287 345
#     4  10  22  38  56  82 119 155 191 233 281 337
#     4  10  22  38  60  86 118 153 192 233 291 347
#     4  11  22  38  61  86 118 154 193 236 288 344
#     4  10  21  41  62  83 113 155 190 240 294 340
#     4   9  21  42  60  80 117 148 191 244 289 339
#
# _framework density 19.459115000000001
#
# number of rings (size 3 to 8) (size 9 to 14) (size 15 to 20)
#    0.000    2.000    2.500    1.500    3.500    5.500 
#    2.250    5.000    0.000    0.000    0.000    0.000 
#    0.000    0.000    0.000    0.000    0.000    0.000 
#
# Total GULP energy -396853.010082 kJ/mol
# GULP energy per Si atom -12401.656565 kJ/mol
# Density = 1.941483 g / cm^3
# Si number density = 19.459115 Si / 1000 Ang^3
#
#
#
# Elastic Constant Matrix: (Units=GPa)
#
#
# Indices 1 2 3 4 5 6 
#
# 1 77.5006 25.3401 3.2109 0.0000 9.3063 0.0000
# 2 25.3401 63.8354 32.6486 0.0000 4.8551 0.0000
# 3 3.2109 32.6486 79.6155 0.0000 11.4560 0.0000
# 4 0.0000 0.0000 0.0000 33.8525 0.0000 0.3766
# 5 9.3063 4.8551 11.4560 0.0000 18.8056 0.0000
# 6 0.0000 0.0000 0.0000 0.3766 0.0000 38.1629
#
#
#
# Elastic Compliance Matrix: (Units=1/GPa)
#
#
# Indices 1 2 3 4 5 6 
#
# 1 0.016274 -0.007724 0.003708 0.000000 -0.008318 0.000000
# 2 -0.007724 0.023489 -0.009863 0.000000 0.003766 0.000000
# 3 0.003708 -0.009863 0.017924 0.000000 -0.010208 0.000000
# 4 0.000000 0.000000 0.000000 0.029543 0.000000 -0.000292
# 5 -0.008318 0.003766 -0.010208 0.000000 0.062538 0.000000
# 6 0.000000 0.000000 0.000000 -0.000292 0.000000 0.026206
#
#
# Mechanical properties :
#
#
# Convention : Reuss Voigt Hill
#
# Bulk Modulus (GPa) = 33.41164 38.15009 35.78087
# Shear Modulus (GPa) = 23.39636 28.81433 26.10535
#
# Velocity S-wave (km/s) = 3.47123 3.85224 3.66669
# Velocity P-wave (km/s) = 5.76831 6.27966 6.02941
#
# Compressibility (1/GPa) = 0.02992969
#
# Stress axis : x y z
#
# Youngs Moduli (GPa) = 61.44859 42.57269 55.79071
#
# Poissons Ratio (x) = 0.32882 -0.20687
# Poissons Ratio (y) = 0.47462 0.55025
# Poissons Ratio (z) = -0.22785 0.41989
#
# Static dielectric constant tensor:
#      x y z
#    x 3.668940 0.000000 -0.098380 
#    y 0.000000 3.609560 0.000000 
#    z -0.098380 0.000000 3.708360 
# 
# 
# High freq. dielectric constant tensor:
#      x y z
#    x 1.762540 0.000000 0.005560 
#    y 0.000000 1.755600 0.000000 
#    z 0.005560 0.000000 1.753630 
# 
# From -- ./inp_files/312923.got.cif
#   From: 2010.06.25/outbox.cif.g09.slc.cpg/sg15_157_cif.got.tgz:312923.got - 2010.06.28 07:06:18.
