data_PCOD8143416
_publ_section_title
;
Structure prediction by ZEFSAII (Michael W. Deem and Ramdas Pophale) SiO2 
 PCOD8143416
Probable space group: C 2/C
;
_chemical_formula_sum "Si O2"
_cell_formula_units_Z 48
_cell_length_a 18.682953
_cell_length_b 7.491944
_cell_length_c 22.871553
_cell_angle_alpha 90.000000
_cell_angle_beta 134.723431
_cell_angle_gamma 90.000000
_cell_volume 2274.610138
_symmetry_space_group_name_H-M "C 2/C"
_symmetry_group_IT_number 15
_symmetry_cell_setting 'monoclinic'
loop_
_space_group_symop_operation_xyz
x,y,z
-x,y,1/2-z
-x,-y,-z
x,-y,1/2+z
1/2+x,1/2+y,z
1/2-x,1/2+y,1/2-z
1/2-x,1/2-y,-z
1/2+x,1/2-y,1/2+z
loop_
_atom_site_type_symbol
_atom_site_label
_atom_site_fract_x
_atom_site_fract_y
_atom_site_fract_z
Si Si1 0.972152 0.636490 0.868273
Si Si2 0.881003 0.335786 0.530356
Si Si3 0.160404 0.839855 0.378564
Si Si4 0.406066 0.726543 0.161196
Si Si5 0.311337 0.000616 0.681875
Si Si6 0.598040 0.610052 0.070355
O O1 0.886062 0.557421 0.776749
O O2 0.918258 0.754341 0.885995
O O3 0.032384 0.477640 0.934391
O O4 0.061255 0.750706 0.887614
O O5 0.905527 0.245873 0.607019
O O6 0.766773 0.409879 0.466377
O O7 0.876412 0.198545 0.475781
O O8 0.163689 0.700156 0.326687
O O9 0.109497 0.022749 0.327971
O O10 0.500000 0.806521 0.250000
O O11 0.315783 0.858656 0.129816
O O12 0.197326 0.008038 0.642199
O O13 0.500000 0.500000 0.000000
#
# Coordination Sequence:
#
# PCOD8143416 Si02
#       6
#     8   8   8   8   8   8
#     4  11  23  43  66  99 134 174 227 278 336 396
#     4  10  22  39  64  96 129 171 217 274 330 399
#     4  10  21  40  66  97 128 170 221 271 338 387
#     4  10  22  38  67  96 122 170 224 268 332 387
#     4  10  24  45  65  95 137 169 222 281 327 398
#     4  11  25  44  63  97 135 181 223 265 345 407
#
# _framework density 21.102518
#
# number of rings (size 3 to 8) (size 9 to 14) (size 15 to 20)
#    0.000    1.667    1.667    1.500    4.667    2.000 
#   12.000    0.000    0.000    0.000    0.000    0.000 
#    0.000    0.000    0.000    0.000    0.000    0.000 
#
# Total GULP energy -297434.003421 kJ/mol
# GULP energy per Si atom -12393.083476 kJ/mol
# Density = 2.105449 g / cm^3
# Si number density = 21.102518 Si / 1000 Ang^3
#
#
#
# Elastic Constant Matrix: (Units=GPa)
#
#
# Indices 1 2 3 4 5 6 
#
# 1 117.4668 37.5099 42.5384 0.0000 16.2928 0.0000
# 2 37.5099 100.5897 38.5345 0.0000 21.0353 0.0000
# 3 42.5384 38.5345 90.1765 0.0000 8.1643 0.0000
# 4 0.0000 0.0000 0.0000 30.6022 0.0000 3.8326
# 5 16.2928 21.0353 8.1643 0.0000 24.8736 0.0000
# 6 0.0000 0.0000 0.0000 3.8326 0.0000 30.9188
#
#
#
# Elastic Compliance Matrix: (Units=1/GPa)
#
#
# Indices 1 2 3 4 5 6 
#
# 1 0.011173 -0.001610 -0.004167 0.000000 -0.004589 0.000000
# 2 -0.001610 0.014244 -0.004465 0.000000 -0.009526 0.000000
# 3 -0.004167 -0.004465 0.014814 0.000000 0.001643 0.000000
# 4 0.000000 0.000000 0.000000 0.033193 0.000000 -0.004114
# 5 -0.004589 -0.009526 0.001643 0.000000 0.050726 0.000000
# 6 0.000000 0.000000 0.000000 -0.004114 0.000000 0.032853
#
#
# Mechanical properties :
#
#
# Convention : Reuss Voigt Hill
#
# Bulk Modulus (GPa) = 50.64037 60.59985 55.62011
# Shear Modulus (GPa) = 27.16374 29.92227 28.54300
#
# Velocity S-wave (km/s) = 3.59169 3.76965 3.68174
# Velocity P-wave (km/s) = 6.42259 6.90842 6.66993
#
# Compressibility (1/GPa) = 0.01974709
#
# Stress axis : x y z
#
# Youngs Moduli (GPa) = 89.50394 70.20308 67.50315
#
# Poissons Ratio (x) = 0.11306 0.28127
# Poissons Ratio (y) = 0.14414 0.30139
# Poissons Ratio (z) = 0.37294 0.31344
#
# Static dielectric constant tensor:
#      x y z
#    x 3.654950 0.000000 -0.134840 
#    y 0.000000 3.649640 0.000000 
#    z -0.134840 0.000000 3.567030 
# 
# 
# High freq. dielectric constant tensor:
#      x y z
#    x 1.834840 0.000000 0.007320 
#    y 0.000000 1.820470 0.000000 
#    z 0.007320 0.000000 1.824310 
# 
# From -- ./inp_files/299996.got.cif
#   From: 2010.06.25/outbox.cif.g09.slc.cpg/sg15_150_cif.got.tgz:299996.got - 2010.06.28 07:06:18.
