data_PCOD8143782
_publ_section_title
;
Structure prediction by ZEFSAII (Michael W. Deem and Ramdas Pophale) SiO2 
 PCOD8143782
Probable space group: C 2/C
;
_chemical_formula_sum "Si O2"
_cell_formula_units_Z 60
_cell_length_a 11.384197
_cell_length_b 27.566296
_cell_length_c 17.722879
_cell_angle_alpha 90.000000
_cell_angle_beta 148.455373
_cell_angle_gamma 90.000000
_cell_volume 2909.723429
_symmetry_space_group_name_H-M "C 2/C"
_symmetry_group_IT_number 15
_symmetry_cell_setting 'monoclinic'
loop_
_space_group_symop_operation_xyz
x,y,z
-x,y,1/2-z
-x,-y,-z
x,-y,1/2+z
1/2+x,1/2+y,z
1/2-x,1/2+y,1/2-z
1/2-x,1/2-y,-z
1/2+x,1/2-y,1/2+z
loop_
_atom_site_type_symbol
_atom_site_label
_atom_site_fract_x
_atom_site_fract_y
_atom_site_fract_z
Si Si1 0.359610 0.650928 0.454304
Si Si2 0.998316 0.954397 0.442527
Si Si3 0.217906 0.779768 0.215279
Si Si4 0.417306 0.063820 0.883368
Si Si5 0.500000 0.277718 0.750000
Si Si6 0.712837 0.516467 0.907565
Si Si7 0.937019 0.334083 0.001388
Si Si8 0.965872 0.681927 0.347315
O O1 0.404616 0.593935 0.465639
O O2 0.591461 0.677549 0.601410
O O3 0.262007 0.669767 0.322271
O O4 0.184336 0.661829 0.425373
O O5 0.746735 0.944269 0.276960
O O6 0.158988 0.963184 0.459784
O O7 0.000000 0.000000 0.500000
O O8 0.400149 0.755541 0.260634
O O9 0.353686 0.800063 0.361138
O O10 0.033758 0.740494 0.142722
O O11 0.289413 0.060252 0.893921
O O12 0.538668 0.115322 0.941582
O O13 0.598648 0.022508 0.977402
O O14 0.698121 0.310944 0.893354
O O15 0.500000 0.491099 0.750000
O O16 0.951063 0.343658 0.919957
#
# Coordination Sequence:
#
# PCOD8143782 Si02
#       8
#     8   8   8   8   4   8   8   8
#     4  11  23  42  63  96 132 169 217 268 332 385
#     4  11  24  43  63  92 130 171 214 268 328 389
#     4  11  22  44  64  93 132 170 218 267 326 391
#     4  10  21  41  64  96 118 167 214 265 319 381
#     4  10  24  40  62  92 132 172 206 272 314 388
#     4   9  21  40  66  89 126 157 208 272 322 372
#     4  11  22  40  66  94 125 169 222 254 322 389
#     4  10  23  38  66  96 128 168 210 273 328 383
#
# _framework density 20.620518000000001
#
# number of rings (size 3 to 8) (size 9 to 14) (size 15 to 20)
#    0.000    1.600    1.333    3.200    0.933    8.533 
#    4.800    0.000    0.000    0.000    0.000    0.000 
#    0.000    0.000    0.000    0.000    0.000    0.000 
#
# Total GULP energy -372027.193418 kJ/mol
# GULP energy per Si atom -12400.906447 kJ/mol
# Density = 2.057358 g / cm^3
# Si number density = 20.620518 Si / 1000 Ang^3
#
#
#
# Elastic Constant Matrix: (Units=GPa)
#
#
# Indices 1 2 3 4 5 6 
#
# 1 73.7574 35.3257 40.9989 -0.0001 -2.1071 0.0007
# 2 35.3257 125.0099 47.7867 0.0000 -7.1595 -0.0001
# 3 40.9989 47.7867 129.8742 0.0003 -3.8309 0.0016
# 4 -0.0001 0.0000 0.0003 37.4550 0.0001 -3.0804
# 5 -2.1071 -7.1595 -3.8309 0.0001 30.4556 0.0009
# 6 0.0007 -0.0001 0.0016 -3.0804 0.0009 10.2914
#
#
#
# Elastic Compliance Matrix: (Units=1/GPa)
#
#
# Indices 1 2 3 4 5 6 
#
# 1 0.017544 -0.003311 -0.004323 0.000000 -0.000108 -0.000001
# 2 -0.003311 0.010029 -0.002592 0.000000 0.001803 0.000001
# 3 -0.004323 -0.002592 0.010028 0.000000 0.000353 -0.000001
# 4 0.000000 0.000000 0.000000 0.027373 0.000000 0.008193
# 5 -0.000108 0.001803 0.000353 0.000000 0.033295 -0.000003
# 6 -0.000001 0.000001 -0.000001 0.008193 -0.000003 0.099620
#
#
# Mechanical properties :
#
#
# Convention : Reuss Voigt Hill
#
# Bulk Modulus (GPa) = 58.31143 64.09601 61.20372
# Shear Modulus (GPa) = 22.31565 29.27575 25.79570
#
# Velocity S-wave (km/s) = 3.29326 3.77203 3.54075
# Velocity P-wave (km/s) = 6.54221 7.07969 6.81625
#
# Compressibility (1/GPa) = 0.01714930
#
# Stress axis : x y z
#
# Youngs Moduli (GPa) = 57.00023 99.71083 99.71595
#
# Poissons Ratio (x) = 0.33017 0.43108
# Poissons Ratio (y) = 0.18874 0.25843
# Poissons Ratio (z) = 0.24642 0.25842
#
# Static dielectric constant tensor:
#      x y z
#    x 3.660230 0.000000 0.034040 
#    y 0.000000 3.728270 0.000000 
#    z 0.034040 0.000000 3.907650 
# 
# 
# High freq. dielectric constant tensor:
#      x y z
#    x 1.794720 0.000000 0.000390 
#    y 0.000000 1.808430 0.000000 
#    z 0.000390 0.000000 1.825690 
# 
# From -- ./inp_files/201297.got.cif
#   From: 2010.06.25/outbox.cif.g09.slc.cpg/sg15_101_cif.got.tgz:201297.got - 2010.06.28 07:06:18.
