data_PCOD8143494
_publ_section_title
;
Structure prediction by ZEFSAII (Michael W. Deem and Ramdas Pophale) SiO2 
 PCOD8143494
Probable space group: C 2/C
;
_chemical_formula_sum "Si O2"
_cell_formula_units_Z 64
_cell_length_a 31.617678
_cell_length_b 8.866848
_cell_length_c 24.312984
_cell_angle_alpha 90.000000
_cell_angle_beta 154.625107
_cell_angle_gamma 90.000000
_cell_volume 2920.976791
_symmetry_space_group_name_H-M "C 2/C"
_symmetry_group_IT_number 15
_symmetry_cell_setting 'monoclinic'
loop_
_space_group_symop_operation_xyz
x,y,z
-x,y,1/2-z
-x,-y,-z
x,-y,1/2+z
1/2+x,1/2+y,z
1/2-x,1/2+y,1/2-z
1/2-x,1/2-y,-z
1/2+x,1/2-y,1/2+z
loop_
_atom_site_type_symbol
_atom_site_label
_atom_site_fract_x
_atom_site_fract_y
_atom_site_fract_z
Si Si1 0.192036 0.274183 0.807074
Si Si2 0.501696 0.231543 0.587965
Si Si3 0.006236 0.603840 0.407976
Si Si4 0.676577 0.602338 0.674829
Si Si5 0.343315 0.347083 0.123091
Si Si6 0.079436 0.199400 0.897560
Si Si7 0.359774 0.256556 0.847598
Si Si8 0.538551 0.602231 0.239006
O O1 0.191645 0.187826 0.749612
O O2 0.140758 0.167482 0.793036
O O3 0.111209 0.409546 0.714683
O O4 0.303392 0.323694 0.951871
O O5 0.423429 0.348715 0.472133
O O6 0.598199 0.239163 0.663881
O O7 0.536310 0.273323 0.689811
O O8 0.453243 0.065442 0.535409
O O9 0.033056 0.661037 0.377651
O O10 0.056504 0.716991 0.509852
O O11 0.677347 0.424856 0.685026
O O12 0.768355 0.641906 0.743682
O O13 0.425591 0.277600 0.176443
O O14 0.350176 0.529652 0.121219
O O15 0.250000 0.250000 0.000000
O O16 0.027637 0.044027 0.855695
O O17 0.500000 0.678474 0.250000
#
# Coordination Sequence:
#
# PCOD8143494 Si02
#       8
#     8   8   8   8   8   8   8   8
#     4  11  22  38  67  97 130 169 224 275 329 397
#     4  12  27  43  65  96 138 177 221 276 342 398
#     4  12  24  41  65  96 134 177 224 278 331 400
#     4  12  26  41  69  97 132 176 225 278 337 401
#     4   9  19  37  68  98 122 165 220 273 326 391
#     4  10  21  40  68  96 130 170 223 275 329 398
#     4  12  26  44  66  96 134 177 225 277 337 400
#     4  10  21  44  69  95 131 177 222 278 334 395
#
# _framework density 21.91048
#
# number of rings (size 3 to 8) (size 9 to 14) (size 15 to 20)
#    0.000    1.000    3.750    3.000    1.750    0.000 
#    2.250    0.000    0.000    3.000    0.000    0.000 
#    0.000    0.000    0.000    0.000    0.000    0.000 
#
# Total GULP energy -396422.723076 kJ/mol
# GULP energy per Si atom -12388.210096 kJ/mol
# Density = 2.186061 g / cm^3
# Si number density = 21.910480 Si / 1000 Ang^3
#
#
#
# Elastic Constant Matrix: (Units=GPa)
#
#
# Indices 1 2 3 4 5 6 
#
# 1 163.9501 39.2974 46.8397 0.0000 -1.8025 0.0000
# 2 39.2974 78.4483 8.5434 0.0000 -6.1417 0.0000
# 3 46.8397 8.5434 60.8816 0.0000 10.0943 0.0000
# 4 0.0000 0.0000 0.0000 30.1259 0.0000 -2.3996
# 5 -1.8025 -6.1417 10.0943 0.0000 45.5298 0.0000
# 6 0.0000 0.0000 0.0000 -2.3996 0.0000 28.6579
#
#
#
# Elastic Compliance Matrix: (Units=1/GPa)
#
#
# Indices 1 2 3 4 5 6 
#
# 1 0.008841 -0.003617 -0.006511 0.000000 0.001305 0.000000
# 2 -0.003617 0.014647 0.000440 0.000000 0.001735 0.000000
# 3 -0.006511 0.000440 0.022222 0.000000 -0.005125 0.000000
# 4 0.000000 0.000000 0.000000 0.033417 0.000000 0.002798
# 5 0.001305 0.001735 -0.005125 0.000000 0.023386 0.000000
# 6 0.000000 0.000000 0.000000 0.002798 0.000000 0.035129
#
#
# Mechanical properties :
#
#
# Convention : Reuss Voigt Hill
#
# Bulk Modulus (GPa) = 37.97319 54.73791 46.35555
# Shear Modulus (GPa) = 30.15754 34.76936 32.46345
#
# Velocity S-wave (km/s) = 3.71401 3.98789 3.85338
# Velocity P-wave (km/s) = 5.98001 6.80008 6.40319
#
# Compressibility (1/GPa) = 0.02633437
#
# Stress axis : x y z
#
# Youngs Moduli (GPa) = 113.11082 68.27211 44.99974
#
# Poissons Ratio (x) = 0.24697 0.29298
# Poissons Ratio (y) = 0.40917 -0.01980
# Poissons Ratio (z) = 0.73642 -0.03004
#
# Static dielectric constant tensor:
#      x y z
#    x 4.872400 0.000000 0.081760 
#    y 0.000000 3.744020 0.000000 
#    z 0.081760 0.000000 4.425980 
# 
# 
# High freq. dielectric constant tensor:
#      x y z
#    x 1.896200 0.000000 0.006020 
#    y 0.000000 1.832880 0.000000 
#    z 0.006020 0.000000 1.867380 
# 
# From -- ./inp_files/284462.got.cif
#   From: 2010.06.25/outbox.cif.g09.slc.cpg/sg15_143_cif.got.tgz:284462.got - 2010.06.28 07:06:18.
