data_PCOD8143218
_publ_section_title
;
Structure prediction by ZEFSAII (Michael W. Deem and Ramdas Pophale) SiO2 
 PCOD8143218
Probable space group: C 2/C
;
_chemical_formula_sum "Si O2"
_cell_formula_units_Z 36
_cell_length_a 19.883089
_cell_length_b 8.533858
_cell_length_c 14.228190
_cell_angle_alpha 90.000000
_cell_angle_beta 46.581324
_cell_angle_gamma 90.000000
_cell_volume 1753.578720
_symmetry_space_group_name_H-M "C 2/C"
_symmetry_group_IT_number 15
_symmetry_cell_setting 'monoclinic'
loop_
_space_group_symop_operation_xyz
x,y,z
-x,y,1/2-z
-x,-y,-z
x,-y,1/2+z
1/2+x,1/2+y,z
1/2-x,1/2+y,1/2-z
1/2-x,1/2-y,-z
1/2+x,1/2-y,1/2+z
loop_
_atom_site_type_symbol
_atom_site_label
_atom_site_fract_x
_atom_site_fract_y
_atom_site_fract_z
Si Si1 0.452956 0.371973 0.637692
Si Si2 0.203495 0.337951 0.131105
Si Si3 0.000000 0.888096 0.250000
Si Si4 0.136757 0.852143 0.368727
Si Si5 0.832675 0.693953 0.358406
O O1 0.391022 0.248639 0.751607
O O2 0.499149 0.501993 0.660075
O O3 0.539444 0.283309 0.504061
O O4 0.384708 0.464976 0.632346
O O5 0.278054 0.344149 0.142174
O O6 0.167104 0.507451 0.137713
O O7 0.250000 0.250000 0.000000
O O8 0.084238 0.769154 0.163853
O O9 0.168251 0.754359 0.247801
O O10 0.750000 0.750000 0.500000
#
# Coordination Sequence:
#
# PCOD8143218 Si02
#       5
#     8   8   4   8   8
#     4  10  21  40  64  89 126 167 205 255 309 365
#     4  12  24  39  65  96 125 162 210 258 306 368
#     4  10  22  42  62  88 128 166 204 252 312 370
#     4  10  22  41  63  89 125 166 205 254 313 368
#     4  11  24  41  64  92 126 166 205 254 310 370
#
# _framework density 20.529446
#
# number of rings (size 3 to 8) (size 9 to 14) (size 15 to 20)
#    0.000    1.333    0.000    6.667    0.000    7.111 
#    0.000    0.000    0.000    0.000    0.000    0.000 
#    0.000    0.000    0.000    0.000    0.000    0.000 
#
# Total GULP energy -223124.209711 kJ/mol
# GULP energy per Si atom -12395.789428 kJ/mol
# Density = 2.048272 g / cm^3
# Si number density = 20.529446 Si / 1000 Ang^3
#
#
#
# Elastic Constant Matrix: (Units=GPa)
#
#
# Indices 1 2 3 4 5 6 
#
# 1 135.2644 63.7655 58.4980 0.0001 -5.8034 -0.0001
# 2 63.7655 146.7698 88.5310 0.0002 -6.6081 -0.0004
# 3 58.4980 88.5310 202.1783 0.0000 -7.3087 -0.0001
# 4 0.0001 0.0002 0.0000 40.4955 0.0000 -3.0089
# 5 -5.8034 -6.6081 -7.3087 0.0000 28.8964 0.0000
# 6 -0.0001 -0.0004 -0.0001 -3.0089 0.0000 27.2676
#
#
#
# Elastic Compliance Matrix: (Units=1/GPa)
#
#
# Indices 1 2 3 4 5 6 
#
# 1 0.009556 -0.003349 -0.001268 0.000000 0.000833 0.000000
# 2 -0.003349 0.010468 -0.003585 0.000000 0.000814 0.000000
# 3 -0.001268 -0.003585 0.006907 0.000000 0.000672 0.000000
# 4 0.000000 0.000000 0.000000 0.024898 0.000000 0.002747
# 5 0.000833 0.000814 0.000672 0.000000 0.035130 0.000000
# 6 0.000000 0.000000 0.000000 0.002747 0.000000 0.036977
#
#
# Mechanical properties :
#
#
# Convention : Reuss Voigt Hill
#
# Bulk Modulus (GPa) = 95.00520 100.64459 97.82490
# Shear Modulus (GPa) = 34.75850 37.55976 36.15913
#
# Velocity S-wave (km/s) = 4.11920 4.28197 4.20137
# Velocity P-wave (km/s) = 8.30673 8.57776 8.44333
#
# Compressibility (1/GPa) = 0.01052574
#
# Stress axis : x y z
#
# Youngs Moduli (GPa) = 104.64643 95.53189 144.77462
#
# Poissons Ratio (x) = 0.31996 0.18361
# Poissons Ratio (y) = 0.35048 0.51904
# Poissons Ratio (z) = 0.13272 0.34250
#
# Static dielectric constant tensor:
#      x y z
#    x 3.885190 0.000000 0.032630 
#    y 0.000000 3.670800 0.000000 
#    z 0.032630 0.000000 3.987330 
# 
# 
# High freq. dielectric constant tensor:
#      x y z
#    x 1.813260 0.000000 -0.001590 
#    y 0.000000 1.795510 0.000000 
#    z -0.001590 0.000000 1.827500 
# 
# From -- ./inp_files/159581.got.cif
#   From: 2010.06.25/outbox.cif.g09.slc.cpg/sg15_80_cif.got.tgz:159581.got - 2010.06.28 07:06:18.
