data_PCOD8143409
_publ_section_title
;
Structure prediction by ZEFSAII (Michael W. Deem and Ramdas Pophale) SiO2 
 PCOD8143409
Probable space group: C 2/C
;
_chemical_formula_sum "Si O2"
_cell_formula_units_Z 40
_cell_length_a 11.182907
_cell_length_b 26.576276
_cell_length_c 5.515682
_cell_angle_alpha 90.000000
_cell_angle_beta 88.776850
_cell_angle_gamma 90.000000
_cell_volume 1638.887295
_symmetry_space_group_name_H-M "C 2/C"
_symmetry_group_IT_number 15
_symmetry_cell_setting 'monoclinic'
loop_
_space_group_symop_operation_xyz
x,y,z
-x,y,1/2-z
-x,-y,-z
x,-y,1/2+z
1/2+x,1/2+y,z
1/2-x,1/2+y,1/2-z
1/2-x,1/2-y,-z
1/2+x,1/2-y,1/2+z
loop_
_atom_site_type_symbol
_atom_site_label
_atom_site_fract_x
_atom_site_fract_y
_atom_site_fract_z
Si Si1 0.637647 0.481887 0.485845
Si Si2 0.500000 0.844695 0.750000
Si Si3 0.793198 0.306564 0.490913
Si Si4 0.185515 0.390542 0.392410
Si Si5 0.500000 0.967730 0.250000
Si Si6 0.363057 0.383712 0.767174
O O1 0.500000 0.500000 0.500000
O O2 0.700880 0.497372 0.230834
O O3 0.650037 0.421426 0.502464
O O4 0.430802 0.808119 0.567897
O O5 0.589765 0.881363 0.608405
O O6 0.750000 0.250000 0.500000
O O7 0.784048 0.337545 0.241060
O O8 0.709413 0.332987 0.692635
O O9 0.121151 0.432895 0.227807
O O10 0.309492 0.409173 0.520912
O O11 0.500000 0.000000 0.500000
O O12 0.500000 0.368899 0.750000
#
# Coordination Sequence:
#
# PCOD8143409 Si02
#       6
#     8   4   8   8   4   8
#     4  10  21  40  66  95 146 200 238 287 367 445
#     4  10  21  48  76 100 152 188 254 319 392 446
#     4  11  26  45  77 107 143 201 252 320 390 448
#     4  11  25  47  76 106 154 196 253 330 376 462
#     4  12  27  48  82 116 150 202 272 323 394 458
#     4  11  26  43  69 109 156 197 248 306 384 465
#
# _framework density 24.406804000000001
#
# number of rings (size 3 to 8) (size 9 to 14) (size 15 to 20)
#    0.000    1.200    4.000    0.600    5.600    8.800 
#    0.000    0.000    0.000    0.000    0.000    0.000 
#    0.000    0.000    0.000    0.000    0.000    0.000 
#
# Total GULP energy -247864.947194 kJ/mol
# GULP energy per Si atom -12393.247360 kJ/mol
# Density = 2.435125 g / cm^3
# Si number density = 24.406804 Si / 1000 Ang^3
#
#
#
# Elastic Constant Matrix: (Units=GPa)
#
#
# Indices 1 2 3 4 5 6 
#
# 1 117.4783 26.9380 36.9810 0.0000 35.5999 0.0000
# 2 26.9380 141.6387 46.5803 0.0000 12.1419 0.0000
# 3 36.9810 46.5803 160.4083 0.0000 14.2391 0.0000
# 4 0.0000 0.0000 0.0000 37.6808 0.0000 -5.7205
# 5 35.5999 12.1419 14.2391 0.0000 44.4638 0.0000
# 6 0.0000 0.0000 0.0000 -5.7205 0.0000 35.9494
#
#
#
# Elastic Compliance Matrix: (Units=1/GPa)
#
#
# Indices 1 2 3 4 5 6 
#
# 1 0.011911 -0.000960 -0.001692 0.000000 -0.008733 0.000000
# 2 -0.000960 0.007975 -0.002027 0.000000 -0.000760 0.000000
# 3 -0.001692 -0.002027 0.007249 0.000000 -0.000413 0.000000
# 4 0.000000 0.000000 0.000000 0.027196 0.000000 0.004328
# 5 -0.008733 -0.000760 -0.000413 0.000000 0.029822 0.000000
# 6 0.000000 0.000000 0.000000 0.004328 0.000000 0.028506
#
#
# Mechanical properties :
#
#
# Convention : Reuss Voigt Hill
#
# Bulk Modulus (GPa) = 56.25278 71.16932 63.71105
# Shear Modulus (GPa) = 39.08003 44.22052 41.65027
#
# Velocity S-wave (km/s) = 4.00583 4.26116 4.13547
# Velocity P-wave (km/s) = 6.67035 7.30978 6.99737
#
# Compressibility (1/GPa) = 0.01777690
#
# Stress axis : x y z
#
# Youngs Moduli (GPa) = 83.95340 125.39885 137.94164
#
# Poissons Ratio (x) = 0.12042 0.23340
# Poissons Ratio (y) = 0.08062 0.27959
# Poissons Ratio (z) = 0.14205 0.25417
#
# Static dielectric constant tensor:
#      x y z
#    x 4.651140 0.000000 0.293680 
#    y 0.000000 4.144070 0.000000 
#    z 0.293680 0.000000 5.181620 
# 
# 
# High freq. dielectric constant tensor:
#      x y z
#    x 1.976860 0.000000 0.010890 
#    y 0.000000 1.954290 0.000000 
#    z 0.010890 0.000000 1.987710 
# 
# From -- ./inp_files/5100.got.cif
#   From: 2010.06.25/outbox.cif.g09.slc.cpg/sg15_3_cif.got.tgz:5100.got - 2010.06.28 07:06:18.
