data_PCOD8143806
_publ_section_title
;
Structure prediction by ZEFSAII (Michael W. Deem and Ramdas Pophale) SiO2 
 PCOD8143806
Probable space group: C 2/C
;
_chemical_formula_sum "Si O2"
_cell_formula_units_Z 60
_cell_length_a 9.793620
_cell_length_b 17.986103
_cell_length_c 20.258103
_cell_angle_alpha 90.000000
_cell_angle_beta 130.098020
_cell_angle_gamma 90.000000
_cell_volume 2729.659961
_symmetry_space_group_name_H-M "C 2/C"
_symmetry_group_IT_number 15
_symmetry_cell_setting 'monoclinic'
loop_
_space_group_symop_operation_xyz
x,y,z
-x,y,1/2-z
-x,-y,-z
x,-y,1/2+z
1/2+x,1/2+y,z
1/2-x,1/2+y,1/2-z
1/2-x,1/2-y,-z
1/2+x,1/2-y,1/2+z
loop_
_atom_site_type_symbol
_atom_site_label
_atom_site_fract_x
_atom_site_fract_y
_atom_site_fract_z
Si Si1 0.858903 0.034059 0.153453
Si Si2 0.149253 0.186910 0.406701
Si Si3 0.337989 0.650129 0.410368
Si Si4 0.324941 0.302427 0.150913
Si Si5 0.960727 0.334692 0.095736
Si Si6 0.006147 0.499772 0.115157
Si Si7 0.674531 0.577423 0.961118
Si Si8 0.500000 0.931982 0.750000
O O1 0.856329 0.124238 0.151982
O O2 0.673395 0.997505 0.118155
O O3 0.000000 0.005605 0.250000
O O4 0.905917 0.998966 0.095821
O O5 0.094615 0.271380 0.366221
O O6 0.351663 0.190045 0.496427
O O7 0.009586 0.162934 0.419278
O O8 0.247986 0.727288 0.405747
O O9 0.410904 0.602357 0.495726
O O10 0.180193 0.612532 0.319880
O O11 0.500000 0.289266 0.250000
O O12 0.360309 0.358667 0.102709
O O13 0.172741 0.333855 0.151983
O O14 0.907896 0.419868 0.093280
O O15 0.059826 0.520148 0.205847
O O16 0.880756 0.561833 0.042895
#
# Coordination Sequence:
#
# PCOD8143806 Si02
#       8
#     8   8   8   8   8   8   8   4
#     4  12  23  39  64  97 130 166 217 272 325 385
#     4  10  22  41  63  90 128 175 212 259 330 391
#     4  10  22  41  63  90 131 168 211 266 326 385
#     4  11  21  39  66  95 128 163 216 276 322 378
#     4  10  21  41  65  88 128 168 209 270 321 387
#     4  11  22  42  66  91 128 167 216 270 325 391
#     4  11  22  37  65  96 121 169 221 258 322 388
#     4  10  22  42  64  94 122 166 206 276 322 376
#
# _framework density 21.980758999999999
#
# number of rings (size 3 to 8) (size 9 to 14) (size 15 to 20)
#    0.000    1.333    3.333    2.800    0.000    0.533 
#    3.600    0.000    0.000    0.000    0.000    0.000 
#    0.000    0.000    0.000    0.000    0.000    0.000 
#
# Total GULP energy -371696.213512 kJ/mol
# GULP energy per Si atom -12389.873784 kJ/mol
# Density = 2.193073 g / cm^3
# Si number density = 21.980759 Si / 1000 Ang^3
#
#
#
# Elastic Constant Matrix: (Units=GPa)
#
#
# Indices 1 2 3 4 5 6 
#
# 1 51.7330 19.6188 24.9024 0.0000 8.4110 0.0000
# 2 19.6188 124.7060 14.9346 0.0000 -12.2505 0.0000
# 3 24.9024 14.9346 96.3434 0.0000 -2.9588 0.0000
# 4 0.0000 0.0000 0.0000 22.3013 0.0000 -3.9564
# 5 8.4110 -12.2505 -2.9588 0.0000 30.5905 0.0000
# 6 0.0000 0.0000 0.0000 -3.9564 0.0000 30.2398
#
#
#
# Elastic Compliance Matrix: (Units=1/GPa)
#
#
# Indices 1 2 3 4 5 6 
#
# 1 0.025398 -0.004161 -0.006204 0.000000 -0.009250 0.000000
# 2 -0.004161 0.009168 -0.000198 0.000000 0.004797 0.000000
# 3 -0.006204 -0.000198 0.012100 0.000000 0.002797 0.000000
# 4 0.000000 0.000000 0.000000 0.045906 0.000000 0.006006
# 5 -0.009250 0.004797 0.002797 0.000000 0.037425 0.000000
# 6 0.000000 0.000000 0.000000 0.006006 0.000000 0.033855
#
#
# Mechanical properties :
#
#
# Convention : Reuss Voigt Hill
#
# Bulk Modulus (GPa) = 39.15512 43.52155 41.33833
# Shear Modulus (GPa) = 25.84088 30.84811 28.34449
#
# Velocity S-wave (km/s) = 3.43244 3.75028 3.59488
# Velocity P-wave (km/s) = 5.79318 6.21254 6.00652
#
# Compressibility (1/GPa) = 0.02553944
#
# Stress axis : x y z
#
# Youngs Moduli (GPa) = 39.37271 109.06932 82.64669
#
# Poissons Ratio (x) = 0.45388 0.51273
# Poissons Ratio (y) = 0.16384 0.01639
# Poissons Ratio (z) = 0.24426 0.02163
#
# Static dielectric constant tensor:
#      x y z
#    x 3.661190 0.000000 0.099500 
#    y 0.000000 4.496910 0.000000 
#    z 0.099500 0.000000 3.913860 
# 
# 
# High freq. dielectric constant tensor:
#      x y z
#    x 1.834160 0.000000 0.017890 
#    y 0.000000 1.888720 0.000000 
#    z 0.017890 0.000000 1.861100 
# 
# From -- ./inp_files/239978.got.cif
#   From: 2010.06.25/outbox.cif.g09.slc.cpg/sg15_120_cif.got.tgz:239978.got - 2010.06.28 07:06:18.
