data_PCOD8143393
_publ_section_title
;
Structure prediction by ZEFSAII (Michael W. Deem and Ramdas Pophale) SiO2 
 PCOD8143393
Probable space group: C 2/C
;
_chemical_formula_sum "Si O2"
_cell_formula_units_Z 40
_cell_length_a 16.789357
_cell_length_b 9.701043
_cell_length_c 27.173232
_cell_angle_alpha 90.000000
_cell_angle_beta 155.138071
_cell_angle_gamma 90.000000
_cell_volume 1860.761063
_symmetry_space_group_name_H-M "C 2/C"
_symmetry_group_IT_number 15
_symmetry_cell_setting 'monoclinic'
loop_
_space_group_symop_operation_xyz
x,y,z
-x,y,1/2-z
-x,-y,-z
x,-y,1/2+z
1/2+x,1/2+y,z
1/2-x,1/2+y,1/2-z
1/2-x,1/2-y,-z
1/2+x,1/2-y,1/2+z
loop_
_atom_site_type_symbol
_atom_site_label
_atom_site_fract_x
_atom_site_fract_y
_atom_site_fract_z
Si Si1 0.876154 0.902115 0.105022
Si Si2 0.481476 0.192446 0.386546
Si Si3 0.000000 0.127561 0.250000
Si Si4 0.793221 0.075377 0.341413
Si Si5 0.638177 0.710753 0.583165
Si Si6 0.500000 0.185956 0.250000
O O1 0.882386 0.776189 0.146203
O O2 0.984877 0.849022 0.116710
O O3 0.651925 0.913704 0.967692
O O4 0.965181 0.037409 0.180753
O O5 0.290364 0.130773 0.256263
O O6 0.458876 0.183074 0.433059
O O7 0.182562 0.222778 0.343679
O O8 0.655129 0.094700 0.310219
O O9 0.991876 0.156257 0.460081
O O10 0.812179 0.911488 0.350929
#
# Coordination Sequence:
#
# PCOD8143393 Si02
#       6
#     8   8   4   8   8   4
#     4   9  20  39  63  92 122 157 214 265 309 386
#     4  10  21  40  66  93 120 174 214 257 323 381
#     4  11  25  42  64  96 135 167 214 274 322 365
#     4  10  22  39  64  88 130 166 213 262 316 394
#     4  11  24  41  61  95 129 172 211 265 325 377
#     4   9  15  38  62  86 115 165 198 252 318 371
#
# _framework density 21.496580999999999
#
# number of rings (size 3 to 8) (size 9 to 14) (size 15 to 20)
#    0.000    2.000    2.000    0.600    2.800    2.400 
#    0.000    2.000    0.000    0.000    0.000    0.000 
#    0.000    0.000    0.000    0.000    0.000    0.000 
#
# Total GULP energy -247865.832343 kJ/mol
# GULP energy per Si atom -12393.291617 kJ/mol
# Density = 2.144765 g / cm^3
# Si number density = 21.496581 Si / 1000 Ang^3
#
#
#
# Elastic Constant Matrix: (Units=GPa)
#
#
# Indices 1 2 3 4 5 6 
#
# 1 57.2873 -0.0465 8.8950 -0.0001 7.9534 0.0008
# 2 -0.0465 59.9453 43.9366 0.0023 -0.0137 0.0008
# 3 8.8950 43.9366 112.9090 0.0141 10.4217 -0.0034
# 4 -0.0001 0.0023 0.0141 30.4986 -0.0010 6.2459
# 5 7.9534 -0.0137 10.4217 -0.0010 29.1155 0.0002
# 6 0.0008 0.0008 -0.0034 6.2459 0.0002 5.2138
#
#
#
# Elastic Compliance Matrix: (Units=1/GPa)
#
#
# Indices 1 2 3 4 5 6 
#
# 1 0.018303 0.001073 -0.001446 0.000002 -0.004482 -0.000006
# 2 0.001073 0.023726 -0.009609 0.000006 0.003157 -0.000018
# 3 -0.001446 -0.009609 0.013107 -0.000010 -0.004301 0.000022
# 4 0.000002 0.000006 -0.000010 0.043448 0.000005 -0.052048
# 5 -0.004482 0.003157 -0.004301 0.000005 0.037111 -0.000010
# 6 -0.000006 -0.000018 0.000022 -0.052048 -0.000010 0.254149
#
#
# Mechanical properties :
#
#
# Convention : Reuss Voigt Hill
#
# Bulk Modulus (GPa) = 28.43078 37.30132 32.86605
# Shear Modulus (GPa) = 11.86153 24.78935 18.32544
#
# Velocity S-wave (km/s) = 2.35156 3.39953 2.92290
# Velocity P-wave (km/s) = 4.54176 5.72704 5.16849
#
# Compressibility (1/GPa) = 0.03517314
#
# Stress axis : x y z
#
# Youngs Moduli (GPa) = 54.63443 42.14794 76.29762
#
# Poissons Ratio (x) = -0.04522 0.11031
# Poissons Ratio (y) = -0.05861 0.73311
# Poissons Ratio (z) = 0.07899 0.40498
#
# Static dielectric constant tensor:
#      x y z
#    x 4.123150 0.000000 -0.016250 
#    y 0.000000 3.636370 -0.000010 
#    z -0.016250 -0.000010 4.015440 
# 
# 
# High freq. dielectric constant tensor:
#      x y z
#    x 1.839940 0.000000 0.000760 
#    y 0.000000 1.814560 0.000000 
#    z 0.000760 0.000000 1.858820 
# 
# From -- ./inp_files/103588.got.cif
#   From: 2010.06.25/outbox.cif.g09.slc.cpg/sg15_52_cif.got.tgz:103588.got - 2010.06.28 07:06:18.
