data_PCOD8143100
_publ_section_title
;
Structure prediction by ZEFSAII (Michael W. Deem and Ramdas Pophale) SiO2 
 PCOD8143100
Probable space group: C 2/C
;
_chemical_formula_sum "Si O2"
_cell_formula_units_Z 60
_cell_length_a 20.817877
_cell_length_b 8.214535
_cell_length_c 17.261521
_cell_angle_alpha 90.000000
_cell_angle_beta 73.540308
_cell_angle_gamma 90.000000
_cell_volume 2830.908503
_symmetry_space_group_name_H-M "C 2/C"
_symmetry_group_IT_number 15
_symmetry_cell_setting 'monoclinic'
loop_
_space_group_symop_operation_xyz
x,y,z
-x,y,1/2-z
-x,-y,-z
x,-y,1/2+z
1/2+x,1/2+y,z
1/2-x,1/2+y,1/2-z
1/2-x,1/2-y,-z
1/2+x,1/2-y,1/2+z
loop_
_atom_site_type_symbol
_atom_site_label
_atom_site_fract_x
_atom_site_fract_y
_atom_site_fract_z
Si Si1 0.000000 0.549554 0.250000
Si Si2 0.245967 0.911883 0.135760
Si Si3 0.518849 0.272034 0.100085
Si Si4 0.385510 0.696126 0.564673
Si Si5 0.632165 0.874371 0.162485
Si Si6 0.371787 0.959306 0.995937
Si Si7 0.258503 0.263659 0.205143
Si Si8 0.622260 0.469408 0.591943
O O1 0.991841 0.656309 0.176412
O O2 0.066796 0.441199 0.227918
O O3 0.237959 0.770278 0.202556
O O4 0.250136 0.079653 0.181300
O O5 0.183312 0.917660 0.099252
O O6 0.310183 0.875029 0.060961
O O7 0.457309 0.350942 0.074740
O O8 0.567806 0.170214 0.026448
O O9 0.556024 0.424535 0.125661
O O10 0.327770 0.667656 0.647405
O O11 0.366212 0.577631 0.501166
O O12 0.393759 0.882600 0.535872
O O13 0.696179 0.873601 0.197048
O O14 0.614303 0.691384 0.145022
O O15 0.650389 0.986951 0.082685
#
# Coordination Sequence:
#
# PCOD8143100 Si02
#       8
#     4   8   8   8   8   8   8   8
#     4  10  24  38  62  86 120 162 206 252 308 362
#     4  10  22  39  61  91 121 162 205 256 303 357
#     4  11  23  37  63  92 122 162 204 257 297 363
#     4  10  21  40  62  87 125 164 202 249 306 368
#     4   9  20  42  60  86 118 164 199 246 314 367
#     4   9  20  39  63  87 117 160 208 250 291 368
#     4  10  22  37  62  88 120 159 203 255 305 357
#     4  10  22  40  60  90 124 160 204 252 314 357
#
# _framework density 21.194610999999998
#
# number of rings (size 3 to 8) (size 9 to 14) (size 15 to 20)
#    0.000    2.133    0.000    1.600    5.600    6.400 
#    2.400    0.000    0.000    0.000    0.000    0.000 
#    0.000    0.000    0.000    0.000    0.000    0.000 
#
# Total GULP energy -372092.896236 kJ/mol
# GULP energy per Si atom -12403.096541 kJ/mol
# Density = 2.114637 g / cm^3
# Si number density = 21.194611 Si / 1000 Ang^3
#
#
#
# Elastic Constant Matrix: (Units=GPa)
#
#
# Indices 1 2 3 4 5 6 
#
# 1 158.3839 28.8517 59.9146 0.0000 -2.8452 0.0000
# 2 28.8517 42.6058 27.4042 0.0000 -7.0381 0.0000
# 3 59.9146 27.4042 128.4139 0.0000 -14.0216 0.0000
# 4 0.0000 0.0000 0.0000 22.7304 0.0000 1.4595
# 5 -2.8452 -7.0381 -14.0216 0.0000 30.1675 0.0000
# 6 0.0000 0.0000 0.0000 1.4595 0.0000 27.9300
#
#
#
# Elastic Compliance Matrix: (Units=1/GPa)
#
#
# Indices 1 2 3 4 5 6 
#
# 1 0.008173 -0.003747 -0.003187 0.000000 -0.001585 0.000000
# 2 -0.003747 0.029353 -0.004010 0.000000 0.004631 0.000000
# 3 -0.003187 -0.004010 0.010529 0.000000 0.003658 0.000000
# 4 0.000000 0.000000 0.000000 0.044142 0.000000 -0.002307
# 5 -0.001585 0.004631 0.003658 0.000000 0.035779 0.000000
# 6 0.000000 0.000000 0.000000 -0.002307 0.000000 0.035924
#
#
# Mechanical properties :
#
#
# Convention : Reuss Voigt Hill
#
# Bulk Modulus (GPa) = 38.21524 62.41608 50.31566
# Shear Modulus (GPa) = 25.70542 30.38110 28.04326
#
# Velocity S-wave (km/s) = 3.48635 3.79018 3.64143
# Velocity P-wave (km/s) = 5.85456 6.97617 6.43983
#
# Compressibility (1/GPa) = 0.02616757
#
# Stress axis : x y z
#
# Youngs Moduli (GPa) = 122.34798 34.06862 94.97151
#
# Poissons Ratio (x) = 0.12765 0.30267
# Poissons Ratio (y) = 0.45841 0.38086
# Poissons Ratio (z) = 0.38992 0.13662
#
# Static dielectric constant tensor:
#      x y z
#    x 3.875740 0.000000 -0.010050 
#    y 0.000000 3.718810 0.000000 
#    z -0.010050 0.000000 3.837470 
# 
# 
# High freq. dielectric constant tensor:
#      x y z
#    x 1.838010 0.000000 -0.001350 
#    y 0.000000 1.825450 0.000000 
#    z -0.001350 0.000000 1.831660 
# 
# From -- ./inp_files/213978.got.cif
#   From: 2010.06.25/outbox.cif.g09.slc.cpg/sg15_107_cif.got.tgz:213978.got - 2010.06.28 07:06:18.
