data_PCOD8143405
_publ_section_title
;
Structure prediction by ZEFSAII (Michael W. Deem and Ramdas Pophale) SiO2 
 PCOD8143405
Probable space group: C 2/C
;
_chemical_formula_sum "Si O2"
_cell_formula_units_Z 56
_cell_length_a 17.045855
_cell_length_b 9.259399
_cell_length_c 23.231713
_cell_angle_alpha 90.000000
_cell_angle_beta 127.998207
_cell_angle_gamma 90.000000
_cell_volume 2889.519200
_symmetry_space_group_name_H-M "C 2/C"
_symmetry_group_IT_number 15
_symmetry_cell_setting 'monoclinic'
loop_
_space_group_symop_operation_xyz
x,y,z
-x,y,1/2-z
-x,-y,-z
x,-y,1/2+z
1/2+x,1/2+y,z
1/2-x,1/2+y,1/2-z
1/2-x,1/2-y,-z
1/2+x,1/2-y,1/2+z
loop_
_atom_site_type_symbol
_atom_site_label
_atom_site_fract_x
_atom_site_fract_y
_atom_site_fract_z
Si Si1 0.754631 0.846420 0.323539
Si Si2 0.225573 0.326901 0.929267
Si Si3 0.458785 0.648196 0.123359
Si Si4 0.106164 0.954997 0.025379
Si Si5 0.391841 0.415645 0.185764
Si Si6 0.180475 0.928776 0.735763
Si Si7 0.085245 0.569208 0.830419
O O1 0.850689 0.842766 0.408465
O O2 0.751369 0.705515 0.282568
O O3 0.658977 0.850165 0.320555
O O4 0.758403 0.986046 0.284648
O O5 0.324273 0.402261 0.948310
O O6 0.185146 0.204397 0.869163
O O7 0.137842 0.446691 0.893114
O O8 0.250000 0.250000 0.000000
O O9 0.409884 0.541740 0.147694
O O10 0.573739 0.615678 0.161952
O O11 0.455263 0.812378 0.143369
O O12 0.397519 0.628042 0.036965
O O13 0.000000 0.000000 0.000000
O O14 0.500000 0.348001 0.250000
O O15 0.336612 0.477672 0.215679
O O16 0.000000 0.504373 0.750000
#
# Coordination Sequence:
#
# PCOD8143405 Si02
#       7
#     8   8   8   8   8   8   8
#     4  11  24  40  66  97 127 171 219 267 323 391
#     4  11  24  40  63  96 129 163 216 266 322 385
#     4  11  20  43  70  88 130 175 212 263 328 394
#     4  11  24  42  63  92 133 172 213 266 330 387
#     4  10  21  40  66  95 125 171 215 262 325 391
#     4  11  23  40  65  95 131 168 217 265 325 392
#     4  11  22  42  67  98 126 164 224 268 316 387
#
# _framework density 19.380386000000001
#
# number of rings (size 3 to 8) (size 9 to 14) (size 15 to 20)
#    0.000    1.143    5.714    0.857    4.000    3.429 
#    2.571    0.000    0.000    2.571    0.000    0.000 
#    0.000    0.000    0.000    0.000    0.000    0.000 
#
# Total GULP energy -347181.877417 kJ/mol
# GULP energy per Si atom -12399.352765 kJ/mol
# Density = 1.933628 g / cm^3
# Si number density = 19.380386 Si / 1000 Ang^3
#
#
#
# Elastic Constant Matrix: (Units=GPa)
#
#
# Indices 1 2 3 4 5 6 
#
# 1 55.5160 21.0482 29.8648 0.0000 6.7000 0.0000
# 2 21.0482 105.5434 64.0380 0.0000 5.7692 0.0000
# 3 29.8648 64.0380 154.4172 0.0000 1.1719 0.0000
# 4 0.0000 0.0000 0.0000 35.1475 0.0000 10.8856
# 5 6.7000 5.7692 1.1719 0.0000 32.3869 0.0000
# 6 0.0000 0.0000 0.0000 10.8856 0.0000 7.5173
#
#
#
# Elastic Compliance Matrix: (Units=1/GPa)
#
#
# Indices 1 2 3 4 5 6 
#
# 1 0.020962 -0.002041 -0.003178 0.000000 -0.003858 0.000000
# 2 -0.002041 0.012999 -0.004983 0.000000 -0.001713 0.000000
# 3 -0.003178 -0.004983 0.009148 0.000000 0.001214 0.000000
# 4 0.000000 0.000000 0.000000 0.051588 0.000000 -0.074702
# 5 -0.003858 -0.001713 0.001214 0.000000 0.031936 0.000000
# 6 0.000000 0.000000 0.000000 -0.074702 0.000000 0.241200
#
#
# Mechanical properties :
#
#
# Convention : Reuss Voigt Hill
#
# Bulk Modulus (GPa) = 44.04507 60.59762 52.32134
# Shear Modulus (GPa) = 12.63246 28.37873 20.50560
#
# Velocity S-wave (km/s) = 2.55584 3.83077 3.25631
# Velocity P-wave (km/s) = 5.61121 7.13455 6.41824
#
# Compressibility (1/GPa) = 0.02270402
#
# Stress axis : x y z
#
# Youngs Moduli (GPa) = 47.70517 76.92993 109.31415
#
# Poissons Ratio (x) = 0.15701 0.34745
# Poissons Ratio (y) = 0.09737 0.54471
# Poissons Ratio (z) = 0.15163 0.38334
#
# Static dielectric constant tensor:
#      x y z
#    x 3.608730 0.000000 0.209340 
#    y 0.000000 3.552960 0.000000 
#    z 0.209340 0.000000 4.136940 
# 
# 
# High freq. dielectric constant tensor:
#      x y z
#    x 1.749380 0.000000 -0.000310 
#    y 0.000000 1.748660 0.000000 
#    z -0.000310 0.000000 1.774200 
# 
# From -- ./inp_files/276636.got.cif
#   From: 2010.06.25/outbox.cif.g09.slc.cpg/sg15_139_cif.got.tgz:276636.got - 2010.06.28 07:06:18.
