data_PCOD8143857
_publ_section_title
;
Structure prediction by ZEFSAII (Michael W. Deem and Ramdas Pophale) SiO2 
 PCOD8143857
Probable space group: C 2/C
;
_chemical_formula_sum "Si O2"
_cell_formula_units_Z 60
_cell_length_a 9.014622
_cell_length_b 16.972795
_cell_length_c 20.585053
_cell_angle_alpha 90.000000
_cell_angle_beta 57.988280
_cell_angle_gamma 90.000000
_cell_volume 2670.655290
_symmetry_space_group_name_H-M "C 2/C"
_symmetry_group_IT_number 15
_symmetry_cell_setting 'monoclinic'
loop_
_space_group_symop_operation_xyz
x,y,z
-x,y,1/2-z
-x,-y,-z
x,-y,1/2+z
1/2+x,1/2+y,z
1/2-x,1/2+y,1/2-z
1/2-x,1/2-y,-z
1/2+x,1/2-y,1/2+z
loop_
_atom_site_type_symbol
_atom_site_label
_atom_site_fract_x
_atom_site_fract_y
_atom_site_fract_z
Si Si1 0.301544 0.984411 0.067023
Si Si2 0.881545 0.827132 0.405912
Si Si3 0.594069 0.084596 0.343928
Si Si4 0.000000 0.490220 0.250000
Si Si5 0.901607 0.111389 0.452224
Si Si6 0.151154 0.197639 0.168134
Si Si7 0.257056 0.366715 0.129816
Si Si8 0.748125 0.664345 0.424842
O O1 0.291246 0.025737 0.139046
O O2 0.156184 0.021769 0.051856
O O3 0.255814 0.892728 0.087251
O O4 0.500000 0.000000 0.000000
O O5 0.839732 0.745420 0.376400
O O6 0.857201 0.809607 0.487519
O O7 0.081365 0.858932 0.356203
O O8 0.672876 0.172054 0.334604
O O9 0.388525 0.095896 0.409173
O O10 0.613537 0.048979 0.267977
O O11 0.864251 0.440554 0.324497
O O12 0.836505 0.165846 0.408445
O O13 0.812304 0.130311 0.541661
O O14 0.111147 0.124390 0.406724
O O15 0.135516 0.290904 0.166988
O O16 0.000000 0.163644 0.250000
#
# Coordination Sequence:
#
# PCOD8143857 Si02
#       8
#     8   8   8   4   8   8   8   8
#     4  11  22  41  65 102 135 174 220 284 341 403
#     4  10  22  39  69  98 140 165 229 282 343 399
#     4  11  25  43  67  92 137 179 220 281 347 408
#     4  12  28  42  70  98 142 178 236 282 350 408
#     4  10  25  39  75 102 136 178 234 278 348 404
#     4  11  24  46  68 100 141 179 226 283 346 414
#     4  11  23  45  67 103 136 183 228 291 331 413
#     4  10  21  41  66 102 130 177 223 283 335 411
#
# _framework density 22.466394999999999
#
# number of rings (size 3 to 8) (size 9 to 14) (size 15 to 20)
#    0.000    1.333    3.333    1.200    3.733    4.267 
#    0.000    0.000    0.000    0.000    0.000    0.000 
#    0.000    0.000    0.000    0.000    0.000    0.000 
#
# Total GULP energy -371771.321947 kJ/mol
# GULP energy per Si atom -12392.377398 kJ/mol
# Density = 2.241526 g / cm^3
# Si number density = 22.466395 Si / 1000 Ang^3
#
#
#
# Elastic Constant Matrix: (Units=GPa)
#
#
# Indices 1 2 3 4 5 6 
#
# 1 144.2044 54.6143 33.5605 0.0000 0.5972 0.0002
# 2 54.6143 99.9434 14.3353 0.0000 7.7620 0.0001
# 3 33.5605 14.3353 84.1250 0.0000 5.4028 0.0000
# 4 0.0000 0.0000 0.0000 21.2029 0.0000 -2.1272
# 5 0.5972 7.7620 5.4028 0.0000 29.3458 0.0000
# 6 0.0002 0.0001 0.0000 -2.1272 0.0000 36.1055
#
#
#
# Elastic Compliance Matrix: (Units=1/GPa)
#
#
# Indices 1 2 3 4 5 6 
#
# 1 0.009486 -0.004873 -0.003060 0.000000 0.001659 0.000000
# 2 -0.004873 0.012933 -0.000047 0.000000 -0.003313 0.000000
# 3 -0.003060 -0.000047 0.013268 0.000000 -0.002368 0.000000
# 4 0.000000 0.000000 0.000000 0.047444 0.000000 0.002795
# 5 0.001659 -0.003313 -0.002368 0.000000 0.035355 0.000000
# 6 0.000000 0.000000 0.000000 0.002795 0.000000 0.027861
#
#
# Mechanical properties :
#
#
# Convention : Reuss Voigt Hill
#
# Bulk Modulus (GPa) = 50.69623 59.25477 54.97550
# Shear Modulus (GPa) = 29.60638 32.38169 30.99404
#
# Velocity S-wave (km/s) = 3.63410 3.80062 3.71829
# Velocity P-wave (km/s) = 6.34218 6.75956 6.55419
#
# Compressibility (1/GPa) = 0.01972533
#
# Stress axis : x y z
#
# Youngs Moduli (GPa) = 105.42263 77.32313 75.36924
#
# Poissons Ratio (x) = 0.37682 0.23065
# Poissons Ratio (y) = 0.51376 0.00353
# Poissons Ratio (z) = 0.32262 0.00362
#
# Static dielectric constant tensor:
#      x y z
#    x 4.239920 0.000000 -0.017730 
#    y 0.000000 4.137620 0.000000 
#    z -0.017730 0.000000 3.676960 
# 
# 
# High freq. dielectric constant tensor:
#      x y z
#    x 1.893160 0.000000 -0.007620 
#    y 0.000000 1.893360 0.000000 
#    z -0.007620 0.000000 1.858220 
# 
# From -- ./inp_files/233052.got.cif
#   From: 2010.06.25/outbox.cif.g09.slc.cpg/sg15_117_cif.got.tgz:233052.got - 2010.06.28 07:06:18.
