data_PCOD8143827
_publ_section_title
;
Structure prediction by ZEFSAII (Michael W. Deem and Ramdas Pophale) SiO2 
 PCOD8143827
Probable space group: C 2/C
;
_chemical_formula_sum "Si O2"
_cell_formula_units_Z 36
_cell_length_a 7.585245
_cell_length_b 16.230727
_cell_length_c 19.811486
_cell_angle_alpha 90.000000
_cell_angle_beta 138.304121
_cell_angle_gamma 90.000000
_cell_volume 1622.413808
_symmetry_space_group_name_H-M "C 2/C"
_symmetry_group_IT_number 15
_symmetry_cell_setting 'monoclinic'
loop_
_space_group_symop_operation_xyz
x,y,z
-x,y,1/2-z
-x,-y,-z
x,-y,1/2+z
1/2+x,1/2+y,z
1/2-x,1/2+y,1/2-z
1/2-x,1/2-y,-z
1/2+x,1/2-y,1/2+z
loop_
_atom_site_type_symbol
_atom_site_label
_atom_site_fract_x
_atom_site_fract_y
_atom_site_fract_z
Si Si1 0.150631 0.263569 0.046130
Si Si2 0.253496 0.902407 0.926567
Si Si3 0.252147 0.103797 0.144055
Si Si4 0.000000 0.133973 0.750000
Si Si5 0.556301 0.991898 0.131202
O O1 0.096704 0.170779 0.055503
O O2 0.371561 0.311923 0.153448
O O3 0.250000 0.250000 0.000000
O O4 0.867195 0.309602 0.965608
O O5 0.301928 0.930180 0.863504
O O6 0.941289 0.917249 0.849233
O O7 0.381101 0.956634 0.021266
O O8 0.500000 0.148459 0.250000
O O9 0.360215 0.023010 0.134853
O O10 0.770761 0.075828 0.717785
#
# Coordination Sequence:
#
# PCOD8143827 Si02
#       5
#     8   8   8   4   8
#     4  11  22  43  67  93 135 176 217 268 336 391
#     4  10  22  40  68  91 128 174 214 273 331 385
#     4  12  23  39  65  96 128 168 223 267 324 396
#     4  10  22  42  68  96 134 176 216 280 328 388
#     4  10  21  41  65  93 129 168 220 268 330 391
#
# _framework density 22.189160999999999
#
# number of rings (size 3 to 8) (size 9 to 14) (size 15 to 20)
#    0.000    1.333    3.333    2.667    0.000    0.000 
#    4.000    0.000    4.889    0.000    0.000    0.000 
#    0.000    0.000    0.000    0.000    0.000    0.000 
#
# Total GULP energy -223034.383393 kJ/mol
# GULP energy per Si atom -12390.799077 kJ/mol
# Density = 2.213866 g / cm^3
# Si number density = 22.189161 Si / 1000 Ang^3
#
#
#
# Elastic Constant Matrix: (Units=GPa)
#
#
# Indices 1 2 3 4 5 6 
#
# 1 144.6097 30.7922 27.1470 0.0001 8.8865 0.0001
# 2 30.7922 84.7424 9.7536 -0.0001 -3.8032 -0.0002
# 3 27.1470 9.7536 57.4784 -0.0011 2.0315 -0.0003
# 4 0.0001 -0.0001 -0.0011 18.0079 -0.0002 3.9276
# 5 8.8865 -3.8032 2.0315 -0.0002 37.3126 0.0002
# 6 0.0001 -0.0002 -0.0003 3.9276 0.0002 15.6600
#
#
#
# Elastic Compliance Matrix: (Units=1/GPa)
#
#
# Indices 1 2 3 4 5 6 
#
# 1 0.008249 -0.002702 -0.003365 0.000000 -0.002057 0.000000
# 2 -0.002702 0.012988 -0.000999 0.000000 0.002022 0.000000
# 3 -0.003365 -0.000999 0.019169 0.000001 -0.000344 0.000000
# 4 0.000000 0.000000 0.000001 0.058745 0.000000 -0.014734
# 5 -0.002057 0.002022 -0.000344 0.000000 0.027515 -0.000001
# 6 0.000000 0.000000 0.000000 -0.014734 -0.000001 0.067552
#
#
# Mechanical properties :
#
#
# Convention : Reuss Voigt Hill
#
# Bulk Modulus (GPa) = 38.06135 46.91289 42.48712
# Shear Modulus (GPa) = 23.03009 28.80528 25.91768
#
# Velocity S-wave (km/s) = 3.22514 3.60692 3.42136
# Velocity P-wave (km/s) = 5.57306 6.20763 5.89889
#
# Compressibility (1/GPa) = 0.02627337
#
# Stress axis : x y z
#
# Youngs Moduli (GPa) = 121.23307 76.99353 52.16854
#
# Poissons Ratio (x) = 0.20806 0.17552
# Poissons Ratio (y) = 0.32760 0.05212
# Poissons Ratio (z) = 0.40789 0.07693
#
# Static dielectric constant tensor:
#      x y z
#    x 4.294840 0.000000 0.108090 
#    y 0.000000 4.256880 0.000000 
#    z 0.108090 0.000000 4.038510 
# 
# 
# High freq. dielectric constant tensor:
#      x y z
#    x 1.873050 0.000000 0.001350 
#    y 0.000000 1.871490 0.000000 
#    z 0.001350 0.000000 1.879530 
# 
# From -- ./inp_files/184186.got.cif
#   From: 2010.06.25/outbox.cif.g09.slc.cpg/sg15_93_cif.got.tgz:184186.got - 2010.06.28 07:06:18.
