data_PCOD8143001
_publ_section_title
;
Structure prediction by ZEFSAII (Michael W. Deem and Ramdas Pophale) SiO2 
 PCOD8143001
Probable space group: C 2/C
;
_chemical_formula_sum "Si O2"
_cell_formula_units_Z 64
_cell_length_a 25.581240
_cell_length_b 12.561109
_cell_length_c 10.463784
_cell_angle_alpha 90.000000
_cell_angle_beta 110.764762
_cell_angle_gamma 90.000000
_cell_volume 3143.911719
_symmetry_space_group_name_H-M "C 2/C"
_symmetry_group_IT_number 15
_symmetry_cell_setting 'monoclinic'
loop_
_space_group_symop_operation_xyz
x,y,z
-x,y,1/2-z
-x,-y,-z
x,-y,1/2+z
1/2+x,1/2+y,z
1/2-x,1/2+y,1/2-z
1/2-x,1/2-y,-z
1/2+x,1/2-y,1/2+z
loop_
_atom_site_type_symbol
_atom_site_label
_atom_site_fract_x
_atom_site_fract_y
_atom_site_fract_z
Si Si1 0.451276 0.764596 0.939872
Si Si2 0.897167 0.396722 0.670239
Si Si3 0.923580 0.743414 0.953658
Si Si4 0.345389 0.369572 0.347628
Si Si5 0.812895 0.220815 0.062299
Si Si6 0.780166 0.691184 0.139325
Si Si7 0.328150 0.607806 0.330468
Si Si8 0.088870 0.643398 0.837642
O O1 0.434517 0.848673 0.816038
O O2 0.409608 0.664762 0.889053
O O3 0.512956 0.719101 0.965420
O O4 0.451817 0.817143 0.082832
O O5 0.908867 0.349008 0.541020
O O6 0.831048 0.384337 0.641199
O O7 0.915318 0.518345 0.681155
O O8 0.881807 0.842954 0.952751
O O9 0.922361 0.700065 0.807488
O O10 0.328748 0.375913 0.482021
O O11 0.302941 0.284124 0.250599
O O12 0.338308 0.488456 0.288558
O O13 0.828432 0.187798 0.215292
O O14 0.849156 0.325276 0.058297
O O15 0.750000 0.250000 0.000000
O O16 0.732565 0.614966 0.157063
O O17 0.750000 0.750000 0.000000
#
# Coordination Sequence:
#
# PCOD8143001 Si02
#       8
#     8   8   8   8   8   8   8   8
#     4  10  23  43  61  87 126 158 204 260 294 358
#     4  11  23  38  63  93 122 161 203 247 310 361
#     4  11  23  41  62  89 123 159 209 253 296 359
#     4  10  24  41  62  90 122 160 200 245 306 355
#     4  10  21  40  58  88 124 155 203 243 289 365
#     4  11  23  41  59  90 130 155 195 251 299 361
#     4  11  24  39  65  91 120 163 200 245 303 360
#     4  10  23  39  61  91 121 160 203 250 308 356
#
# _framework density 20.356805000000001
#
# number of rings (size 3 to 8) (size 9 to 14) (size 15 to 20)
#    0.000    1.500    2.500    1.500    3.500    3.500 
#    0.000    0.000    0.000    4.500    0.000    0.000 
#    0.000    0.000    0.000    0.000    0.000    0.000 
#
# Total GULP energy -396591.240341 kJ/mol
# GULP energy per Si atom -12393.476261 kJ/mol
# Density = 2.031047 g / cm^3
# Si number density = 20.356805 Si / 1000 Ang^3
#
#
#
# Elastic Constant Matrix: (Units=GPa)
#
#
# Indices 1 2 3 4 5 6 
#
# 1 154.8002 41.8766 30.5041 0.0000 26.3391 0.0000
# 2 41.8766 101.3112 7.1179 0.0000 13.6593 0.0000
# 3 30.5041 7.1179 75.9018 0.0000 -1.0001 0.0000
# 4 0.0000 0.0000 0.0000 18.2256 0.0000 -2.3837
# 5 26.3391 13.6593 -1.0001 0.0000 35.3429 0.0000
# 6 0.0000 0.0000 0.0000 -2.3837 0.0000 15.8578
#
#
#
# Elastic Compliance Matrix: (Units=1/GPa)
#
#
# Indices 1 2 3 4 5 6 
#
# 1 0.008794 -0.002640 -0.003361 0.000000 -0.005629 0.000000
# 2 -0.002640 0.011287 -0.000029 0.000000 -0.002395 0.000000
# 3 -0.003361 -0.000029 0.014567 0.000000 0.002928 0.000000
# 4 0.000000 0.000000 0.000000 0.055968 0.000000 0.008413
# 5 -0.005629 -0.002395 0.002928 0.000000 0.033498 0.000000
# 6 0.000000 0.000000 0.000000 0.008413 0.000000 0.064325
#
#
# Mechanical properties :
#
#
# Convention : Reuss Voigt Hill
#
# Bulk Modulus (GPa) = 44.27116 54.55671 49.41394
# Shear Modulus (GPa) = 24.03524 30.71955 27.37739
#
# Velocity S-wave (km/s) = 3.43986 3.88887 3.67123
# Velocity P-wave (km/s) = 6.12957 6.85732 6.50363
#
# Compressibility (1/GPa) = 0.02258807
#
# Stress axis : x y z
#
# Youngs Moduli (GPa) = 113.71299 88.59886 68.64884
#
# Poissons Ratio (x) = 0.23390 0.23072
# Poissons Ratio (y) = 0.30020 0.00199
# Poissons Ratio (z) = 0.38217 0.00257
#
# Static dielectric constant tensor:
#      x y z
#    x 4.488970 0.000000 -0.231450 
#    y 0.000000 3.438830 0.000000 
#    z -0.231450 0.000000 3.668260 
# 
# 
# High freq. dielectric constant tensor:
#      x y z
#    x 1.814790 0.000000 0.001100 
#    y 0.000000 1.773320 0.000000 
#    z 0.001100 0.000000 1.808950 
# 
# From -- ./inp_files/118019.got.cif
#   From: 2010.06.25/outbox.cif.g09.slc.cpg/sg15_60_cif.got.tgz:118019.got - 2010.06.28 07:06:18.
