data_PCOD8143967
_publ_section_title
;
Structure prediction by ZEFSAII (Michael W. Deem and Ramdas Pophale) SiO2 
 PCOD8143967
Probable space group: C 2/C
;
_chemical_formula_sum "Si O2"
_cell_formula_units_Z 52
_cell_length_a 11.158920
_cell_length_b 8.263178
_cell_length_c 26.020343
_cell_angle_alpha 90.000000
_cell_angle_beta 82.013441
_cell_angle_gamma 90.000000
_cell_volume 2376.016056
_symmetry_space_group_name_H-M "C 2/C"
_symmetry_group_IT_number 15
_symmetry_cell_setting 'monoclinic'
loop_
_space_group_symop_operation_xyz
x,y,z
-x,y,1/2-z
-x,-y,-z
x,-y,1/2+z
1/2+x,1/2+y,z
1/2-x,1/2+y,1/2-z
1/2-x,1/2-y,-z
1/2+x,1/2-y,1/2+z
loop_
_atom_site_type_symbol
_atom_site_label
_atom_site_fract_x
_atom_site_fract_y
_atom_site_fract_z
Si Si1 0.058698 0.748094 0.655785
Si Si2 0.035082 0.076461 0.432605
Si Si3 0.306437 0.970108 0.905408
Si Si4 0.389717 0.726027 0.976125
Si Si5 0.131999 0.005807 0.231622
Si Si6 0.280868 0.173843 0.298856
Si Si7 0.000000 0.473565 0.250000
O O1 0.146523 0.644983 0.613850
O O2 0.141111 0.870154 0.683631
O O3 0.968216 0.843785 0.623433
O O4 0.984943 0.635404 0.699602
O O5 0.169703 0.001697 0.434612
O O6 0.025527 0.217747 0.477572
O O7 0.928800 0.940897 0.443825
O O8 0.404035 0.883590 0.938345
O O9 0.298498 0.848439 0.857919
O O10 0.250000 0.750000 0.000000
O O11 0.158274 0.096151 0.284010
O O12 0.000000 0.932686 0.250000
O O13 0.223498 0.862539 0.213835
O O14 0.383714 0.085973 0.259476
#
# Coordination Sequence:
#
# PCOD8143967 Si02
#       7
#     8   8   8   8   8   8   4
#     4  11  23  40  61  94 131 161 217 254 308 376
#     4  10  21  41  68  88 122 166 197 266 322 377
#     4  10  22  39  60  94 124 157 208 262 309 381
#     4   9  20  43  67  90 122 158 210 258 324 382
#     4  12  24  40  60  88 125 176 214 261 306 371
#     4  11  23  40  63  88 131 169 214 261 312 367
#     4  10  22  42  60  94 130 170 214 260 304 382
#
# _framework density 21.885373000000001
#
# number of rings (size 3 to 8) (size 9 to 14) (size 15 to 20)
#    0.000    1.538    1.538    3.692    2.154    0.615 
#    5.538    6.923    0.000    0.000    0.000    0.000 
#    0.000    0.000    0.000    0.000    0.000    0.000 
#
# Total GULP energy -322146.188603 kJ/mol
# GULP energy per Si atom -12390.238023 kJ/mol
# Density = 2.183556 g / cm^3
# Si number density = 21.885373 Si / 1000 Ang^3
#
#
#
# Elastic Constant Matrix: (Units=GPa)
#
#
# Indices 1 2 3 4 5 6 
#
# 1 73.0545 27.5421 12.6494 0.0000 -5.5244 0.0000
# 2 27.5421 97.1472 25.7947 0.0000 -4.8590 0.0000
# 3 12.6494 25.7947 103.4811 0.0000 3.5777 0.0000
# 4 0.0000 0.0000 0.0000 29.2639 0.0000 4.3474
# 5 -5.5244 -4.8590 3.5777 0.0000 27.6310 0.0000
# 6 0.0000 0.0000 0.0000 4.3474 0.0000 28.4838
#
#
#
# Elastic Compliance Matrix: (Units=1/GPa)
#
#
# Indices 1 2 3 4 5 6 
#
# 1 0.015568 -0.004025 -0.000987 0.000000 0.002533 0.000000
# 2 -0.004025 0.012212 -0.002610 0.000000 0.001681 0.000000
# 3 -0.000987 -0.002610 0.010505 0.000000 -0.002017 0.000000
# 4 0.000000 0.000000 0.000000 0.034965 0.000000 -0.005337
# 5 0.002533 0.001681 -0.002017 0.000000 0.037254 0.000000
# 6 0.000000 0.000000 0.000000 -0.005337 0.000000 0.035922
#
#
# Mechanical properties :
#
#
# Convention : Reuss Voigt Hill
#
# Bulk Modulus (GPa) = 43.40271 45.07278 44.23775
# Shear Modulus (GPa) = 29.52452 30.92218 30.22335
#
# Velocity S-wave (km/s) = 3.67693 3.76295 3.72019
# Velocity P-wave (km/s) = 6.15640 6.28645 6.22176
#
# Compressibility (1/GPa) = 0.02304004
#
# Stress axis : x y z
#
# Youngs Moduli (GPa) = 64.23299 81.88750 95.19598
#
# Poissons Ratio (x) = 0.32959 0.09399
# Poissons Ratio (y) = 0.25853 0.24848
# Poissons Ratio (z) = 0.06342 0.21374
#
# Static dielectric constant tensor:
#      x y z
#    x 4.036060 0.000000 0.088470 
#    y 0.000000 3.935050 0.000000 
#    z 0.088470 0.000000 4.249860 
# 
# 
# High freq. dielectric constant tensor:
#      x y z
#    x 1.851210 0.000000 -0.002050 
#    y 0.000000 1.851950 0.000000 
#    z -0.002050 0.000000 1.875440 
# 
# From -- ./inp_files/291107.got.cif
#   From: 2010.06.25/outbox.cif.g09.slc.cpg/sg15_146_cif.got.tgz:291107.got - 2010.06.28 07:06:18.
