data_PCOD8143679
_publ_section_title
;
Structure prediction by ZEFSAII (Michael W. Deem and Ramdas Pophale) SiO2 
 PCOD8143679
Probable space group: C 2/C
;
_chemical_formula_sum "Si O2"
_cell_formula_units_Z 56
_cell_length_a 23.534201
_cell_length_b 9.016483
_cell_length_c 13.232502
_cell_angle_alpha 90.000000
_cell_angle_beta 80.676066
_cell_angle_gamma 90.000000
_cell_volume 2770.782965
_symmetry_space_group_name_H-M "C 2/C"
_symmetry_group_IT_number 15
_symmetry_cell_setting 'monoclinic'
loop_
_space_group_symop_operation_xyz
x,y,z
-x,y,1/2-z
-x,-y,-z
x,-y,1/2+z
1/2+x,1/2+y,z
1/2-x,1/2+y,1/2-z
1/2-x,1/2-y,-z
1/2+x,1/2-y,1/2+z
loop_
_atom_site_type_symbol
_atom_site_label
_atom_site_fract_x
_atom_site_fract_y
_atom_site_fract_z
Si Si1 0.527496 0.846272 0.023646
Si Si2 0.801970 0.154240 0.798160
Si Si3 0.230333 0.481089 0.661658
Si Si4 0.451556 0.334439 0.682051
Si Si5 0.596143 0.628700 0.877427
Si Si6 0.822969 0.051995 0.473842
Si Si7 0.128673 0.321492 0.150852
O O1 0.474393 0.743897 0.074469
O O2 0.575743 0.871234 0.095562
O O3 0.556476 0.767390 0.918942
O O4 0.500000 0.000000 0.000000
O O5 0.767922 0.303520 0.835389
O O6 0.853997 0.193669 0.707993
O O7 0.757738 0.041760 0.757381
O O8 0.826837 0.081144 0.892630
O O9 0.264373 0.539479 0.553851
O O10 0.164344 0.533309 0.671223
O O11 0.500000 0.316120 0.750000
O O12 0.441564 0.508100 0.669552
O O13 0.393712 0.256314 0.739911
O O14 0.622094 0.543245 0.967580
O O15 0.826737 0.210007 0.416674
#
# Coordination Sequence:
#
# PCOD8143679 Si02
#       7
#     8   8   8   8   8   8   8
#     4  10  23  40  61  93 124 157 208 255 305 358
#     4  11  23  40  62  94 126 157 207 248 304 375
#     4  11  24  38  63  93 125 163 198 251 310 364
#     4  10  21  41  64  86 119 167 205 249 306 359
#     4  10  22  41  66  90 122 164 202 251 306 362
#     4  10  21  41  63  91 121 160 206 248 303 371
#     4  10  21  41  63  86 126 164 199 253 307 359
#
# _framework density 20.210892999999999
#
# number of rings (size 3 to 8) (size 9 to 14) (size 15 to 20)
#    0.000    1.714    1.429    2.143    4.000    3.429 
#    2.571    0.000    0.000    0.000    0.000    0.000 
#    0.000    0.000    0.000    0.000    0.000    0.000 
#
# Total GULP energy -347288.890041 kJ/mol
# GULP energy per Si atom -12403.174644 kJ/mol
# Density = 2.016489 g / cm^3
# Si number density = 20.210893 Si / 1000 Ang^3
#
#
#
# Elastic Constant Matrix: (Units=GPa)
#
#
# Indices 1 2 3 4 5 6 
#
# 1 67.1358 48.6915 38.0327 0.0000 -18.8664 0.0000
# 2 48.6915 114.2466 29.5196 0.0000 -4.1405 0.0000
# 3 38.0327 29.5196 88.9799 0.0000 -12.7352 0.0000
# 4 0.0000 0.0000 0.0000 25.1558 0.0000 -1.4357
# 5 -18.8664 -4.1405 -12.7352 0.0000 17.2121 0.0000
# 6 0.0000 0.0000 0.0000 -1.4357 0.0000 42.5967
#
#
#
# Elastic Compliance Matrix: (Units=1/GPa)
#
#
# Indices 1 2 3 4 5 6 
#
# 1 0.037507 -0.012980 -0.007033 0.000000 0.032785 0.000000
# 2 -0.012980 0.014066 -0.000750 0.000000 -0.011399 0.000000
# 3 -0.007033 -0.000750 0.014947 0.000000 0.003170 0.000000
# 4 0.000000 0.000000 0.000000 0.039829 0.000000 0.001342
# 5 0.032785 -0.011399 0.003170 0.000000 0.093639 0.000000
# 6 0.000000 0.000000 0.000000 0.001342 0.000000 0.023521
#
#
# Mechanical properties :
#
#
# Convention : Reuss Voigt Hill
#
# Bulk Modulus (GPa) = 40.00935 55.87220 47.94077
# Shear Modulus (GPa) = 18.29062 27.26750 22.77906
#
# Velocity S-wave (km/s) = 3.01157 3.67706 3.36083
# Velocity P-wave (km/s) = 5.65081 6.76257 6.23153
#
# Compressibility (1/GPa) = 0.02499416
#
# Stress axis : x y z
#
# Youngs Moduli (GPa) = 26.66201 71.09558 66.90294
#
# Poissons Ratio (x) = 0.92281 0.47052
# Poissons Ratio (y) = 0.34607 0.05016
# Poissons Ratio (z) = 0.18751 0.05331
#
# Static dielectric constant tensor:
#      x y z
#    x 3.648000 0.000000 -0.175990 
#    y 0.000000 3.451190 0.000000 
#    z -0.175990 0.000000 4.032660 
# 
# 
# High freq. dielectric constant tensor:
#      x y z
#    x 1.787220 0.000000 -0.009220 
#    y 0.000000 1.782360 0.000000 
#    z -0.009220 0.000000 1.798020 
# 
# From -- ./inp_files/171814.got.cif
#   From: 2010.06.25/outbox.cif.g09.slc.cpg/sg15_86_cif.got.tgz:171814.got - 2010.06.28 07:06:18.
