data_PCOD8143132
_publ_section_title
;
Structure prediction by ZEFSAII (Michael W. Deem and Ramdas Pophale) SiO2 
 PCOD8143132
Probable space group: C 2/C
;
_chemical_formula_sum "Si O2"
_cell_formula_units_Z 60
_cell_length_a 15.800236
_cell_length_b 8.456915
_cell_length_c 23.303795
_cell_angle_alpha 90.000000
_cell_angle_beta 106.340300
_cell_angle_gamma 90.000000
_cell_volume 2988.105238
_symmetry_space_group_name_H-M "C 2/C"
_symmetry_group_IT_number 15
_symmetry_cell_setting 'monoclinic'
loop_
_space_group_symop_operation_xyz
x,y,z
-x,y,1/2-z
-x,-y,-z
x,-y,1/2+z
1/2+x,1/2+y,z
1/2-x,1/2+y,1/2-z
1/2-x,1/2-y,-z
1/2+x,1/2-y,1/2+z
loop_
_atom_site_type_symbol
_atom_site_label
_atom_site_fract_x
_atom_site_fract_y
_atom_site_fract_z
Si Si1 0.500000 0.011701 0.250000
Si Si2 0.386210 0.354343 0.423206
Si Si3 0.863972 0.699281 0.299510
Si Si4 0.060249 0.147471 0.127012
Si Si5 0.959436 0.630267 0.531533
Si Si6 0.090778 0.778557 0.823430
Si Si7 0.683626 0.449132 0.740215
Si Si8 0.291434 0.840612 0.060541
O O1 0.449372 0.125140 0.285179
O O2 0.433452 0.900193 0.201165
O O3 0.380728 0.225133 0.370718
O O4 0.448830 0.499091 0.417570
O O5 0.427905 0.275887 0.487070
O O6 0.289089 0.427581 0.421824
O O7 0.785625 0.574732 0.274160
O O8 0.835222 0.865108 0.266699
O O9 0.157367 0.138883 0.174902
O O10 0.036836 0.309428 0.089163
O O11 0.991889 0.128047 0.166103
O O12 0.875445 0.559158 0.551676
O O13 0.000000 0.500000 0.500000
O O14 0.121382 0.879453 0.776398
O O15 0.167916 0.779196 0.885265
O O16 0.250000 0.750000 0.000000
#
# Coordination Sequence:
#
# PCOD8143132 Si02
#       8
#     4   8   8   8   8   8   8   8
#     4  12  26  38  62  96 130 158 210 266 308 382
#     4  10  21  40  63  85 122 160 214 251 305 378
#     4  11  26  38  64  93 126 163 210 256 316 373
#     4  10  22  37  63  87 120 164 203 251 311 366
#     4  10  22  38  63  90 119 160 208 259 313 367
#     4  11  21  40  65  85 128 166 204 252 323 365
#     4  11  22  42  61  91 125 166 207 255 313 381
#     4   9  20  40  60  86 116 163 203 248 310 367
#
# _framework density 20.079613999999999
#
# number of rings (size 3 to 8) (size 9 to 14) (size 15 to 20)
#    0.000    1.600    2.667    1.200    9.333    0.000 
#    0.000    0.667    0.000    0.000    0.000    0.000 
#    0.000    0.000    0.000    0.000    0.000    0.000 
#
# Total GULP energy -371713.286796 kJ/mol
# GULP energy per Si atom -12390.442893 kJ/mol
# Density = 2.003391 g / cm^3
# Si number density = 20.079614 Si / 1000 Ang^3
#
#
#
# Elastic Constant Matrix: (Units=GPa)
#
#
# Indices 1 2 3 4 5 6 
#
# 1 73.7011 19.1005 13.2381 0.0000 -23.7286 0.0000
# 2 19.1005 49.8850 11.3871 0.0000 -12.2688 0.0000
# 3 13.2381 11.3871 87.1462 0.0000 -4.1854 0.0000
# 4 0.0000 0.0000 0.0000 32.5841 0.0000 -9.0688
# 5 -23.7286 -12.2688 -4.1854 0.0000 41.5930 0.0000
# 6 0.0000 0.0000 0.0000 -9.0688 0.0000 32.1986
#
#
#
# Elastic Compliance Matrix: (Units=1/GPa)
#
#
# Indices 1 2 3 4 5 6 
#
# 1 0.017792 -0.004275 -0.001726 0.000000 0.008716 0.000000
# 2 -0.004275 0.023211 -0.002182 0.000000 0.004188 0.000000
# 3 -0.001726 -0.002182 0.012002 0.000000 -0.000420 0.000000
# 4 0.000000 0.000000 0.000000 0.033300 0.000000 0.009379
# 5 0.008716 0.004188 -0.000420 0.000000 0.030208 0.000000
# 6 0.000000 0.000000 0.000000 0.009379 0.000000 0.033699
#
#
# Mechanical properties :
#
#
# Convention : Reuss Voigt Hill
#
# Bulk Modulus (GPa) = 27.29291 33.13152 30.21222
# Shear Modulus (GPa) = 27.96550 32.40891 30.18721
#
# Velocity S-wave (km/s) = 3.73598 4.02185 3.88155
# Velocity P-wave (km/s) = 5.67732 6.17275 5.93021
#
# Compressibility (1/GPa) = 0.03663955
#
# Stress axis : x y z
#
# Youngs Moduli (GPa) = 56.20415 43.08268 83.31904
#
# Poissons Ratio (x) = 0.18418 0.14377
# Poissons Ratio (y) = 0.24028 0.18183
# Poissons Ratio (z) = 0.09698 0.09402
#
# Static dielectric constant tensor:
#      x y z
#    x 4.109130 0.000000 -0.090610 
#    y 0.000000 3.298190 0.000000 
#    z -0.090610 0.000000 4.114770 
# 
# 
# High freq. dielectric constant tensor:
#      x y z
#    x 1.793640 0.000000 -0.003580 
#    y 0.000000 1.744390 0.000000 
#    z -0.003580 0.000000 1.812660 
# 
# From -- ./inp_files/272817.got.cif
#   From: 2010.06.25/outbox.cif.g09.slc.cpg/sg15_137_cif.got.tgz:272817.got - 2010.06.28 07:06:18.
