data_PCOD8143054
_publ_section_title
;
Structure prediction by ZEFSAII (Michael W. Deem and Ramdas Pophale) SiO2 
 PCOD8143054
Probable space group: C 2/C
;
_chemical_formula_sum "Si O2"
_cell_formula_units_Z 48
_cell_length_a 5.180052
_cell_length_b 22.557486
_cell_length_c 21.810817
_cell_angle_alpha 90.000000
_cell_angle_beta 114.944530
_cell_angle_gamma 90.000000
_cell_volume 2310.831480
_symmetry_space_group_name_H-M "C 2/C"
_symmetry_group_IT_number 15
_symmetry_cell_setting 'monoclinic'
loop_
_space_group_symop_operation_xyz
x,y,z
-x,y,1/2-z
-x,-y,-z
x,-y,1/2+z
1/2+x,1/2+y,z
1/2-x,1/2+y,1/2-z
1/2-x,1/2-y,-z
1/2+x,1/2-y,1/2+z
loop_
_atom_site_type_symbol
_atom_site_label
_atom_site_fract_x
_atom_site_fract_y
_atom_site_fract_z
Si Si1 0.851786 0.583260 0.423970
Si Si2 0.368540 0.473286 0.047719
Si Si3 0.663932 0.867486 0.706364
Si Si4 0.270947 0.180224 0.506967
Si Si5 0.332270 0.267845 0.292293
Si Si6 0.585175 0.350503 0.416981
O O1 0.641725 0.526703 0.404168
O O2 0.942031 0.594425 0.362831
O O3 0.720125 0.644731 0.437699
O O4 0.086488 0.560824 0.495938
O O5 0.515490 0.419622 0.100364
O O6 0.500000 0.500000 0.000000
O O7 0.500000 0.891467 0.750000
O O8 0.574301 0.799605 0.684665
O O9 0.000000 0.874734 0.750000
O O10 0.250000 0.250000 0.500000
O O11 0.583161 0.162975 0.563973
O O12 0.002879 0.163109 0.521975
O O13 0.500000 0.291982 0.250000
O O14 0.396768 0.309639 0.355378
O O15 0.000000 0.271208 0.250000
#
# Coordination Sequence:
#
# PCOD8143054 Si02
#       6
#     8   8   8   8   8   8
#     4  10  22  39  62  88 125 159 204 252 309 364
#     4  10  21  40  63  87 120 165 198 254 312 357
#     4  10  23  39  62  90 120 160 200 246 303 361
#     4  11  22  35  59  95 122 152 197 261 316 365
#     4  10  21  40  61  87 123 163 202 252 308 362
#     4  11  22  38  61  88 121 159 208 244 309 373
#
# _framework density 20.771744999999999
#
# number of rings (size 3 to 8) (size 9 to 14) (size 15 to 20)
#    0.000    1.667    1.667    2.500    2.333    4.000 
#    0.000    0.833    0.000    0.000    0.000    0.000 
#    0.000    0.000    0.000    0.000    0.000    0.000 
#
# Total GULP energy -297328.856907 kJ/mol
# GULP energy per Si atom -12388.702371 kJ/mol
# Density = 2.072447 g / cm^3
# Si number density = 20.771745 Si / 1000 Ang^3
#
#
#
# Elastic Constant Matrix: (Units=GPa)
#
#
# Indices 1 2 3 4 5 6 
#
# 1 85.2689 25.7360 18.0408 0.0000 -25.9837 0.0000
# 2 25.7360 166.3940 52.7983 0.0000 -20.4030 0.0000
# 3 18.0408 52.7983 98.7333 0.0000 -30.7881 0.0000
# 4 0.0000 0.0000 0.0000 37.9050 0.0000 -9.5093
# 5 -25.9837 -20.4030 -30.7881 0.0000 35.2048 0.0000
# 6 0.0000 0.0000 0.0000 -9.5093 0.0000 31.0962
#
#
#
# Elastic Compliance Matrix: (Units=1/GPa)
#
#
# Indices 1 2 3 4 5 6 
#
# 1 0.015488 -0.001459 0.001720 0.000000 0.012090 0.000000
# 2 -0.001459 0.007407 -0.003701 0.000000 -0.000020 0.000000
# 3 0.001720 -0.003701 0.015840 0.000000 0.012977 0.000000
# 4 0.000000 0.000000 0.000000 0.028574 0.000000 0.008738
# 5 0.012090 -0.000020 0.012977 0.000000 0.048666 0.000000
# 6 0.000000 0.000000 0.000000 0.008738 0.000000 0.034830
#
#
# Mechanical properties :
#
#
# Convention : Reuss Voigt Hill
#
# Bulk Modulus (GPa) = 31.39105 60.39406 45.89255
# Shear Modulus (GPa) = 29.70822 37.76260 33.73541
#
# Velocity S-wave (km/s) = 3.78593 4.26840 4.03439
# Velocity P-wave (km/s) = 5.85288 7.30962 6.62143
#
# Compressibility (1/GPa) = 0.03185621
#
# Stress axis : x y z
#
# Youngs Moduli (GPa) = 64.56515 135.00186 63.13215
#
# Poissons Ratio (x) = 0.19695 -0.10860
# Poissons Ratio (y) = 0.09419 0.23365
# Poissons Ratio (z) = -0.11107 0.49963
#
# Static dielectric constant tensor:
#      x y z
#    x 4.039180 0.000000 -0.164940 
#    y 0.000000 5.853700 0.000000 
#    z -0.164940 0.000000 3.604890 
# 
# 
# High freq. dielectric constant tensor:
#      x y z
#    x 1.819190 0.000000 -0.018650 
#    y 0.000000 1.830540 0.000000 
#    z -0.018650 0.000000 1.781730 
# 
# From -- ./inp_files/185293.got.cif
#   From: 2010.06.25/outbox.cif.g09.slc.cpg/sg15_93_cif.got.tgz:185293.got - 2010.06.28 07:06:18.
