data_PCOD8143595
_publ_section_title
;
Structure prediction by ZEFSAII (Michael W. Deem and Ramdas Pophale) SiO2 
 PCOD8143595
Probable space group: C 2/C
;
_chemical_formula_sum "Si O2"
_cell_formula_units_Z 56
_cell_length_a 14.454191
_cell_length_b 19.848073
_cell_length_c 17.879237
_cell_angle_alpha 90.000000
_cell_angle_beta 31.277588
_cell_angle_gamma 90.000000
_cell_volume 2663.073305
_symmetry_space_group_name_H-M "C 2/C"
_symmetry_group_IT_number 15
_symmetry_cell_setting 'monoclinic'
loop_
_space_group_symop_operation_xyz
x,y,z
-x,y,1/2-z
-x,-y,-z
x,-y,1/2+z
1/2+x,1/2+y,z
1/2-x,1/2+y,1/2-z
1/2-x,1/2-y,-z
1/2+x,1/2-y,1/2+z
loop_
_atom_site_type_symbol
_atom_site_label
_atom_site_fract_x
_atom_site_fract_y
_atom_site_fract_z
Si Si1 0.080429 0.254884 0.011916
Si Si2 0.117134 0.863121 0.896035
Si Si3 0.200443 0.062838 0.807117
Si Si4 0.823110 0.486933 0.076375
Si Si5 0.109406 0.668923 0.739051
Si Si6 0.569711 0.944212 0.784312
Si Si7 0.658172 0.373154 0.696180
O O1 0.222987 0.195478 0.923211
O O2 0.174286 0.321427 0.914934
O O3 0.932588 0.217161 0.060479
O O4 0.995454 0.267821 0.152240
O O5 0.321917 0.873562 0.782081
O O6 0.090486 0.883491 0.827294
O O7 0.990672 0.913743 0.030637
O O8 0.189669 0.053534 0.724354
O O9 0.345077 0.120985 0.723632
O O10 0.277880 0.997291 0.795389
O O11 0.731288 0.556097 0.113261
O O12 0.000000 0.500000 0.000000
O O13 0.888850 0.444524 0.959117
O O14 0.000000 0.630266 0.750000
O O15 0.500000 0.957515 0.750000
O O16 0.500000 0.348692 0.750000
#
# Coordination Sequence:
#
# PCOD8143595 Si02
#       7
#     8   8   8   8   8   8   8
#     4  11  23  38  55  87 124 170 201 254 308 373
#     4  11  24  40  60  90 129 168 208 258 312 372
#     4  10  22  37  61  90 126 162 201 253 317 376
#     4  10  21  41  60  91 124 169 204 253 316 373
#     4  11  22  33  55  88 126 162 212 244 308 377
#     4  11  23  40  65  91 125 164 210 259 309 369
#     4  12  25  37  63  94 129 164 212 256 313 382
#
# _framework density 21.028335999999999
#
# number of rings (size 3 to 8) (size 9 to 14) (size 15 to 20)
#    0.000    1.143    4.286    3.429    6.000    0.000 
#    0.000    0.000    0.000    0.857    0.000    0.000 
#    0.000    0.000    0.000    0.000    0.000    0.000 
#
# Total GULP energy -346892.344564 kJ/mol
# GULP energy per Si atom -12389.012306 kJ/mol
# Density = 2.098047 g / cm^3
# Si number density = 21.028336 Si / 1000 Ang^3
#
#
#
# Elastic Constant Matrix: (Units=GPa)
#
#
# Indices 1 2 3 4 5 6 
#
# 1 78.8329 33.5299 46.6316 -0.0108 17.4546 0.0016
# 2 33.5299 93.2254 48.4007 -0.0424 -7.2895 0.0108
# 3 46.6316 48.4007 138.6742 -0.0583 16.0400 0.0106
# 4 -0.0108 -0.0424 -0.0583 27.0970 0.0085 -1.9672
# 5 17.4546 -7.2895 16.0400 0.0085 24.6073 -0.0055
# 6 0.0016 0.0108 0.0106 -1.9672 -0.0055 15.6042
#
#
#
# Elastic Compliance Matrix: (Units=1/GPa)
#
#
# Indices 1 2 3 4 5 6 
#
# 1 0.020681 -0.007216 -0.002695 -0.000004 -0.015050 -0.000001
# 2 -0.007216 0.017004 -0.005065 0.000009 0.013457 -0.000002
# 3 -0.002695 -0.005065 0.010640 0.000016 -0.006524 -0.000004
# 4 -0.000004 0.000009 0.000016 0.037245 -0.000016 0.004695
# 5 -0.015050 0.013457 -0.006524 -0.000016 0.059553 0.000015
# 6 -0.000001 -0.000002 -0.000004 0.004695 0.000015 0.064677
#
#
# Mechanical properties :
#
#
# Convention : Reuss Voigt Hill
#
# Bulk Modulus (GPa) = 54.42745 63.09520 58.76133
# Shear Modulus (GPa) = 20.33558 25.60638 22.97098
#
# Velocity S-wave (km/s) = 3.11313 3.49335 3.30871
# Velocity P-wave (km/s) = 6.23387 6.80745 6.52696
#
# Compressibility (1/GPa) = 0.01837308
#
# Stress axis : x y z
#
# Youngs Moduli (GPa) = 48.35464 58.81079 93.98734
#
# Poissons Ratio (x) = 0.42436 0.25329
# Poissons Ratio (y) = 0.34891 0.47603
# Poissons Ratio (z) = 0.13031 0.29786
#
# Static dielectric constant tensor:
#      x y z
#    x 3.616810 -0.000050 0.141840 
#    y -0.000050 4.029130 0.000130 
#    z 0.141840 0.000130 4.539900 
# 
# 
# High freq. dielectric constant tensor:
#      x y z
#    x 1.779150 0.000000 0.006910 
#    y 0.000000 1.810430 0.000010 
#    z 0.006910 0.000010 1.852800 
# 
# From -- ./inp_files/206899.got.cif
#   From: 2010.06.25/outbox.cif.g09.slc.cpg/sg15_104_cif.got.tgz:206899.got - 2010.06.28 07:06:18.
