data_PCOD8143420
_publ_section_title
;
Structure prediction by ZEFSAII (Michael W. Deem and Ramdas Pophale) SiO2 
 PCOD8143420
Probable space group: C 2/C
;
_chemical_formula_sum "Si O2"
_cell_formula_units_Z 48
_cell_length_a 19.362211
_cell_length_b 12.602817
_cell_length_c 19.030598
_cell_angle_alpha 90.000000
_cell_angle_beta 152.998471
_cell_angle_gamma 90.000000
_cell_volume 2108.358815
_symmetry_space_group_name_H-M "C 2/C"
_symmetry_group_IT_number 15
_symmetry_cell_setting 'monoclinic'
loop_
_space_group_symop_operation_xyz
x,y,z
-x,y,1/2-z
-x,-y,-z
x,-y,1/2+z
1/2+x,1/2+y,z
1/2-x,1/2+y,1/2-z
1/2-x,1/2-y,-z
1/2+x,1/2-y,1/2+z
loop_
_atom_site_type_symbol
_atom_site_label
_atom_site_fract_x
_atom_site_fract_y
_atom_site_fract_z
Si Si1 0.361693 0.106528 0.209939
Si Si2 0.155929 0.708354 0.057692
Si Si3 0.912981 0.142485 0.887333
Si Si4 0.558229 0.704041 0.876458
Si Si5 0.779100 0.932741 0.772714
Si Si6 0.901005 0.359395 0.226540
O O1 0.522751 0.167757 0.343406
O O2 0.328905 0.109970 0.263064
O O3 0.365228 0.984636 0.187598
O O4 0.234649 0.174825 0.050712
O O5 0.140477 0.751560 0.123240
O O6 0.243289 0.601292 0.159418
O O7 0.245660 0.790187 0.088089
O O8 0.995900 0.673401 0.880918
O O9 0.954920 0.155437 0.844269
O O10 0.772458 0.060613 0.765967
O O11 0.049584 0.101687 0.058843
O O12 0.500000 0.653942 0.750000
O O13 0.000000 0.323648 0.250000
#
# Coordination Sequence:
#
# PCOD8143420 Si02
#       6
#     8   8   8   8   8   8
#     4  11  24  44  68 101 142 177 229 280 333 409
#     4  12  23  45  70  97 136 181 226 282 338 398
#     4  10  21  40  66  99 134 175 229 273 332 403
#     4  11  24  42  70 102 142 181 219 280 349 400
#     4  10  21  40  68  99 131 177 229 278 328 400
#     4  12  28  47  68 101 138 179 231 282 340 407
#
# _framework density 22.766522999999999
#
# number of rings (size 3 to 8) (size 9 to 14) (size 15 to 20)
#    0.000    1.000    5.000    1.500    0.000    3.333 
#    0.000    1.667    0.000    0.000    0.000    0.000 
#    0.000    0.000    0.000    0.000    0.000    0.000 
#
# Total GULP energy -297427.187532 kJ/mol
# GULP energy per Si atom -12392.799480 kJ/mol
# Density = 2.271471 g / cm^3
# Si number density = 22.766523 Si / 1000 Ang^3
#
#
#
# Elastic Constant Matrix: (Units=GPa)
#
#
# Indices 1 2 3 4 5 6 
#
# 1 67.6621 7.3189 28.0117 0.0005 -1.2528 0.0001
# 2 7.3189 87.0949 51.7272 0.0032 -4.0495 0.0025
# 3 28.0117 51.7272 79.3393 0.0033 2.5401 0.0023
# 4 0.0005 0.0032 0.0033 28.4257 0.0022 12.6633
# 5 -1.2528 -4.0495 2.5401 0.0022 31.0132 0.0014
# 6 0.0001 0.0025 0.0023 12.6633 0.0014 32.4622
#
#
#
# Elastic Compliance Matrix: (Units=1/GPa)
#
#
# Indices 1 2 3 4 5 6 
#
# 1 0.018128 0.003929 -0.009026 0.000000 0.001985 0.000000
# 2 0.003929 0.019966 -0.014531 -0.000001 0.003956 0.000000
# 3 -0.009026 -0.014531 0.025404 -0.000001 -0.004343 0.000000
# 4 0.000000 -0.000001 -0.000001 0.042579 -0.000002 -0.016610
# 5 0.001985 0.003956 -0.004343 -0.000002 0.033197 0.000000
# 6 0.000000 0.000000 0.000000 -0.016610 0.000000 0.037284
#
#
# Mechanical properties :
#
#
# Convention : Reuss Voigt Hill
#
# Bulk Modulus (GPa) = 41.25013 45.35686 43.30350
# Shear Modulus (GPa) = 22.33218 28.18280 25.25749
#
# Velocity S-wave (km/s) = 3.13536 3.52220 3.33440
# Velocity P-wave (km/s) = 5.59155 6.04211 5.82119
#
# Compressibility (1/GPa) = 0.02424235
#
# Stress axis : x y z
#
# Youngs Moduli (GPa) = 55.16471 50.08587 39.36452
#
# Poissons Ratio (x) = -0.19681 0.35528
# Poissons Ratio (y) = -0.21676 0.57201
# Poissons Ratio (z) = 0.49789 0.72780
#
# Static dielectric constant tensor:
#      x y z
#    x 4.087050 0.000000 -0.072140 
#    y 0.000000 4.373800 -0.000010 
#    z -0.072140 -0.000010 4.133540 
# 
# 
# High freq. dielectric constant tensor:
#      x y z
#    x 1.908250 0.000000 -0.003490 
#    y 0.000000 1.903110 0.000000 
#    z -0.003490 0.000000 1.884820 
# 
# From -- ./inp_files/252608.got.cif
#   From: 2010.06.25/outbox.cif.g09.slc.cpg/sg15_127_cif.got.tgz:252608.got - 2010.06.28 07:06:18.
