data_PCOD8143899
_publ_section_title
;
Structure prediction by ZEFSAII (Michael W. Deem and Ramdas Pophale) SiO2 
 PCOD8143899
Probable space group: C 2/C
;
_chemical_formula_sum "Si O2"
_cell_formula_units_Z 48
_cell_length_a 15.159053
_cell_length_b 8.343302
_cell_length_c 25.144823
_cell_angle_alpha 90.000000
_cell_angle_beta 45.280194
_cell_angle_gamma 90.000000
_cell_volume 2259.732863
_symmetry_space_group_name_H-M "C 2/C"
_symmetry_group_IT_number 15
_symmetry_cell_setting 'monoclinic'
loop_
_space_group_symop_operation_xyz
x,y,z
-x,y,1/2-z
-x,-y,-z
x,-y,1/2+z
1/2+x,1/2+y,z
1/2-x,1/2+y,1/2-z
1/2-x,1/2-y,-z
1/2+x,1/2-y,1/2+z
loop_
_atom_site_type_symbol
_atom_site_label
_atom_site_fract_x
_atom_site_fract_y
_atom_site_fract_z
Si Si1 0.998933 0.150114 0.101888
Si Si2 0.845721 0.409509 0.901774
Si Si3 0.297227 0.562066 0.933493
Si Si4 0.398973 0.134946 0.029818
Si Si5 0.060947 0.631858 0.778710
Si Si6 0.811389 0.063169 0.620501
O O1 0.934164 0.227229 0.180545
O O2 0.900471 0.076022 0.103147
O O3 0.086894 0.010675 0.085212
O O4 0.073209 0.287522 0.039363
O O5 0.840236 0.224179 0.885466
O O6 0.743316 0.512947 0.913539
O O7 0.982709 0.478845 0.832823
O O8 0.815321 0.408480 0.977190
O O9 0.238604 0.443752 0.914324
O O10 0.389594 0.272227 0.079213
O O11 0.500000 0.000000 0.000000
O O12 0.202412 0.580108 0.709703
O O13 0.000000 0.697485 0.750000
#
# Coordination Sequence:
#
# PCOD8143899 Si02
#       6
#     8   8   8   8   8   8
#     4  12  24  41  68  95 131 171 217 270 323 385
#     4  10  21  41  66  96 127 169 211 266 320 386
#     4  11  22  38  68  96 128 164 217 265 323 379
#     4  12  25  41  66  98 131 170 217 272 323 385
#     4  10  23  45  66  90 132 179 217 264 329 388
#     4  11  25  43  64  97 136 170 216 270 326 389
#
# _framework density 21.241448999999999
#
# number of rings (size 3 to 8) (size 9 to 14) (size 15 to 20)
#    0.000    1.000    3.333    4.000    4.667    2.667 
#    0.000    9.167    0.000    0.000    0.000    0.000 
#    0.000    0.000    0.000    0.000    0.000    0.000 
#
# Total GULP energy -297677.409131 kJ/mol
# GULP energy per Si atom -12403.225380 kJ/mol
# Density = 2.119310 g / cm^3
# Si number density = 21.241449 Si / 1000 Ang^3
#
#
#
# Elastic Constant Matrix: (Units=GPa)
#
#
# Indices 1 2 3 4 5 6 
#
# 1 53.1916 31.4624 17.6268 -0.0001 -7.6963 0.0012
# 2 31.4624 138.4303 44.6495 0.0000 -1.8988 0.0017
# 3 17.6268 44.6495 89.0739 0.0000 -2.2260 -0.0001
# 4 -0.0001 0.0000 0.0000 33.2479 -0.0001 -1.4897
# 5 -7.6963 -1.8988 -2.2260 -0.0001 30.5063 0.0000
# 6 0.0012 0.0017 -0.0001 -1.4897 0.0000 46.6903
#
#
#
# Elastic Compliance Matrix: (Units=1/GPa)
#
#
# Indices 1 2 3 4 5 6 
#
# 1 0.022918 -0.004432 -0.002180 0.000000 0.005347 0.000000
# 2 -0.004432 0.009476 -0.003893 0.000000 -0.000812 0.000000
# 3 -0.002180 -0.003893 0.013614 0.000000 0.000201 0.000000
# 4 0.000000 0.000000 0.000000 0.030120 0.000000 0.000961
# 5 0.005347 -0.000812 0.000201 0.000000 0.034093 0.000000
# 6 0.000000 0.000000 0.000000 0.000961 0.000000 0.021448
#
#
# Mechanical properties :
#
#
# Convention : Reuss Voigt Hill
#
# Bulk Modulus (GPa) = 40.00391 52.01924 46.01157
# Shear Modulus (GPa) = 31.05352 34.55270 32.80311
#
# Velocity S-wave (km/s) = 3.82767 4.03757 3.93402
# Velocity P-wave (km/s) = 6.19746 6.80284 6.50719
#
# Compressibility (1/GPa) = 0.02499756
#
# Stress axis : x y z
#
# Youngs Moduli (GPa) = 43.63457 105.53259 73.45129
#
# Poissons Ratio (x) = 0.46775 0.16011
# Poissons Ratio (y) = 0.19340 0.28595
# Poissons Ratio (z) = 0.09511 0.41084
#
# Static dielectric constant tensor:
#      x y z
#    x 3.637660 0.000000 0.016510 
#    y 0.000000 3.960200 0.000000 
#    z 0.016510 0.000000 3.855880 
# 
# 
# High freq. dielectric constant tensor:
#      x y z
#    x 1.827040 0.000000 -0.004550 
#    y 0.000000 1.844320 0.000000 
#    z -0.004550 0.000000 1.824870 
# 
# From -- ./inp_files/295405.got.cif
#   From: 2010.06.25/outbox.cif.g09.slc.cpg/sg15_148_cif.got.tgz:295405.got - 2010.06.28 07:06:18.
