data_PCOD8143061
_publ_section_title
;
Structure prediction by ZEFSAII (Michael W. Deem and Ramdas Pophale) SiO2 
 PCOD8143061
Probable space group: C 2/C
;
_chemical_formula_sum "Si O2"
_cell_formula_units_Z 64
_cell_length_a 13.857743
_cell_length_b 14.515676
_cell_length_c 17.250468
_cell_angle_alpha 90.000000
_cell_angle_beta 120.798609
_cell_angle_gamma 90.000000
_cell_volume 2980.642047
_symmetry_space_group_name_H-M "C 2/C"
_symmetry_group_IT_number 15
_symmetry_cell_setting 'monoclinic'
loop_
_space_group_symop_operation_xyz
x,y,z
-x,y,1/2-z
-x,-y,-z
x,-y,1/2+z
1/2+x,1/2+y,z
1/2-x,1/2+y,1/2-z
1/2-x,1/2-y,-z
1/2+x,1/2-y,1/2+z
loop_
_atom_site_type_symbol
_atom_site_label
_atom_site_fract_x
_atom_site_fract_y
_atom_site_fract_z
Si Si1 0.429715 0.202976 0.586622
Si Si2 0.761224 0.807253 0.615425
Si Si3 0.118404 0.847220 0.449885
Si Si4 0.366236 0.836607 0.616344
Si Si5 0.054876 0.127165 0.088482
Si Si6 0.488507 0.007660 0.834671
Si Si7 0.795303 0.621005 0.249936
Si Si8 0.588869 0.473124 0.855127
O O1 0.345208 0.215382 0.480555
O O2 0.361951 0.234278 0.637245
O O3 0.534918 0.270404 0.615246
O O4 0.478829 0.100256 0.606727
O O5 0.722410 0.803717 0.689194
O O6 0.802437 0.912158 0.619137
O O7 0.238981 0.833558 0.537150
O O8 0.072343 0.753464 0.392319
O O9 0.038152 0.874347 0.488751
O O10 0.123715 0.921719 0.383140
O O11 0.371728 0.834411 0.712833
O O12 0.424569 0.927409 0.605927
O O13 0.176066 0.090301 0.165853
O O14 0.960773 0.060157 0.083465
O O15 0.500000 0.033364 0.750000
O O16 0.362958 0.971360 0.805021
O O17 0.500000 0.462609 0.750000
#
# Coordination Sequence:
#
# PCOD8143061 Si02
#       8
#     8   8   8   8   8   8   8   8
#     4  10  23  40  65  96 122 174 216 253 332 383
#     4  10  22  41  62  93 131 162 212 273 311 382
#     4  10  21  40  63  85 118 167 212 248 320 388
#     4   9  21  42  60  86 125 163 207 266 313 368
#     4  10  22  41  63  92 127 162 206 270 312 371
#     4  10  22  39  63  90 126 166 206 266 321 374
#     4  10  21  40  61  88 129 163 201 269 319 360
#     4  11  21  38  64  92 124 165 205 264 323 375
#
# _framework density 21.471882999999998
#
# number of rings (size 3 to 8) (size 9 to 14) (size 15 to 20)
#    0.000    2.000    1.250    1.125    3.500    2.000 
#    6.750    2.500    0.000    0.000    0.000    0.000 
#    0.000    0.000    0.000    0.000    0.000    0.000 
#
# Total GULP energy -396744.088166 kJ/mol
# GULP energy per Si atom -12398.252755 kJ/mol
# Density = 2.142301 g / cm^3
# Si number density = 21.471883 Si / 1000 Ang^3
#
#
#
# Elastic Constant Matrix: (Units=GPa)
#
#
# Indices 1 2 3 4 5 6 
#
# 1 79.1959 25.7444 23.6800 0.0000 -7.6016 0.0000
# 2 25.7444 131.9180 27.0955 0.0000 -3.6992 0.0000
# 3 23.6800 27.0955 50.4352 0.0000 -8.3709 0.0000
# 4 0.0000 0.0000 0.0000 26.3584 0.0000 0.3118
# 5 -7.6016 -3.6992 -8.3709 0.0000 21.5148 0.0000
# 6 0.0000 0.0000 0.0000 0.3118 0.0000 21.8904
#
#
#
# Elastic Compliance Matrix: (Units=1/GPa)
#
#
# Indices 1 2 3 4 5 6 
#
# 1 0.015168 -0.001702 -0.005736 0.000000 0.002834 0.000000
# 2 -0.001702 0.008714 -0.003991 0.000000 -0.000656 0.000000
# 3 -0.005736 -0.003991 0.025886 0.000000 0.007359 0.000000
# 4 0.000000 0.000000 0.000000 0.037945 0.000000 -0.000541
# 5 0.002834 -0.000656 0.007359 0.000000 0.050231 0.000000
# 6 0.000000 0.000000 0.000000 -0.000541 0.000000 0.045690
#
#
# Mechanical properties :
#
#
# Convention : Reuss Voigt Hill
#
# Bulk Modulus (GPa) = 37.16337 46.06542 41.61440
# Shear Modulus (GPa) = 23.20584 26.28800 24.74692
#
# Velocity S-wave (km/s) = 3.29105 3.50279 3.39857
# Velocity P-wave (km/s) = 5.63798 6.15303 5.90113
#
# Compressibility (1/GPa) = 0.02690822
#
# Stress axis : x y z
#
# Youngs Moduli (GPa) = 65.93023 114.75728 38.63056
#
# Poissons Ratio (x) = 0.19535 0.22160
# Poissons Ratio (y) = 0.11223 0.15418
# Poissons Ratio (z) = 0.37820 0.45801
#
# Static dielectric constant tensor:
#      x y z
#    x 4.006360 0.000000 -0.178220 
#    y 0.000000 3.804920 0.000000 
#    z -0.178220 0.000000 3.858060 
# 
# 
# High freq. dielectric constant tensor:
#      x y z
#    x 1.842420 0.000000 -0.001040 
#    y 0.000000 1.830010 0.000000 
#    z -0.001040 0.000000 1.840830 
# 
# From -- ./inp_files/205426.got.cif
#   From: 2010.06.25/outbox.cif.g09.slc.cpg/sg15_103_cif.got.tgz:205426.got - 2010.06.28 07:06:18.
