data_PCOD8143606
_publ_section_title
;
Structure prediction by ZEFSAII (Michael W. Deem and Ramdas Pophale) SiO2 
 PCOD8143606
Probable space group: C 2/C
;
_chemical_formula_sum "Si O2"
_cell_formula_units_Z 40
_cell_length_a 11.234702
_cell_length_b 8.093325
_cell_length_c 25.285629
_cell_angle_alpha 90.000000
_cell_angle_beta 123.462055
_cell_angle_gamma 90.000000
_cell_volume 1918.046459
_symmetry_space_group_name_H-M "C 2/C"
_symmetry_group_IT_number 15
_symmetry_cell_setting 'monoclinic'
loop_
_space_group_symop_operation_xyz
x,y,z
-x,y,1/2-z
-x,-y,-z
x,-y,1/2+z
1/2+x,1/2+y,z
1/2-x,1/2+y,1/2-z
1/2-x,1/2-y,-z
1/2+x,1/2-y,1/2+z
loop_
_atom_site_type_symbol
_atom_site_label
_atom_site_fract_x
_atom_site_fract_y
_atom_site_fract_z
Si Si1 0.168638 0.670992 0.794576
Si Si2 0.844308 0.119837 0.108794
Si Si3 0.344054 0.641143 0.310613
Si Si4 0.646326 0.132735 0.506696
Si Si5 0.005530 0.326173 0.431634
O O1 0.216144 0.760398 0.860213
O O2 0.239374 0.491060 0.810797
O O3 0.223613 0.781489 0.758904
O O4 0.000000 0.643772 0.750000
O O5 0.002203 0.054304 0.164768
O O6 0.860923 0.218873 0.057147
O O7 0.735669 0.972838 0.071565
O O8 0.372400 0.792969 0.358967
O O9 0.750000 0.250000 0.500000
O O10 0.536438 0.230504 0.518501
O O11 0.555415 0.018299 0.444489
#
# Coordination Sequence:
#
# PCOD8143606 Si02
#       5
#     8   8   8   8   8
#     4  10  21  41  61  87 123 159 200 256 303 371
#     4   9  22  40  61  87 124 157 199 250 309 359
#     4   9  22  40  61  89 120 157 202 250 306 366
#     4  11  23  39  63  89 123 162 205 252 302 364
#     4   9  23  40  56  93 121 154 209 246 295 381
#
# _framework density 20.85455
#
# number of rings (size 3 to 8) (size 9 to 14) (size 15 to 20)
#    1.200    1.200    0.000    0.600    5.600    4.000 
#    3.600    0.000    0.000    0.000    0.000    0.000 
#    0.000    0.000    0.000    0.000    0.000    0.000 
#
# Total GULP energy -247765.998729 kJ/mol
# GULP energy per Si atom -12388.299936 kJ/mol
# Density = 2.080708 g / cm^3
# Si number density = 20.854550 Si / 1000 Ang^3
#
#
#
# Elastic Constant Matrix: (Units=GPa)
#
#
# Indices 1 2 3 4 5 6 
#
# 1 70.2249 55.0484 39.6202 0.0000 -23.2270 0.0000
# 2 55.0484 102.4411 60.6739 0.0000 -8.7624 0.0000
# 3 39.6202 60.6739 97.0082 0.0000 -9.9975 0.0000
# 4 0.0000 0.0000 0.0000 37.1184 0.0000 -1.9790
# 5 -23.2270 -8.7624 -9.9975 0.0000 29.4067 0.0000
# 6 0.0000 0.0000 0.0000 -1.9790 0.0000 50.1864
#
#
#
# Elastic Compliance Matrix: (Units=1/GPa)
#
#
# Indices 1 2 3 4 5 6 
#
# 1 0.035182 -0.015642 -0.002282 0.000000 0.022352 0.000000
# 2 -0.015642 0.022514 -0.008575 0.000000 -0.008562 0.000000
# 3 -0.002282 -0.008575 0.016741 0.000000 0.001334 0.000000
# 4 0.000000 0.000000 0.000000 0.026998 0.000000 0.001065
# 5 0.022352 -0.008562 0.001334 0.000000 0.049563 0.000000
# 6 0.000000 0.000000 0.000000 0.001065 0.000000 0.019968
#
#
# Mechanical properties :
#
#
# Convention : Reuss Voigt Hill
#
# Bulk Modulus (GPa) = 46.64521 64.48437 55.56479
# Shear Modulus (GPa) = 21.63469 30.96442 26.29955
#
# Velocity S-wave (km/s) = 3.22438 3.85746 3.55504
# Velocity P-wave (km/s) = 6.02309 7.12939 6.59946
#
# Compressibility (1/GPa) = 0.02143843
#
# Stress axis : x y z
#
# Youngs Moduli (GPa) = 28.42344 44.41738 59.73281
#
# Poissons Ratio (x) = 0.69478 0.13633
# Poissons Ratio (y) = 0.44460 0.51221
# Poissons Ratio (z) = 0.06487 0.38088
#
# Static dielectric constant tensor:
#      x y z
#    x 3.835070 0.000000 -0.124520 
#    y 0.000000 3.367080 0.000000 
#    z -0.124520 0.000000 3.703070 
# 
# 
# High freq. dielectric constant tensor:
#      x y z
#    x 1.826180 0.000000 -0.008440 
#    y 0.000000 1.783180 0.000000 
#    z -0.008440 0.000000 1.813730 
# 
# From -- ./inp_files/290902.got.cif
#   From: 2010.06.25/outbox.cif.g09.slc.cpg/sg15_146_cif.got.tgz:290902.got - 2010.06.28 07:06:18.
