data_PCOD8143160
_publ_section_title
;
Structure prediction by ZEFSAII (Michael W. Deem and Ramdas Pophale) SiO2 
 PCOD8143160
Probable space group: C 2/C
;
_chemical_formula_sum "Si O2"
_cell_formula_units_Z 64
_cell_length_a 19.913049
_cell_length_b 18.633995
_cell_length_c 15.906028
_cell_angle_alpha 90.000000
_cell_angle_beta 149.560566
_cell_angle_gamma 90.000000
_cell_volume 2990.157359
_symmetry_space_group_name_H-M "C 2/C"
_symmetry_group_IT_number 15
_symmetry_cell_setting 'monoclinic'
loop_
_space_group_symop_operation_xyz
x,y,z
-x,y,1/2-z
-x,-y,-z
x,-y,1/2+z
1/2+x,1/2+y,z
1/2-x,1/2+y,1/2-z
1/2-x,1/2-y,-z
1/2+x,1/2-y,1/2+z
loop_
_atom_site_type_symbol
_atom_site_label
_atom_site_fract_x
_atom_site_fract_y
_atom_site_fract_z
Si Si1 0.858900 0.437851 0.768228
Si Si2 0.982083 0.589383 0.892267
Si Si3 0.728886 0.327828 0.081767
Si Si4 0.300567 0.211233 0.140182
Si Si5 0.052889 0.054121 0.958223
Si Si6 0.518109 0.404540 0.605197
Si Si7 0.781804 0.340495 0.947256
Si Si8 0.976033 0.200120 0.631314
O O1 0.932640 0.509042 0.812078
O O2 0.850063 0.372436 0.689246
O O3 0.710585 0.458824 0.635889
O O4 0.939961 0.410107 0.935938
O O5 0.855444 0.641628 0.768965
O O6 0.079017 0.621261 0.925138
O O7 0.715226 0.242925 0.070850
O O8 0.590559 0.353756 0.970650
O O9 0.748545 0.355496 0.008179
O O10 0.415668 0.258697 0.308578
O O11 0.250000 0.250000 0.000000
O O12 0.172537 0.214624 0.063580
O O13 0.987046 0.080486 0.974320
O O14 0.006328 0.114870 0.842860
O O15 0.986059 0.981502 0.852604
O O16 0.664044 0.372882 0.765619
O O17 0.000000 0.233136 0.750000
#
# Coordination Sequence:
#
# PCOD8143160 Si02
#       8
#     8   8   8   8   8   8   8   8
#     4  10  21  41  67  92 134 171 214 282 323 392
#     4  11  22  42  66  95 129 175 221 265 340 399
#     4  11  24  42  65  93 132 168 213 274 332 392
#     4   9  19  39  60  88 126 164 205 259 323 375
#     4  10  21  40  63  90 123 163 216 263 317 387
#     4  11  22  41  64  90 124 164 213 263 325 392
#     4  11  24  42  63  96 131 167 214 275 328 399
#     4   9  19  37  59  85 122 160 203 263 312 381
#
# _framework density 21.403556999999999
#
# number of rings (size 3 to 8) (size 9 to 14) (size 15 to 20)
#    0.000    1.750    2.500    1.500    0.000    5.000 
#    6.750    2.500    0.000    0.000    0.000    0.000 
#    0.000    0.000    0.000    0.000    0.000    0.000 
#
# Total GULP energy -396449.977786 kJ/mol
# GULP energy per Si atom -12389.061806 kJ/mol
# Density = 2.135484 g / cm^3
# Si number density = 21.403557 Si / 1000 Ang^3
#
#
#
# Elastic Constant Matrix: (Units=GPa)
#
#
# Indices 1 2 3 4 5 6 
#
# 1 54.6417 53.6372 32.1218 -0.0001 15.9660 -0.0002
# 2 53.6372 137.2258 64.8234 0.0000 19.3315 -0.0001
# 3 32.1218 64.8234 75.5379 0.0000 30.0889 -0.0002
# 4 -0.0001 0.0000 0.0000 43.4093 0.0000 5.7403
# 5 15.9660 19.3315 30.0889 0.0000 36.6197 -0.0002
# 6 -0.0002 -0.0001 -0.0002 5.7403 -0.0002 30.0476
#
#
#
# Elastic Compliance Matrix: (Units=1/GPa)
#
#
# Indices 1 2 3 4 5 6 
#
# 1 0.031734 -0.010688 -0.001574 0.000000 -0.006901 0.000000
# 2 -0.010688 0.016118 -0.011525 0.000000 0.005622 0.000000
# 3 -0.001574 -0.011525 0.031368 0.000000 -0.019003 0.000000
# 4 0.000000 0.000000 0.000000 0.023634 0.000000 -0.004515
# 5 -0.006901 0.005622 -0.019003 0.000000 0.042963 0.000000
# 6 0.000000 0.000000 0.000000 -0.004515 0.000000 0.034143
#
#
# Mechanical properties :
#
#
# Convention : Reuss Voigt Hill
#
# Bulk Modulus (GPa) = 31.60117 63.17447 47.38782
# Shear Modulus (GPa) = 21.00111 29.80352 25.40231
#
# Velocity S-wave (km/s) = 3.13580 3.73561 3.44877
# Velocity P-wave (km/s) = 5.28276 6.94164 6.16822
#
# Compressibility (1/GPa) = 0.03164440
#
# Stress axis : x y z
#
# Youngs Moduli (GPa) = 31.51153 62.04417 31.87984
#
# Poissons Ratio (x) = 0.66316 0.05017
# Poissons Ratio (y) = 0.33681 0.36743
# Poissons Ratio (z) = 0.04959 0.71509
#
# Static dielectric constant tensor:
#      x y z
#    x 3.838540 0.000000 0.464350 
#    y 0.000000 4.195780 0.000000 
#    z 0.464350 0.000000 4.152520 
# 
# 
# High freq. dielectric constant tensor:
#      x y z
#    x 1.820400 0.000000 0.024420 
#    y 0.000000 1.855410 0.000000 
#    z 0.024420 0.000000 1.845990 
# 
# From -- ./inp_files/216177.got.cif
#   From: 2010.06.25/outbox.cif.g09.slc.cpg/sg15_109_cif.got.tgz:216177.got - 2010.06.28 07:06:18.
