data_PCOD8143909
_publ_section_title
;
Structure prediction by ZEFSAII (Michael W. Deem and Ramdas Pophale) SiO2 
 PCOD8143909
Probable space group: C 2/C
;
_chemical_formula_sum "Si O2"
_cell_formula_units_Z 36
_cell_length_a 10.333269
_cell_length_b 16.264621
_cell_length_c 13.921383
_cell_angle_alpha 90.000000
_cell_angle_beta 47.546406
_cell_angle_gamma 90.000000
_cell_volume 1726.302931
_symmetry_space_group_name_H-M "C 2/C"
_symmetry_group_IT_number 15
_symmetry_cell_setting 'monoclinic'
loop_
_space_group_symop_operation_xyz
x,y,z
-x,y,1/2-z
-x,-y,-z
x,-y,1/2+z
1/2+x,1/2+y,z
1/2-x,1/2+y,1/2-z
1/2-x,1/2-y,-z
1/2+x,1/2-y,1/2+z
loop_
_atom_site_type_symbol
_atom_site_label
_atom_site_fract_x
_atom_site_fract_y
_atom_site_fract_z
Si Si1 0.879651 0.879135 0.093389
Si Si2 0.000000 0.567172 0.750000
Si Si3 0.449421 0.770101 0.887348
Si Si4 0.441421 0.459280 0.669456
Si Si5 0.036164 0.550813 0.388513
O O1 0.666685 0.878833 0.199743
O O2 0.931316 0.791193 0.110139
O O3 0.967286 0.947747 0.118549
O O4 0.951252 0.893771 0.949255
O O5 0.068999 0.504970 0.634298
O O6 0.500000 0.770616 0.750000
O O7 0.460144 0.858677 0.931250
O O8 0.250000 0.750000 0.000000
O O9 0.500000 0.451968 0.750000
O O10 0.238454 0.438443 0.760216
O O11 0.000000 0.500000 0.500000
#
# Coordination Sequence:
#
# PCOD8143909 Si02
#       5
#     8   4   8   8   8
#     4  10  23  40  71  97 133 180 226 281 338 402
#     4  10  22  44  66  94 134 174 224 270 342 404
#     4  12  27  45  71 103 137 175 232 287 335 403
#     4  10  21  41  66  97 135 179 227 274 341 407
#     4  11  24  42  68  97 133 179 219 275 340 402
#
# _framework density 20.853814
#
# number of rings (size 3 to 8) (size 9 to 14) (size 15 to 20)
#    0.000    1.333    1.111    3.333   15.556    0.000 
#    2.000    2.222    0.000    0.000    0.000    0.000 
#    0.000    0.000    0.000    0.000    0.000    0.000 
#
# Total GULP energy -223169.441799 kJ/mol
# GULP energy per Si atom -12398.302322 kJ/mol
# Density = 2.080635 g / cm^3
# Si number density = 20.853814 Si / 1000 Ang^3
#
#
#
# Elastic Constant Matrix: (Units=GPa)
#
#
# Indices 1 2 3 4 5 6 
#
# 1 119.0975 76.4031 45.7082 0.0002 12.7800 -0.0004
# 2 76.4031 161.1121 66.8313 0.0003 4.5359 -0.0004
# 3 45.7082 66.8313 122.3977 -0.0005 15.8001 0.0003
# 4 0.0002 0.0003 -0.0005 27.5191 0.0002 0.5999
# 5 12.7800 4.5359 15.8001 0.0002 54.0553 0.0001
# 6 -0.0004 -0.0004 0.0003 0.5999 0.0001 36.6646
#
#
#
# Elastic Compliance Matrix: (Units=1/GPa)
#
#
# Indices 1 2 3 4 5 6 
#
# 1 0.012598 -0.005269 -0.001559 0.000000 -0.002081 0.000000
# 2 -0.005269 0.010249 -0.003822 0.000000 0.001503 0.000000
# 3 -0.001559 -0.003822 0.011172 0.000000 -0.002576 0.000000
# 4 0.000000 0.000000 0.000000 0.036351 0.000000 -0.000595
# 5 -0.002081 0.001503 -0.002576 0.000000 0.019618 0.000000
# 6 0.000000 0.000000 0.000000 -0.000595 0.000000 0.027284
#
#
# Mechanical properties :
#
#
# Convention : Reuss Voigt Hill
#
# Bulk Modulus (GPa) = 78.62893 86.72140 82.67516
# Shear Modulus (GPa) = 35.01075 37.89213 36.45144
#
# Velocity S-wave (km/s) = 4.10184 4.26730 4.18539
# Velocity P-wave (km/s) = 7.76016 8.12129 7.94278
#
# Compressibility (1/GPa) = 0.01271797
#
# Stress axis : x y z
#
# Youngs Moduli (GPa) = 79.37549 97.57198 89.50993
#
# Poissons Ratio (x) = 0.51412 0.13956
# Poissons Ratio (y) = 0.41824 0.34214
# Poissons Ratio (z) = 0.12375 0.37296
#
# Static dielectric constant tensor:
#      x y z
#    x 3.842240 -0.000020 -0.389930 
#    y -0.000020 3.079060 0.000120 
#    z -0.389930 0.000120 6.021440 
# 
# 
# High freq. dielectric constant tensor:
#      x y z
#    x 1.828100 0.000000 0.000570 
#    y 0.000000 1.806630 0.000000 
#    z 0.000570 0.000000 1.832970 
# 
# From -- ./inp_files/28829.got.cif
#   From: 2010.06.25/outbox.cif.g09.slc.cpg/sg15_15_cif.got.tgz:28829.got - 2010.06.28 07:06:18.
