data_PCOD8143028
_publ_section_title
;
Structure prediction by ZEFSAII (Michael W. Deem and Ramdas Pophale) SiO2 
 PCOD8143028
Probable space group: C 2/C
;
_chemical_formula_sum "Si O2"
_cell_formula_units_Z 40
_cell_length_a 17.728754
_cell_length_b 6.922710
_cell_length_c 16.258458
_cell_angle_alpha 90.000000
_cell_angle_beta 100.476159
_cell_angle_gamma 90.000000
_cell_volume 1962.154872
_symmetry_space_group_name_H-M "C 2/C"
_symmetry_group_IT_number 15
_symmetry_cell_setting 'monoclinic'
loop_
_space_group_symop_operation_xyz
x,y,z
-x,y,1/2-z
-x,-y,-z
x,-y,1/2+z
1/2+x,1/2+y,z
1/2-x,1/2+y,1/2-z
1/2-x,1/2-y,-z
1/2+x,1/2-y,1/2+z
loop_
_atom_site_type_symbol
_atom_site_label
_atom_site_fract_x
_atom_site_fract_y
_atom_site_fract_z
Si Si1 0.303598 0.075813 0.685870
Si Si2 0.301874 0.231379 0.858825
Si Si3 0.207392 0.656419 0.067192
Si Si4 0.923744 0.553617 0.565326
Si Si5 0.046614 0.194430 0.027731
O O1 0.333914 0.129999 0.782161
O O2 0.231997 0.218083 0.650651
O O3 0.374878 0.087403 0.637679
O O4 0.270649 0.861376 0.676669
O O5 0.370331 0.353003 0.915802
O O6 0.268478 0.066460 0.912870
O O7 0.250000 0.750000 0.000000
O O8 0.117785 0.646151 0.024567
O O9 0.941029 0.325957 0.552212
O O10 0.001781 0.676011 0.586749
O O11 0.000000 0.000000 0.000000
#
# Coordination Sequence:
#
# PCOD8143028 Si02
#       5
#     8   8   8   8   8
#     4  11  21  37  59  90 121 158 197 258 315 362
#     4  11  22  36  61  88 124 156 205 258 311 364
#     4   9  19  36  58  86 117 155 202 248 300 364
#     4   9  21  37  60  84 118 157 201 249 302 365
#     4  10  21  40  60  86 115 161 209 249 297 376
#
# _framework density 20.385750999999999
#
# number of rings (size 3 to 8) (size 9 to 14) (size 15 to 20)
#    0.000    2.000    2.000    1.200    0.000   11.200 
#    0.000    0.000    0.000    0.000    0.000    0.000 
#    0.000    0.000    0.000    0.000    0.000    0.000 
#
# Total GULP energy -247806.276565 kJ/mol
# GULP energy per Si atom -12390.313828 kJ/mol
# Density = 2.033935 g / cm^3
# Si number density = 20.385751 Si / 1000 Ang^3
#
#
#
# Elastic Constant Matrix: (Units=GPa)
#
#
# Indices 1 2 3 4 5 6 
#
# 1 66.7184 28.2076 21.8598 0.0000 -12.5725 0.0000
# 2 28.2076 100.3945 34.2433 0.0000 0.2751 0.0000
# 3 21.8598 34.2433 68.9794 0.0000 -1.6962 0.0000
# 4 0.0000 0.0000 0.0000 27.8884 0.0000 3.4627
# 5 -12.5725 0.2751 -1.6962 0.0000 24.5555 0.0000
# 6 0.0000 0.0000 0.0000 3.4627 0.0000 40.7567
#
#
#
# Elastic Compliance Matrix: (Units=1/GPa)
#
#
# Indices 1 2 3 4 5 6 
#
# 1 0.019986 -0.004293 -0.003956 0.000000 0.010008 0.000000
# 2 -0.004293 0.012921 -0.005120 0.000000 -0.002697 0.000000
# 3 -0.003956 -0.005120 0.018275 0.000000 -0.000706 0.000000
# 4 0.000000 0.000000 0.000000 0.036239 0.000000 -0.003079
# 5 0.010008 -0.002697 -0.000706 0.000000 0.045829 0.000000
# 6 0.000000 0.000000 0.000000 -0.003079 0.000000 0.024797
#
#
# Mechanical properties :
#
#
# Convention : Reuss Voigt Hill
#
# Bulk Modulus (GPa) = 40.91207 44.96818 42.94013
# Shear Modulus (GPa) = 25.91561 28.75890 27.33725
#
# Velocity S-wave (km/s) = 3.56934 3.76005 3.66594
# Velocity P-wave (km/s) = 6.09093 6.39978 6.24726
#
# Compressibility (1/GPa) = 0.02444266
#
# Stress axis : x y z
#
# Youngs Moduli (GPa) = 50.03616 77.39497 54.71926
#
# Poissons Ratio (x) = 0.33228 0.21647
# Poissons Ratio (y) = 0.21482 0.28016
# Poissons Ratio (z) = 0.19795 0.39626
#
# Static dielectric constant tensor:
#      x y z
#    x 3.719670 0.000000 0.262360 
#    y 0.000000 3.936360 0.000000 
#    z 0.262360 0.000000 3.806640 
# 
# 
# High freq. dielectric constant tensor:
#      x y z
#    x 1.788410 0.000000 0.006590 
#    y 0.000000 1.805580 0.000000 
#    z 0.006590 0.000000 1.780820 
# 
# From -- ./inp_files/208002.got.cif
#   From: 2010.06.25/outbox.cif.g09.slc.cpg/sg15_105_cif.got.tgz:208002.got - 2010.06.28 07:06:18.
