data_PCOD8143356
_publ_section_title
;
Structure prediction by ZEFSAII (Michael W. Deem and Ramdas Pophale) SiO2 
 PCOD8143356
Probable space group: C 2/C
;
_chemical_formula_sum "Si O2"
_cell_formula_units_Z 44
_cell_length_a 10.292300
_cell_length_b 23.540171
_cell_length_c 10.759935
_cell_angle_alpha 90.000000
_cell_angle_beta 129.363914
_cell_angle_gamma 90.000000
_cell_volume 2015.514899
_symmetry_space_group_name_H-M "C 2/C"
_symmetry_group_IT_number 15
_symmetry_cell_setting 'monoclinic'
loop_
_space_group_symop_operation_xyz
x,y,z
-x,y,1/2-z
-x,-y,-z
x,-y,1/2+z
1/2+x,1/2+y,z
1/2-x,1/2+y,1/2-z
1/2-x,1/2-y,-z
1/2+x,1/2-y,1/2+z
loop_
_atom_site_type_symbol
_atom_site_label
_atom_site_fract_x
_atom_site_fract_y
_atom_site_fract_z
Si Si1 0.830344 0.557361 0.419045
Si Si2 0.682738 0.933023 0.017480
Si Si3 0.306682 0.652741 0.792650
Si Si4 0.322976 0.230551 0.172914
Si Si5 0.147539 0.881271 0.613896
Si Si6 0.500000 0.117345 0.750000
O O1 0.758978 0.494053 0.394788
O O2 0.672710 0.591981 0.266443
O O3 0.980458 0.565472 0.408907
O O4 0.898946 0.577934 0.593154
O O5 0.773256 0.883799 0.150105
O O6 0.744563 0.920355 0.915659
O O7 0.356130 0.716487 0.784817
O O8 0.135203 0.657629 0.766469
O O9 0.451683 0.621272 0.959113
O O10 0.500000 0.200775 0.250000
O O11 0.207391 0.183519 0.164631
O O12 0.250000 0.250000 0.000000
#
# Coordination Sequence:
#
# PCOD8143356 Si02
#       6
#     8   8   8   8   8   4
#     4  10  24  40  66  93 136 181 214 269 331 401
#     4  10  21  40  65  99 132 170 222 271 330 383
#     4  11  24  44  64  99 134 175 216 279 325 399
#     4  12  22  41  71 103 133 163 220 281 329 378
#     4  12  24  41  70 102 130 173 228 274 334 382
#     4  10  26  48  62  90 140 178 222 264 338 408
#
# _framework density 21.830649000000001
#
# number of rings (size 3 to 8) (size 9 to 14) (size 15 to 20)
#    0.000    1.091    3.636    2.182   10.182    1.455 
#    3.273    3.636    0.000    0.000    0.000    0.000 
#    0.000    0.000    0.000    0.000    0.000    0.000 
#
# Total GULP energy -272750.769366 kJ/mol
# GULP energy per Si atom -12397.762244 kJ/mol
# Density = 2.178096 g / cm^3
# Si number density = 21.830649 Si / 1000 Ang^3
#
#
#
# Elastic Constant Matrix: (Units=GPa)
#
#
# Indices 1 2 3 4 5 6 
#
# 1 62.2216 16.2631 25.0126 0.0000 -1.4466 0.0000
# 2 16.2631 117.2588 31.4124 0.0000 -2.0357 0.0000
# 3 25.0126 31.4124 120.1627 0.0000 -3.6018 0.0000
# 4 0.0000 0.0000 0.0000 33.5469 0.0000 -1.5177
# 5 -1.4466 -2.0357 -3.6018 0.0000 26.8423 0.0000
# 6 0.0000 0.0000 0.0000 -1.5177 0.0000 18.6674
#
#
#
# Elastic Compliance Matrix: (Units=1/GPa)
#
#
# Indices 1 2 3 4 5 6 
#
# 1 0.017814 -0.001585 -0.003282 0.000000 0.000400 0.000000
# 2 -0.001585 0.009315 -0.002095 0.000000 0.000340 0.000000
# 3 -0.003282 -0.002095 0.009581 0.000000 0.000950 0.000000
# 4 0.000000 0.000000 0.000000 0.029919 0.000000 0.002433
# 5 0.000400 0.000340 0.000950 0.000000 0.037429 0.000000
# 6 0.000000 0.000000 0.000000 0.002433 0.000000 0.053767
#
#
# Mechanical properties :
#
#
# Convention : Reuss Voigt Hill
#
# Bulk Modulus (GPa) = 43.88362 49.44658 46.66510
# Shear Modulus (GPa) = 27.87915 30.94165 29.41040
#
# Velocity S-wave (km/s) = 3.57748 3.76885 3.67441
# Velocity P-wave (km/s) = 6.10000 6.45277 6.27886
#
# Compressibility (1/GPa) = 0.02278755
#
# Stress axis : x y z
#
# Youngs Moduli (GPa) = 56.13440 107.35298 104.36926
#
# Poissons Ratio (x) = 0.17011 0.34253
# Poissons Ratio (y) = 0.08895 0.21866
# Poissons Ratio (z) = 0.18423 0.22491
#
# Static dielectric constant tensor:
#      x y z
#    x 3.919590 0.000000 0.130340 
#    y 0.000000 4.199930 0.000000 
#    z 0.130340 0.000000 4.027480 
# 
# 
# High freq. dielectric constant tensor:
#      x y z
#    x 1.840870 0.000000 0.006290 
#    y 0.000000 1.856770 0.000000 
#    z 0.006290 0.000000 1.873950 
# 
# From -- ./inp_files/31858.got.cif
#   From: 2010.06.25/outbox.cif.g09.slc.cpg/sg15_16_cif.got.tgz:31858.got - 2010.06.28 07:06:18.
