data_PCOD8143717
_publ_section_title
;
Structure prediction by ZEFSAII (Michael W. Deem and Ramdas Pophale) SiO2 
 PCOD8143717
Probable space group: C 2/C
;
_chemical_formula_sum "Si O2"
_cell_formula_units_Z 64
_cell_length_a 11.697524
_cell_length_b 11.586872
_cell_length_c 23.622038
_cell_angle_alpha 90.000000
_cell_angle_beta 111.428970
_cell_angle_gamma 90.000000
_cell_volume 2980.348947
_symmetry_space_group_name_H-M "C 2/C"
_symmetry_group_IT_number 15
_symmetry_cell_setting 'monoclinic'
loop_
_space_group_symop_operation_xyz
x,y,z
-x,y,1/2-z
-x,-y,-z
x,-y,1/2+z
1/2+x,1/2+y,z
1/2-x,1/2+y,1/2-z
1/2-x,1/2-y,-z
1/2+x,1/2-y,1/2+z
loop_
_atom_site_type_symbol
_atom_site_label
_atom_site_fract_x
_atom_site_fract_y
_atom_site_fract_z
Si Si1 0.913650 0.154988 0.524511
Si Si2 0.279981 0.199126 0.691580
Si Si3 0.153338 0.897647 0.008578
Si Si4 0.118770 0.391304 0.700201
Si Si5 0.644710 0.865270 0.171096
Si Si6 0.663826 0.055479 0.328716
Si Si7 0.115412 0.269775 0.402861
Si Si8 0.759587 0.246784 0.589939
O O1 0.883000 0.196811 0.582740
O O2 0.856448 0.255484 0.473536
O O3 0.058968 0.144620 0.540688
O O4 0.847412 0.033787 0.500594
O O5 0.149407 0.268065 0.675536
O O6 0.348268 0.189545 0.764340
O O7 0.353434 0.269631 0.656212
O O8 0.275471 0.071437 0.663011
O O9 0.109988 0.843354 0.940846
O O10 0.287556 0.858343 0.051743
O O11 0.176110 0.498761 0.676804
O O12 0.185955 0.381693 0.772967
O O13 0.979710 0.433086 0.682826
O O14 0.512979 0.836535 0.120773
O O15 0.746523 0.820809 0.146158
O O16 0.731987 0.118643 0.391832
#
# Coordination Sequence:
#
# PCOD8143717 Si02
#       8
#     8   8   8   8   8   8   8   8
#     4  10  23  41  63  90 124 176 222 275 339 396
#     4  11  22  40  70  96 131 175 216 274 348 401
#     4  10  23  43  62  92 130 169 230 276 335 398
#     4  10  22  38  64  98 129 171 219 267 333 408
#     4  11  22  42  63  99 134 167 221 276 335 412
#     4  10  21  41  63  93 134 172 216 270 330 405
#     4  11  22  40  66  93 129 176 216 281 333 399
#     4  11  22  41  64  89 131 173 216 276 335 399
#
# _framework density 21.473996
#
# number of rings (size 3 to 8) (size 9 to 14) (size 15 to 20)
#    0.000    1.500    3.750    1.125    3.500    0.000 
#    0.000    0.625    0.000    0.000    0.000    0.000 
#    0.000    0.000    0.000    0.000    0.000    0.000 
#
# Total GULP energy -396418.925489 kJ/mol
# GULP energy per Si atom -12388.091422 kJ/mol
# Density = 2.142512 g / cm^3
# Si number density = 21.473996 Si / 1000 Ang^3
#
#
#
# Elastic Constant Matrix: (Units=GPa)
#
#
# Indices 1 2 3 4 5 6 
#
# 1 71.4189 49.0886 41.5231 0.0000 -21.6054 0.0000
# 2 49.0886 110.5234 40.6694 0.0000 -21.1126 0.0000
# 3 41.5231 40.6694 110.2895 0.0000 -25.2421 0.0000
# 4 0.0000 0.0000 0.0000 35.2811 0.0000 -8.7558
# 5 -21.6054 -21.1126 -25.2421 0.0000 36.6951 0.0000
# 6 0.0000 0.0000 0.0000 -8.7558 0.0000 30.0423
#
#
#
# Elastic Compliance Matrix: (Units=1/GPa)
#
#
# Indices 1 2 3 4 5 6 
#
# 1 0.023976 -0.007680 -0.004718 0.000000 0.006452 0.000000
# 2 -0.007680 0.013447 -0.001580 0.000000 0.002128 0.000000
# 3 -0.004718 -0.001580 0.012559 0.000000 0.004953 0.000000
# 4 0.000000 0.000000 0.000000 0.030554 0.000000 0.008905
# 5 0.006452 0.002128 0.004953 0.000000 0.035682 0.000000
# 6 0.000000 0.000000 0.000000 0.008905 0.000000 0.035882
#
#
# Mechanical properties :
#
#
# Convention : Reuss Voigt Hill
#
# Bulk Modulus (GPa) = 45.40109 61.64380 53.52244
# Shear Modulus (GPa) = 26.68136 31.13374 28.90755
#
# Velocity S-wave (km/s) = 3.52873 3.81180 3.67299
# Velocity P-wave (km/s) = 6.14743 6.93842 6.55486
#
# Compressibility (1/GPa) = 0.02202590
#
# Stress axis : x y z
#
# Youngs Moduli (GPa) = 41.70922 74.36702 79.62144
#
# Poissons Ratio (x) = 0.57114 0.37564
# Poissons Ratio (y) = 0.32033 0.12580
# Poissons Ratio (z) = 0.19678 0.11750
#
# Static dielectric constant tensor:
#      x y z
#    x 3.710330 0.000000 -0.304740 
#    y 0.000000 3.818630 0.000000 
#    z -0.304740 0.000000 4.330280 
# 
# 
# High freq. dielectric constant tensor:
#      x y z
#    x 1.827310 0.000000 -0.013600 
#    y 0.000000 1.835100 0.000000 
#    z -0.013600 0.000000 1.857370 
# 
# From -- ./inp_files/268929.got.cif
#   From: 2010.06.25/outbox.cif.g09.slc.cpg/sg15_135_cif.got.tgz:268929.got - 2010.06.28 07:06:18.
