data_PCOD8143896
_publ_section_title
;
Structure prediction by ZEFSAII (Michael W. Deem and Ramdas Pophale) SiO2 
 PCOD8143896
Probable space group: C 2/C
;
_chemical_formula_sum "Si O2"
_cell_formula_units_Z 40
_cell_length_a 28.982984
_cell_length_b 8.636038
_cell_length_c 14.215653
_cell_angle_alpha 90.000000
_cell_angle_beta 30.850261
_cell_angle_gamma 90.000000
_cell_volume 1824.606526
_symmetry_space_group_name_H-M "C 2/C"
_symmetry_group_IT_number 15
_symmetry_cell_setting 'monoclinic'
loop_
_space_group_symop_operation_xyz
x,y,z
-x,y,1/2-z
-x,-y,-z
x,-y,1/2+z
1/2+x,1/2+y,z
1/2-x,1/2+y,1/2-z
1/2-x,1/2-y,-z
1/2+x,1/2-y,1/2+z
loop_
_atom_site_type_symbol
_atom_site_label
_atom_site_fract_x
_atom_site_fract_y
_atom_site_fract_z
Si Si1 0.173622 0.283296 0.328794
Si Si2 0.120969 0.855406 0.287159
Si Si3 0.983427 0.039844 0.883456
Si Si4 0.895038 0.494124 0.705011
Si Si5 0.708592 0.015100 0.436222
O O1 0.086832 0.179436 0.499157
O O2 0.159247 0.381681 0.260262
O O3 0.187498 0.393832 0.392343
O O4 0.262942 0.179015 0.158924
O O5 0.143332 0.674686 0.252999
O O6 0.211709 0.953034 0.136527
O O7 0.075942 0.896563 0.265885
O O8 0.052999 0.897553 0.490891
O O9 0.000000 0.975523 0.750000
O O10 0.000000 0.500000 0.500000
O O11 0.878067 0.534848 0.844701
#
# Coordination Sequence:
#
# PCOD8143896 Si02
#       5
#     8   8   8   8   8
#     4  11  24  44  66 102 132 179 228 273 338 397
#     4  10  22  42  64  98 128 176 225 272 333 399
#     4  10  21  41  66  94 136 174 220 275 337 397
#     4  12  24  43  67  99 137 175 222 280 338 392
#     4  11  25  44  70  97 137 177 228 279 330 403
#
# _framework density 21.922533999999999
#
# number of rings (size 3 to 8) (size 9 to 14) (size 15 to 20)
#    0.000    1.200    2.000    3.600    0.000    3.200 
#   10.800    0.000    0.000    0.000    0.000    0.000 
#    0.000    0.000    0.000    0.000    0.000    0.000 
#
# Total GULP energy -248122.312958 kJ/mol
# GULP energy per Si atom -12406.115648 kJ/mol
# Density = 2.187264 g / cm^3
# Si number density = 21.922534 Si / 1000 Ang^3
#
#
#
# Elastic Constant Matrix: (Units=GPa)
#
#
# Indices 1 2 3 4 5 6 
#
# 1 125.8309 41.5142 52.0453 0.0000 27.3893 0.0000
# 2 41.5142 70.4830 18.9903 0.0000 16.5090 0.0000
# 3 52.0453 18.9903 109.0040 0.0000 25.5326 0.0000
# 4 0.0000 0.0000 0.0000 19.2486 0.0000 0.3201
# 5 27.3893 16.5090 25.5326 0.0000 39.8184 0.0000
# 6 0.0000 0.0000 0.0000 0.3201 0.0000 45.1179
#
#
#
# Elastic Compliance Matrix: (Units=1/GPa)
#
#
# Indices 1 2 3 4 5 6 
#
# 1 0.012116 -0.005209 -0.004038 0.000000 -0.003585 0.000000
# 2 -0.005209 0.018144 0.000293 0.000000 -0.004127 0.000000
# 3 -0.004038 0.000293 0.012272 0.000000 -0.005213 0.000000
# 4 0.000000 0.000000 0.000000 0.051958 0.000000 -0.000369
# 5 -0.003585 -0.004127 -0.005213 0.000000 0.032634 0.000000
# 6 0.000000 0.000000 0.000000 -0.000369 0.000000 0.022167
#
#
# Mechanical properties :
#
#
# Convention : Reuss Voigt Hill
#
# Bulk Modulus (GPa) = 40.60999 58.93528 49.77264
# Shear Modulus (GPa) = 28.50533 33.68819 31.09676
#
# Velocity S-wave (km/s) = 3.60985 3.92432 3.77036
# Velocity P-wave (km/s) = 5.99493 6.89025 6.45812
#
# Compressibility (1/GPa) = 0.02462448
#
# Stress axis : x y z
#
# Youngs Moduli (GPa) = 82.53480 55.11605 81.48689
#
# Poissons Ratio (x) = 0.28708 0.32902
# Poissons Ratio (y) = 0.42989 -0.02386
# Poissons Ratio (z) = 0.33325 -0.01614
#
# Static dielectric constant tensor:
#      x y z
#    x 3.974670 0.000000 -0.002550 
#    y 0.000000 4.093550 0.000000 
#    z -0.002550 0.000000 4.016860 
# 
# 
# High freq. dielectric constant tensor:
#      x y z
#    x 1.865630 0.000000 0.005110 
#    y 0.000000 1.869090 0.000000 
#    z 0.005110 0.000000 1.863890 
# 
# From -- ./inp_files/102711.got.cif
#   From: 2010.06.25/outbox.cif.g09.slc.cpg/sg15_52_cif.got.tgz:102711.got - 2010.06.28 07:06:18.
