data_PCOD8143532
_publ_section_title
;
Structure prediction by ZEFSAII (Michael W. Deem and Ramdas Pophale) SiO2 
 PCOD8143532
Probable space group: C 2/C
;
_chemical_formula_sum "Si O2"
_cell_formula_units_Z 52
_cell_length_a 14.996347
_cell_length_b 13.474325
_cell_length_c 21.316252
_cell_angle_alpha 90.000000
_cell_angle_beta 150.808005
_cell_angle_gamma 90.000000
_cell_volume 2100.823984
_symmetry_space_group_name_H-M "C 2/C"
_symmetry_group_IT_number 15
_symmetry_cell_setting 'monoclinic'
loop_
_space_group_symop_operation_xyz
x,y,z
-x,y,1/2-z
-x,-y,-z
x,-y,1/2+z
1/2+x,1/2+y,z
1/2-x,1/2+y,1/2-z
1/2-x,1/2-y,-z
1/2+x,1/2-y,1/2+z
loop_
_atom_site_type_symbol
_atom_site_label
_atom_site_fract_x
_atom_site_fract_y
_atom_site_fract_z
Si Si1 0.500000 0.231059 0.250000
Si Si2 0.861683 0.887808 0.355857
Si Si3 0.535063 0.410732 0.943230
Si Si4 0.049100 0.410531 0.078083
Si Si5 0.139255 0.678335 0.210742
Si Si6 0.327448 0.601209 0.106985
Si Si7 0.720550 0.118935 0.565475
O O1 0.616932 0.169066 0.272247
O O2 0.641857 0.299037 0.377661
O O3 0.860606 0.872797 0.430548
O O4 0.666473 0.933694 0.212851
O O5 0.902595 0.784145 0.347196
O O6 0.016115 0.969475 0.433510
O O7 0.337376 0.359888 0.813044
O O8 0.655044 0.380457 0.956567
O O9 0.184973 0.345744 0.117019
O O10 0.000000 0.500000 0.000000
O O11 0.864694 0.352186 0.985954
O O12 0.976941 0.606254 0.087782
O O13 0.500000 0.648477 0.250000
O O14 0.321352 0.485419 0.120524
#
# Coordination Sequence:
#
# PCOD8143532 Si02
#       7
#     4   8   8   8   8   8   8
#     4  12  22  38  64 100 136 170 226 298 356 410
#     4  11  24  45  69 100 147 184 233 302 354 420
#     4  11  25  45  69 101 146 190 229 295 365 421
#     4  10  21  40  69  99 134 177 232 288 345 416
#     4  12  25  43  70 105 140 184 233 294 361 434
#     4  11  21  40  71 102 135 185 239 288 344 432
#     4  11  21  39  66 102 138 172 228 293 355 414
#
# _framework density 24.752192000000001
#
# number of rings (size 3 to 8) (size 9 to 14) (size 15 to 20)
#    0.000    0.923    2.308    6.923    0.000    3.077 
#    0.000    0.769    3.385    0.000    0.000    0.000 
#    0.000    0.000    0.000    0.000    0.000    0.000 
#
# Total GULP energy -322178.604433 kJ/mol
# GULP energy per Si atom -12391.484786 kJ/mol
# Density = 2.469586 g / cm^3
# Si number density = 24.752192 Si / 1000 Ang^3
#
#
#
# Elastic Constant Matrix: (Units=GPa)
#
#
# Indices 1 2 3 4 5 6 
#
# 1 162.5246 9.1358 33.8582 0.0032 -6.1446 0.0011
# 2 9.1358 33.3641 -3.7648 0.0088 -4.3499 0.0013
# 3 33.8582 -3.7648 153.1335 0.0252 -9.9281 0.0026
# 4 0.0032 0.0088 0.0252 22.8584 0.0037 -1.1325
# 5 -6.1446 -4.3499 -9.9281 0.0037 46.7344 -0.0005
# 6 0.0011 0.0013 0.0026 -1.1325 -0.0005 19.6482
#
#
#
# Elastic Compliance Matrix: (Units=1/GPa)
#
#
# Indices 1 2 3 4 5 6 
#
# 1 0.006583 -0.001921 -0.001479 0.000001 0.000373 0.000000
# 2 -0.001921 0.031036 0.001378 -0.000014 0.002929 -0.000003
# 3 -0.001479 0.001378 0.006983 -0.000008 0.001417 -0.000001
# 4 0.000001 -0.000014 -0.000008 0.043873 -0.000006 0.002529
# 5 0.000373 0.002929 0.001417 -0.000006 0.022020 0.000000
# 6 0.000000 -0.000003 -0.000001 0.002529 0.000000 0.051041
#
#
# Mechanical properties :
#
#
# Convention : Reuss Voigt Hill
#
# Bulk Modulus (GPa) = 24.65610 47.49784 36.07697
# Shear Modulus (GPa) = 27.91758 38.50106 33.20932
#
# Velocity S-wave (km/s) = 3.36204 3.94821 3.66686
# Velocity P-wave (km/s) = 5.00539 6.32578 5.70392
#
# Compressibility (1/GPa) = 0.04055791
#
# Stress axis : x y z
#
# Youngs Moduli (GPa) = 151.90638 32.22105 143.20651
#
# Poissons Ratio (x) = 0.06189 0.21174
# Poissons Ratio (y) = 0.29179 -0.19728
# Poissons Ratio (z) = 0.22461 -0.04439
#
# Static dielectric constant tensor:
#      x y z
#    x 4.914600 -0.000010 0.072040 
#    y -0.000010 4.236270 -0.000010 
#    z 0.072040 -0.000010 4.700880 
# 
# 
# High freq. dielectric constant tensor:
#      x y z
#    x 1.989910 0.000000 -0.001340 
#    y 0.000000 1.959060 0.000000 
#    z -0.001340 0.000000 1.998160 
# 
# From -- ./inp_files/245046.got.cif
#   From: 2010.06.25/outbox.cif.g09.slc.cpg/sg15_123_cif.got.tgz:245046.got - 2010.06.28 07:06:18.
