data_PCOD8143786
_publ_section_title
;
Structure prediction by ZEFSAII (Michael W. Deem and Ramdas Pophale) SiO2 
 PCOD8143786
Probable space group: C 2/C
;
_chemical_formula_sum "Si O2"
_cell_formula_units_Z 64
_cell_length_a 11.594552
_cell_length_b 12.568231
_cell_length_c 21.438614
_cell_angle_alpha 90.000000
_cell_angle_beta 98.885124
_cell_angle_gamma 90.000000
_cell_volume 3086.610127
_symmetry_space_group_name_H-M "C 2/C"
_symmetry_group_IT_number 15
_symmetry_cell_setting 'monoclinic'
loop_
_space_group_symop_operation_xyz
x,y,z
-x,y,1/2-z
-x,-y,-z
x,-y,1/2+z
1/2+x,1/2+y,z
1/2-x,1/2+y,1/2-z
1/2-x,1/2-y,-z
1/2+x,1/2-y,1/2+z
loop_
_atom_site_type_symbol
_atom_site_label
_atom_site_fract_x
_atom_site_fract_y
_atom_site_fract_z
Si Si1 0.009772 0.463519 0.818691
Si Si2 0.209587 0.448557 0.621658
Si Si3 0.651893 0.161561 0.559225
Si Si4 0.954478 0.310376 0.139030
Si Si5 0.199425 0.638153 0.423889
Si Si6 0.412415 0.518168 0.935267
Si Si7 0.472969 0.418641 0.677948
Si Si8 0.208645 0.765913 0.065562
O O1 0.877405 0.468012 0.829624
O O2 0.000000 0.411038 0.750000
O O3 0.046266 0.587052 0.816677
O O4 0.099285 0.394398 0.867046
O O5 0.215761 0.550523 0.577590
O O6 0.336053 0.428471 0.659126
O O7 0.156683 0.347392 0.581167
O O8 0.524480 0.166446 0.580443
O O9 0.732034 0.256739 0.593181
O O10 0.636010 0.167749 0.483536
O O11 0.010016 0.205703 0.176078
O O12 0.819577 0.292718 0.116067
O O13 0.292030 0.542795 0.439425
O O14 0.462947 0.484149 0.871936
O O15 0.389223 0.644276 0.933094
O O16 0.500000 0.500000 0.000000
O O17 0.500000 0.461830 0.750000
O O18 0.250000 0.750000 0.000000
#
# Coordination Sequence:
#
# PCOD8143786 Si02
#       8
#     8   8   8   8   8   8   8   8
#     4  11  25  42  65  93 135 178 229 271 335 405
#     4  10  25  42  62  97 130 174 217 279 325 404
#     4  10  22  41  66  97 133 167 222 275 346 397
#     4  10  21  41  64  97 128 180 220 277 325 408
#     4  11  23  40  68  98 131 174 219 283 341 400
#     4  12  24  43  69 100 136 174 228 282 339 403
#     4  11  24  43  68  96 136 180 228 274 339 403
#     4  11  23  39  67  97 134 168 225 272 342 391
#
# _framework density 20.734721
#
# number of rings (size 3 to 8) (size 9 to 14) (size 15 to 20)
#    0.000    1.250    2.500    3.375    3.500    3.000 
#    0.000    2.500    0.000    0.000    0.000    0.000 
#    0.000    0.000    0.000    0.000    0.000    0.000 
#
# Total GULP energy -396728.445954 kJ/mol
# GULP energy per Si atom -12397.763936 kJ/mol
# Density = 2.068753 g / cm^3
# Si number density = 20.734721 Si / 1000 Ang^3
#
#
#
# Elastic Constant Matrix: (Units=GPa)
#
#
# Indices 1 2 3 4 5 6 
#
# 1 58.8281 13.9881 26.7811 0.0000 6.0926 0.0000
# 2 13.9881 141.4557 31.5247 0.0000 5.6660 0.0000
# 3 26.7811 31.5247 119.2924 0.0000 -8.5250 0.0000
# 4 0.0000 0.0000 0.0000 19.4687 0.0000 -1.7657
# 5 6.0926 5.6660 -8.5250 0.0000 22.0056 0.0000
# 6 0.0000 0.0000 0.0000 -1.7657 0.0000 35.5699
#
#
#
# Elastic Compliance Matrix: (Units=1/GPa)
#
#
# Indices 1 2 3 4 5 6 
#
# 1 0.020121 -0.000610 -0.004878 0.000000 -0.007303 0.000000
# 2 -0.000610 0.007699 -0.002085 0.000000 -0.002621 0.000000
# 3 -0.004878 -0.002085 0.010453 0.000000 0.005937 0.000000
# 4 0.000000 0.000000 0.000000 0.051597 0.000000 0.002561
# 5 -0.007303 -0.002621 0.005937 0.000000 0.050440 0.000000
# 6 0.000000 0.000000 0.000000 0.002561 0.000000 0.028241
#
#
# Mechanical properties :
#
#
# Convention : Reuss Voigt Hill
#
# Bulk Modulus (GPa) = 43.23883 51.57378 47.40630
# Shear Modulus (GPa) = 26.12254 31.89432 29.00843
#
# Velocity S-wave (km/s) = 3.55328 3.92625 3.74441
# Velocity P-wave (km/s) = 6.14272 6.74397 6.45035
#
# Compressibility (1/GPa) = 0.02312736
#
# Stress axis : x y z
#
# Youngs Moduli (GPa) = 49.70006 129.88128 95.66547
#
# Poissons Ratio (x) = 0.07924 0.46664
# Poissons Ratio (y) = 0.03032 0.19946
# Poissons Ratio (z) = 0.24243 0.27081
#
# Static dielectric constant tensor:
#      x y z
#    x 3.606910 0.000000 -0.139170 
#    y 0.000000 4.140100 0.000000 
#    z -0.139170 0.000000 3.573410 
# 
# 
# High freq. dielectric constant tensor:
#      x y z
#    x 1.818960 0.000000 -0.002810 
#    y 0.000000 1.825810 0.000000 
#    z -0.002810 0.000000 1.798460 
# 
# From -- ./inp_files/269271.got.cif
#   From: 2010.06.25/outbox.cif.g09.slc.cpg/sg15_135_cif.got.tgz:269271.got - 2010.06.28 07:06:18.
