data_PCOD8143382
_publ_section_title
;
Structure prediction by ZEFSAII (Michael W. Deem and Ramdas Pophale) SiO2 
 PCOD8143382
Probable space group: C 2/C
;
_chemical_formula_sum "Si O2"
_cell_formula_units_Z 56
_cell_length_a 8.771831
_cell_length_b 25.592461
_cell_length_c 17.717093
_cell_angle_alpha 90.000000
_cell_angle_beta 136.506983
_cell_angle_gamma 90.000000
_cell_volume 2737.481488
_symmetry_space_group_name_H-M "C 2/C"
_symmetry_group_IT_number 15
_symmetry_cell_setting 'monoclinic'
loop_
_space_group_symop_operation_xyz
x,y,z
-x,y,1/2-z
-x,-y,-z
x,-y,1/2+z
1/2+x,1/2+y,z
1/2-x,1/2+y,1/2-z
1/2-x,1/2-y,-z
1/2+x,1/2-y,1/2+z
loop_
_atom_site_type_symbol
_atom_site_label
_atom_site_fract_x
_atom_site_fract_y
_atom_site_fract_z
Si Si1 0.367107 0.574122 0.009770
Si Si2 0.601892 0.024151 0.463030
Si Si3 0.651749 0.312695 0.238066
Si Si4 0.146825 0.676802 0.972433
Si Si5 0.964271 0.079877 0.874142
Si Si6 0.254111 0.243417 0.629190
Si Si7 0.210595 0.475054 0.772996
O O1 0.612783 0.566781 0.132637
O O2 0.237406 0.519264 0.963364
O O3 0.225141 0.616666 0.004975
O O4 0.394069 0.593096 0.934070
O O5 0.392382 0.046631 0.341801
O O6 0.772596 0.070714 0.540796
O O7 0.500000 0.000000 0.500000
O O8 0.500000 0.289668 0.250000
O O9 0.590166 0.371968 0.198081
O O10 0.611213 0.275970 0.149906
O O11 0.897178 0.314608 0.358035
O O12 0.288302 0.704599 0.956902
O O13 0.185862 0.700128 0.070753
O O14 0.828013 0.029894 0.796602
O O15 0.500000 0.245072 0.750000
O O16 0.000000 0.483406 0.750000
#
# Coordination Sequence:
#
# PCOD8143382 Si02
#       7
#     8   8   8   8   8   8   8
#     4  11  21  38  62  89 119 170 212 253 311 375
#     4  11  24  38  57  88 134 169 210 262 306 361
#     4  11  24  38  65  97 124 161 210 264 325 383
#     4  10  21  40  66  91 120 160 212 261 318 382
#     4  11  22  36  60  91 122 168 216 252 306 380
#     4   9  20  42  67  90 119 156 205 267 320 386
#     4  11  20  37  60  84 126 175 209 250 305 365
#
# _framework density 20.456759999999999
#
# number of rings (size 3 to 8) (size 9 to 14) (size 15 to 20)
#    0.000    1.429    4.286    1.714    4.000    2.286 
#    2.571    0.000    0.000    3.429    0.000    0.000 
#    0.000    0.000    0.000    0.000    0.000    0.000 
#
# Total GULP energy -347120.457068 kJ/mol
# GULP energy per Si atom -12397.159181 kJ/mol
# Density = 2.041020 g / cm^3
# Si number density = 20.456760 Si / 1000 Ang^3
#
#
#
# Elastic Constant Matrix: (Units=GPa)
#
#
# Indices 1 2 3 4 5 6 
#
# 1 104.2694 9.9274 22.9744 0.0000 -11.4310 0.0000
# 2 9.9274 48.2672 -0.2408 0.0000 -2.7243 0.0000
# 3 22.9744 -0.2408 81.8749 0.0000 -2.2780 0.0000
# 4 0.0000 0.0000 0.0000 32.4383 0.0000 -4.8520
# 5 -11.4310 -2.7243 -2.2780 0.0000 29.8254 0.0000
# 6 0.0000 0.0000 0.0000 -4.8520 0.0000 25.1681
#
#
#
# Elastic Compliance Matrix: (Units=1/GPa)
#
#
# Indices 1 2 3 4 5 6 
#
# 1 0.010844 -0.002034 -0.002945 0.000000 0.003745 0.000000
# 2 -0.002034 0.021208 0.000667 0.000000 0.001209 0.000000
# 3 -0.002945 0.000667 0.013040 0.000000 -0.000072 0.000000
# 4 0.000000 0.000000 0.000000 0.031743 0.000000 0.006120
# 5 0.003745 0.001209 -0.000072 0.000000 0.035069 0.000000
# 6 0.000000 0.000000 0.000000 0.006120 0.000000 0.040913
#
#
# Mechanical properties :
#
#
# Convention : Reuss Voigt Hill
#
# Bulk Modulus (GPa) = 27.42098 33.30371 30.36235
# Shear Modulus (GPa) = 28.80271 30.93640 29.86955
#
# Velocity S-wave (km/s) = 3.75638 3.89303 3.82531
# Velocity P-wave (km/s) = 5.67867 6.04342 5.86388
#
# Compressibility (1/GPa) = 0.03646842
#
# Stress axis : x y z
#
# Youngs Moduli (GPa) = 92.22083 47.15248 76.68737
#
# Poissons Ratio (x) = 0.09589 0.22581
# Poissons Ratio (y) = 0.18753 -0.05112
# Poissons Ratio (z) = 0.27155 -0.03143
#
# Static dielectric constant tensor:
#      x y z
#    x 3.824630 0.000000 -0.014470 
#    y 0.000000 3.531880 0.000000 
#    z -0.014470 0.000000 3.681160 
# 
# 
# High freq. dielectric constant tensor:
#      x y z
#    x 1.799310 0.000000 -0.004460 
#    y 0.000000 1.772070 0.000000 
#    z -0.004460 0.000000 1.813320 
# 
# From -- ./inp_files/81244.got.cif
#   From: 2010.06.25/outbox.cif.g09.slc.cpg/sg15_41_cif.got.tgz:81244.got - 2010.06.28 07:06:18.
