data_PCOD8143084
_publ_section_title
;
Structure prediction by ZEFSAII (Michael W. Deem and Ramdas Pophale) SiO2 
 PCOD8143084
Probable space group: C 2/C
;
_chemical_formula_sum "Si O2"
_cell_formula_units_Z 40
_cell_length_a 15.017976
_cell_length_b 11.213615
_cell_length_c 15.222566
_cell_angle_alpha 90.000000
_cell_angle_beta 39.199867
_cell_angle_gamma 90.000000
_cell_volume 1620.245749
_symmetry_space_group_name_H-M "C 2/C"
_symmetry_group_IT_number 15
_symmetry_cell_setting 'monoclinic'
loop_
_space_group_symop_operation_xyz
x,y,z
-x,y,1/2-z
-x,-y,-z
x,-y,1/2+z
1/2+x,1/2+y,z
1/2-x,1/2+y,1/2-z
1/2-x,1/2-y,-z
1/2+x,1/2-y,1/2+z
loop_
_atom_site_type_symbol
_atom_site_label
_atom_site_fract_x
_atom_site_fract_y
_atom_site_fract_z
Si Si1 0.518687 0.610089 0.393175
Si Si2 0.804030 0.511019 0.680594
Si Si3 0.706654 0.039748 0.616599
Si Si4 0.511031 0.196164 0.045584
Si Si5 0.500000 0.774183 0.250000
Si Si6 0.000000 0.661668 0.250000
O O1 0.636181 0.507470 0.306610
O O2 0.374001 0.542899 0.480358
O O3 0.516004 0.680992 0.487557
O O4 0.557984 0.697354 0.285200
O O5 0.845571 0.562185 0.743870
O O6 0.850831 0.611550 0.574395
O O7 0.879656 0.382559 0.610295
O O8 0.632022 0.144282 0.617070
O O9 0.644655 0.914077 0.632100
O O10 0.496302 0.233717 0.160226
#
# Coordination Sequence:
#
# PCOD8143084 Si02
#       6
#     8   8   8   8   4   4
#     4  12  23  37  69  98 130 164 222 266 319 382
#     4  10  22  41  63  91 132 174 205 267 330 377
#     4  10  21  40  61  95 131 168 210 267 319 383
#     4  10  22  42  64  92 130 177 212 261 327 387
#     4  11  22  36  60 103 126 164 211 270 322 379
#     4   9  22  42  68  85 134 178 213 254 326 385
#
# _framework density 24.687612999999999
#
# number of rings (size 3 to 8) (size 9 to 14) (size 15 to 20)
#    0.000    1.600    2.000    2.400    5.600    0.000 
#    0.000    4.000    0.000    0.000    0.000    0.000 
#    0.000    0.000    0.000    0.000    0.000    0.000 
#
# Total GULP energy -247924.658237 kJ/mol
# GULP energy per Si atom -12396.232912 kJ/mol
# Density = 2.463142 g / cm^3
# Si number density = 24.687613 Si / 1000 Ang^3
#
#
#
# Elastic Constant Matrix: (Units=GPa)
#
#
# Indices 1 2 3 4 5 6 
#
# 1 111.2761 28.7735 43.1475 0.0000 -9.6736 0.0000
# 2 28.7735 34.0935 22.3103 0.0000 -16.0919 0.0000
# 3 43.1475 22.3103 87.5410 0.0000 -23.8677 0.0000
# 4 0.0000 0.0000 0.0000 27.7084 0.0000 2.0447
# 5 -9.6736 -16.0919 -23.8677 0.0000 67.3921 0.0000
# 6 0.0000 0.0000 0.0000 2.0447 0.0000 22.5282
#
#
#
# Elastic Compliance Matrix: (Units=1/GPa)
#
#
# Indices 1 2 3 4 5 6 
#
# 1 0.012875 -0.008718 -0.004635 0.000000 -0.001875 0.000000
# 2 -0.008718 0.043269 -0.004709 0.000000 0.007413 0.000000
# 3 -0.004635 -0.004709 0.015961 0.000000 0.003863 0.000000
# 4 0.000000 0.000000 0.000000 0.036334 0.000000 -0.003298
# 5 -0.001875 0.007413 0.003863 0.000000 0.017707 0.000000
# 6 0.000000 0.000000 0.000000 -0.003298 0.000000 0.044688
#
#
# Mechanical properties :
#
#
# Convention : Reuss Voigt Hill
#
# Bulk Modulus (GPa) = 27.79314 46.81926 37.30620
# Shear Modulus (GPa) = 22.83585 32.77103 27.80344
#
# Velocity S-wave (km/s) = 3.04467 3.64734 3.35955
# Velocity P-wave (km/s) = 4.86234 6.06163 5.49480
#
# Compressibility (1/GPa) = 0.03598011
#
# Stress axis : x y z
#
# Youngs Moduli (GPa) = 77.66801 23.11121 62.65097
#
# Poissons Ratio (x) = 0.20148 0.29042
# Poissons Ratio (y) = 0.67710 0.29505
# Poissons Ratio (z) = 0.36003 0.10884
#
# Static dielectric constant tensor:
#      x y z
#    x 4.486940 0.000000 0.062250 
#    y 0.000000 4.090860 0.000000 
#    z 0.062250 0.000000 4.435840 
# 
# 
# High freq. dielectric constant tensor:
#      x y z
#    x 1.985510 0.000000 -0.002040 
#    y 0.000000 1.959480 0.000000 
#    z -0.002040 0.000000 1.978170 
# 
# From -- ./inp_files/37913.got.cif
#   From: 2010.06.25/outbox.cif.g09.slc.cpg/sg15_19_cif.got.tgz:37913.got - 2010.06.28 07:06:18.
