data_PCOD8143439
_publ_section_title
;
Structure prediction by ZEFSAII (Michael W. Deem and Ramdas Pophale) SiO2 
 PCOD8143439
Probable space group: C 2/C
;
_chemical_formula_sum "Si O2"
_cell_formula_units_Z 48
_cell_length_a 13.366741
_cell_length_b 17.244231
_cell_length_c 18.071076
_cell_angle_alpha 90.000000
_cell_angle_beta 30.672293
_cell_angle_gamma 90.000000
_cell_volume 2124.866905
_symmetry_space_group_name_H-M "C 2/C"
_symmetry_group_IT_number 15
_symmetry_cell_setting 'monoclinic'
loop_
_space_group_symop_operation_xyz
x,y,z
-x,y,1/2-z
-x,-y,-z
x,-y,1/2+z
1/2+x,1/2+y,z
1/2-x,1/2+y,1/2-z
1/2-x,1/2-y,-z
1/2+x,1/2-y,1/2+z
loop_
_atom_site_type_symbol
_atom_site_label
_atom_site_fract_x
_atom_site_fract_y
_atom_site_fract_z
Si Si1 0.532347 0.222416 0.494458
Si Si2 0.215550 0.530863 0.084010
Si Si3 0.371275 0.175139 0.450823
Si Si4 0.032494 0.264781 0.307524
Si Si5 0.197387 0.873149 0.840067
Si Si6 0.535626 0.402280 0.644789
O O1 0.389421 0.177367 0.528630
O O2 0.753027 0.224170 0.323547
O O3 0.508014 0.184198 0.592756
O O4 0.474782 0.311936 0.537801
O O5 0.234060 0.596686 0.008214
O O6 0.337575 0.559868 0.077304
O O7 0.000000 0.513675 0.250000
O O8 0.293766 0.450912 0.002066
O O9 0.250000 0.250000 0.500000
O O10 0.594481 0.170321 0.277824
O O11 0.000000 0.310479 0.250000
O O12 0.890151 0.188108 0.397522
O O13 0.162307 0.909922 0.780346
O O14 0.500000 0.434753 0.750000
#
# Coordination Sequence:
#
# PCOD8143439 Si02
#       6
#     8   8   8   8   8   8
#     4  11  19  38  64  98 122 164 202 263 331 367
#     4  10  22  40  64  90 124 176 215 258 314 385
#     4  11  21  38  65  99 130 155 208 276 325 374
#     4  10  22  39  65  90 133 166 208 265 317 381
#     4  10  21  40  67  91 129 166 210 268 317 383
#     4  10  21  42  61  88 127 173 214 259 316 374
#
# _framework density 22.589649999999999
#
# number of rings (size 3 to 8) (size 9 to 14) (size 15 to 20)
#    0.000    1.667    5.000    1.000    0.000    0.000 
#    6.000   13.333    0.000    0.000    0.000    0.000 
#    0.000    0.000    0.000    0.000    0.000    0.000 
#
# Total GULP energy -297341.273131 kJ/mol
# GULP energy per Si atom -12389.219714 kJ/mol
# Density = 2.253823 g / cm^3
# Si number density = 22.589650 Si / 1000 Ang^3
#
#
#
# Elastic Constant Matrix: (Units=GPa)
#
#
# Indices 1 2 3 4 5 6 
#
# 1 162.1180 23.8696 38.2925 0.0152 33.1397 -0.0089
# 2 23.8696 71.5844 35.0334 0.0124 3.7823 -0.0009
# 3 38.2925 35.0334 80.3413 0.0168 25.5487 -0.0114
# 4 0.0152 0.0124 0.0168 35.5451 0.0003 0.1071
# 5 33.1397 3.7823 25.5487 0.0003 41.2263 -0.0001
# 6 -0.0089 -0.0009 -0.0114 0.1071 -0.0001 21.3527
#
#
#
# Elastic Compliance Matrix: (Units=1/GPa)
#
#
# Indices 1 2 3 4 5 6 
#
# 1 0.007811 -0.001690 -0.001293 -0.000002 -0.005322 0.000002
# 2 -0.001690 0.018657 -0.008989 -0.000002 0.005218 -0.000005
# 3 -0.001293 -0.008989 0.020413 -0.000006 -0.010786 0.000010
# 4 -0.000002 -0.000002 -0.000006 0.028134 0.000005 -0.000141
# 5 -0.005322 0.005218 -0.010786 0.000005 0.034740 -0.000008
# 6 0.000002 -0.000005 0.000010 -0.000141 -0.000008 0.046833
#
#
# Mechanical properties :
#
#
# Convention : Reuss Voigt Hill
#
# Bulk Modulus (GPa) = 43.60111 56.49276 50.04694
# Shear Modulus (GPa) = 26.57069 34.08136 30.32602
#
# Velocity S-wave (km/s) = 3.43335 3.88843 3.66795
# Velocity P-wave (km/s) = 5.92118 6.72476 6.33573
#
# Compressibility (1/GPa) = 0.02293520
#
# Stress axis : x y z
#
# Youngs Moduli (GPa) = 128.03115 53.60015 48.98847
#
# Poissons Ratio (x) = 0.09060 0.06335
# Poissons Ratio (y) = 0.21641 0.44036
# Poissons Ratio (z) = 0.16557 0.48181
#
# Static dielectric constant tensor:
#      x y z
#    x 4.897930 0.000010 0.399320 
#    y 0.000010 3.705990 0.000010 
#    z 0.399320 0.000010 4.052650 
# 
# 
# High freq. dielectric constant tensor:
#      x y z
#    x 1.925970 0.000000 0.012180 
#    y 0.000000 1.845950 0.000000 
#    z 0.012180 0.000000 1.877440 
# 
# From -- ./inp_files/67555.got.cif
#   From: 2010.06.25/outbox.cif.g09.slc.cpg/sg15_34_cif.got.tgz:67555.got - 2010.06.28 07:06:18.
