data_PCOD8143790
_publ_section_title
;
Structure prediction by ZEFSAII (Michael W. Deem and Ramdas Pophale) SiO2 
 PCOD8143790
Probable space group: C 2/C
;
_chemical_formula_sum "Si O2"
_cell_formula_units_Z 48
_cell_length_a 17.457397
_cell_length_b 10.658035
_cell_length_c 12.657340
_cell_angle_alpha 90.000000
_cell_angle_beta 70.640387
_cell_angle_gamma 90.000000
_cell_volume 2221.881971
_symmetry_space_group_name_H-M "C 2/C"
_symmetry_group_IT_number 15
_symmetry_cell_setting 'monoclinic'
loop_
_space_group_symop_operation_xyz
x,y,z
-x,y,1/2-z
-x,-y,-z
x,-y,1/2+z
1/2+x,1/2+y,z
1/2-x,1/2+y,1/2-z
1/2-x,1/2-y,-z
1/2+x,1/2-y,1/2+z
loop_
_atom_site_type_symbol
_atom_site_label
_atom_site_fract_x
_atom_site_fract_y
_atom_site_fract_z
Si Si1 0.522252 0.240166 0.496999
Si Si2 0.372987 0.160039 0.242137
Si Si3 0.338327 0.611416 0.470458
Si Si4 0.433723 0.376862 0.362754
Si Si5 0.236619 0.257827 0.174639
Si Si6 0.926826 0.385259 0.208658
O O1 0.576697 0.170499 0.387745
O O2 0.578916 0.306628 0.559787
O O3 0.472167 0.347717 0.458975
O O4 0.463343 0.134219 0.574407
O O5 0.400831 0.248520 0.325120
O O6 0.280178 0.192348 0.255082
O O7 0.389637 0.016898 0.265221
O O8 0.360667 0.471351 0.422805
O O9 0.290919 0.623972 0.605498
O O10 0.273086 0.657588 0.414573
O O11 0.500000 0.435279 0.250000
O O12 0.147320 0.290117 0.252948
O O13 0.000000 0.345141 0.250000
#
# Coordination Sequence:
#
# PCOD8143790 Si02
#       6
#     8   8   8   8   8   8
#     4  10  21  41  64  99 123 172 213 266 321 383
#     4  10  24  43  62  95 135 168 210 271 330 377
#     4  10  21  42  63  89 131 166 209 270 322 383
#     4  10  22  40  67  96 130 163 214 269 325 382
#     4  10  24  41  61  93 126 171 216 262 326 379
#     4  12  23  41  69  95 128 172 226 261 315 399
#
# _framework density 21.603307000000001
#
# number of rings (size 3 to 8) (size 9 to 14) (size 15 to 20)
#    0.000    1.667    1.667    2.500    4.667    1.333 
#    0.000    1.667    0.000    0.000    0.000    0.000 
#    0.000    0.000    0.000    0.000    0.000    0.000 
#
# Total GULP energy -297420.105053 kJ/mol
# GULP energy per Si atom -12392.504377 kJ/mol
# Density = 2.155414 g / cm^3
# Si number density = 21.603307 Si / 1000 Ang^3
#
#
#
# Elastic Constant Matrix: (Units=GPa)
#
#
# Indices 1 2 3 4 5 6 
#
# 1 134.7065 24.4909 30.0657 0.0000 -6.7427 0.0000
# 2 24.4909 54.2208 15.2624 0.0000 -15.9128 0.0000
# 3 30.0657 15.2624 54.9783 0.0000 -6.3480 0.0000
# 4 0.0000 0.0000 0.0000 24.8053 0.0000 -6.6000
# 5 -6.7427 -15.9128 -6.3480 0.0000 26.5887 0.0000
# 6 0.0000 0.0000 0.0000 -6.6000 0.0000 32.6138
#
#
#
# Elastic Compliance Matrix: (Units=1/GPa)
#
#
# Indices 1 2 3 4 5 6 
#
# 1 0.008852 -0.003008 -0.004066 0.000000 -0.000526 0.000000
# 2 -0.003008 0.024697 -0.003694 0.000000 0.013136 0.000000
# 3 -0.004066 -0.003694 0.021661 0.000000 0.001929 0.000000
# 4 0.000000 0.000000 0.000000 0.042608 0.000000 0.008623
# 5 -0.000526 0.013136 0.001929 0.000000 0.045799 0.000000
# 6 0.000000 0.000000 0.000000 0.008623 0.000000 0.032407
#
#
# Mechanical properties :
#
#
# Convention : Reuss Voigt Hill
#
# Bulk Modulus (GPa) = 29.69824 42.61596 36.15710
# Shear Modulus (GPa) = 23.94812 28.40734 26.17773
#
# Velocity S-wave (km/s) = 3.33309 3.63016 3.48479
# Velocity P-wave (km/s) = 5.34692 6.11066 5.74150
#
# Compressibility (1/GPa) = 0.03367203
#
# Stress axis : x y z
#
# Youngs Moduli (GPa) = 112.97284 40.49105 46.16572
#
# Poissons Ratio (x) = 0.12180 0.18773
# Poissons Ratio (y) = 0.33983 0.17055
# Poissons Ratio (z) = 0.45939 0.14959
#
# Static dielectric constant tensor:
#      x y z
#    x 4.120740 0.000000 0.034080 
#    y 0.000000 3.642080 0.000000 
#    z 0.034080 0.000000 3.790960 
# 
# 
# High freq. dielectric constant tensor:
#      x y z
#    x 1.862840 0.000000 0.002920 
#    y 0.000000 1.825850 0.000000 
#    z 0.002920 0.000000 1.839100 
# 
# From -- ./inp_files/104181.got.cif
#   From: 2010.06.25/outbox.cif.g09.slc.cpg/sg15_53_cif.got.tgz:104181.got - 2010.06.28 07:06:18.
