data_PCOD8143206
_publ_section_title
;
Structure prediction by ZEFSAII (Michael W. Deem and Ramdas Pophale) SiO2 
 PCOD8143206
Probable space group: C 2/C
;
_chemical_formula_sum "Si O2"
_cell_formula_units_Z 56
_cell_length_a 7.637253
_cell_length_b 18.557512
_cell_length_c 27.283053
_cell_angle_alpha 90.000000
_cell_angle_beta 43.659401
_cell_angle_gamma 90.000000
_cell_volume 2669.511376
_symmetry_space_group_name_H-M "C 2/C"
_symmetry_group_IT_number 15
_symmetry_cell_setting 'monoclinic'
loop_
_space_group_symop_operation_xyz
x,y,z
-x,y,1/2-z
-x,-y,-z
x,-y,1/2+z
1/2+x,1/2+y,z
1/2-x,1/2+y,1/2-z
1/2-x,1/2-y,-z
1/2+x,1/2-y,1/2+z
loop_
_atom_site_type_symbol
_atom_site_label
_atom_site_fract_x
_atom_site_fract_y
_atom_site_fract_z
Si Si1 0.831701 0.199045 0.102534
Si Si2 0.434328 0.015390 0.187839
Si Si3 0.218848 0.392562 0.959171
Si Si4 0.243104 0.636439 0.891784
Si Si5 0.000000 0.365004 0.750000
Si Si6 0.500000 0.419643 0.250000
Si Si7 0.009019 0.038201 0.909198
Si Si8 0.623935 0.905511 0.561888
O O1 0.811003 0.279976 0.087475
O O2 0.695199 0.186888 0.182506
O O3 0.713065 0.153506 0.082617
O O4 0.119806 0.175732 0.055238
O O5 0.374709 0.083746 0.234339
O O6 0.459685 0.036523 0.125570
O O7 0.186992 0.966849 0.245683
O O8 0.690311 0.972775 0.149988
O O9 0.389346 0.462655 0.915190
O O10 0.059722 0.372282 0.942436
O O11 0.011949 0.408588 0.043696
O O12 0.320387 0.629245 0.819838
O O13 0.465537 0.604459 0.880850
O O14 0.877637 0.058473 0.987639
#
# Coordination Sequence:
#
# PCOD8143206 Si02
#       8
#     8   8   8   8   4   4   8   8
#     4  11  24  43  64  90 136 175 213 263 325 393
#     4  11  22  38  66  98 124 170 216 276 326 384
#     4  11  22  42  68  97 127 167 218 275 315 382
#     4  11  25  42  61  95 134 171 215 265 327 394
#     4  10  21  40  64  86 131 168 218 258 324 383
#     4  12  25  38  66  92 133 162 222 260 338 377
#     4  11  21  41  68  95 131 161 217 281 322 373
#     4  10  22  38  68  98 125 166 219 264 328 384
#
# _framework density 20.977623000000001
#
# number of rings (size 3 to 8) (size 9 to 14) (size 15 to 20)
#    0.000    1.143    2.857    5.571    4.000    2.286 
#    2.571    0.000    3.143    0.000    0.000    0.000 
#    0.000    0.000    0.000    0.000    0.000    0.000 
#
# Total GULP energy -347115.990216 kJ/mol
# GULP energy per Si atom -12396.999651 kJ/mol
# Density = 2.092988 g / cm^3
# Si number density = 20.977623 Si / 1000 Ang^3
#
#
#
# Elastic Constant Matrix: (Units=GPa)
#
#
# Indices 1 2 3 4 5 6 
#
# 1 125.5097 46.6504 47.0919 0.0010 -14.7860 -0.0019
# 2 46.6504 87.5810 12.8352 -0.0005 -4.3430 0.0105
# 3 47.0919 12.8352 90.8707 0.0121 2.5851 0.0082
# 4 0.0010 -0.0005 0.0121 26.2794 -0.0079 1.5073
# 5 -14.7860 -4.3430 2.5851 -0.0079 39.2498 0.0001
# 6 -0.0019 0.0105 0.0082 1.5073 0.0001 25.0599
#
#
#
# Elastic Compliance Matrix: (Units=1/GPa)
#
#
# Indices 1 2 3 4 5 6 
#
# 1 0.012909 -0.005767 -0.006007 0.000003 0.004621 0.000005
# 2 -0.005767 0.014313 0.000985 0.000000 -0.000654 -0.000007
# 3 -0.006007 0.000985 0.014066 -0.000007 -0.003080 -0.000005
# 4 0.000003 0.000000 -0.000007 0.038184 0.000009 -0.002297
# 5 0.004621 -0.000654 -0.003080 0.000009 0.027349 0.000001
# 6 0.000005 -0.000007 -0.000005 -0.002297 0.000001 0.040043
#
#
# Mechanical properties :
#
#
# Convention : Reuss Voigt Hill
#
# Bulk Modulus (GPa) = 50.73101 57.45736 54.09419
# Shear Modulus (GPa) = 28.56976 31.27675 29.92326
#
# Velocity S-wave (km/s) = 3.69442 3.86548 3.78092
# Velocity P-wave (km/s) = 6.51415 6.88272 6.70097
#
# Compressibility (1/GPa) = 0.01971181
#
# Stress axis : x y z
#
# Youngs Moduli (GPa) = 77.46544 69.86755 71.09359
#
# Poissons Ratio (x) = 0.40290 0.42704
# Poissons Ratio (y) = 0.44671 -0.07005
# Poissons Ratio (z) = 0.46532 -0.06885
#
# Static dielectric constant tensor:
#      x y z
#    x 3.699450 -0.000020 0.062450 
#    y -0.000020 3.631710 0.000030 
#    z 0.062450 0.000030 4.116760 
# 
# 
# High freq. dielectric constant tensor:
#      x y z
#    x 1.816280 0.000000 0.005910 
#    y 0.000000 1.804270 0.000000 
#    z 0.005910 0.000000 1.843070 
# 
# From -- ./inp_files/308632.got.cif
#   From: 2010.06.25/outbox.cif.g09.slc.cpg/sg15_155_cif.got.tgz:308632.got - 2010.06.28 07:06:18.
