data_PCOD8143255
_publ_section_title
;
Structure prediction by ZEFSAII (Michael W. Deem and Ramdas Pophale) SiO2 
 PCOD8143255
Probable space group: C 2/C
;
_chemical_formula_sum "Si O2"
_cell_formula_units_Z 60
_cell_length_a 8.220028
_cell_length_b 18.550987
_cell_length_c 19.543268
_cell_angle_alpha 90.000000
_cell_angle_beta 67.566324
_cell_angle_gamma 90.000000
_cell_volume 2754.613979
_symmetry_space_group_name_H-M "C 2/C"
_symmetry_group_IT_number 15
_symmetry_cell_setting 'monoclinic'
loop_
_space_group_symop_operation_xyz
x,y,z
-x,y,1/2-z
-x,-y,-z
x,-y,1/2+z
1/2+x,1/2+y,z
1/2-x,1/2+y,1/2-z
1/2-x,1/2-y,-z
1/2+x,1/2-y,1/2+z
loop_
_atom_site_type_symbol
_atom_site_label
_atom_site_fract_x
_atom_site_fract_y
_atom_site_fract_z
Si Si1 0.486430 0.885307 0.845149
Si Si2 0.804960 0.148809 0.858334
Si Si3 0.671390 0.306014 0.852389
Si Si4 0.203733 0.876216 0.297374
Si Si5 0.494879 0.084535 0.499952
Si Si6 0.285662 0.281772 0.803040
Si Si7 0.190041 0.179051 0.047626
Si Si8 0.000000 0.512186 0.750000
O O1 0.301540 0.873459 0.835943
O O2 0.605374 0.817243 0.803373
O O3 0.557067 0.962107 0.805439
O O4 0.458622 0.885900 0.930506
O O5 0.774347 0.234928 0.862788
O O6 0.779478 0.120726 0.786374
O O7 0.661284 0.111535 0.927997
O O8 0.998295 0.122751 0.853412
O O9 0.591803 0.294596 0.785900
O O10 0.518844 0.327104 0.931820
O O11 0.279050 0.803141 0.317864
O O12 0.330397 0.940840 0.302505
O O13 0.684439 0.114027 0.497260
O O14 0.500000 0.000000 0.500000
O O15 0.311655 0.321627 0.869979
O O16 0.250000 0.250000 0.000000
#
# Coordination Sequence:
#
# PCOD8143255 Si02
#       8
#     8   8   8   8   8   8   8   4
#     4  11  23  42  67  92 131 176 214 278 324 399
#     4  10  21  42  65  90 127 171 215 267 328 395
#     4  11  20  40  67  96 126 165 232 270 319 385
#     4  10  23  38  67  96 124 169 214 275 323 393
#     4  11  25  44  62  90 138 177 207 268 346 390
#     4  10  21  40  64  94 129 171 218 271 327 380
#     4  11  24  38  63  99 129 171 224 274 318 389
#     4  12  24  40  62 102 134 162 226 276 334 390
#
# _framework density 21.781635999999999
#
# number of rings (size 3 to 8) (size 9 to 14) (size 15 to 20)
#    0.000    1.333    4.000    1.200    3.733    3.733 
#    0.000    2.667    0.000    0.000    0.000    0.000 
#    0.000    0.000    0.000    0.000    0.000    0.000 
#
# Total GULP energy -371670.359491 kJ/mol
# GULP energy per Si atom -12389.011983 kJ/mol
# Density = 2.173206 g / cm^3
# Si number density = 21.781636 Si / 1000 Ang^3
#
#
#
# Elastic Constant Matrix: (Units=GPa)
#
#
# Indices 1 2 3 4 5 6 
#
# 1 46.0798 30.6482 23.3741 0.0000 -27.0363 0.0000
# 2 30.6482 131.9850 30.9179 0.0000 -25.1565 0.0000
# 3 23.3741 30.9179 100.9938 0.0000 -35.2319 0.0000
# 4 0.0000 0.0000 0.0000 30.0475 0.0000 -7.3173
# 5 -27.0363 -25.1565 -35.2319 0.0000 37.1728 0.0000
# 6 0.0000 0.0000 0.0000 -7.3173 0.0000 36.2827
#
#
#
# Elastic Compliance Matrix: (Units=1/GPa)
#
#
# Indices 1 2 3 4 5 6 
#
# 1 0.040074 -0.004416 0.001796 0.000000 0.027860 0.000000
# 2 -0.004416 0.009242 -0.001114 0.000000 0.001986 0.000000
# 3 0.001796 -0.001114 0.014969 0.000000 0.014740 0.000000
# 4 0.000000 0.000000 0.000000 0.035000 0.000000 0.007059
# 5 0.027860 0.001986 0.014740 0.000000 0.062479 0.000000
# 6 0.000000 0.000000 0.000000 0.007059 0.000000 0.028985
#
#
# Mechanical properties :
#
#
# Convention : Reuss Voigt Hill
#
# Bulk Modulus (GPa) = 17.60064 49.88211 33.74138
# Shear Modulus (GPa) = 23.02509 33.64181 28.33345
#
# Velocity S-wave (km/s) = 3.25481 3.93428 3.61057
# Velocity P-wave (km/s) = 4.71414 6.60218 5.73637
#
# Compressibility (1/GPa) = 0.05681610
#
# Stress axis : x y z
#
# Youngs Moduli (GPa) = 24.95401 108.20523 66.80486
#
# Poissons Ratio (x) = 0.47785 -0.12000
# Poissons Ratio (y) = 0.11020 0.07444
# Poissons Ratio (z) = -0.04482 0.12056
#
# Static dielectric constant tensor:
#      x y z
#    x 4.061430 0.000000 -0.412130 
#    y 0.000000 4.219450 0.000000 
#    z -0.412130 0.000000 4.115780 
# 
# 
# High freq. dielectric constant tensor:
#      x y z
#    x 1.861170 0.000000 -0.018030 
#    y 0.000000 1.840290 0.000000 
#    z -0.018030 0.000000 1.870130 
# 
# From -- ./inp_files/192092.got.cif
#   From: 2010.06.25/outbox.cif.g09.slc.cpg/sg15_97_cif.got.tgz:192092.got - 2010.06.28 07:06:18.
