data_PCOD8143284
_publ_section_title
;
Structure prediction by ZEFSAII (Michael W. Deem and Ramdas Pophale) SiO2 
 PCOD8143284
Probable space group: C 2/C
;
_chemical_formula_sum "Si O2"
_cell_formula_units_Z 56
_cell_length_a 14.504766
_cell_length_b 12.971353
_cell_length_c 14.195805
_cell_angle_alpha 90.000000
_cell_angle_beta 82.817494
_cell_angle_gamma 90.000000
_cell_volume 2649.931492
_symmetry_space_group_name_H-M "C 2/C"
_symmetry_group_IT_number 15
_symmetry_cell_setting 'monoclinic'
loop_
_space_group_symop_operation_xyz
x,y,z
-x,y,1/2-z
-x,-y,-z
x,-y,1/2+z
1/2+x,1/2+y,z
1/2-x,1/2+y,1/2-z
1/2-x,1/2-y,-z
1/2+x,1/2-y,1/2+z
loop_
_atom_site_type_symbol
_atom_site_label
_atom_site_fract_x
_atom_site_fract_y
_atom_site_fract_z
Si Si1 0.152006 0.480603 0.444635
Si Si2 0.000000 0.570034 0.750000
Si Si3 0.678781 0.169475 0.789908
Si Si4 0.516866 0.091718 0.110182
Si Si5 0.649684 0.593192 0.827551
Si Si6 0.610776 0.624137 0.238596
Si Si7 0.000000 0.770012 0.250000
Si Si8 0.298582 0.638627 0.480280
O O1 0.210737 0.394707 0.378412
O O2 0.078269 0.410098 0.509480
O O3 0.222385 0.547737 0.496888
O O4 0.092534 0.564211 0.391467
O O5 0.071397 0.641778 0.792954
O O6 0.058285 0.497136 0.671958
O O7 0.744499 0.131535 0.697549
O O8 0.671358 0.293249 0.791611
O O9 0.528681 0.202417 0.156292
O O10 0.634294 0.477990 0.793618
O O11 0.586742 0.661636 0.767587
O O12 0.630387 0.612918 0.941762
O O13 0.500000 0.642980 0.250000
O O14 0.646733 0.628382 0.125686
O O15 0.250000 0.750000 0.500000
#
# Coordination Sequence:
#
# PCOD8143284 Si02
#       8
#     8   4   8   8   8   8   4   8
#     4  10  21  40  65 107 134 174 239 299 360 428
#     4   9  18  35  62  98 130 181 228 289 350 410
#     4  11  22  41  69  97 141 182 234 296 349 419
#     4   9  20  36  66  95 136 171 225 300 362 414
#     4  12  26  46  70  99 142 189 240 293 352 433
#     4  12  27  48  71 106 147 192 241 292 364 435
#     4  11  24  45  64  96 142 187 236 295 362 426
#     4  12  25  44  76 103 139 194 247 292 363 435
#
# _framework density 21.132622000000001
#
# number of rings (size 3 to 8) (size 9 to 14) (size 15 to 20)
#    0.000    1.143    4.286    1.714    0.000    5.143 
#    2.571    1.429    0.000    0.000    0.000    0.000 
#    0.000    0.000    0.000    0.000    0.000    0.000 
#
# Total GULP energy -346915.169603 kJ/mol
# GULP energy per Si atom -12389.827486 kJ/mol
# Density = 2.108452 g / cm^3
# Si number density = 21.132622 Si / 1000 Ang^3
#
#
#
# Elastic Constant Matrix: (Units=GPa)
#
#
# Indices 1 2 3 4 5 6 
#
# 1 64.6305 34.8749 27.4396 0.0000 -1.4198 0.0000
# 2 34.8749 142.7667 53.9936 0.0000 10.0065 0.0000
# 3 27.4396 53.9936 114.6616 0.0000 2.4215 0.0000
# 4 0.0000 0.0000 0.0000 41.9554 0.0000 9.1811
# 5 -1.4198 10.0065 2.4215 0.0000 32.9125 0.0000
# 6 0.0000 0.0000 0.0000 9.1811 0.0000 30.9949
#
#
#
# Elastic Compliance Matrix: (Units=1/GPa)
#
#
# Indices 1 2 3 4 5 6 
#
# 1 0.018677 -0.003655 -0.002793 0.000000 0.002122 0.000000
# 2 -0.003655 0.009415 -0.003500 0.000000 -0.002762 0.000000
# 3 -0.002793 -0.003500 0.011035 0.000000 0.000132 0.000000
# 4 0.000000 0.000000 0.000000 0.025487 0.000000 -0.007550
# 5 0.002122 -0.002762 0.000132 0.000000 0.031305 0.000000
# 6 0.000000 0.000000 0.000000 -0.007550 0.000000 0.034500
#
#
# Mechanical properties :
#
#
# Convention : Reuss Voigt Hill
#
# Bulk Modulus (GPa) = 52.00170 61.63054 56.81612
# Shear Modulus (GPa) = 31.90273 34.88927 33.39600
#
# Velocity S-wave (km/s) = 3.88963 4.06762 3.97962
# Velocity P-wave (km/s) = 6.69575 7.16154 6.93256
#
# Compressibility (1/GPa) = 0.01923014
#
# Stress axis : x y z
#
# Youngs Moduli (GPa) = 53.54086 106.21736 90.61802
#
# Poissons Ratio (x) = 0.38820 0.25314
# Poissons Ratio (y) = 0.19568 0.31720
# Poissons Ratio (z) = 0.14956 0.37180
#
# Static dielectric constant tensor:
#      x y z
#    x 3.559140 0.000000 -0.152840 
#    y 0.000000 4.034070 0.000000 
#    z -0.152840 0.000000 3.802000 
# 
# 
# High freq. dielectric constant tensor:
#      x y z
#    x 1.815890 0.000000 -0.001630 
#    y 0.000000 1.838830 0.000000 
#    z -0.001630 0.000000 1.831170 
# 
# From -- ./inp_files/152649.got.cif
#   From: 2010.06.25/outbox.cif.g09.slc.cpg/sg15_77_cif.got.tgz:152649.got - 2010.06.28 07:06:18.
