data_PCOD8143692
_publ_section_title
;
Structure prediction by ZEFSAII (Michael W. Deem and Ramdas Pophale) SiO2 
 PCOD8143692
Probable space group: C 2/C
;
_chemical_formula_sum "Si O2"
_cell_formula_units_Z 48
_cell_length_a 13.389393
_cell_length_b 20.651514
_cell_length_c 8.969839
_cell_angle_alpha 90.000000
_cell_angle_beta 71.182137
_cell_angle_gamma 90.000000
_cell_volume 2347.688192
_symmetry_space_group_name_H-M "C 2/C"
_symmetry_group_IT_number 15
_symmetry_cell_setting 'monoclinic'
loop_
_space_group_symop_operation_xyz
x,y,z
-x,y,1/2-z
-x,-y,-z
x,-y,1/2+z
1/2+x,1/2+y,z
1/2-x,1/2+y,1/2-z
1/2-x,1/2-y,-z
1/2+x,1/2-y,1/2+z
loop_
_atom_site_type_symbol
_atom_site_label
_atom_site_fract_x
_atom_site_fract_y
_atom_site_fract_z
Si Si1 0.757161 0.987752 0.416430
Si Si2 0.211963 0.372570 0.839999
Si Si3 0.912879 0.833121 0.908735
Si Si4 0.396506 0.540349 0.592234
Si Si5 0.022965 0.307652 0.067169
Si Si6 0.897208 0.618208 0.397456
O O1 0.860900 0.957850 0.282488
O O2 0.656560 0.940332 0.483089
O O3 0.726512 0.050675 0.336444
O O4 0.795930 0.008871 0.559610
O O5 0.307289 0.330062 0.859853
O O6 0.188587 0.352985 0.678671
O O7 0.113328 0.358563 0.991487
O O8 0.938531 0.765718 0.978063
O O9 0.000000 0.855250 0.750000
O O10 0.909798 0.885405 0.040150
O O11 0.500000 0.500000 0.500000
O O12 0.000000 0.317521 0.250000
O O13 0.925895 0.325366 0.003092
O O14 0.000000 0.595624 0.250000
#
# Coordination Sequence:
#
# PCOD8143692 Si02
#       6
#     8   8   8   8   8   8
#     4  11  22  38  64  97 128 165 215 261 335 379
#     4  10  21  41  63  89 132 164 208 265 319 384
#     4  10  22  41  65  90 124 170 216 261 319 380
#     4  11  22  40  65  93 127 166 212 273 321 381
#     4  10  23  40  65  90 125 171 216 255 318 386
#     4  10  23  41  62  93 135 166 210 268 322 388
#
# _framework density 20.445644999999999
#
# number of rings (size 3 to 8) (size 9 to 14) (size 15 to 20)
#    0.000    1.667    1.667    3.000    4.667    3.333 
#    0.000    8.333    0.000    0.000    0.000    0.000 
#    0.000    0.000    0.000    0.000    0.000    0.000 
#
# Total GULP energy -297461.476911 kJ/mol
# GULP energy per Si atom -12394.228205 kJ/mol
# Density = 2.039911 g / cm^3
# Si number density = 20.445645 Si / 1000 Ang^3
#
#
#
# Elastic Constant Matrix: (Units=GPa)
#
#
# Indices 1 2 3 4 5 6 
#
# 1 89.6230 51.5696 17.2454 0.0000 18.0346 0.0000
# 2 51.5696 119.0872 47.9691 0.0000 9.4347 0.0000
# 3 17.2454 47.9691 89.3846 0.0000 -0.9786 0.0000
# 4 0.0000 0.0000 0.0000 148.9007 0.0000 -47.6438
# 5 18.0346 9.4347 -0.9786 0.0000 38.2544 0.0000
# 6 0.0000 0.0000 0.0000 -47.6438 0.0000 52.9503
#
#
#
# Elastic Compliance Matrix: (Units=1/GPa)
#
#
# Indices 1 2 3 4 5 6 
#
# 1 0.016114 -0.006671 0.000406 0.000000 -0.005941 0.000000
# 2 -0.006671 0.013781 -0.006113 0.000000 -0.000410 0.000000
# 3 0.000406 -0.006113 0.014408 0.000000 0.001685 0.000000
# 4 0.000000 0.000000 0.000000 0.009431 0.000000 0.008486
# 5 -0.005941 -0.000410 0.001685 0.000000 0.029086 0.000000
# 6 0.000000 0.000000 0.000000 0.008486 0.000000 0.026521
#
#
# Mechanical properties :
#
#
# Convention : Reuss Voigt Hill
#
# Bulk Modulus (GPa) = 51.15834 59.07367 55.11601
# Shear Modulus (GPa) = 35.55878 60.10846 47.83362
#
# Velocity S-wave (km/s) = 4.17488 5.42798 4.84214
# Velocity P-wave (km/s) = 6.95093 8.26073 7.63398
#
# Compressibility (1/GPa) = 0.01954715
#
# Stress axis : x y z
#
# Youngs Moduli (GPa) = 62.05948 72.56484 69.40410
#
# Poissons Ratio (x) = 0.48406 -0.02818
# Poissons Ratio (y) = 0.41398 0.42427
# Poissons Ratio (z) = -0.02519 0.44359
#
# Static dielectric constant tensor:
#      x y z
#    x 3.886150 0.000000 -0.012310 
#    y 0.000000 3.669350 0.000000 
#    z -0.012310 0.000000 3.663280 
# 
# 
# High freq. dielectric constant tensor:
#      x y z
#    x 1.806290 0.000000 0.000460 
#    y 0.000000 1.785420 0.000000 
#    z 0.000460 0.000000 1.808520 
# 
# From -- ./inp_files/40675.got.cif
#   From: 2010.06.25/outbox.cif.g09.slc.cpg/sg15_21_cif.got.tgz:40675.got - 2010.06.28 07:06:18.
