data_PCOD8143878
_publ_section_title
;
Structure prediction by ZEFSAII (Michael W. Deem and Ramdas Pophale) SiO2 
 PCOD8143878
Probable space group: C 2/C
;
_chemical_formula_sum "Si O2"
_cell_formula_units_Z 48
_cell_length_a 8.747127
_cell_length_b 15.979515
_cell_length_c 21.703335
_cell_angle_alpha 90.000000
_cell_angle_beta 51.787818
_cell_angle_gamma 90.000000
_cell_volume 2383.561095
_symmetry_space_group_name_H-M "C 2/C"
_symmetry_group_IT_number 15
_symmetry_cell_setting 'monoclinic'
loop_
_space_group_symop_operation_xyz
x,y,z
-x,y,1/2-z
-x,-y,-z
x,-y,1/2+z
1/2+x,1/2+y,z
1/2-x,1/2+y,1/2-z
1/2-x,1/2-y,-z
1/2+x,1/2-y,1/2+z
loop_
_atom_site_type_symbol
_atom_site_label
_atom_site_fract_x
_atom_site_fract_y
_atom_site_fract_z
Si Si1 0.362403 0.118448 0.012874
Si Si2 0.152973 0.503794 0.877915
Si Si3 0.957595 0.867499 0.329685
Si Si4 0.287840 0.973082 0.279452
Si Si5 0.830679 0.243044 0.046729
Si Si6 0.955884 0.928615 0.562017
O O1 0.139935 0.117656 0.047075
O O2 0.381719 0.083302 0.078014
O O3 0.464877 0.061883 0.934834
O O4 0.463549 0.209839 0.990707
O O5 0.328881 0.548763 0.870867
O O6 0.199908 0.491248 0.793832
O O7 0.847483 0.783266 0.372514
O O8 0.000000 0.851552 0.250000
O O9 0.159726 0.887342 0.314926
O O10 0.500000 0.948846 0.250000
O O11 0.188162 0.040715 0.348438
O O12 0.842600 0.145000 0.056146
O O13 0.750000 0.250000 0.000000
O O14 0.000000 0.000000 0.500000
#
# Coordination Sequence:
#
# PCOD8143878 Si02
#       6
#     8   8   8   8   8   8
#     4  10  21  41  66  91 131 166 216 258 328 379
#     4   9  19  37  67  94 120 171 205 261 320 388
#     4   9  19  41  63  88 125 168 206 255 324 376
#     4  11  22  36  64  98 127 161 220 262 314 383
#     4  11  25  40  62  94 130 169 214 266 319 381
#     4  12  25  41  66  96 129 168 221 269 322 384
#
# _framework density 20.137934999999999
#
# number of rings (size 3 to 8) (size 9 to 14) (size 15 to 20)
#    0.000    1.667    1.667    2.500    7.000    0.667 
#    0.000    1.667    0.000    0.000    0.000    0.000 
#    0.000    0.000    0.000    0.000    0.000    0.000 
#
# Total GULP energy -297374.127759 kJ/mol
# GULP energy per Si atom -12390.588657 kJ/mol
# Density = 2.009210 g / cm^3
# Si number density = 20.137935 Si / 1000 Ang^3
#
#
#
# Elastic Constant Matrix: (Units=GPa)
#
#
# Indices 1 2 3 4 5 6 
#
# 1 125.5698 41.9344 24.7577 -0.0010 -23.9048 0.0007
# 2 41.9344 127.6554 49.4435 -0.0009 -1.1627 0.0005
# 3 24.7577 49.4435 98.7055 -0.0017 -10.8456 0.0010
# 4 -0.0010 -0.0009 -0.0017 81.9531 0.0010 22.6316
# 5 -23.9048 -1.1627 -10.8456 0.0010 32.0971 -0.0005
# 6 0.0007 0.0005 0.0010 22.6316 -0.0005 31.8422
#
#
#
# Elastic Compliance Matrix: (Units=1/GPa)
#
#
# Indices 1 2 3 4 5 6 
#
# 1 0.010578 -0.003356 -0.000124 0.000000 0.007714 0.000000
# 2 -0.003356 0.010840 -0.005006 0.000000 -0.003798 0.000000
# 3 -0.000124 -0.005006 0.013127 0.000000 0.004162 0.000000
# 4 0.000000 0.000000 0.000000 0.015182 -0.000001 -0.010790
# 5 0.007714 -0.003798 0.004162 -0.000001 0.038169 0.000001
# 6 0.000000 0.000000 0.000000 -0.010790 0.000001 0.039074
#
#
# Mechanical properties :
#
#
# Convention : Reuss Voigt Hill
#
# Bulk Modulus (GPa) = 56.90697 64.91135 60.90916
# Shear Modulus (GPa) = 33.37777 44.89816 39.13796
#
# Velocity S-wave (km/s) = 4.07560 4.72691 4.41329
# Velocity P-wave (km/s) = 7.10404 7.88004 7.50208
#
# Compressibility (1/GPa) = 0.01757254
#
# Stress axis : x y z
#
# Youngs Moduli (GPa) = 94.53928 92.24814 76.17872
#
# Poissons Ratio (x) = 0.30962 0.00946
# Poissons Ratio (y) = 0.31731 0.38132
# Poissons Ratio (z) = 0.01174 0.46176
#
# Static dielectric constant tensor:
#      x y z
#    x 3.419500 0.000010 -0.115160 
#    y 0.000010 3.344820 0.000000 
#    z -0.115160 0.000000 3.851300 
# 
# 
# High freq. dielectric constant tensor:
#      x y z
#    x 1.796000 0.000000 -0.005120 
#    y 0.000000 1.762830 0.000000 
#    z -0.005120 0.000000 1.802880 
# 
# From -- ./inp_files/232496.got.cif
#   From: 2010.06.25/outbox.cif.g09.slc.cpg/sg15_117_cif.got.tgz:232496.got - 2010.06.28 07:06:18.
