data_PCOD8143007
_publ_section_title
;
Structure prediction by ZEFSAII (Michael W. Deem and Ramdas Pophale) SiO2 
 PCOD8143007
Probable space group: C 2/C
;
_chemical_formula_sum "Si O2"
_cell_formula_units_Z 40
_cell_length_a 8.902956
_cell_length_b 10.564784
_cell_length_c 18.249975
_cell_angle_alpha 90.000000
_cell_angle_beta 89.995850
_cell_angle_gamma 90.000000
_cell_volume 1716.552624
_symmetry_space_group_name_H-M "C 2/C"
_symmetry_group_IT_number 15
_symmetry_cell_setting 'monoclinic'
loop_
_space_group_symop_operation_xyz
x,y,z
-x,y,1/2-z
-x,-y,-z
x,-y,1/2+z
1/2+x,1/2+y,z
1/2-x,1/2+y,1/2-z
1/2-x,1/2-y,-z
1/2+x,1/2-y,1/2+z
loop_
_atom_site_type_symbol
_atom_site_label
_atom_site_fract_x
_atom_site_fract_y
_atom_site_fract_z
Si Si1 0.660312 0.637287 0.583264
Si Si2 0.680386 0.992886 0.549166
Si Si3 0.591554 0.818848 0.942825
Si Si4 0.668948 0.356578 0.834398
Si Si5 0.165029 0.881998 0.667626
O O1 0.763152 0.601680 0.514854
O O2 0.500653 0.688235 0.550697
O O3 0.731360 0.745990 0.632433
O O4 0.635773 0.521838 0.637610
O O5 0.515774 0.941622 0.572702
O O6 0.794315 0.983303 0.617766
O O7 0.676769 0.139520 0.519332
O O8 0.709048 0.806503 0.876740
O O9 0.717416 0.387393 0.751677
O O10 0.495824 0.312894 0.839245
#
# Coordination Sequence:
#
# PCOD8143007 Si02
#       5
#     8   8   8   8   8
#     4  10  21  41  61  81 118 156 185 238 296 333
#     4   9  19  38  61  87 116 150 190 241 288 335
#     4   9  18  36  61  85 113 150 195 231 281 345
#     4  10  21  40  59  83 123 150 188 245 284 335
#     4  10  23  38  56  86 117 153 192 233 284 344
#
# _framework density 23.302520000000001
#
# number of rings (size 3 to 8) (size 9 to 14) (size 15 to 20)
#    0.000    2.400    0.000    2.400    0.000    9.600 
#    0.000   41.000    0.000    0.000    0.000    0.000 
#    0.000    0.000    0.000    0.000    0.000    0.000 
#
# Total GULP energy -247974.094763 kJ/mol
# GULP energy per Si atom -12398.704738 kJ/mol
# Density = 2.324948 g / cm^3
# Si number density = 23.302520 Si / 1000 Ang^3
#
#
#
# Elastic Constant Matrix: (Units=GPa)
#
#
# Indices 1 2 3 4 5 6 
#
# 1 108.9731 10.6782 50.8487 0.0000 -15.1604 0.0000
# 2 10.6782 63.8294 8.3358 0.0000 2.0232 0.0000
# 3 50.8487 8.3358 128.6181 0.0000 6.0882 0.0000
# 4 0.0000 0.0000 0.0000 26.2376 0.0000 3.8853
# 5 -15.1604 2.0232 6.0882 0.0000 39.2254 0.0000
# 6 0.0000 0.0000 0.0000 3.8853 0.0000 26.0461
#
#
#
# Elastic Compliance Matrix: (Units=1/GPa)
#
#
# Indices 1 2 3 4 5 6 
#
# 1 0.012515 -0.001607 -0.005114 0.000000 0.005714 0.000000
# 2 -0.001607 0.016024 -0.000337 0.000000 -0.001395 0.000000
# 3 -0.005114 -0.000337 0.009985 0.000000 -0.003509 0.000000
# 4 0.000000 0.000000 0.000000 0.038974 0.000000 -0.005814
# 5 0.005714 -0.001395 -0.003509 0.000000 0.028319 0.000000
# 6 0.000000 0.000000 0.000000 -0.005814 0.000000 0.039261
#
#
# Mechanical properties :
#
#
# Convention : Reuss Voigt Hill
#
# Bulk Modulus (GPa) = 40.97129 49.01622 44.99375
# Shear Modulus (GPa) = 29.88111 33.73902 31.81007
#
# Velocity S-wave (km/s) = 3.58482 3.80922 3.69872
# Velocity P-wave (km/s) = 5.89535 6.35824 6.13116
#
# Compressibility (1/GPa) = 0.02440733
#
# Stress axis : x y z
#
# Youngs Moduli (GPa) = 79.90205 62.40695 100.15229
#
# Poissons Ratio (x) = 0.10028 0.51220
# Poissons Ratio (y) = 0.12840 0.03377
# Poissons Ratio (z) = 0.40864 0.02104
#
# Static dielectric constant tensor:
#      x y z
#    x 4.382400 0.000000 0.206850 
#    y 0.000000 3.995570 0.000000 
#    z 0.206850 0.000000 4.353760 
# 
# 
# High freq. dielectric constant tensor:
#      x y z
#    x 1.939850 0.000000 0.006750 
#    y 0.000000 1.909200 0.000000 
#    z 0.006750 0.000000 1.917820 
# 
# From -- ./inp_files/187971.got.cif
#   From: 2010.06.25/outbox.cif.g09.slc.cpg/sg15_94_cif.got.tgz:187971.got - 2010.06.28 07:06:18.
