data_PCOD8143455
_publ_section_title
;
Structure prediction by ZEFSAII (Michael W. Deem and Ramdas Pophale) SiO2 
 PCOD8143455
Probable space group: C 2/C
;
_chemical_formula_sum "Si O2"
_cell_formula_units_Z 60
_cell_length_a 8.364884
_cell_length_b 12.426319
_cell_length_c 26.336362
_cell_angle_alpha 90.000000
_cell_angle_beta 79.997234
_cell_angle_gamma 90.000000
_cell_volume 2695.913576
_symmetry_space_group_name_H-M "C 2/C"
_symmetry_group_IT_number 15
_symmetry_cell_setting 'monoclinic'
loop_
_space_group_symop_operation_xyz
x,y,z
-x,y,1/2-z
-x,-y,-z
x,-y,1/2+z
1/2+x,1/2+y,z
1/2-x,1/2+y,1/2-z
1/2-x,1/2-y,-z
1/2+x,1/2-y,1/2+z
loop_
_atom_site_type_symbol
_atom_site_label
_atom_site_fract_x
_atom_site_fract_y
_atom_site_fract_z
Si Si1 0.500000 0.776264 0.250000
Si Si2 0.948540 0.302686 0.475405
Si Si3 0.409094 0.249694 0.089988
Si Si4 0.694426 0.621987 0.172794
Si Si5 0.725034 0.629233 0.574461
Si Si6 0.108851 0.428576 0.331688
Si Si7 0.290032 0.050772 0.904556
Si Si8 0.482052 0.580219 0.414654
O O1 0.643525 0.704886 0.218541
O O2 0.586574 0.844940 0.288112
O O3 0.864812 0.280045 0.534111
O O4 0.856021 0.403171 0.454420
O O5 0.938641 0.192307 0.443677
O O6 0.135138 0.340182 0.473687
O O7 0.348652 0.154489 0.129187
O O8 0.599640 0.271824 0.083705
O O9 0.313621 0.354080 0.115336
O O10 0.765030 0.516802 0.196755
O O11 0.540612 0.597092 0.144755
O O12 0.811049 0.628425 0.624342
O O13 0.638453 0.517738 0.562012
O O14 0.935836 0.478950 0.358377
O O15 0.168565 0.949557 0.918128
#
# Coordination Sequence:
#
# PCOD8143455 Si02
#       8
#     4   8   8   8   8   8   8   8
#     4  12  24  50  72  90 128 154 218 284 334 390
#     4  11  21  40  62  97 137 183 220 258 304 375
#     4  11  21  41  64  95 140 176 217 265 315 377
#     4  11  24  45  68  95 127 171 210 277 335 391
#     4   9  22  41  61  96 134 170 216 263 314 386
#     4  10  23  46  67  96 124 166 217 267 341 397
#     4  10  21  40  67  95 134 174 218 263 312 383
#     4  10  22  41  66  94 135 174 215 261 330 375
#
# _framework density 22.255906
#
# number of rings (size 3 to 8) (size 9 to 14) (size 15 to 20)
#    0.000    1.600    2.667    1.600    1.867    3.200 
#    9.600    2.000    0.000    0.000    0.000    0.000 
#    0.000    0.000    0.000    0.000    0.000    0.000 
#
# Total GULP energy -371913.502126 kJ/mol
# GULP energy per Si atom -12397.116738 kJ/mol
# Density = 2.220525 g / cm^3
# Si number density = 22.255906 Si / 1000 Ang^3
#
#
#
# Elastic Constant Matrix: (Units=GPa)
#
#
# Indices 1 2 3 4 5 6 
#
# 1 126.4468 43.5886 35.0699 0.0000 -8.3287 0.0000
# 2 43.5886 87.1855 46.2773 0.0000 -6.4008 0.0000
# 3 35.0699 46.2773 94.3846 0.0000 -16.5348 0.0000
# 4 0.0000 0.0000 0.0000 7.3368 0.0000 3.3455
# 5 -8.3287 -6.4008 -16.5348 0.0000 17.6954 0.0000
# 6 0.0000 0.0000 0.0000 3.3455 0.0000 47.1409
#
#
#
# Elastic Compliance Matrix: (Units=1/GPa)
#
#
# Indices 1 2 3 4 5 6 
#
# 1 0.009799 -0.004061 -0.001314 0.000000 0.001915 0.000000
# 2 -0.004061 0.017235 -0.007395 0.000000 -0.002587 0.000000
# 3 -0.001314 -0.007395 0.016898 0.000000 0.012496 0.000000
# 4 0.000000 0.000000 0.000000 0.140858 0.000000 -0.009996
# 5 0.001915 -0.002587 0.012496 0.000000 0.068154 0.000000
# 6 0.000000 0.000000 0.000000 -0.009996 0.000000 0.021922
#
#
# Mechanical properties :
#
#
# Convention : Reuss Voigt Hill
#
# Bulk Modulus (GPa) = 54.37044 61.98759 58.17902
# Shear Modulus (GPa) = 16.31117 26.64002 21.47560
#
# Velocity S-wave (km/s) = 2.71013 3.46350 3.10972
# Velocity P-wave (km/s) = 5.85455 6.62625 6.25232
#
# Compressibility (1/GPa) = 0.01839235
#
# Stress axis : x y z
#
# Youngs Moduli (GPa) = 102.05153 58.02088 59.17759
#
# Poissons Ratio (x) = 0.23561 0.07779
# Poissons Ratio (y) = 0.41440 0.43761
# Poissons Ratio (z) = 0.13414 0.42906
#
# Static dielectric constant tensor:
#      x y z
#    x 4.463480 0.000000 -0.100170 
#    y 0.000000 4.066860 0.000000 
#    z -0.100170 0.000000 3.697440 
# 
# 
# High freq. dielectric constant tensor:
#      x y z
#    x 1.896170 0.000000 -0.004880 
#    y 0.000000 1.881600 0.000000 
#    z -0.004880 0.000000 1.842610 
# 
# From -- ./inp_files/307113.got.cif
#   From: 2010.06.25/outbox.cif.g09.slc.cpg/sg15_154_cif.got.tgz:307113.got - 2010.06.28 07:06:18.
