data_PCOD8143995
_publ_section_title
;
Structure prediction by ZEFSAII (Michael W. Deem and Ramdas Pophale) SiO2 
 PCOD8143995
Probable space group: C 2/C
;
_chemical_formula_sum "Si O2"
_cell_formula_units_Z 48
_cell_length_a 8.386231
_cell_length_b 11.525561
_cell_length_c 22.499267
_cell_angle_alpha 90.000000
_cell_angle_beta 72.417513
_cell_angle_gamma 90.000000
_cell_volume 2073.094661
_symmetry_space_group_name_H-M "C 2/C"
_symmetry_group_IT_number 15
_symmetry_cell_setting 'monoclinic'
loop_
_space_group_symop_operation_xyz
x,y,z
-x,y,1/2-z
-x,-y,-z
x,-y,1/2+z
1/2+x,1/2+y,z
1/2-x,1/2+y,1/2-z
1/2-x,1/2-y,-z
1/2+x,1/2-y,1/2+z
loop_
_atom_site_type_symbol
_atom_site_label
_atom_site_fract_x
_atom_site_fract_y
_atom_site_fract_z
Si Si1 0.108753 0.221894 0.682503
Si Si2 0.739041 0.466207 0.082397
Si Si3 0.462418 0.809266 0.188837
Si Si4 0.469812 0.039569 0.366460
Si Si5 0.391449 0.291638 0.938573
Si Si6 0.847060 0.916067 0.530798
O O1 0.125570 0.112326 0.637738
O O2 0.292408 0.252519 0.687069
O O3 0.014834 0.329225 0.660410
O O4 0.000000 0.179533 0.750000
O O5 0.633674 0.580105 0.082271
O O6 0.915866 0.507631 0.089203
O O7 0.758997 0.395287 0.017962
O O8 0.500000 0.758317 0.250000
O O9 0.600714 0.786665 0.121520
O O10 0.468727 0.950130 0.191761
O O11 0.277136 0.024984 0.407663
O O12 0.572747 0.295444 0.952440
O O13 0.250000 0.250000 0.000000
O O14 0.000000 0.000000 0.500000
#
# Coordination Sequence:
#
# PCOD8143995 Si02
#       6
#     8   8   8   8   8   8
#     4  11  26  46  68 101 141 186 244 301 360 431
#     4  10  25  42  69 103 134 189 230 293 364 431
#     4  11  25  45  70 100 138 188 240 294 364 437
#     4  11  23  46  68 102 141 179 239 293 369 432
#     4  11  24  44  70 106 143 187 238 299 367 430
#     4  10  21  41  68  98 140 179 228 291 355 433
#
# _framework density 23.153790999999998
#
# number of rings (size 3 to 8) (size 9 to 14) (size 15 to 20)
#    0.000    1.333    1.667    3.000    4.667    5.333 
#    3.000    0.000    0.000    0.000    0.000    0.000 
#    0.000    0.000    0.000    0.000    0.000    0.000 
#
# Total GULP energy -297342.392109 kJ/mol
# GULP energy per Si atom -12389.266338 kJ/mol
# Density = 2.310109 g / cm^3
# Si number density = 23.153791 Si / 1000 Ang^3
#
#
#
# Elastic Constant Matrix: (Units=GPa)
#
#
# Indices 1 2 3 4 5 6 
#
# 1 104.2331 37.3695 50.7452 0.0000 14.2183 0.0000
# 2 37.3695 98.6842 45.9470 0.0000 13.1362 0.0000
# 3 50.7452 45.9470 155.9414 0.0000 8.0465 0.0000
# 4 0.0000 0.0000 0.0000 32.0594 0.0000 -0.0246
# 5 14.2183 13.1362 8.0465 0.0000 44.5188 0.0000
# 6 0.0000 0.0000 0.0000 -0.0246 0.0000 43.9893
#
#
#
# Elastic Compliance Matrix: (Units=1/GPa)
#
#
# Indices 1 2 3 4 5 6 
#
# 1 0.012497 -0.002966 -0.003060 0.000000 -0.002563 0.000000
# 2 -0.002966 0.012823 -0.002692 0.000000 -0.002350 0.000000
# 3 -0.003060 -0.002692 0.008187 0.000000 0.000292 0.000000
# 4 0.000000 0.000000 0.000000 0.031192 0.000000 0.000017
# 5 -0.002563 -0.002350 0.000292 0.000000 0.023921 0.000000
# 6 0.000000 0.000000 0.000000 0.000017 0.000000 0.022733
#
#
# Mechanical properties :
#
#
# Convention : Reuss Voigt Hill
#
# Bulk Modulus (GPa) = 62.22957 69.66466 65.94711
# Shear Modulus (GPa) = 37.27301 39.09996 38.18648
#
# Velocity S-wave (km/s) = 4.01659 4.11385 4.06551
# Velocity P-wave (km/s) = 6.96029 7.26072 7.11209
#
# Compressibility (1/GPa) = 0.01606953
#
# Stress axis : x y z
#
# Youngs Moduli (GPa) = 80.02016 77.98766 122.15160
#
# Poissons Ratio (x) = 0.23133 0.37383
# Poissons Ratio (y) = 0.23736 0.32878
# Poissons Ratio (z) = 0.24489 0.20991
#
# Static dielectric constant tensor:
#      x y z
#    x 4.658420 0.000000 0.611280 
#    y 0.000000 4.303060 0.000000 
#    z 0.611280 0.000000 4.603780 
# 
# 
# High freq. dielectric constant tensor:
#      x y z
#    x 1.916150 0.000000 0.008570 
#    y 0.000000 1.909770 0.000000 
#    z 0.008570 0.000000 1.924800 
# 
# From -- ./inp_files/263477.got.cif
#   From: 2010.06.25/outbox.cif.g09.slc.cpg/sg15_132_cif.got.tgz:263477.got - 2010.06.28 07:06:18.
