data_PCOD8143333
_publ_section_title
;
Structure prediction by ZEFSAII (Michael W. Deem and Ramdas Pophale) SiO2 
 PCOD8143333
Probable space group: C 2/C
;
_chemical_formula_sum "Si O2"
_cell_formula_units_Z 52
_cell_length_a 8.283414
_cell_length_b 17.229492
_cell_length_c 18.430546
_cell_angle_alpha 90.000000
_cell_angle_beta 120.842882
_cell_angle_gamma 90.000000
_cell_volume 2258.390312
_symmetry_space_group_name_H-M "C 2/C"
_symmetry_group_IT_number 15
_symmetry_cell_setting 'monoclinic'
loop_
_space_group_symop_operation_xyz
x,y,z
-x,y,1/2-z
-x,-y,-z
x,-y,1/2+z
1/2+x,1/2+y,z
1/2-x,1/2+y,1/2-z
1/2-x,1/2-y,-z
1/2+x,1/2-y,1/2+z
loop_
_atom_site_type_symbol
_atom_site_label
_atom_site_fract_x
_atom_site_fract_y
_atom_site_fract_z
Si Si1 0.141257 0.893465 0.494257
Si Si2 0.774389 0.958356 0.696782
Si Si3 0.273131 0.050842 0.569534
Si Si4 0.714840 0.841418 0.559181
Si Si5 0.311669 0.371061 0.160614
Si Si6 0.500000 0.999640 0.250000
Si Si7 0.941029 0.763674 0.924925
O O1 0.157205 0.860681 0.417541
O O2 0.188528 0.826995 0.564284
O O3 0.934245 0.927260 0.454441
O O4 0.287288 0.962825 0.542830
O O5 0.721815 0.044341 0.655273
O O6 0.667421 0.949090 0.749954
O O7 0.000000 0.950280 0.750000
O O8 0.692251 0.891593 0.626333
O O9 0.344304 0.107598 0.523852
O O10 0.405526 0.057432 0.670039
O O11 0.564168 0.772096 0.520269
O O12 0.925330 0.807579 0.602130
O O13 0.500000 0.360670 0.250000
O O14 0.174683 0.299294 0.148590
#
# Coordination Sequence:
#
# PCOD8143333 Si02
#       7
#     8   8   8   8   8   4   8
#     4  10  21  40  65  93 140 185 216 287 347 409
#     4  11  25  45  71 104 144 177 235 293 345 404
#     4  10  21  40  68  97 135 176 236 279 342 407
#     4  10  22  45  69  93 131 192 223 287 348 412
#     4  11  22  41  68  99 139 183 228 289 350 410
#     4  12  26  38  70 116 126 176 240 294 334 412
#     4  10  23  40  66  97 135 178 238 272 354 424
#
# _framework density 23.025248999999999
#
# number of rings (size 3 to 8) (size 9 to 14) (size 15 to 20)
#    0.000    1.538    1.538    3.231    6.462    1.231 
#    4.154    0.000    3.385    0.000    0.000    0.000 
#    0.000    0.000    0.000    0.000    0.000    0.000 
#
# Total GULP energy -322346.351323 kJ/mol
# GULP energy per Si atom -12397.936589 kJ/mol
# Density = 2.297284 g / cm^3
# Si number density = 23.025249 Si / 1000 Ang^3
#
#
#
# Elastic Constant Matrix: (Units=GPa)
#
#
# Indices 1 2 3 4 5 6 
#
# 1 90.6899 27.2236 18.1375 0.0000 -23.7359 0.0000
# 2 27.2236 114.5523 28.9414 0.0000 0.1294 0.0000
# 3 18.1375 28.9414 80.2817 0.0000 -10.3201 0.0000
# 4 0.0000 0.0000 0.0000 17.7145 0.0000 -8.0097
# 5 -23.7359 0.1294 -10.3201 0.0000 20.2880 0.0000
# 6 0.0000 0.0000 0.0000 -8.0097 0.0000 14.1549
#
#
#
# Elastic Compliance Matrix: (Units=1/GPa)
#
#
# Indices 1 2 3 4 5 6 
#
# 1 0.017741 -0.004297 0.000228 0.000000 0.020899 0.000000
# 2 -0.004297 0.010718 -0.003796 0.000000 -0.007027 0.000000
# 3 0.000228 -0.003796 0.014777 0.000000 0.007807 0.000000
# 4 0.000000 0.000000 0.000000 0.075860 0.000000 0.042926
# 5 0.020899 -0.007027 0.007807 0.000000 0.077757 0.000000
# 6 0.000000 0.000000 0.000000 0.042926 0.000000 0.094937
#
#
# Mechanical properties :
#
#
# Convention : Reuss Voigt Hill
#
# Bulk Modulus (GPa) = 36.35854 48.23654 42.29754
# Shear Modulus (GPa) = 15.78833 24.51290 20.15062
#
# Velocity S-wave (km/s) = 2.62142 3.26638 2.96151
# Velocity P-wave (km/s) = 4.99875 5.93469 5.48671
#
# Compressibility (1/GPa) = 0.02750385
#
# Stress axis : x y z
#
# Youngs Moduli (GPa) = 56.36714 93.30148 67.67341
#
# Poissons Ratio (x) = 0.40094 -0.01540
# Poissons Ratio (y) = 0.24222 0.25691
# Poissons Ratio (z) = -0.01283 0.35420
#
# Static dielectric constant tensor:
#      x y z
#    x 4.248250 0.000000 0.042070 
#    y 0.000000 4.376990 0.000000 
#    z 0.042070 0.000000 3.904480 
# 
# 
# High freq. dielectric constant tensor:
#      x y z
#    x 1.917860 0.000000 0.006920 
#    y 0.000000 1.911690 0.000000 
#    z 0.006920 0.000000 1.892350 
# 
# From -- ./inp_files/191151.got.cif
#   From: 2010.06.25/outbox.cif.g09.slc.cpg/sg15_96_cif.got.tgz:191151.got - 2010.06.28 07:06:18.
