data_PCOD8143928
_publ_section_title
;
Structure prediction by ZEFSAII (Michael W. Deem and Ramdas Pophale) SiO2 
 PCOD8143928
Probable space group: C 2/C
;
_chemical_formula_sum "Si O2"
_cell_formula_units_Z 48
_cell_length_a 25.911302
_cell_length_b 8.736567
_cell_length_c 15.475736
_cell_angle_alpha 90.000000
_cell_angle_beta 141.910113
_cell_angle_gamma 90.000000
_cell_volume 2161.195207
_symmetry_space_group_name_H-M "C 2/C"
_symmetry_group_IT_number 15
_symmetry_cell_setting 'monoclinic'
loop_
_space_group_symop_operation_xyz
x,y,z
-x,y,1/2-z
-x,-y,-z
x,-y,1/2+z
1/2+x,1/2+y,z
1/2-x,1/2+y,1/2-z
1/2-x,1/2-y,-z
1/2+x,1/2-y,1/2+z
loop_
_atom_site_type_symbol
_atom_site_label
_atom_site_fract_x
_atom_site_fract_y
_atom_site_fract_z
Si Si1 0.593942 0.862009 0.464930
Si Si2 0.918795 0.887673 0.896375
Si Si3 0.168340 0.177203 0.709648
Si Si4 0.905013 0.646864 0.725299
Si Si5 0.641902 0.808081 0.033595
Si Si6 0.840832 0.677761 0.133614
O O1 0.613736 0.726392 0.556136
O O2 0.615098 0.792806 0.397998
O O3 0.498699 0.917828 0.348761
O O4 0.645860 0.011748 0.559594
O O5 0.900646 0.783018 0.788827
O O6 0.920115 0.782674 0.984305
O O7 0.836219 0.993486 0.793181
O O8 0.000000 0.000000 0.000000
O O9 0.261847 0.244663 0.827665
O O10 0.119894 0.237978 0.731821
O O11 0.841894 0.504217 0.658877
O O12 0.610000 0.790148 0.891808
O O13 0.750000 0.750000 0.000000
#
# Coordination Sequence:
#
# PCOD8143928 Si02
#       6
#     8   8   8   8   8   8
#     4  10  21  41  67  90 129 178 226 272 345 410
#     4  12  25  40  63 103 135 171 222 287 348 406
#     4  11  22  41  64  95 134 173 227 280 345 418
#     4  10  22  41  65  95 131 173 224 284 342 413
#     4  10  23  42  63  92 129 181 225 274 340 415
#     4   9  21  42  67  95 128 176 230 278 339 416
#
# _framework density 22.209932999999999
#
# number of rings (size 3 to 8) (size 9 to 14) (size 15 to 20)
#    0.000    1.667    1.667    2.000    2.333    4.000 
#    0.000   13.333    0.000    0.000    0.000    0.000 
#    0.000    0.000    0.000    0.000    0.000    0.000 
#
# Total GULP energy -297355.960417 kJ/mol
# GULP energy per Si atom -12389.831684 kJ/mol
# Density = 2.215938 g / cm^3
# Si number density = 22.209933 Si / 1000 Ang^3
#
#
#
# Elastic Constant Matrix: (Units=GPa)
#
#
# Indices 1 2 3 4 5 6 
#
# 1 113.1590 73.4909 52.1339 0.0000 -33.1223 0.0000
# 2 73.4909 138.8787 61.2476 0.0000 -32.4590 0.0000
# 3 52.1339 61.2476 102.1060 0.0000 -30.5350 0.0000
# 4 0.0000 0.0000 0.0000 46.8783 0.0000 -2.7059
# 5 -33.1223 -32.4590 -30.5350 0.0000 48.6757 0.0000
# 6 0.0000 0.0000 0.0000 -2.7059 0.0000 38.5881
#
#
#
# Elastic Compliance Matrix: (Units=1/GPa)
#
#
# Indices 1 2 3 4 5 6 
#
# 1 0.015277 -0.005657 -0.002987 0.000000 0.004750 0.000000
# 2 -0.005657 0.012395 -0.003971 0.000000 0.001925 0.000000
# 3 -0.002987 -0.003971 0.015142 0.000000 0.004818 0.000000
# 4 0.000000 0.000000 0.000000 0.021419 0.000000 0.001502
# 5 0.004750 0.001925 0.004818 0.000000 0.028083 0.000000
# 6 0.000000 0.000000 0.000000 0.001502 0.000000 0.026020
#
#
# Mechanical properties :
#
#
# Convention : Reuss Voigt Hill
#
# Bulk Modulus (GPa) = 56.86758 80.87652 68.87205
# Shear Modulus (GPa) = 33.46119 37.97982 35.72051
#
# Velocity S-wave (km/s) = 3.88569 4.13975 4.01473
# Velocity P-wave (km/s) = 6.76695 7.70348 7.25035
#
# Compressibility (1/GPa) = 0.01758471
#
# Stress axis : x y z
#
# Youngs Moduli (GPa) = 65.45617 80.67507 66.04322
#
# Poissons Ratio (x) = 0.45639 0.19724
# Poissons Ratio (y) = 0.37029 0.26227
# Poissons Ratio (z) = 0.19549 0.32037
#
# Static dielectric constant tensor:
#      x y z
#    x 4.267790 0.000000 -0.364560 
#    y 0.000000 3.893190 0.000000 
#    z -0.364560 0.000000 4.017150 
# 
# 
# High freq. dielectric constant tensor:
#      x y z
#    x 1.876610 0.000000 -0.017990 
#    y 0.000000 1.867410 0.000000 
#    z -0.017990 0.000000 1.876190 
# 
# From -- ./inp_files/176884.got.cif
#   From: 2010.06.25/outbox.cif.g09.slc.cpg/sg15_89_cif.got.tgz:176884.got - 2010.06.28 07:06:18.
