data_PCOD8143761
_publ_section_title
;
Structure prediction by ZEFSAII (Michael W. Deem and Ramdas Pophale) SiO2 
 PCOD8143761
Probable space group: C 2/C
;
_chemical_formula_sum "Si O2"
_cell_formula_units_Z 64
_cell_length_a 29.156745
_cell_length_b 11.899619
_cell_length_c 17.484448
_cell_angle_alpha 90.000000
_cell_angle_beta 148.433147
_cell_angle_gamma 90.000000
_cell_volume 3175.667034
_symmetry_space_group_name_H-M "C 2/C"
_symmetry_group_IT_number 15
_symmetry_cell_setting 'monoclinic'
loop_
_space_group_symop_operation_xyz
x,y,z
-x,y,1/2-z
-x,-y,-z
x,-y,1/2+z
1/2+x,1/2+y,z
1/2-x,1/2+y,1/2-z
1/2-x,1/2-y,-z
1/2+x,1/2-y,1/2+z
loop_
_atom_site_type_symbol
_atom_site_label
_atom_site_fract_x
_atom_site_fract_y
_atom_site_fract_z
Si Si1 0.554158 0.694470 0.096635
Si Si2 0.135325 0.846917 0.217602
Si Si3 0.829466 0.975360 0.078255
Si Si4 0.825669 0.396308 0.075086
Si Si5 0.413503 0.943641 0.347542
Si Si6 0.723995 0.884842 0.799199
Si Si7 0.219785 0.054457 0.285230
Si Si8 0.568040 0.683865 0.284168
O O1 0.585685 0.817985 0.117717
O O2 0.638714 0.615249 0.212136
O O3 0.519887 0.696050 0.134808
O O4 0.470566 0.649838 0.930926
O O5 0.161713 0.889120 0.339172
O O6 0.167413 0.722255 0.243798
O O7 0.183356 0.927329 0.223171
O O8 0.913125 0.051215 0.175406
O O9 0.805922 0.896980 0.972832
O O10 0.759658 0.074293 0.996583
O O11 0.904371 0.448589 0.240542
O O12 0.845238 0.263867 0.092039
O O13 0.807160 0.446442 0.963588
O O14 0.500000 0.000000 0.500000
O O15 0.333992 0.004316 0.276652
O O16 0.759690 0.880576 0.763700
O O17 0.500000 0.728733 0.250000
#
# Coordination Sequence:
#
# PCOD8143761 Si02
#       8
#     8   8   8   8   8   8   8   8
#     4  11  23  41  62  91 129 164 202 262 326 361
#     4  11  23  43  63  88 130 168 206 254 323 380
#     4  10  22  41  62  88 126 168 209 252 313 376
#     4   9  21  39  61  88 125 161 203 260 314 361
#     4  10  21  41  64  91 122 166 212 251 312 382
#     4  11  25  39  67  93 121 169 221 253 307 388
#     4  11  25  39  65  93 128 161 212 269 315 365
#     4  11  23  35  64  94 123 158 211 260 316 373
#
# _framework density 20.153247
#
# number of rings (size 3 to 8) (size 9 to 14) (size 15 to 20)
#    0.000    1.500    3.750    1.125    8.750    0.000 
#    0.000    0.000    0.000    1.500    0.000    0.000 
#    0.000    0.000    0.000    0.000    0.000    0.000 
#
# Total GULP energy -396456.814885 kJ/mol
# GULP energy per Si atom -12389.275465 kJ/mol
# Density = 2.010738 g / cm^3
# Si number density = 20.153247 Si / 1000 Ang^3
#
#
#
# Elastic Constant Matrix: (Units=GPa)
#
#
# Indices 1 2 3 4 5 6 
#
# 1 95.1107 20.8946 37.8970 0.0000 -17.7814 0.0000
# 2 20.8946 84.1270 42.8540 0.0000 -6.9950 0.0000
# 3 37.8970 42.8540 119.0779 0.0000 -14.4859 0.0000
# 4 0.0000 0.0000 0.0000 30.6496 0.0000 1.0999
# 5 -17.7814 -6.9950 -14.4859 0.0000 20.5355 0.0000
# 6 0.0000 0.0000 0.0000 1.0999 0.0000 23.2091
#
#
#
# Elastic Compliance Matrix: (Units=1/GPa)
#
#
# Indices 1 2 3 4 5 6 
#
# 1 0.013646 -0.001196 -0.002762 0.000000 0.009460 0.000000
# 2 -0.001196 0.014696 -0.004841 0.000000 0.000556 0.000000
# 3 -0.002762 -0.004841 0.011515 0.000000 0.004083 0.000000
# 4 0.000000 0.000000 0.000000 0.032682 0.000000 -0.001549
# 5 0.009460 0.000556 0.004083 0.000000 0.059957 0.000000
# 6 0.000000 0.000000 0.000000 -0.001549 0.000000 0.043160
#
#
# Mechanical properties :
#
#
# Convention : Reuss Voigt Hill
#
# Bulk Modulus (GPa) = 44.92157 55.73408 50.32782
# Shear Modulus (GPa) = 24.91617 27.99018 26.45317
#
# Velocity S-wave (km/s) = 3.51997 3.73079 3.62691
# Velocity P-wave (km/s) = 6.23367 6.80247 6.52427
#
# Compressibility (1/GPa) = 0.02226102
#
# Stress axis : x y z
#
# Youngs Moduli (GPa) = 73.28268 68.04675 86.83958
#
# Poissons Ratio (x) = 0.08137 0.23982
# Poissons Ratio (y) = 0.08763 0.42035
# Poissons Ratio (z) = 0.20238 0.32938
#
# Static dielectric constant tensor:
#      x y z
#    x 3.359320 0.000000 -0.028910 
#    y 0.000000 6.511020 0.000000 
#    z -0.028910 0.000000 4.563150 
# 
# 
# High freq. dielectric constant tensor:
#      x y z
#    x 1.758230 0.000000 -0.012580 
#    y 0.000000 1.791850 0.000000 
#    z -0.012580 0.000000 1.798210 
# 
# From -- ./inp_files/225187.got.cif
#   From: 2010.06.25/outbox.cif.g09.slc.cpg/sg15_113_cif.got.tgz:225187.got - 2010.06.28 07:06:18.
