data_PCOD8143502
_publ_section_title
;
Structure prediction by ZEFSAII (Michael W. Deem and Ramdas Pophale) SiO2 
 PCOD8143502
Probable space group: C 2/C
;
_chemical_formula_sum "Si O2"
_cell_formula_units_Z 64
_cell_length_a 12.208466
_cell_length_b 30.092582
_cell_length_c 14.322112
_cell_angle_alpha 90.000000
_cell_angle_beta 36.613444
_cell_angle_gamma 90.000000
_cell_volume 3138.158590
_symmetry_space_group_name_H-M "C 2/C"
_symmetry_group_IT_number 15
_symmetry_cell_setting 'monoclinic'
loop_
_space_group_symop_operation_xyz
x,y,z
-x,y,1/2-z
-x,-y,-z
x,-y,1/2+z
1/2+x,1/2+y,z
1/2-x,1/2+y,1/2-z
1/2-x,1/2-y,-z
1/2+x,1/2-y,1/2+z
loop_
_atom_site_type_symbol
_atom_site_label
_atom_site_fract_x
_atom_site_fract_y
_atom_site_fract_z
Si Si1 0.050747 0.757645 0.950577
Si Si2 0.116852 0.393857 0.258800
Si Si3 0.825527 0.700148 0.800373
Si Si4 0.927175 0.697094 0.194882
Si Si5 0.696465 0.534330 0.282157
Si Si6 0.499409 0.896095 0.546608
Si Si7 0.781152 0.030413 0.890136
Si Si8 0.802911 0.022755 0.547590
O O1 0.858673 0.775491 0.038333
O O2 0.020820 0.737827 0.074904
O O3 0.113939 0.718186 0.841115
O O4 0.205954 0.796271 0.847687
O O5 0.245913 0.350353 0.172166
O O6 0.201310 0.441470 0.180060
O O7 0.000000 0.381064 0.250000
O O8 0.001907 0.394365 0.432813
O O9 0.000000 0.706032 0.750000
O O10 0.984580 0.651575 0.104519
O O11 0.000000 0.696825 0.250000
O O12 0.816175 0.577985 0.198663
O O13 0.776657 0.493480 0.166496
O O14 0.492989 0.544813 0.382200
O O15 0.669231 0.520643 0.408181
O O16 0.678570 0.922176 0.463468
O O17 0.000000 0.039107 0.750000
O O18 0.702344 0.996854 0.024500
#
# Coordination Sequence:
#
# PCOD8143502 Si02
#       8
#     8   8   8   8   8   8   8   8
#     4  10  22  45  70  91 132 170 208 265 331 381
#     4  11  23  39  63  93 126 162 210 259 319 375
#     4  10  21  40  68  99 127 164 210 261 322 395
#     4  11  25  44  66  99 127 171 218 265 321 390
#     4  10  22  38  59  83 124 164 213 259 304 372
#     4  12  24  41  63  96 127 163 218 268 310 380
#     4  10  22  41  60  90 126 172 217 262 317 372
#     4  10  22  38  60  86 121 169 208 255 318 367
#
# _framework density 20.394124999999999
#
# number of rings (size 3 to 8) (size 9 to 14) (size 15 to 20)
#    0.000    1.500    2.500    1.875    5.250    0.000 
#    2.250    0.625    0.000    0.000    0.000    0.000 
#    0.000    0.000    0.000    0.000    0.000    0.000 
#
# Total GULP energy -396480.959311 kJ/mol
# GULP energy per Si atom -12390.029978 kJ/mol
# Density = 2.034771 g / cm^3
# Si number density = 20.394125 Si / 1000 Ang^3
#
#
#
# Elastic Constant Matrix: (Units=GPa)
#
#
# Indices 1 2 3 4 5 6 
#
# 1 97.3262 30.1457 44.2215 0.0000 9.4731 0.0000
# 2 30.1457 100.7842 44.8836 0.0000 -0.5417 0.0000
# 3 44.2215 44.8836 99.9420 0.0000 6.2217 0.0000
# 4 0.0000 0.0000 0.0000 29.5862 0.0000 6.5340
# 5 9.4731 -0.5417 6.2217 0.0000 30.8181 0.0000
# 6 0.0000 0.0000 0.0000 6.5340 0.0000 27.8987
#
#
#
# Elastic Compliance Matrix: (Units=1/GPa)
#
#
# Indices 1 2 3 4 5 6 
#
# 1 0.013376 -0.001837 -0.004897 0.000000 -0.003155 0.000000
# 2 -0.001837 0.012712 -0.005008 0.000000 0.001799 0.000000
# 3 -0.004897 -0.005008 0.014516 0.000000 -0.001513 0.000000
# 4 0.000000 0.000000 0.000000 0.035643 0.000000 -0.008348
# 5 -0.003155 0.001799 -0.001513 0.000000 0.033755 0.000000
# 6 0.000000 0.000000 0.000000 -0.008348 0.000000 0.037799
#
#
# Mechanical properties :
#
#
# Convention : Reuss Voigt Hill
#
# Bulk Modulus (GPa) = 58.41319 59.61713 59.01516
# Shear Modulus (GPa) = 28.25001 29.58072 28.91536
#
# Velocity S-wave (km/s) = 3.72587 3.81261 3.76949
# Velocity P-wave (km/s) = 6.87123 6.97691 6.92427
#
# Compressibility (1/GPa) = 0.01711942
#
# Stress axis : x y z
#
# Youngs Moduli (GPa) = 74.76159 78.66853 68.89023
#
# Poissons Ratio (x) = 0.14451 0.33736
# Poissons Ratio (y) = 0.13733 0.34500
# Poissons Ratio (z) = 0.36611 0.39396
#
# Static dielectric constant tensor:
#      x y z
#    x 3.884460 0.000000 0.000370 
#    y 0.000000 3.826760 0.000000 
#    z 0.000370 0.000000 3.815920 
# 
# 
# High freq. dielectric constant tensor:
#      x y z
#    x 1.796130 0.000000 0.011750 
#    y 0.000000 1.794760 0.000000 
#    z 0.011750 0.000000 1.805020 
# 
# From -- ./inp_files/148747.got.cif
#   From: 2010.06.25/outbox.cif.g09.slc.cpg/sg15_75_cif.got.tgz:148747.got - 2010.06.28 07:06:18.
