data_PCOD8143943
_publ_section_title
;
Structure prediction by ZEFSAII (Michael W. Deem and Ramdas Pophale) SiO2 
 PCOD8143943
Probable space group: C 2/C
;
_chemical_formula_sum "Si O2"
_cell_formula_units_Z 40
_cell_length_a 14.273383
_cell_length_b 15.233112
_cell_length_c 8.859117
_cell_angle_alpha 90.000000
_cell_angle_beta 66.306274
_cell_angle_gamma 90.000000
_cell_volume 1763.852794
_symmetry_space_group_name_H-M "C 2/C"
_symmetry_group_IT_number 15
_symmetry_cell_setting 'monoclinic'
loop_
_space_group_symop_operation_xyz
x,y,z
-x,y,1/2-z
-x,-y,-z
x,-y,1/2+z
1/2+x,1/2+y,z
1/2-x,1/2+y,1/2-z
1/2-x,1/2-y,-z
1/2+x,1/2-y,1/2+z
loop_
_atom_site_type_symbol
_atom_site_label
_atom_site_fract_x
_atom_site_fract_y
_atom_site_fract_z
Si Si1 0.175147 0.072001 0.468336
Si Si2 0.600170 0.035784 0.110983
Si Si3 0.851132 0.891431 0.172799
Si Si4 0.877900 0.378383 0.212022
Si Si5 0.469931 0.307364 0.607609
O O1 0.298105 0.079061 0.383149
O O2 0.131785 0.085028 0.663920
O O3 0.132796 0.147645 0.386921
O O4 0.135238 0.978687 0.435554
O O5 0.500000 0.081080 0.250000
O O6 0.599398 0.930323 0.146050
O O7 0.600311 0.048655 0.931307
O O8 0.740231 0.847988 0.216810
O O9 0.936544 0.821303 0.068573
O O10 0.950341 0.295791 0.141044
O O11 0.500000 0.348076 0.750000
#
# Coordination Sequence:
#
# PCOD8143943 Si02
#       5
#     8   8   8   8   8
#     4  10  22  41  67  97 129 172 217 262 324 387
#     4  10  21  41  67  93 129 168 211 263 324 388
#     4  10  22  43  67  94 133 172 213 266 323 385
#     4  10  24  42  66  97 126 172 219 263 325 387
#     4  12  25  40  63  98 135 170 215 268 322 380
#
# _framework density 22.677629
#
# number of rings (size 3 to 8) (size 9 to 14) (size 15 to 20)
#    0.000    1.600    0.000    3.600    0.000    8.800 
#    0.000    0.000    0.000    0.000    0.000    0.000 
#    0.000    0.000    0.000    0.000    0.000    0.000 
#
# Total GULP energy -248034.614179 kJ/mol
# GULP energy per Si atom -12401.730709 kJ/mol
# Density = 2.262601 g / cm^3
# Si number density = 22.677629 Si / 1000 Ang^3
#
#
#
# Elastic Constant Matrix: (Units=GPa)
#
#
# Indices 1 2 3 4 5 6 
#
# 1 105.3213 57.7039 68.8274 0.0000 -16.2355 0.0000
# 2 57.7039 116.5542 67.3230 0.0000 -5.5577 0.0000
# 3 68.8274 67.3230 132.8763 0.0000 -2.2053 0.0000
# 4 0.0000 0.0000 0.0000 38.3796 0.0000 -7.6762
# 5 -16.2355 -5.5577 -2.2053 0.0000 49.6566 0.0000
# 6 0.0000 0.0000 0.0000 -7.6762 0.0000 33.8845
#
#
#
# Elastic Compliance Matrix: (Units=1/GPa)
#
#
# Indices 1 2 3 4 5 6 
#
# 1 0.016819 -0.004404 -0.006403 0.000000 0.004722 0.000000
# 2 -0.004404 0.013341 -0.004481 0.000000 -0.000146 0.000000
# 3 -0.006403 -0.004481 0.013079 0.000000 -0.002014 0.000000
# 4 0.000000 0.000000 0.000000 0.027292 0.000000 0.006183
# 5 0.004722 -0.000146 -0.002014 0.000000 0.021576 0.000000
# 6 0.000000 0.000000 0.000000 0.006183 0.000000 0.030913
#
#
# Mechanical properties :
#
#
# Convention : Reuss Voigt Hill
#
# Bulk Modulus (GPa) = 78.95497 82.49560 80.72528
# Shear Modulus (GPa) = 31.68231 35.11064 33.39648
#
# Velocity S-wave (km/s) = 3.74180 3.93905 3.84169
# Velocity P-wave (km/s) = 7.31846 7.55941 7.43991
#
# Compressibility (1/GPa) = 0.01266545
#
# Stress axis : x y z
#
# Youngs Moduli (GPa) = 59.45490 74.95650 76.45805
#
# Poissons Ratio (x) = 0.33008 0.48954
# Poissons Ratio (y) = 0.26182 0.34259
# Poissons Ratio (z) = 0.38067 0.33587
#
# Static dielectric constant tensor:
#      x y z
#    x 4.502660 0.000000 0.046890 
#    y 0.000000 3.666160 0.000000 
#    z 0.046890 0.000000 4.156540 
# 
# 
# High freq. dielectric constant tensor:
#      x y z
#    x 1.924870 0.000000 0.001240 
#    y 0.000000 1.864780 0.000000 
#    z 0.001240 0.000000 1.898220 
# 
# From -- ./inp_files/37833.got.cif
#   From: 2010.06.25/outbox.cif.g09.slc.cpg/sg15_19_cif.got.tgz:37833.got - 2010.06.28 07:06:18.
