data_PCOD8143157
_publ_section_title
;
Structure prediction by ZEFSAII (Michael W. Deem and Ramdas Pophale) SiO2 
 PCOD8143157
Probable space group: C 2/C
;
_chemical_formula_sum "Si O2"
_cell_formula_units_Z 40
_cell_length_a 11.475042
_cell_length_b 9.623659
_cell_length_c 19.164803
_cell_angle_alpha 90.000000
_cell_angle_beta 120.129327
_cell_angle_gamma 90.000000
_cell_volume 1830.467653
_symmetry_space_group_name_H-M "C 2/C"
_symmetry_group_IT_number 15
_symmetry_cell_setting 'monoclinic'
loop_
_space_group_symop_operation_xyz
x,y,z
-x,y,1/2-z
-x,-y,-z
x,-y,1/2+z
1/2+x,1/2+y,z
1/2-x,1/2+y,1/2-z
1/2-x,1/2-y,-z
1/2+x,1/2-y,1/2+z
loop_
_atom_site_type_symbol
_atom_site_label
_atom_site_fract_x
_atom_site_fract_y
_atom_site_fract_z
Si Si1 0.823804 0.524704 0.086756
Si Si2 0.541533 0.774372 0.682483
Si Si3 0.211113 0.225115 0.164710
Si Si4 0.938791 0.241572 0.157817
Si Si5 0.664568 0.445980 0.397294
O O1 0.972701 0.594977 0.122140
O O2 0.744416 0.590438 0.128143
O O3 0.836691 0.360676 0.102235
O O4 0.740047 0.553636 0.992778
O O5 0.500000 0.787363 0.750000
O O6 0.704773 0.777449 0.735506
O O7 0.480255 0.630190 0.634232
O O8 0.054385 0.223909 0.134677
O O9 0.246554 0.364313 0.132634
O O10 0.000000 0.285776 0.250000
O O11 0.856100 0.099407 0.139045
#
# Coordination Sequence:
#
# PCOD8143157 Si02
#       5
#     8   8   8   8   8
#     4  10  21  40  63  90 122 154 197 248 298 355
#     4   8  16  35  62  85 113 156 194 232 291 352
#     4  10  22  42  64  86 120 160 196 246 298 346
#     4  12  25  39  61  91 119 158 206 242 290 358
#     4  10  21  40  63  90 122 154 197 248 298 355
#
# _framework density 21.852339000000001
#
# number of rings (size 3 to 8) (size 9 to 14) (size 15 to 20)
#    0.000    2.400    0.000    6.600    0.000    8.000 
#    0.000    6.000    0.000    0.000    0.000    0.000 
#    0.000    0.000    0.000    0.000    0.000    0.000 
#
# Total GULP energy -247933.854711 kJ/mol
# GULP energy per Si atom -12396.692736 kJ/mol
# Density = 2.180260 g / cm^3
# Si number density = 21.852339 Si / 1000 Ang^3
#
#
#
# Elastic Constant Matrix: (Units=GPa)
#
#
# Indices 1 2 3 4 5 6 
#
# 1 76.9108 27.9226 10.0500 0.0000 -4.2636 0.0000
# 2 27.9226 141.6402 13.2014 0.0000 2.9903 0.0000
# 3 10.0500 13.2014 123.2325 0.0000 18.7696 0.0000
# 4 0.0000 0.0000 0.0000 32.0993 0.0000 2.1808
# 5 -4.2636 2.9903 18.7696 0.0000 17.7710 0.0000
# 6 0.0000 0.0000 0.0000 2.1808 0.0000 16.5519
#
#
#
# Elastic Compliance Matrix: (Units=1/GPa)
#
#
# Indices 1 2 3 4 5 6 
#
# 1 0.014588 -0.002834 -0.001778 0.000000 0.005854 0.000000
# 2 -0.002834 0.007685 -0.000348 0.000000 -0.001606 0.000000
# 3 -0.001778 -0.000348 0.009954 0.000000 -0.010882 0.000000
# 4 0.000000 0.000000 0.000000 0.031435 0.000000 -0.004142
# 5 0.005854 -0.001606 -0.010882 0.000000 0.069439 0.000000
# 6 0.000000 0.000000 0.000000 -0.004142 0.000000 0.060962
#
#
# Mechanical properties :
#
#
# Convention : Reuss Voigt Hill
#
# Bulk Modulus (GPa) = 44.82491 49.34792 47.08642
# Shear Modulus (GPa) = 23.64991 32.65843 28.15417
#
# Velocity S-wave (km/s) = 3.29334 3.87008 3.59330
# Velocity P-wave (km/s) = 5.91765 6.52698 6.22977
#
# Compressibility (1/GPa) = 0.02230902
#
# Stress axis : x y z
#
# Youngs Moduli (GPa) = 68.55094 130.12249 100.45833
#
# Poissons Ratio (x) = 0.36873 0.17859
# Poissons Ratio (y) = 0.19425 0.03492
# Poissons Ratio (z) = 0.12187 0.04523
#
# Static dielectric constant tensor:
#      x y z
#    x 4.055380 0.000000 0.658060 
#    y 0.000000 4.018720 0.000000 
#    z 0.658060 0.000000 4.361620 
# 
# 
# High freq. dielectric constant tensor:
#      x y z
#    x 1.826410 0.000000 0.019450 
#    y 0.000000 1.867990 0.000000 
#    z 0.019450 0.000000 1.867120 
# 
# From -- ./inp_files/242105.got.cif
#   From: 2010.06.25/outbox.cif.g09.slc.cpg/sg15_122_cif.got.tgz:242105.got - 2010.06.28 07:06:18.
