data_PCOD8143366
_publ_section_title
;
Structure prediction by ZEFSAII (Michael W. Deem and Ramdas Pophale) SiO2 
 PCOD8143366
Probable space group: C 2/C
;
_chemical_formula_sum "Si O2"
_cell_formula_units_Z 52
_cell_length_a 16.225552
_cell_length_b 20.679664
_cell_length_c 8.230286
_cell_angle_alpha 90.000000
_cell_angle_beta 118.879248
_cell_angle_gamma 90.000000
_cell_volume 2418.149989
_symmetry_space_group_name_H-M "C 2/C"
_symmetry_group_IT_number 15
_symmetry_cell_setting 'monoclinic'
loop_
_space_group_symop_operation_xyz
x,y,z
-x,y,1/2-z
-x,-y,-z
x,-y,1/2+z
1/2+x,1/2+y,z
1/2-x,1/2+y,1/2-z
1/2-x,1/2-y,-z
1/2+x,1/2-y,1/2+z
loop_
_atom_site_type_symbol
_atom_site_label
_atom_site_fract_x
_atom_site_fract_y
_atom_site_fract_z
Si Si1 0.218769 0.671214 0.133572
Si Si2 0.954259 0.141619 0.877704
Si Si3 0.333837 0.206561 0.781211
Si Si4 0.000000 0.080471 0.250000
Si Si5 0.744047 0.584120 0.788439
Si Si6 0.033263 0.711148 0.105032
Si Si7 0.291277 0.455907 0.586131
O O1 0.286357 0.724672 0.284619
O O2 0.118013 0.665642 0.126715
O O3 0.270948 0.601725 0.197102
O O4 0.201988 0.690104 0.931453
O O5 0.864312 0.098120 0.799824
O O6 0.925969 0.216539 0.849989
O O7 0.000000 0.122425 0.750000
O O8 0.010544 0.124766 0.097632
O O9 0.304061 0.149359 0.880414
O O10 0.446391 0.211209 0.896393
O O11 0.095551 0.036966 0.338719
O O12 0.760852 0.522633 0.918477
O O13 0.766473 0.562624 0.627750
O O14 0.000000 0.687518 0.250000
#
# Coordination Sequence:
#
# PCOD8143366 Si02
#       7
#     8   8   8   4   8   8   8
#     4  10  21  41  63  93 117 167 218 257 315 380
#     4  10  22  37  58  91 126 161 211 257 315 386
#     4  10  21  40  66  86 124 166 210 267 309 375
#     4  10  22  38  58  90 122 176 208 250 326 374
#     4  10  22  40  58  90 125 163 206 258 311 378
#     4  11  23  38  60  95 125 159 211 264 321 373
#     4  10  23  37  61  89 125 163 212 252 318 383
#
# _framework density 21.504042999999999
#
# number of rings (size 3 to 8) (size 9 to 14) (size 15 to 20)
#    0.000    1.846    1.538    1.385    7.538    3.077 
#    0.000    0.769    0.000    0.000    0.000    0.000 
#    0.000    0.000    0.000    0.000    0.000    0.000 
#
# Total GULP energy -322172.073661 kJ/mol
# GULP energy per Si atom -12391.233602 kJ/mol
# Density = 2.145510 g / cm^3
# Si number density = 21.504043 Si / 1000 Ang^3
#
#
#
# Elastic Constant Matrix: (Units=GPa)
#
#
# Indices 1 2 3 4 5 6 
#
# 1 89.5553 35.2271 17.1862 0.0000 0.6398 0.0000
# 2 35.2271 104.8456 12.2298 0.0000 -4.9472 0.0000
# 3 17.1862 12.2298 49.5193 0.0000 -7.0986 0.0000
# 4 0.0000 0.0000 0.0000 -41.3980 0.0000 -31.9909
# 5 0.6398 -4.9472 -7.0986 0.0000 34.5890 0.0000
# 6 0.0000 0.0000 0.0000 -31.9909 0.0000 20.1265
#
#
#
# Elastic Compliance Matrix: (Units=1/GPa)
#
#
# Indices 1 2 3 4 5 6 
#
# 1 0.013575 -0.004182 -0.003915 0.000000 -0.001653 0.000000
# 2 -0.004182 0.011139 -0.001092 0.000000 0.001446 0.000000
# 3 -0.003915 -0.001092 0.022472 0.000000 0.004528 0.000000
# 4 0.000000 0.000000 0.000000 -0.010840 0.000000 -0.017231
# 5 -0.001653 0.001446 0.004528 0.000000 0.030078 0.000000
# 6 0.000000 0.000000 0.000000 -0.017231 0.000000 0.022298
#
#
# Mechanical properties :
#
#
# Convention : Reuss Voigt Hill
#
# Bulk Modulus (GPa) = 34.71515 41.46740 38.09127
# Shear Modulus (GPa) = 42.84460 14.61530 28.72995
#
# Velocity S-wave (km/s) = 4.46847 2.60985 3.65913
# Velocity P-wave (km/s) = 6.54229 5.32983 5.96694
#
# Compressibility (1/GPa) = 0.02880587
#
# Stress axis : x y z
#
# Youngs Moduli (GPa) = 73.66729 89.77748 44.50029
#
# Poissons Ratio (x) = 0.37547 0.17423
# Poissons Ratio (y) = 0.30809 0.04860
# Poissons Ratio (z) = 0.28842 0.09805
#
# Static dielectric constant tensor:
#      x y z
#    x 3.873440 0.000000 -0.337240 
#    y 0.000000 4.001310 0.000000 
#    z -0.337240 0.000000 4.200800 
# 
# 
# High freq. dielectric constant tensor:
#      x y z
#    x 1.838300 0.000000 -0.011150 
#    y 0.000000 1.838470 0.000000 
#    z -0.011150 0.000000 1.827110 
# 
# From -- ./inp_files/49217.got.cif
#   From: 2010.06.25/outbox.cif.g09.slc.cpg/sg15_25_cif.got.tgz:49217.got - 2010.06.28 07:06:18.
