data_PCOD8143926
_publ_section_title
;
Structure prediction by ZEFSAII (Michael W. Deem and Ramdas Pophale) SiO2 
 PCOD8143926
Probable space group: C 2/C
;
_chemical_formula_sum "Si O2"
_cell_formula_units_Z 44
_cell_length_a 16.864199
_cell_length_b 31.812723
_cell_length_c 5.065446
_cell_angle_alpha 90.000000
_cell_angle_beta 53.448712
_cell_angle_gamma 90.000000
_cell_volume 2183.107094
_symmetry_space_group_name_H-M "C 2/C"
_symmetry_group_IT_number 15
_symmetry_cell_setting 'monoclinic'
loop_
_space_group_symop_operation_xyz
x,y,z
-x,y,1/2-z
-x,-y,-z
x,-y,1/2+z
1/2+x,1/2+y,z
1/2-x,1/2+y,1/2-z
1/2-x,1/2-y,-z
1/2+x,1/2-y,1/2+z
loop_
_atom_site_type_symbol
_atom_site_label
_atom_site_fract_x
_atom_site_fract_y
_atom_site_fract_z
Si Si1 0.107054 0.472429 0.090735
Si Si2 0.792398 0.273761 0.164187
Si Si3 0.798427 0.083481 0.123809
Si Si4 0.000000 0.970120 0.250000
Si Si5 0.500000 0.315923 0.750000
Si Si6 0.196248 0.138231 0.881984
Si Si7 0.500000 0.258908 0.250000
O O1 0.112993 0.488549 0.378442
O O2 0.000000 0.449668 0.250000
O O3 0.201093 0.443047 0.872849
O O4 0.750000 0.250000 0.500000
O O5 0.771143 0.323146 0.211691
O O6 0.750000 0.250000 0.000000
O O7 0.908964 0.271953 0.899575
O O8 0.803741 0.121547 0.320010
O O9 0.779437 0.101014 0.868571
O O10 0.900449 0.057590 0.941769
O O11 0.000000 0.000000 0.500000
O O12 0.589925 0.345803 0.504751
O O13 0.476318 0.287534 0.547144
#
# Coordination Sequence:
#
# PCOD8143926 Si02
#       7
#     8   8   8   4   4   8   4
#     4  10  21  41  67  89 117 162 211 249 295 376
#     4  12  23  43  64  93 122 167 226 259 317 380
#     4  12  24  41  61  96 130 161 201 255 326 369
#     4  12  24  42  68  96 130 166 208 252 308 386
#     4  12  22  39  66  86 118 169 214 251 320 370
#     4  12  24  40  62  91 131 162 203 264 315 382
#     4  12  22  41  66  88 116 163 220 273 302 374
#
# _framework density 20.15476
#
# number of rings (size 3 to 8) (size 9 to 14) (size 15 to 20)
#    0.000    0.364    3.636    6.545    0.000    0.000 
#    3.273    0.000    0.000    0.000    0.000    0.000 
#    0.000    0.000    0.000    0.000    0.000    0.000 
#
# Total GULP energy -272818.738393 kJ/mol
# GULP energy per Si atom -12400.851745 kJ/mol
# Density = 2.010889 g / cm^3
# Si number density = 20.154760 Si / 1000 Ang^3
#
#
#
# Elastic Constant Matrix: (Units=GPa)
#
#
# Indices 1 2 3 4 5 6 
#
# 1 113.3469 46.0473 54.6973 0.0000 -22.8226 0.0000
# 2 46.0473 97.4643 43.3937 0.0000 -14.4303 0.0000
# 3 54.6973 43.3937 110.1345 0.0000 -10.9316 0.0000
# 4 0.0000 0.0000 0.0000 45.0615 0.0000 1.3569
# 5 -22.8226 -14.4303 -10.9316 0.0000 66.3632 0.0000
# 6 0.0000 0.0000 0.0000 1.3569 0.0000 52.6006
#
#
#
# Elastic Compliance Matrix: (Units=1/GPa)
#
#
# Indices 1 2 3 4 5 6 
#
# 1 0.013242 -0.003663 -0.004839 0.000000 0.002960 0.000000
# 2 -0.003663 0.013704 -0.003466 0.000000 0.001149 0.000000
# 3 -0.004839 -0.003466 0.012818 0.000000 -0.000306 0.000000
# 4 0.000000 0.000000 0.000000 0.022209 0.000000 -0.000573
# 5 0.002960 0.001149 -0.000306 0.000000 0.016286 0.000000
# 6 0.000000 0.000000 0.000000 -0.000573 0.000000 0.019026
#
#
# Mechanical properties :
#
#
# Convention : Reuss Voigt Hill
#
# Bulk Modulus (GPa) = 63.18256 67.69137 65.43696
# Shear Modulus (GPa) = 39.52587 44.59221 42.05904
#
# Velocity S-wave (km/s) = 4.43326 4.70881 4.57311
# Velocity P-wave (km/s) = 7.59090 7.95127 7.77317
#
# Compressibility (1/GPa) = 0.01582715
#
# Stress axis : x y z
#
# Youngs Moduli (GPa) = 75.51689 72.96987 78.01232
#
# Poissons Ratio (x) = 0.26732 0.37753
# Poissons Ratio (y) = 0.27665 0.27040
# Poissons Ratio (z) = 0.36545 0.25292
#
# Static dielectric constant tensor:
#      x y z
#    x 3.942190 0.000000 -0.039710 
#    y 0.000000 3.621320 0.000000 
#    z -0.039710 0.000000 3.968360 
# 
# 
# High freq. dielectric constant tensor:
#      x y z
#    x 1.806940 0.000000 0.002120 
#    y 0.000000 1.778550 0.000000 
#    z 0.002120 0.000000 1.812140 
# 
# From -- ./inp_files/5825.got.cif
#   From: 2010.06.25/outbox.cif.g09.slc.cpg/sg15_3_cif.got.tgz:5825.got - 2010.06.28 07:06:18.
