data_PCOD8143469
_publ_section_title
;
Structure prediction by ZEFSAII (Michael W. Deem and Ramdas Pophale) SiO2 
 PCOD8143469
Probable space group: C 2/C
;
_chemical_formula_sum "Si O2"
_cell_formula_units_Z 24
_cell_length_a 13.516561
_cell_length_b 9.437894
_cell_length_c 7.822243
_cell_angle_alpha 90.000000
_cell_angle_beta 108.420457
_cell_angle_gamma 90.000000
_cell_volume 946.739423
_symmetry_space_group_name_H-M "C 2/C"
_symmetry_group_IT_number 15
_symmetry_cell_setting 'monoclinic'
loop_
_space_group_symop_operation_xyz
x,y,z
-x,y,1/2-z
-x,-y,-z
x,-y,1/2+z
1/2+x,1/2+y,z
1/2-x,1/2+y,1/2-z
1/2-x,1/2-y,-z
1/2+x,1/2-y,1/2+z
loop_
_atom_site_type_symbol
_atom_site_label
_atom_site_fract_x
_atom_site_fract_y
_atom_site_fract_z
Si Si1 0.439616 0.369993 0.383942
Si Si2 0.781101 0.623731 0.892263
Si Si3 0.148309 0.336994 0.414150
O O1 0.500000 0.313388 0.250000
O O2 0.500000 0.500000 0.500000
O O3 0.323961 0.424089 0.266535
O O4 0.439995 0.240196 0.520694
O O5 0.869495 0.669408 0.800921
O O6 0.750000 0.750000 0.000000
O O7 0.834346 0.499708 0.027325
O O8 0.250000 0.250000 0.500000
#
# Coordination Sequence:
#
# PCOD8143469 Si02
#       3
#     8   8   8
#     4  11  24  41  66 104 140 179 230 294 349 402
#     4  11  23  45  71  98 136 188 235 280 345 430
#     4  10  21  40  67  98 131 181 232 276 338 424
#
# _framework density 25.350166000000002
#
# number of rings (size 3 to 8) (size 9 to 14) (size 15 to 20)
#    0.000    1.333    0.000    8.000    0.000    5.333 
#    0.000    6.667    0.000    6.000    0.000    2.333 
#    0.000    0.000    0.000    0.000    0.000    0.000 
#
# Total GULP energy -148714.487275 kJ/mol
# GULP energy per Si atom -12392.873940 kJ/mol
# Density = 2.529247 g / cm^3
# Si number density = 25.350166 Si / 1000 Ang^3
#
#
#
# Elastic Constant Matrix: (Units=GPa)
#
#
# Indices 1 2 3 4 5 6 
#
# 1 99.4793 57.9289 68.9705 0.0000 -33.7120 0.0000
# 2 57.9289 209.8371 93.0494 0.0000 -41.6457 0.0000
# 3 68.9705 93.0494 174.9503 0.0000 -70.3604 0.0000
# 4 0.0000 0.0000 0.0000 36.9768 0.0000 -11.1940
# 5 -33.7120 -41.6457 -70.3604 0.0000 82.7087 0.0000
# 6 0.0000 0.0000 0.0000 -11.1940 0.0000 47.8806
#
#
#
# Elastic Compliance Matrix: (Units=1/GPa)
#
#
# Indices 1 2 3 4 5 6 
#
# 1 0.014507 -0.001884 -0.004135 0.000000 0.001446 0.000000
# 2 -0.001884 0.006494 -0.002592 0.000000 0.000297 0.000000
# 3 -0.004135 -0.002592 0.011434 0.000000 0.006736 0.000000
# 4 0.000000 0.000000 0.000000 0.029104 0.000000 0.006804
# 5 0.001446 0.000297 0.006736 0.000000 0.018560 0.000000
# 6 0.000000 0.000000 0.000000 0.006804 0.000000 0.022476
#
#
# Mechanical properties :
#
#
# Convention : Reuss Voigt Hill
#
# Bulk Modulus (GPa) = 65.73527 102.68492 84.21009
# Shear Modulus (GPa) = 40.04270 51.13441 45.58856
#
# Velocity S-wave (km/s) = 3.97871 4.49611 4.24530
# Velocity P-wave (km/s) = 6.86251 8.21875 7.57106
#
# Compressibility (1/GPa) = 0.01521253
#
# Stress axis : x y z
#
# Youngs Moduli (GPa) = 68.93411 153.99042 87.46174
#
# Poissons Ratio (x) = 0.29012 0.36167
# Poissons Ratio (y) = 0.12987 0.22666
# Poissons Ratio (z) = 0.28505 0.39908
#
# Static dielectric constant tensor:
#      x y z
#    x 5.423240 0.000000 -1.042470 
#    y 0.000000 5.811940 0.000000 
#    z -1.042470 0.000000 5.686630 
# 
# 
# High freq. dielectric constant tensor:
#      x y z
#    x 2.014160 0.000000 -0.026700 
#    y 0.000000 2.006400 0.000000 
#    z -0.026700 0.000000 2.031050 
# 
# From -- ./inp_files/36116.got.cif
#   From: 2010.06.25/outbox.cif.g09.slc.cpg/sg15_19_cif.got.tgz:36116.got - 2010.06.28 07:06:18.
