data_PCOD8143749
_publ_section_title
;
Structure prediction by ZEFSAII (Michael W. Deem and Ramdas Pophale) SiO2 
 PCOD8143749
Probable space group: C 2/C
;
_chemical_formula_sum "Si O2"
_cell_formula_units_Z 40
_cell_length_a 29.861217
_cell_length_b 5.016005
_cell_length_c 12.596130
_cell_angle_alpha 90.000000
_cell_angle_beta 82.441276
_cell_angle_gamma 90.000000
_cell_volume 1870.304554
_symmetry_space_group_name_H-M "C 2/C"
_symmetry_group_IT_number 15
_symmetry_cell_setting 'monoclinic'
loop_
_space_group_symop_operation_xyz
x,y,z
-x,y,1/2-z
-x,-y,-z
x,-y,1/2+z
1/2+x,1/2+y,z
1/2-x,1/2+y,1/2-z
1/2-x,1/2-y,-z
1/2+x,1/2-y,1/2+z
loop_
_atom_site_type_symbol
_atom_site_label
_atom_site_fract_x
_atom_site_fract_y
_atom_site_fract_z
Si Si1 0.218522 0.139073 0.101333
Si Si2 0.942791 0.253168 0.562909
Si Si3 0.015635 0.245962 0.361286
Si Si4 0.702182 0.082803 0.817323
Si Si5 0.158694 0.078709 0.932767
O O1 0.204830 0.366000 0.190647
O O2 0.246297 0.897904 0.150829
O O3 0.250000 0.250000 0.000000
O O4 0.173555 0.052235 0.052002
O O5 0.945807 0.545899 0.613258
O O6 0.892765 0.166440 0.549192
O O7 0.971132 0.254489 0.446522
O O8 0.962899 0.046796 0.642122
O O9 0.000000 0.322938 0.250000
O O10 0.667256 0.289864 0.879793
O O11 0.685744 0.785089 0.849426
#
# Coordination Sequence:
#
# PCOD8143749 Si02
#       5
#     8   8   8   8   8
#     4  10  22  41  61  84 118 160 200 243 296 349
#     4  10  22  39  61  92 120 151 203 244 292 363
#     4  10  21  41  64  86 120 162 193 239 302 361
#     4  11  23  40  61  87 120 160 204 242 296 357
#     4  11  24  39  60  91 122 153 198 256 296 343
#
# _framework density 21.386890000000001
#
# number of rings (size 3 to 8) (size 9 to 14) (size 15 to 20)
#    0.000    1.600    0.000    4.800    0.000    8.000 
#    0.000    0.000    0.000    0.000    0.000    0.000 
#    0.000    0.000    0.000    0.000    0.000    0.000 
#
# Total GULP energy -247928.848109 kJ/mol
# GULP energy per Si atom -12396.442405 kJ/mol
# Density = 2.133821 g / cm^3
# Si number density = 21.386890 Si / 1000 Ang^3
#
#
#
# Elastic Constant Matrix: (Units=GPa)
#
#
# Indices 1 2 3 4 5 6 
#
# 1 113.5337 5.9572 31.7504 0.0000 12.3160 0.0000
# 2 5.9572 66.2839 9.2151 0.0000 -8.5372 0.0000
# 3 31.7504 9.2151 107.7663 0.0000 17.1380 0.0000
# 4 0.0000 0.0000 0.0000 21.6041 0.0000 -5.0796
# 5 12.3160 -8.5372 17.1380 0.0000 16.3162 0.0000
# 6 0.0000 0.0000 0.0000 -5.0796 0.0000 29.9875
#
#
#
# Elastic Compliance Matrix: (Units=1/GPa)
#
#
# Indices 1 2 3 4 5 6 
#
# 1 0.010099 -0.001492 -0.001814 0.000000 -0.006498 0.000000
# 2 -0.001492 0.017422 -0.003216 0.000000 0.013620 0.000000
# 3 -0.001814 -0.003216 0.012172 0.000000 -0.013098 0.000000
# 4 0.000000 0.000000 0.000000 0.048207 0.000000 0.008166
# 5 -0.006498 0.013620 -0.013098 0.000000 0.087078 0.000000
# 6 0.000000 0.000000 0.000000 0.008166 0.000000 0.034730
#
#
# Mechanical properties :
#
#
# Convention : Reuss Voigt Hill
#
# Bulk Modulus (GPa) = 37.52754 42.38103 39.95429
# Shear Modulus (GPa) = 21.58560 29.62565 25.60563
#
# Velocity S-wave (km/s) = 3.18038 3.72590 3.46390
# Velocity P-wave (km/s) = 5.57418 6.19428 5.89240
#
# Compressibility (1/GPa) = 0.02664709
#
# Stress axis : x y z
#
# Youngs Moduli (GPa) = 99.02455 57.39836 82.15658
#
# Poissons Ratio (x) = 0.08565 0.14906
# Poissons Ratio (y) = 0.14777 0.26423
# Poissons Ratio (z) = 0.17966 0.18460
#
# Static dielectric constant tensor:
#      x y z
#    x 4.023170 0.000000 0.331190 
#    y 0.000000 3.951170 0.000000 
#    z 0.331190 0.000000 4.104540 
# 
# 
# High freq. dielectric constant tensor:
#      x y z
#    x 1.831710 0.000000 0.004080 
#    y 0.000000 1.844080 0.000000 
#    z 0.004080 0.000000 1.843840 
# 
# From -- ./inp_files/124751.got.cif
#   From: 2010.06.25/outbox.cif.g09.slc.cpg/sg15_63_cif.got.tgz:124751.got - 2010.06.28 07:06:18.
