data_PCOD8143431
_publ_section_title
;
Structure prediction by ZEFSAII (Michael W. Deem and Ramdas Pophale) SiO2 
 PCOD8143431
Probable space group: C 2/C
;
_chemical_formula_sum "Si O2"
_cell_formula_units_Z 56
_cell_length_a 18.166583
_cell_length_b 9.962359
_cell_length_c 17.960360
_cell_angle_alpha 90.000000
_cell_angle_beta 119.304576
_cell_angle_gamma 90.000000
_cell_volume 2834.536088
_symmetry_space_group_name_H-M "C 2/C"
_symmetry_group_IT_number 15
_symmetry_cell_setting 'monoclinic'
loop_
_space_group_symop_operation_xyz
x,y,z
-x,y,1/2-z
-x,-y,-z
x,-y,1/2+z
1/2+x,1/2+y,z
1/2-x,1/2+y,1/2-z
1/2-x,1/2-y,-z
1/2+x,1/2-y,1/2+z
loop_
_atom_site_type_symbol
_atom_site_label
_atom_site_fract_x
_atom_site_fract_y
_atom_site_fract_z
Si Si1 0.628108 0.001607 0.018872
Si Si2 0.669553 0.766157 0.751029
Si Si3 0.050195 0.123367 0.200124
Si Si4 0.488300 0.794273 0.455994
Si Si5 0.266763 0.475064 0.699695
Si Si6 0.335582 0.796799 0.580479
Si Si7 0.501695 0.656250 0.888832
O O1 0.577613 0.905208 0.049820
O O2 0.722013 0.018726 0.097396
O O3 0.634706 0.938042 0.940047
O O4 0.581282 0.143797 0.990105
O O5 0.717613 0.624970 0.760041
O O6 0.708907 0.888624 0.725512
O O7 0.679811 0.813680 0.840418
O O8 0.571262 0.752226 0.680673
O O9 0.145967 0.100076 0.271293
O O10 0.000000 0.157548 0.250000
O O11 0.045134 0.245356 0.140015
O O12 0.013533 0.996933 0.138056
O O13 0.494134 0.675498 0.519878
O O14 0.250000 0.750000 0.500000
O O15 0.409159 0.688648 0.604918
#
# Coordination Sequence:
#
# PCOD8143431 Si02
#       7
#     8   8   8   8   8   8   8
#     4  10  21  41  64  91 122 162 210 259 313 372
#     4  11  22  41  65  95 126 166 212 260 318 373
#     4  11  24  40  61  90 129 163 205 259 317 377
#     4  10  21  42  63  89 124 165 203 261 320 374
#     4  11  22  41  64  91 126 168 210 259 313 376
#     4  11  22  38  66  94 122 158 213 262 306 371
#     4  10  21  40  67  89 122 167 210 253 314 381
#
# _framework density 19.756318
#
# number of rings (size 3 to 8) (size 9 to 14) (size 15 to 20)
#    0.000    1.429    2.857    3.429    2.000    0.000 
#    5.143    0.714    0.000    0.000    0.000    0.000 
#    0.000    0.000    0.000    0.000    0.000    0.000 
#
# Total GULP energy -347276.697975 kJ/mol
# GULP energy per Si atom -12402.739213 kJ/mol
# Density = 1.971135 g / cm^3
# Si number density = 19.756318 Si / 1000 Ang^3
#
#
#
# Elastic Constant Matrix: (Units=GPa)
#
#
# Indices 1 2 3 4 5 6 
#
# 1 88.4655 29.7360 38.3103 0.0000 10.4536 0.0000
# 2 29.7360 69.7299 29.2530 0.0000 -5.1493 0.0000
# 3 38.3103 29.2530 107.1440 0.0000 1.6163 0.0000
# 4 0.0000 0.0000 0.0000 26.9979 0.0000 2.6068
# 5 10.4536 -5.1493 1.6163 0.0000 46.8024 0.0000
# 6 0.0000 0.0000 0.0000 2.6068 0.0000 21.6188
#
#
#
# Elastic Compliance Matrix: (Units=1/GPa)
#
#
# Indices 1 2 3 4 5 6 
#
# 1 0.015191 -0.005088 -0.003985 0.000000 -0.003815 0.000000
# 2 -0.005088 0.018077 -0.003165 0.000000 0.003235 0.000000
# 3 -0.003985 -0.003165 0.011620 0.000000 0.000141 0.000000
# 4 0.000000 0.000000 0.000000 0.037476 0.000000 -0.004519
# 5 -0.003815 0.003235 0.000141 0.000000 0.022570 0.000000
# 6 0.000000 0.000000 0.000000 -0.004519 0.000000 0.046801
#
#
# Mechanical properties :
#
#
# Convention : Reuss Voigt Hill
#
# Bulk Modulus (GPa) = 48.99022 51.10424 50.04723
# Shear Modulus (GPa) = 27.32022 30.28650 28.80336
#
# Velocity S-wave (km/s) = 3.72272 3.91961 3.82243
# Velocity P-wave (km/s) = 6.58249 6.81233 6.69840
#
# Compressibility (1/GPa) = 0.02041224
#
# Stress axis : x y z
#
# Youngs Moduli (GPa) = 65.83061 55.31741 86.05779
#
# Poissons Ratio (x) = 0.28145 0.34293
# Poissons Ratio (y) = 0.33494 0.27239
# Poissons Ratio (z) = 0.26232 0.17509
#
# Static dielectric constant tensor:
#      x y z
#    x 3.730260 0.000000 0.141470 
#    y 0.000000 3.545910 0.000000 
#    z 0.141470 0.000000 3.789900 
# 
# 
# High freq. dielectric constant tensor:
#      x y z
#    x 1.776070 0.000000 0.013020 
#    y 0.000000 1.759560 0.000000 
#    z 0.013020 0.000000 1.780300 
# 
# From -- ./inp_files/161415.got.cif
#   From: 2010.06.25/outbox.cif.g09.slc.cpg/sg15_81_cif.got.tgz:161415.got - 2010.06.28 07:06:18.
