data_PCOD8143887
_publ_section_title
;
Structure prediction by ZEFSAII (Michael W. Deem and Ramdas Pophale) SiO2 
 PCOD8143887
Probable space group: C 2/C
;
_chemical_formula_sum "Si O2"
_cell_formula_units_Z 40
_cell_length_a 4.985218
_cell_length_b 34.252167
_cell_length_c 13.699886
_cell_angle_alpha 90.000000
_cell_angle_beta 126.677585
_cell_angle_gamma 90.000000
_cell_volume 1876.154546
_symmetry_space_group_name_H-M "C 2/C"
_symmetry_group_IT_number 15
_symmetry_cell_setting 'monoclinic'
loop_
_space_group_symop_operation_xyz
x,y,z
-x,y,1/2-z
-x,-y,-z
x,-y,1/2+z
1/2+x,1/2+y,z
1/2-x,1/2+y,1/2-z
1/2-x,1/2-y,-z
1/2+x,1/2-y,1/2+z
loop_
_atom_site_type_symbol
_atom_site_label
_atom_site_fract_x
_atom_site_fract_y
_atom_site_fract_z
Si Si1 0.672950 0.191384 0.115880
Si Si2 0.385395 0.274324 0.334484
Si Si3 0.283215 0.920309 0.112873
Si Si4 0.523526 0.340012 0.507080
Si Si5 0.273099 0.471336 0.108464
O O1 0.531693 0.235804 0.082268
O O2 0.417965 0.162331 0.118412
O O3 0.000000 0.190405 0.250000
O O4 0.762854 0.178431 0.025807
O O5 0.500000 0.266223 0.250000
O O6 0.546102 0.313667 0.413171
O O7 0.000000 0.283666 0.250000
O O8 0.500000 0.904704 0.250000
O O9 0.553658 0.934339 0.093050
O O10 0.038550 0.956516 0.085853
O O11 0.065838 0.884895 0.026234
O O12 0.500000 0.488175 0.250000
O O13 0.000000 0.500000 0.000000
#
# Coordination Sequence:
#
# PCOD8143887 Si02
#       5
#     8   8   8   8   8
#     4  11  23  39  54  78 117 162 206 251 297 351
#     4  11  22  37  58  85 113 151 204 256 302 357
#     4  10  22  39  62  92 122 150 191 247 303 352
#     4  12  22  38  61  84 115 157 199 248 305 359
#     4  10  21  41  66  93 125 160 196 242 299 367
#
# _framework density 21.320202999999999
#
# number of rings (size 3 to 8) (size 9 to 14) (size 15 to 20)
#    0.000    1.200    0.000    7.800    0.000    2.400 
#    0.000    6.000    0.000    0.000    0.000    0.000 
#    0.000    0.000    0.000    0.000    0.000    0.000 
#
# Total GULP energy -247867.090781 kJ/mol
# GULP energy per Si atom -12393.354539 kJ/mol
# Density = 2.127168 g / cm^3
# Si number density = 21.320203 Si / 1000 Ang^3
#
#
#
# Elastic Constant Matrix: (Units=GPa)
#
#
# Indices 1 2 3 4 5 6 
#
# 1 117.6697 17.7859 19.1661 0.0000 5.3239 0.0000
# 2 17.7859 88.3630 49.9625 0.0000 6.9222 0.0000
# 3 19.1661 49.9625 72.0276 0.0000 10.3601 0.0000
# 4 0.0000 0.0000 0.0000 20.8189 0.0000 11.1273
# 5 5.3239 6.9222 10.3601 0.0000 42.4667 0.0000
# 6 0.0000 0.0000 0.0000 11.1273 0.0000 28.2730
#
#
#
# Elastic Compliance Matrix: (Units=1/GPa)
#
#
# Indices 1 2 3 4 5 6 
#
# 1 0.008926 -0.000749 -0.001774 0.000000 -0.000564 0.000000
# 2 -0.000749 0.018683 -0.012785 0.000000 0.000167 0.000000
# 3 -0.001774 -0.012785 0.023725 0.000000 -0.003481 0.000000
# 4 0.000000 0.000000 0.000000 0.060829 0.000000 -0.023940
# 5 -0.000564 0.000167 -0.003481 0.000000 0.024441 0.000000
# 6 0.000000 0.000000 0.000000 -0.023940 0.000000 0.044791
#
#
# Mechanical properties :
#
#
# Convention : Reuss Voigt Hill
#
# Bulk Modulus (GPa) = 48.26772 50.20993 49.23883
# Shear Modulus (GPa) = 22.83973 31.05479 26.94726
#
# Velocity S-wave (km/s) = 3.27658 3.82067 3.55904
# Velocity P-wave (km/s) = 6.08303 6.56238 6.32725
#
# Compressibility (1/GPa) = 0.02071778
#
# Stress axis : x y z
#
# Youngs Moduli (GPa) = 112.03054 53.52375 42.15044
#
# Poissons Ratio (x) = 0.04010 0.07479
# Poissons Ratio (y) = 0.08394 0.53887
# Poissons Ratio (z) = 0.19878 0.68428
#
# Static dielectric constant tensor:
#      x y z
#    x 4.737670 0.000000 0.462870 
#    y 0.000000 3.589840 0.000000 
#    z 0.462870 0.000000 4.050000 
# 
# 
# High freq. dielectric constant tensor:
#      x y z
#    x 1.869100 0.000000 0.021190 
#    y 0.000000 1.807830 0.000000 
#    z 0.021190 0.000000 1.836240 
# 
# From -- ./inp_files/73326.got.cif
#   From: 2010.06.25/outbox.cif.g09.slc.cpg/sg15_37_cif.got.tgz:73326.got - 2010.06.28 07:06:18.
