data_PCOD8143086
_publ_section_title
;
Structure prediction by ZEFSAII (Michael W. Deem and Ramdas Pophale) SiO2 
 PCOD8143086
Probable space group: C 2/C
;
_chemical_formula_sum "Si O2"
_cell_formula_units_Z 40
_cell_length_a 7.012441
_cell_length_b 19.230236
_cell_length_c 18.243813
_cell_angle_alpha 90.000000
_cell_angle_beta 52.364805
_cell_angle_gamma 90.000000
_cell_volume 1948.264206
_symmetry_space_group_name_H-M "C 2/C"
_symmetry_group_IT_number 15
_symmetry_cell_setting 'monoclinic'
loop_
_space_group_symop_operation_xyz
x,y,z
-x,y,1/2-z
-x,-y,-z
x,-y,1/2+z
1/2+x,1/2+y,z
1/2-x,1/2+y,1/2-z
1/2-x,1/2-y,-z
1/2+x,1/2-y,1/2+z
loop_
_atom_site_type_symbol
_atom_site_label
_atom_site_fract_x
_atom_site_fract_y
_atom_site_fract_z
Si Si1 0.829627 0.927076 0.933106
Si Si2 0.922224 0.177421 0.013367
Si Si3 0.931707 0.256429 0.649450
Si Si4 0.000000 0.854495 0.250000
Si Si5 0.000000 0.140527 0.250000
Si Si6 0.762953 0.578698 0.564138
O O1 0.965885 0.908727 0.827110
O O2 0.870595 0.009495 0.936020
O O3 0.546936 0.921187 0.990718
O O4 0.927034 0.876407 0.973631
O O5 0.815590 0.141339 0.967331
O O6 0.088516 0.235430 0.933100
O O7 0.698621 0.213381 0.108249
O O8 0.734889 0.314378 0.710228
O O9 0.870522 0.192937 0.718717
O O10 0.807133 0.904958 0.335086
#
# Coordination Sequence:
#
# PCOD8143086 Si02
#       6
#     8   8   8   4   4   8
#     4  11  23  38  65  84 123 159 202 251 302 352
#     4  10  21  42  62  88 122 160 198 256 302 366
#     4  10  22  37  61  94 122 156 207 245 312 367
#     4  10  21  40  62  80 129 154 194 256 302 356
#     4  12  23  38  60  94 119 158 206 248 304 370
#     4  10  22  42  59  91 116 161 205 246 298 369
#
# _framework density 20.531096999999999
#
# number of rings (size 3 to 8) (size 9 to 14) (size 15 to 20)
#    0.000    1.600    2.000    2.400    2.800    0.800 
#    0.000    0.000    4.400    0.000    0.000    0.000 
#    0.000    0.000    0.000    0.000    0.000    0.000 
#
# Total GULP energy -247867.233658 kJ/mol
# GULP energy per Si atom -12393.361683 kJ/mol
# Density = 2.048437 g / cm^3
# Si number density = 20.531097 Si / 1000 Ang^3
#
#
#
# Elastic Constant Matrix: (Units=GPa)
#
#
# Indices 1 2 3 4 5 6 
#
# 1 53.9702 23.7508 21.1948 0.0000 6.5879 0.0000
# 2 23.7508 81.0565 37.7699 0.0000 -4.2026 0.0000
# 3 21.1948 37.7699 111.8288 0.0000 2.6535 0.0000
# 4 0.0000 0.0000 0.0000 145.3286 0.0000 -22.5404
# 5 6.5879 -4.2026 2.6535 0.0000 26.3466 0.0000
# 6 0.0000 0.0000 0.0000 -22.5404 0.0000 46.9432
#
#
#
# Elastic Compliance Matrix: (Units=1/GPa)
#
#
# Indices 1 2 3 4 5 6 
#
# 1 0.022804 -0.006021 -0.002135 0.000000 -0.006448 0.000000
# 2 -0.006021 0.016446 -0.004522 0.000000 0.004584 0.000000
# 3 -0.002135 -0.004522 0.010905 0.000000 -0.001286 0.000000
# 4 0.000000 0.000000 0.000000 0.007435 0.000000 0.003570
# 5 -0.006448 0.004584 -0.001286 0.000000 0.040429 0.000000
# 6 0.000000 0.000000 0.000000 0.003570 0.000000 0.023016
#
#
# Mechanical properties :
#
#
# Convention : Reuss Voigt Hill
#
# Bulk Modulus (GPa) = 40.32664 45.80961 43.06813
# Shear Modulus (GPa) = 32.32926 54.66635 43.49780
#
# Velocity S-wave (km/s) = 3.97249 5.16565 4.60785
# Velocity P-wave (km/s) = 6.38164 7.61179 7.02369
#
# Compressibility (1/GPa) = 0.02479750
#
# Stress axis : x y z
#
# Youngs Moduli (GPa) = 43.85170 60.80386 91.70212
#
# Poissons Ratio (x) = 0.36611 0.19582
# Poissons Ratio (y) = 0.26404 0.41470
# Poissons Ratio (z) = 0.09364 0.27497
#
# Static dielectric constant tensor:
#      x y z
#    x 3.309470 0.000000 0.074850 
#    y 0.000000 4.244540 0.000000 
#    z 0.074850 0.000000 4.099460 
# 
# 
# High freq. dielectric constant tensor:
#      x y z
#    x 1.769840 0.000000 0.008360 
#    y 0.000000 1.823520 0.000000 
#    z 0.008360 0.000000 1.821540 
# 
# From -- ./inp_files/77961.got.cif
#   From: 2010.06.25/outbox.cif.g09.slc.cpg/sg15_39_cif.got.tgz:77961.got - 2010.06.28 07:06:18.
