data_PCOD8143913
_publ_section_title
;
Structure prediction by ZEFSAII (Michael W. Deem and Ramdas Pophale) SiO2 
 PCOD8143913
Probable space group: C 2/C
;
_chemical_formula_sum "Si O2"
_cell_formula_units_Z 60
_cell_length_a 25.573794
_cell_length_b 11.412325
_cell_length_c 28.967217
_cell_angle_alpha 90.000000
_cell_angle_beta 160.181806
_cell_angle_gamma 90.000000
_cell_volume 2866.307281
_symmetry_space_group_name_H-M "C 2/C"
_symmetry_group_IT_number 15
_symmetry_cell_setting 'monoclinic'
loop_
_space_group_symop_operation_xyz
x,y,z
-x,y,1/2-z
-x,-y,-z
x,-y,1/2+z
1/2+x,1/2+y,z
1/2-x,1/2+y,1/2-z
1/2-x,1/2-y,-z
1/2+x,1/2-y,1/2+z
loop_
_atom_site_type_symbol
_atom_site_label
_atom_site_fract_x
_atom_site_fract_y
_atom_site_fract_z
Si Si1 0.889390 0.100033 0.352083
Si Si2 0.073648 0.697676 0.960167
Si Si3 0.172217 0.055253 0.098023
Si Si4 0.000000 0.503420 0.250000
Si Si5 0.859134 0.496359 0.917917
Si Si6 0.607486 0.196627 0.408017
Si Si7 0.351387 0.856934 0.199894
Si Si8 0.270099 0.291037 0.136819
O O1 0.804189 0.104585 0.330698
O O2 0.768438 0.086484 0.210813
O O3 0.976227 0.221594 0.414700
O O4 0.998114 0.985235 0.443378
O O5 0.004565 0.694342 0.851147
O O6 0.082749 0.566263 0.987388
O O7 0.243652 0.749182 0.097284
O O8 0.215022 0.158935 0.099140
O O9 0.280974 0.944198 0.179765
O O10 0.070507 0.578669 0.349940
O O11 0.125175 0.421208 0.329432
O O12 0.780988 0.622338 0.864214
O O13 0.000000 0.500000 0.000000
O O14 0.750000 0.250000 0.500000
O O15 0.456905 0.283569 0.284752
O O16 0.672737 0.163074 0.512274
#
# Coordination Sequence:
#
# PCOD8143913 Si02
#       8
#     8   8   8   4   8   8   8   8
#     4  10  22  41  65  94 136 180 228 272 330 403
#     4  11  23  45  64  93 135 177 224 275 326 404
#     4  10  21  41  66  98 132 179 218 275 347 406
#     4  12  24  44  72  94 126 176 226 280 350 398
#     4  12  25  40  65 103 138 180 230 273 330 413
#     4  12  23  45  68 103 132 170 224 289 354 414
#     4  11  23  43  70  90 133 174 224 280 333 400
#     4  12  25  42  71  99 141 174 222 285 353 403
#
# _framework density 20.932856000000001
#
# number of rings (size 3 to 8) (size 9 to 14) (size 15 to 20)
#    0.000    0.800    4.000    3.200    1.867    1.600 
#    4.800    0.000    0.000    0.000    0.000    0.000 
#    0.000    0.000    0.000    0.000    0.000    0.000 
#
# Total GULP energy -371973.140134 kJ/mol
# GULP energy per Si atom -12399.104671 kJ/mol
# Density = 2.088521 g / cm^3
# Si number density = 20.932856 Si / 1000 Ang^3
#
#
#
# Elastic Constant Matrix: (Units=GPa)
#
#
# Indices 1 2 3 4 5 6 
#
# 1 95.2892 27.6544 43.9213 -0.0110 7.7667 -0.0042
# 2 27.6544 90.0159 31.9061 0.0578 10.8014 0.0088
# 3 43.9213 31.9061 129.4932 0.0953 -4.0097 0.0044
# 4 -0.0110 0.0578 0.0953 21.3550 0.0064 -1.4295
# 5 7.7667 10.8014 -4.0097 0.0064 36.8227 -0.0078
# 6 -0.0042 0.0088 0.0044 -1.4295 -0.0078 41.6000
#
#
#
# Elastic Compliance Matrix: (Units=1/GPa)
#
#
# Indices 1 2 3 4 5 6 
#
# 1 0.013218 -0.002345 -0.003984 0.000032 -0.002534 0.000003
# 2 -0.002345 0.013176 -0.002564 -0.000025 -0.003650 -0.000004
# 3 -0.003984 -0.002564 0.009788 -0.000040 0.002658 -0.000002
# 4 0.000032 -0.000025 -0.000040 0.046936 -0.000012 0.001613
# 5 -0.002534 -0.003650 0.002658 -0.000012 0.029052 0.000005
# 6 0.000003 -0.000004 -0.000002 0.001613 0.000005 0.024094
#
#
# Mechanical properties :
#
#
# Convention : Reuss Voigt Hill
#
# Bulk Modulus (GPa) = 54.35904 57.97354 56.16629
# Shear Modulus (GPa) = 31.21472 34.04330 32.62901
#
# Velocity S-wave (km/s) = 3.86577 4.03713 3.95238
# Velocity P-wave (km/s) = 6.77866 7.03465 6.90784
#
# Compressibility (1/GPa) = 0.01839620
#
# Stress axis : x y z
#
# Youngs Moduli (GPa) = 75.65652 75.89374 102.16740
#
# Poissons Ratio (x) = 0.17793 0.40703
# Poissons Ratio (y) = 0.17738 0.26199
# Poissons Ratio (z) = 0.30141 0.19462
#
# Static dielectric constant tensor:
#      x y z
#    x 3.852360 0.000070 0.004580 
#    y 0.000070 3.556290 0.000380 
#    z 0.004580 0.000380 3.886010 
# 
# 
# High freq. dielectric constant tensor:
#      x y z
#    x 1.819660 0.000000 -0.000950 
#    y 0.000000 1.817690 -0.000010 
#    z -0.000950 -0.000010 1.828480 
# 
# From -- ./inp_files/319581.got.cif
#   From: 2010.06.25/outbox.cif.g09.slc.cpg/sg15_160_cif.got.tgz:319581.got - 2010.06.28 07:06:18.
