data_PCOD8143154
_publ_section_title
;
Structure prediction by ZEFSAII (Michael W. Deem and Ramdas Pophale) SiO2 
 PCOD8143154
Probable space group: C 2/C
;
_chemical_formula_sum "Si O2"
_cell_formula_units_Z 52
_cell_length_a 14.972117
_cell_length_b 8.832593
_cell_length_c 29.218446
_cell_angle_alpha 90.000000
_cell_angle_beta 140.414358
_cell_angle_gamma 90.000000
_cell_volume 2462.211531
_symmetry_space_group_name_H-M "C 2/C"
_symmetry_group_IT_number 15
_symmetry_cell_setting 'monoclinic'
loop_
_space_group_symop_operation_xyz
x,y,z
-x,y,1/2-z
-x,-y,-z
x,-y,1/2+z
1/2+x,1/2+y,z
1/2-x,1/2+y,1/2-z
1/2-x,1/2-y,-z
1/2+x,1/2-y,1/2+z
loop_
_atom_site_type_symbol
_atom_site_label
_atom_site_fract_x
_atom_site_fract_y
_atom_site_fract_z
Si Si1 0.987242 0.415153 0.947346
Si Si2 0.758173 0.512464 0.504484
Si Si3 0.602981 0.255427 0.883182
Si Si4 0.819874 0.128452 0.313942
Si Si5 0.000000 0.868136 0.750000
Si Si6 0.480268 0.573183 0.943624
Si Si7 0.738827 0.552165 0.795536
O O1 0.881503 0.517637 0.877503
O O2 0.133917 0.399803 0.977852
O O3 0.928778 0.245232 0.930301
O O4 0.000000 0.500000 0.000000
O O5 0.715939 0.625464 0.446766
O O6 0.836828 0.592200 0.578442
O O7 0.622039 0.426671 0.469564
O O8 0.454962 0.284676 0.848273
O O9 0.582996 0.265712 0.820132
O O10 0.714516 0.265661 0.285259
O O11 0.746721 0.016027 0.249468
O O12 0.857776 0.023742 0.371840
O O13 0.106025 0.979120 0.766929
O O14 0.500000 0.500000 0.000000
#
# Coordination Sequence:
#
# PCOD8143154 Si02
#       7
#     8   8   8   8   4   8   8
#     4  12  24  40  67  95 124 169 214 260 319 374
#     4  10  21  40  63  89 132 165 205 257 321 367
#     4   9  19  37  64  90 122 162 205 255 313 374
#     4  10  21  42  62  90 123 166 204 261 311 375
#     4  10  22  36  64  94 120 164 214 258 310 374
#     4  11  25  40  63  96 130 165 212 263 311 380
#     4  11  22  40  65  88 124 162 214 255 319 373
#
# _framework density 21.119226000000001
#
# number of rings (size 3 to 8) (size 9 to 14) (size 15 to 20)
#    0.000    1.538    1.538    3.231    6.462    0.000 
#    0.000    4.615    0.000    0.923    0.000    0.000 
#    0.000    0.000    0.000    0.000    0.000    0.000 
#
# Total GULP energy -322394.670479 kJ/mol
# GULP energy per Si atom -12399.795018 kJ/mol
# Density = 2.107116 g / cm^3
# Si number density = 21.119226 Si / 1000 Ang^3
#
#
#
# Elastic Constant Matrix: (Units=GPa)
#
#
# Indices 1 2 3 4 5 6 
#
# 1 68.5960 21.3948 29.6615 0.0000 -20.0128 0.0000
# 2 21.3948 133.0649 42.6048 0.0000 -27.0979 0.0000
# 3 29.6615 42.6048 137.2406 0.0000 -41.2420 0.0000
# 4 0.0000 0.0000 0.0000 34.1738 0.0000 -1.1382
# 5 -20.0128 -27.0979 -41.2420 0.0000 42.8287 0.0000
# 6 0.0000 0.0000 0.0000 -1.1382 0.0000 29.2044
#
#
#
# Elastic Compliance Matrix: (Units=1/GPa)
#
#
# Indices 1 2 3 4 5 6 
#
# 1 0.017329 -0.001068 -0.001665 0.000000 0.005818 0.000000
# 2 -0.001068 0.008906 -0.001394 0.000000 0.003793 0.000000
# 3 -0.001665 -0.001394 0.010667 0.000000 0.008612 0.000000
# 4 0.000000 0.000000 0.000000 0.029300 0.000000 0.001142
# 5 0.005818 0.003793 0.008612 0.000000 0.036760 0.000000
# 6 0.000000 0.000000 0.000000 0.001142 0.000000 0.034286
#
#
# Mechanical properties :
#
#
# Convention : Reuss Voigt Hill
#
# Bulk Modulus (GPa) = 34.90820 58.46929 46.68874
# Shear Modulus (GPa) = 32.24741 37.59075 34.91908
#
# Velocity S-wave (km/s) = 3.91182 4.22350 4.07065
# Velocity P-wave (km/s) = 6.08014 7.17840 6.65197
#
# Compressibility (1/GPa) = 0.02864657
#
# Stress axis : x y z
#
# Youngs Moduli (GPa) = 57.70769 112.28829 93.74696
#
# Poissons Ratio (x) = 0.11995 0.15612
# Poissons Ratio (y) = 0.06165 0.13067
# Poissons Ratio (z) = 0.09610 0.15652
#
# Static dielectric constant tensor:
#      x y z
#    x 3.721140 0.000000 -0.004880 
#    y 0.000000 3.810490 0.000000 
#    z -0.004880 0.000000 3.968850 
# 
# 
# High freq. dielectric constant tensor:
#      x y z
#    x 1.819700 0.000000 -0.006980 
#    y 0.000000 1.823580 0.000000 
#    z -0.006980 0.000000 1.839580 
# 
# From -- ./inp_files/313072.got.cif
#   From: 2010.06.25/outbox.cif.g09.slc.cpg/sg15_157_cif.got.tgz:313072.got - 2010.06.28 07:06:18.
