data_PCOD8143237
_publ_section_title
;
Structure prediction by ZEFSAII (Michael W. Deem and Ramdas Pophale) SiO2 
 PCOD8143237
Probable space group: C 2/C
;
_chemical_formula_sum "Si O2"
_cell_formula_units_Z 64
_cell_length_a 14.495691
_cell_length_b 20.186965
_cell_length_c 18.105389
_cell_angle_alpha 90.000000
_cell_angle_beta 143.503567
_cell_angle_gamma 90.000000
_cell_volume 3151.148492
_symmetry_space_group_name_H-M "C 2/C"
_symmetry_group_IT_number 15
_symmetry_cell_setting 'monoclinic'
loop_
_space_group_symop_operation_xyz
x,y,z
-x,y,1/2-z
-x,-y,-z
x,-y,1/2+z
1/2+x,1/2+y,z
1/2-x,1/2+y,1/2-z
1/2-x,1/2-y,-z
1/2+x,1/2-y,1/2+z
loop_
_atom_site_type_symbol
_atom_site_label
_atom_site_fract_x
_atom_site_fract_y
_atom_site_fract_z
Si Si1 0.600571 0.143328 0.643769
Si Si2 0.263550 0.089462 0.165033
Si Si3 0.009818 0.357768 0.925037
Si Si4 0.587848 0.291845 0.152350
Si Si5 0.663510 0.943395 0.316190
Si Si6 0.046758 0.140147 0.474664
Si Si7 0.433760 0.747802 0.125617
Si Si8 0.724564 0.673355 0.999968
O O1 0.507987 0.124207 0.510240
O O2 0.744421 0.188714 0.708379
O O3 0.654971 0.078075 0.723900
O O4 0.492986 0.184458 0.628872
O O5 0.396406 0.091149 0.312383
O O6 0.288020 0.148227 0.120619
O O7 0.282640 0.018688 0.138788
O O8 0.095565 0.092559 0.095615
O O9 0.942392 0.285867 0.860748
O O10 0.185085 0.366823 0.005658
O O11 0.582109 0.308033 0.062257
O O12 0.462209 0.335411 0.118225
O O13 0.500000 0.930190 0.250000
O O14 0.797436 0.900874 0.442475
O O15 0.000001 0.183209 0.373421
O O16 0.500000 0.743238 0.250000
O O17 0.250000 0.750000 0.000000
O O18 0.750000 0.750000 0.000000
#
# Coordination Sequence:
#
# PCOD8143237 Si02
#       8
#     8   8   8   8   8   8   8   8
#     4  11  23  38  59  90 124 163 201 255 321 373
#     4  11  23  40  64  88 124 165 212 250 310 385
#     4  11  21  34  60  89 125 161 201 252 313 375
#     4   9  19  36  57  86 127 154 198 254 311 375
#     4  11  23  43  63  87 122 165 214 257 306 382
#     4  10  21  40  64  92 117 165 208 256 311 373
#     4  12  24  39  65  96 132 163 207 264 329 385
#     4   9  20  36  58  91 117 158 207 256 308 368
#
# _framework density 20.310055999999999
#
# number of rings (size 3 to 8) (size 9 to 14) (size 15 to 20)
#    0.000    1.500    1.250    4.875    5.250    1.000 
#    0.000    0.000    0.000    0.000    0.000    0.000 
#    0.000    0.000    0.000    0.000    0.000    0.000 
#
# Total GULP energy -396739.291589 kJ/mol
# GULP energy per Si atom -12398.102862 kJ/mol
# Density = 2.026383 g / cm^3
# Si number density = 20.310056 Si / 1000 Ang^3
#
#
#
# Elastic Constant Matrix: (Units=GPa)
#
#
# Indices 1 2 3 4 5 6 
#
# 1 110.3827 29.2584 36.8822 0.0002 9.5573 0.0002
# 2 29.2584 67.8836 20.3802 -0.0002 -5.7925 -0.0001
# 3 36.8822 20.3802 80.7423 0.0005 -8.7454 0.0003
# 4 0.0002 -0.0002 0.0005 23.5636 0.0001 4.3598
# 5 9.5573 -5.7925 -8.7454 0.0001 41.3985 0.0002
# 6 0.0002 -0.0001 0.0003 4.3598 0.0002 28.1168
#
#
#
# Elastic Compliance Matrix: (Units=1/GPa)
#
#
# Indices 1 2 3 4 5 6 
#
# 1 0.012221 -0.004141 -0.005020 0.000000 -0.004461 0.000000
# 2 -0.004141 0.017423 -0.002189 0.000000 0.002931 0.000000
# 3 -0.005020 -0.002189 0.015682 0.000000 0.004166 0.000000
# 4 0.000000 0.000000 0.000000 0.043692 0.000000 -0.006775
# 5 -0.004461 0.002931 0.004166 0.000000 0.026475 0.000000
# 6 0.000000 0.000000 0.000000 -0.006775 0.000000 0.036616
#
#
# Mechanical properties :
#
#
# Convention : Reuss Voigt Hill
#
# Bulk Modulus (GPa) = 44.19693 48.00558 46.10125
# Shear Modulus (GPa) = 27.41966 30.11498 28.76732
#
# Velocity S-wave (km/s) = 3.67829 3.85484 3.76760
# Velocity P-wave (km/s) = 6.31254 6.59551 6.45557
#
# Compressibility (1/GPa) = 0.02262601
#
# Stress axis : x y z
#
# Youngs Moduli (GPa) = 81.82890 57.39536 63.76753
#
# Poissons Ratio (x) = 0.23765 0.32013
# Poissons Ratio (y) = 0.33882 0.13958
# Poissons Ratio (z) = 0.41081 0.12563
#
# Static dielectric constant tensor:
#      x y z
#    x 4.019420 0.000000 0.206130 
#    y 0.000000 3.516970 0.000000 
#    z 0.206130 0.000000 3.654050 
# 
# 
# High freq. dielectric constant tensor:
#      x y z
#    x 1.808860 0.000000 0.014620 
#    y 0.000000 1.769550 0.000000 
#    z 0.014620 0.000000 1.788160 
# 
# From -- ./inp_files/206468.got.cif
#   From: 2010.06.25/outbox.cif.g09.slc.cpg/sg15_104_cif.got.tgz:206468.got - 2010.06.28 07:06:18.
