data_PCOD8143093
_publ_section_title
;
Structure prediction by ZEFSAII (Michael W. Deem and Ramdas Pophale) SiO2 
 PCOD8143093
Probable space group: C 2/C
;
_chemical_formula_sum "Si O2"
_cell_formula_units_Z 52
_cell_length_a 18.152390
_cell_length_b 15.149344
_cell_length_c 9.453972
_cell_angle_alpha 90.000000
_cell_angle_beta 93.639127
_cell_angle_gamma 90.000000
_cell_volume 2594.569834
_symmetry_space_group_name_H-M "C 2/C"
_symmetry_group_IT_number 15
_symmetry_cell_setting 'monoclinic'
loop_
_space_group_symop_operation_xyz
x,y,z
-x,y,1/2-z
-x,-y,-z
x,-y,1/2+z
1/2+x,1/2+y,z
1/2-x,1/2+y,1/2-z
1/2-x,1/2-y,-z
1/2+x,1/2-y,1/2+z
loop_
_atom_site_type_symbol
_atom_site_label
_atom_site_fract_x
_atom_site_fract_y
_atom_site_fract_z
Si Si1 0.725412 0.149526 0.117423
Si Si2 0.568421 0.892809 0.505476
Si Si3 0.500000 0.000770 0.250000
Si Si4 0.925370 0.945986 0.986419
Si Si5 0.175653 0.169006 0.629428
Si Si6 0.672677 0.493261 0.774034
Si Si7 0.486683 0.714586 0.906609
O O1 0.656005 0.119760 0.015242
O O2 0.700226 0.236988 0.204149
O O3 0.755906 0.070786 0.218993
O O4 0.793504 0.173119 0.024884
O O5 0.551535 0.942503 0.357963
O O6 0.523741 0.800202 0.495750
O O7 0.549857 0.942372 0.649792
O O8 0.891799 0.948144 0.825904
O O9 0.862402 0.989150 0.076930
O O10 0.944605 0.845002 0.032187
O O11 0.000000 0.000000 0.000000
O O12 0.204994 0.085744 0.720227
O O13 0.087679 0.156243 0.605121
O O14 0.500000 0.748838 0.750000
#
# Coordination Sequence:
#
# PCOD8143093 Si02
#       7
#     8   8   4   8   8   8   8
#     4  10  23  41  62  89 126 172 200 252 316 378
#     4  10  23  41  68  86 126 158 213 259 316 363
#     4  10  22  44  62  98 108 160 220 266 302 368
#     4  12  22  37  63  95 129 163 203 259 310 378
#     4  10  21  40  62  86 127 166 206 243 317 375
#     4  12  22  39  62  96 125 165 214 250 313 377
#     4  11  19  39  63  92 126 167 199 260 320 362
#
# _framework density 20.041858000000001
#
# number of rings (size 3 to 8) (size 9 to 14) (size 15 to 20)
#    0.000    1.231    5.385    0.462    2.154    0.000 
#   11.077    0.769    0.000    0.000    0.000    0.000 
#    0.000    0.000    0.000    0.000    0.000    0.000 
#
# Total GULP energy -322326.517678 kJ/mol
# GULP energy per Si atom -12397.173757 kJ/mol
# Density = 1.999624 g / cm^3
# Si number density = 20.041858 Si / 1000 Ang^3
#
#
#
# Elastic Constant Matrix: (Units=GPa)
#
#
# Indices 1 2 3 4 5 6 
#
# 1 86.2576 43.2755 21.5619 0.0000 11.5555 0.0000
# 2 43.2755 138.8200 28.9145 0.0000 21.9681 0.0000
# 3 21.5619 28.9145 72.0280 0.0000 5.8104 0.0000
# 4 0.0000 0.0000 0.0000 17.5407 0.0000 -0.4342
# 5 11.5555 21.9681 5.8104 0.0000 26.6683 0.0000
# 6 0.0000 0.0000 0.0000 -0.4342 0.0000 41.3516
#
#
#
# Elastic Compliance Matrix: (Units=1/GPa)
#
#
# Indices 1 2 3 4 5 6 
#
# 1 0.014385 -0.003486 -0.002683 0.000000 -0.002777 0.000000
# 2 -0.003486 0.009734 -0.002381 0.000000 -0.005989 0.000000
# 3 -0.002683 -0.002381 0.015666 0.000000 -0.000290 0.000000
# 4 0.000000 0.000000 0.000000 0.057025 0.000000 0.000599
# 5 -0.002777 -0.005989 -0.000290 0.000000 0.043698 0.000000
# 6 0.000000 0.000000 0.000000 0.000599 0.000000 0.024189
#
#
# Mechanical properties :
#
#
# Convention : Reuss Voigt Hill
#
# Bulk Modulus (GPa) = 44.08172 53.84550 48.96361
# Shear Modulus (GPa) = 26.40513 30.66904 28.53708
#
# Velocity S-wave (km/s) = 3.63367 3.91608 3.77752
# Velocity P-wave (km/s) = 6.29662 6.88277 6.59620
#
# Compressibility (1/GPa) = 0.02268514
#
# Stress axis : x y z
#
# Youngs Moduli (GPa) = 69.51811 102.73285 63.83383
#
# Poissons Ratio (x) = 0.35813 0.17125
# Poissons Ratio (y) = 0.24235 0.15198
# Poissons Ratio (z) = 0.18650 0.24459
#
# Static dielectric constant tensor:
#      x y z
#    x 3.623000 0.000000 -0.082430 
#    y 0.000000 4.140100 0.000000 
#    z -0.082430 0.000000 3.442210 
# 
# 
# High freq. dielectric constant tensor:
#      x y z
#    x 1.779630 0.000000 -0.014040 
#    y 0.000000 1.802380 0.000000 
#    z -0.014040 0.000000 1.758050 
# 
# From -- ./inp_files/66319.got.cif
#   From: 2010.06.25/outbox.cif.g09.slc.cpg/sg15_34_cif.got.tgz:66319.got - 2010.06.28 07:06:18.
