data_PCOD8143602
_publ_section_title
;
Structure prediction by ZEFSAII (Michael W. Deem and Ramdas Pophale) SiO2 
 PCOD8143602
Probable space group: C 2/C
;
_chemical_formula_sum "Si O2"
_cell_formula_units_Z 52
_cell_length_a 26.161046
_cell_length_b 13.564551
_cell_length_c 8.205327
_cell_angle_alpha 90.000000
_cell_angle_beta 123.137832
_cell_angle_gamma 90.000000
_cell_volume 2438.190118
_symmetry_space_group_name_H-M "C 2/C"
_symmetry_group_IT_number 15
_symmetry_cell_setting 'monoclinic'
loop_
_space_group_symop_operation_xyz
x,y,z
-x,y,1/2-z
-x,-y,-z
x,-y,1/2+z
1/2+x,1/2+y,z
1/2-x,1/2+y,1/2-z
1/2-x,1/2-y,-z
1/2+x,1/2-y,1/2+z
loop_
_atom_site_type_symbol
_atom_site_label
_atom_site_fract_x
_atom_site_fract_y
_atom_site_fract_z
Si Si1 0.401617 0.633571 0.302319
Si Si2 0.000000 0.223662 0.250000
Si Si3 0.661197 0.774091 0.081181
Si Si4 0.218459 0.647123 0.243863
Si Si5 0.894892 0.244128 0.852590
Si Si6 0.634208 0.544362 0.579140
Si Si7 0.774115 0.457821 0.408347
O O1 0.465221 0.656101 0.323544
O O2 0.371817 0.737269 0.311341
O O3 0.402831 0.559025 0.459751
O O4 0.360751 0.573208 0.101992
O O5 0.047007 0.289003 0.443772
O O6 0.715534 0.697641 0.135010
O O7 0.689797 0.883135 0.152185
O O8 0.610958 0.775873 0.845966
O O9 0.166465 0.729714 0.153735
O O10 0.205683 0.572221 0.073011
O O11 0.210779 0.577394 0.385912
O O12 0.902515 0.126484 0.881470
O O13 0.702853 0.539852 0.756124
#
# Coordination Sequence:
#
# PCOD8143602 Si02
#       7
#     8   4   8   8   8   8   8
#     4  11  24  36  60  86 124 164 205 244 294 350
#     4  10  26  44  58  86 118 172 212 252 278 348
#     4  11  21  38  62  92 120 159 194 252 311 361
#     4  11  21  36  60  92 124 159 188 253 306 369
#     4  10  21  41  61  81 124 158 204 243 302 350
#     4  11  19  35  57  89 122 157 195 244 296 372
#     4  11  21  35  60  94 129 151 191 242 320 366
#
# _framework density 21.327293999999998
#
# number of rings (size 3 to 8) (size 9 to 14) (size 15 to 20)
#    0.000    1.231    4.615    2.769    0.000    6.154 
#    0.000    0.000    0.000    8.308    0.000    0.000 
#    0.000    0.000    0.000    0.000    0.000    0.000 
#
# Total GULP energy -322120.324667 kJ/mol
# GULP energy per Si atom -12389.243256 kJ/mol
# Density = 2.127875 g / cm^3
# Si number density = 21.327294 Si / 1000 Ang^3
#
#
#
# Elastic Constant Matrix: (Units=GPa)
#
#
# Indices 1 2 3 4 5 6 
#
# 1 101.6032 8.2319 42.4989 0.0000 6.4152 0.0000
# 2 8.2319 47.7741 14.8553 0.0000 9.1893 0.0000
# 3 42.4989 14.8553 90.7695 0.0000 8.3644 0.0000
# 4 0.0000 0.0000 0.0000 20.3027 0.0000 -4.8585
# 5 6.4152 9.1893 8.3644 0.0000 24.2703 0.0000
# 6 0.0000 0.0000 0.0000 -4.8585 0.0000 24.4411
#
#
#
# Elastic Compliance Matrix: (Units=1/GPa)
#
#
# Indices 1 2 3 4 5 6 
#
# 1 0.012280 -0.000128 -0.005612 0.000000 -0.001263 0.000000
# 2 -0.000128 0.023398 -0.003053 0.000000 -0.007773 0.000000
# 3 -0.005612 -0.003053 0.014357 0.000000 -0.002309 0.000000
# 4 0.000000 0.000000 0.000000 0.051715 0.000000 0.010280
# 5 -0.001263 -0.007773 -0.002309 0.000000 0.045275 0.000000
# 6 0.000000 0.000000 0.000000 0.010280 0.000000 0.042958
#
#
# Mechanical properties :
#
#
# Convention : Reuss Voigt Hill
#
# Bulk Modulus (GPa) = 30.81778 41.25766 36.03772
# Shear Modulus (GPa) = 22.89525 25.44020 24.16772
#
# Velocity S-wave (km/s) = 3.28001 3.45751 3.36993
# Velocity P-wave (km/s) = 5.36898 5.94358 5.66357
#
# Compressibility (1/GPa) = 0.03244880
#
# Stress axis : x y z
#
# Youngs Moduli (GPa) = 81.43449 42.73789 69.65246
#
# Poissons Ratio (x) = 0.00546 0.39090
# Poissons Ratio (y) = 0.01041 0.21267
# Poissons Ratio (z) = 0.45702 0.13049
#
# Static dielectric constant tensor:
#      x y z
#    x 3.860350 0.000000 -0.106480 
#    y 0.000000 4.368390 0.000000 
#    z -0.106480 0.000000 3.950460 
# 
# 
# High freq. dielectric constant tensor:
#      x y z
#    x 1.821030 0.000000 -0.013370 
#    y 0.000000 1.821880 0.000000 
#    z -0.013370 0.000000 1.831620 
# 
# From -- ./inp_files/55375.got.cif
#   From: 2010.06.25/outbox.cif.g09.slc.cpg/sg15_28_cif.got.tgz:55375.got - 2010.06.28 07:06:18.
