data_PCOD8143318
_publ_section_title
;
Structure prediction by ZEFSAII (Michael W. Deem and Ramdas Pophale) SiO2 
 PCOD8143318
Probable space group: C 2/C
;
_chemical_formula_sum "Si O2"
_cell_formula_units_Z 56
_cell_length_a 26.212654
_cell_length_b 18.555004
_cell_length_c 17.207815
_cell_angle_alpha 90.000000
_cell_angle_beta 17.111273
_cell_angle_gamma 90.000000
_cell_volume 2462.534510
_symmetry_space_group_name_H-M "C 2/C"
_symmetry_group_IT_number 15
_symmetry_cell_setting 'monoclinic'
loop_
_space_group_symop_operation_xyz
x,y,z
-x,y,1/2-z
-x,-y,-z
x,-y,1/2+z
1/2+x,1/2+y,z
1/2-x,1/2+y,1/2-z
1/2-x,1/2-y,-z
1/2+x,1/2-y,1/2+z
loop_
_atom_site_type_symbol
_atom_site_label
_atom_site_fract_x
_atom_site_fract_y
_atom_site_fract_z
Si Si1 0.952492 0.591861 0.676448
Si Si2 0.739583 0.497376 0.276308
Si Si3 0.792253 0.697921 0.365954
Si Si4 0.810493 0.515318 0.504005
Si Si5 0.959509 0.897686 0.196882
Si Si6 0.329885 0.150817 0.701138
Si Si7 0.233627 0.705554 0.273637
O O1 0.832796 0.553671 0.914765
O O2 0.826537 0.626076 0.795564
O O3 0.082764 0.532265 0.448377
O O4 0.073865 0.655620 0.533433
O O5 0.572800 0.533817 0.559930
O O6 0.735228 0.411837 0.291259
O O7 0.724090 0.516511 0.207483
O O8 0.750000 0.750000 0.500000
O O9 0.645895 0.635311 0.576895
O O10 0.786381 0.731488 0.287796
O O11 0.976708 0.661237 0.113102
O O12 0.688769 0.578038 0.648173
O O13 0.000000 0.548268 0.250000
O O14 0.084423 0.836326 0.977683
O O15 0.225487 0.224727 0.840637
#
# Coordination Sequence:
#
# PCOD8143318 Si02
#       7
#     8   8   8   8   8   8   8
#     4   9  21  41  61  89 128 168 206 264 314 378
#     4  10  22  39  66  90 128 167 214 262 313 378
#     4  11  22  36  59  96 131 163 201 263 321 383
#     4  10  21  40  65  92 121 168 217 259 313 379
#     4  11  22  39  61  95 130 164 209 265 320 371
#     4  11  22  39  64  95 128 171 211 255 327 387
#     4  10  23  39  60  94 132 162 207 266 321 374
#
# _framework density 22.7408
#
# number of rings (size 3 to 8) (size 9 to 14) (size 15 to 20)
#    0.000    1.714    1.429    3.000    2.000    3.429 
#    0.000    0.000    0.000   23.143    0.000    0.000 
#    0.000    0.000    0.000    0.000    0.000    0.000 
#
# Total GULP energy -347068.778236 kJ/mol
# GULP energy per Si atom -12395.313508 kJ/mol
# Density = 2.268904 g / cm^3
# Si number density = 22.740800 Si / 1000 Ang^3
#
#
#
# Elastic Constant Matrix: (Units=GPa)
#
#
# Indices 1 2 3 4 5 6 
#
# 1 103.9584 48.6879 25.3028 0.0040 -5.0114 -0.0086
# 2 48.6879 150.1691 37.2717 -0.0013 -8.5254 0.0005
# 3 25.3028 37.2717 54.4738 -0.0056 -1.9161 -0.0005
# 4 0.0040 -0.0013 -0.0056 36.1647 0.0031 -6.8563
# 5 -5.0114 -8.5254 -1.9161 0.0031 21.0938 0.0040
# 6 -0.0086 0.0005 -0.0005 -6.8563 0.0040 44.0424
#
#
#
# Elastic Compliance Matrix: (Units=1/GPa)
#
#
# Indices 1 2 3 4 5 6 
#
# 1 0.011898 -0.002917 -0.003483 -0.000002 0.001331 0.000002
# 2 -0.002917 0.008899 -0.004647 0.000000 0.002482 -0.000001
# 3 -0.003483 -0.004647 0.023134 0.000004 -0.000604 0.000000
# 4 -0.000002 0.000000 0.000004 0.028492 -0.000005 0.004435
# 5 0.001331 0.002482 -0.000604 -0.000005 0.048672 -0.000005
# 6 0.000002 -0.000001 0.000000 0.004435 -0.000005 0.023396
#
#
# Mechanical properties :
#
#
# Convention : Reuss Voigt Hill
#
# Bulk Modulus (GPa) = 45.79690 59.01400 52.40545
# Shear Modulus (GPa) = 28.75828 33.41612 31.08720
#
# Velocity S-wave (km/s) = 3.56000 3.83748 3.70134
# Velocity P-wave (km/s) = 6.08937 6.75589 6.43127
#
# Compressibility (1/GPa) = 0.02183554
#
# Stress axis : x y z
#
# Youngs Moduli (GPa) = 84.05110 112.37024 43.22732
#
# Poissons Ratio (x) = 0.32781 0.15058
# Poissons Ratio (y) = 0.24520 0.20086
# Poissons Ratio (z) = 0.29279 0.52214
#
# Static dielectric constant tensor:
#      x y z
#    x 4.008210 0.000000 -0.113950 
#    y 0.000000 4.114170 0.000040 
#    z -0.113950 0.000040 4.017700 
# 
# 
# High freq. dielectric constant tensor:
#      x y z
#    x 1.889970 0.000000 -0.014010 
#    y 0.000000 1.893270 0.000000 
#    z -0.014010 0.000000 1.881570 
# 
# From -- ./inp_files/223088.got.cif
#   From: 2010.06.25/outbox.cif.g09.slc.cpg/sg15_112_cif.got.tgz:223088.got - 2010.06.28 07:06:18.
