data_PCOD8143040
_publ_section_title
;
Structure prediction by ZEFSAII (Michael W. Deem and Ramdas Pophale) SiO2 
 PCOD8143040
Probable space group: C 2/C
;
_chemical_formula_sum "Si O2"
_cell_formula_units_Z 64
_cell_length_a 9.169182
_cell_length_b 24.154617
_cell_length_c 14.090577
_cell_angle_alpha 90.000000
_cell_angle_beta 91.892372
_cell_angle_gamma 90.000000
_cell_volume 3119.051939
_symmetry_space_group_name_H-M "C 2/C"
_symmetry_group_IT_number 15
_symmetry_cell_setting 'monoclinic'
loop_
_space_group_symop_operation_xyz
x,y,z
-x,y,1/2-z
-x,-y,-z
x,-y,1/2+z
1/2+x,1/2+y,z
1/2-x,1/2+y,1/2-z
1/2-x,1/2-y,-z
1/2+x,1/2-y,1/2+z
loop_
_atom_site_type_symbol
_atom_site_label
_atom_site_fract_x
_atom_site_fract_y
_atom_site_fract_z
Si Si1 0.786361 0.634596 0.187410
Si Si2 0.672360 0.835742 0.255377
Si Si3 0.099901 0.379927 0.607235
Si Si4 0.177309 0.248808 0.100435
Si Si5 0.796130 0.981596 0.582800
Si Si6 0.363012 0.788952 0.051060
Si Si7 0.625578 0.537413 0.090474
Si Si8 0.161434 0.947247 0.238215
O O1 0.801579 0.639799 0.301564
O O2 0.722515 0.692428 0.151657
O O3 0.671160 0.587676 0.158223
O O4 0.934968 0.615599 0.139997
O O5 0.500000 0.837892 0.250000
O O6 0.733234 0.799231 0.168716
O O7 0.720192 0.810942 0.357374
O O8 0.726671 0.897839 0.250263
O O9 0.163252 0.438118 0.569751
O O10 0.096929 0.337965 0.519672
O O11 0.003915 0.253149 0.083620
O O12 0.250000 0.250000 0.000000
O O13 0.953448 0.952796 0.568477
O O14 0.784886 0.032565 0.506803
O O15 0.789139 0.006230 0.687003
O O16 0.250000 0.750000 0.000000
O O17 0.660928 0.477758 0.137523
O O18 0.000000 0.922985 0.250000
#
# Coordination Sequence:
#
# PCOD8143040 Si02
#       8
#     8   8   8   8   8   8   8   8
#     4  11  24  41  65  93 130 169 215 261 325 386
#     4  10  24  42  64  91 128 167 211 265 320 379
#     4  11  23  41  63  95 129 163 214 270 316 386
#     4  11  24  45  63  92 130 172 214 261 319 390
#     4  10  22  39  63  93 127 162 211 261 319 381
#     4  11  24  43  64  94 125 163 219 264 318 379
#     4  10  22  40  63  94 125 167 211 259 317 386
#     4  10  21  40  60  92 127 161 209 255 315 379
#
# _framework density 20.519055000000002
#
# number of rings (size 3 to 8) (size 9 to 14) (size 15 to 20)
#    0.000    1.500    2.500    1.500    3.500    2.500 
#    2.250    0.000    0.000    0.000    0.000    0.000 
#    0.000    0.000    0.000    0.000    0.000    0.000 
#
# Total GULP energy -396761.262486 kJ/mol
# GULP energy per Si atom -12398.789453 kJ/mol
# Density = 2.047235 g / cm^3
# Si number density = 20.519055 Si / 1000 Ang^3
#
#
#
# Elastic Constant Matrix: (Units=GPa)
#
#
# Indices 1 2 3 4 5 6 
#
# 1 52.9362 30.6512 7.1125 0.0000 4.2382 0.0000
# 2 30.6512 88.2293 4.8475 0.0000 5.5781 0.0000
# 3 7.1125 4.8475 81.5026 0.0000 -0.4184 0.0000
# 4 0.0000 0.0000 0.0000 27.7588 0.0000 10.5356
# 5 4.2382 5.5781 -0.4184 0.0000 31.9649 0.0000
# 6 0.0000 0.0000 0.0000 10.5356 0.0000 37.6272
#
#
#
# Elastic Compliance Matrix: (Units=1/GPa)
#
#
# Indices 1 2 3 4 5 6 
#
# 1 0.023952 -0.008120 -0.001616 0.000000 -0.001780 0.000000
# 2 -0.008120 0.014252 -0.000146 0.000000 -0.001412 0.000000
# 3 -0.001616 -0.000146 0.012421 0.000000 0.000402 0.000000
# 4 0.000000 0.000000 0.000000 0.040308 0.000000 -0.011286
# 5 -0.001780 -0.001412 0.000402 0.000000 0.031772 0.000000
# 6 0.000000 0.000000 0.000000 -0.011286 0.000000 0.029737
#
#
# Mechanical properties :
#
#
# Convention : Reuss Voigt Hill
#
# Bulk Modulus (GPa) = 32.40374 34.21007 33.30690
# Shear Modulus (GPa) = 27.39816 31.47396 29.43606
#
# Velocity S-wave (km/s) = 3.65808 3.92074 3.79168
# Velocity P-wave (km/s) = 5.80244 6.09957 5.95286
#
# Compressibility (1/GPa) = 0.03086064
#
# Stress axis : x y z
#
# Youngs Moduli (GPa) = 41.75057 70.16448 80.50638
#
# Poissons Ratio (x) = 0.56971 0.13013
# Poissons Ratio (y) = 0.33900 0.01178
# Poissons Ratio (z) = 0.06749 0.01027
#
# Static dielectric constant tensor:
#      x y z
#    x 3.830030 0.000000 -0.102480 
#    y 0.000000 3.913100 0.000000 
#    z -0.102480 0.000000 4.350240 
# 
# 
# High freq. dielectric constant tensor:
#      x y z
#    x 1.794840 0.000000 0.005150 
#    y 0.000000 1.796450 0.000000 
#    z 0.005150 0.000000 1.828190 
# 
# From -- ./inp_files/137874.got.cif
#   From: 2010.06.25/outbox.cif.g09.slc.cpg/sg15_69_cif.got.tgz:137874.got - 2010.06.28 07:06:18.
