data_PCOD8143056
_publ_section_title
;
Structure prediction by ZEFSAII (Michael W. Deem and Ramdas Pophale) SiO2 
 PCOD8143056
Probable space group: C 2/C
;
_chemical_formula_sum "Si O2"
_cell_formula_units_Z 60
_cell_length_a 17.306315
_cell_length_b 19.033717
_cell_length_c 9.824012
_cell_angle_alpha 90.000000
_cell_angle_beta 115.471885
_cell_angle_gamma 90.000000
_cell_volume 2921.506978
_symmetry_space_group_name_H-M "C 2/C"
_symmetry_group_IT_number 15
_symmetry_cell_setting 'monoclinic'
loop_
_space_group_symop_operation_xyz
x,y,z
-x,y,1/2-z
-x,-y,-z
x,-y,1/2+z
1/2+x,1/2+y,z
1/2-x,1/2+y,1/2-z
1/2-x,1/2-y,-z
1/2+x,1/2-y,1/2+z
loop_
_atom_site_type_symbol
_atom_site_label
_atom_site_fract_x
_atom_site_fract_y
_atom_site_fract_z
Si Si1 0.857994 0.328090 0.039429
Si Si2 0.500000 0.148367 0.250000
Si Si3 0.097661 0.819807 0.815577
Si Si4 0.825871 0.332901 0.509717
Si Si5 0.783556 0.078129 0.953438
Si Si6 0.068453 0.439482 0.570294
Si Si7 0.730695 0.023707 0.638043
Si Si8 0.270351 0.294007 0.798062
O O1 0.803371 0.376917 0.098918
O O2 0.936352 0.377391 0.046756
O O3 0.802238 0.296094 0.872727
O O4 0.895082 0.262712 0.148137
O O5 0.575223 0.192689 0.383158
O O6 0.443555 0.096993 0.296555
O O7 0.138790 0.869150 0.961179
O O8 0.144537 0.830782 0.703558
O O9 0.000000 0.842691 0.750000
O O10 0.827061 0.412852 0.461584
O O11 0.762372 0.332426 0.591198
O O12 0.790360 0.285656 0.359399
O O13 0.786354 0.013146 0.062330
O O14 0.792526 0.048593 0.807099
O O15 0.165040 0.467096 0.648422
O O16 0.000000 0.500000 0.500000
#
# Coordination Sequence:
#
# PCOD8143056 Si02
#       8
#     8   4   8   8   8   8   8   8
#     4  10  21  40  61  87 126 164 208 256 310 393
#     4  12  22  38  54  94 134 166 198 260 308 382
#     4  11  24  41  64  88 122 164 221 274 319 363
#     4  11  22  37  62  89 127 165 208 257 319 387
#     4  10  23  40  65  91 122 162 217 256 315 393
#     4  11  23  35  55  94 134 163 201 247 317 394
#     4  11  22  39  64  90 124 172 205 253 321 385
#     4  10  22  40  61  88 120 167 215 259 313 380
#
# _framework density 20.537347
#
# number of rings (size 3 to 8) (size 9 to 14) (size 15 to 20)
#    0.000    1.333    2.667    4.000    7.467    1.067 
#    0.000    0.667    0.000    0.000    0.000    0.000 
#    0.000    0.000    0.000    0.000    0.000    0.000 
#
# Total GULP energy -371838.518255 kJ/mol
# GULP energy per Si atom -12394.617275 kJ/mol
# Density = 2.049060 g / cm^3
# Si number density = 20.537347 Si / 1000 Ang^3
#
#
#
# Elastic Constant Matrix: (Units=GPa)
#
#
# Indices 1 2 3 4 5 6 
#
# 1 97.5681 18.5507 26.6353 0.0000 2.6306 0.0000
# 2 18.5507 83.3832 27.7563 0.0000 6.0390 0.0000
# 3 26.6353 27.7563 73.7037 0.0000 -9.2042 0.0000
# 4 0.0000 0.0000 0.0000 27.4130 0.0000 -5.9906
# 5 2.6306 6.0390 -9.2042 0.0000 20.6823 0.0000
# 6 0.0000 0.0000 0.0000 -5.9906 0.0000 30.8137
#
#
#
# Elastic Compliance Matrix: (Units=1/GPa)
#
#
# Indices 1 2 3 4 5 6 
#
# 1 0.011674 -0.000961 -0.004243 0.000000 -0.003093 0.000000
# 2 -0.000961 0.014719 -0.006054 0.000000 -0.006870 0.000000
# 3 -0.004243 -0.006054 0.018709 0.000000 0.010633 0.000000
# 4 0.000000 0.000000 0.000000 0.038098 0.000000 0.007407
# 5 -0.003093 -0.006870 0.010633 0.000000 0.055482 0.000000
# 6 0.000000 0.000000 0.000000 0.007407 0.000000 0.033893
#
#
# Mechanical properties :
#
#
# Convention : Reuss Voigt Hill
#
# Bulk Modulus (GPa) = 44.27416 44.50442 44.38929
# Shear Modulus (GPa) = 24.67691 27.89600 26.28645
#
# Velocity S-wave (km/s) = 3.47012 3.68952 3.58150
# Velocity P-wave (km/s) = 6.13680 6.31404 6.22605
#
# Compressibility (1/GPa) = 0.02258654
#
# Stress axis : x y z
#
# Youngs Moduli (GPa) = 85.66330 67.93801 53.45028
#
# Poissons Ratio (x) = 0.06527 0.22679
# Poissons Ratio (y) = 0.08230 0.32358
# Poissons Ratio (z) = 0.36348 0.41129
#
# Static dielectric constant tensor:
#      x y z
#    x 3.534450 0.000000 -0.377980 
#    y 0.000000 3.902220 0.000000 
#    z -0.377980 0.000000 3.574480 
# 
# 
# High freq. dielectric constant tensor:
#      x y z
#    x 1.788500 0.000000 -0.018860 
#    y 0.000000 1.804400 0.000000 
#    z -0.018860 0.000000 1.798010 
# 
# From -- ./inp_files/50695.got.cif
#   From: 2010.06.25/outbox.cif.g09.slc.cpg/sg15_26_cif.got.tgz:50695.got - 2010.06.28 07:06:18.
