data_PCOD8143517
_publ_section_title
;
Structure prediction by ZEFSAII (Michael W. Deem and Ramdas Pophale) SiO2 
 PCOD8143517
Probable space group: C 2/C
;
_chemical_formula_sum "Si O2"
_cell_formula_units_Z 48
_cell_length_a 8.942922
_cell_length_b 18.625953
_cell_length_c 14.688924
_cell_angle_alpha 90.000000
_cell_angle_beta 80.846742
_cell_angle_gamma 90.000000
_cell_volume 2415.584710
_symmetry_space_group_name_H-M "C 2/C"
_symmetry_group_IT_number 15
_symmetry_cell_setting 'monoclinic'
loop_
_space_group_symop_operation_xyz
x,y,z
-x,y,1/2-z
-x,-y,-z
x,-y,1/2+z
1/2+x,1/2+y,z
1/2-x,1/2+y,1/2-z
1/2-x,1/2-y,-z
1/2+x,1/2-y,1/2+z
loop_
_atom_site_type_symbol
_atom_site_label
_atom_site_fract_x
_atom_site_fract_y
_atom_site_fract_z
Si Si1 0.630077 0.034890 0.044722
Si Si2 0.044804 0.342850 0.845654
Si Si3 0.315639 0.735920 0.894522
Si Si4 0.148666 0.070052 0.631048
Si Si5 0.341334 0.342010 0.731221
Si Si6 0.324865 0.503843 0.684842
O O1 0.553266 0.110039 0.076359
O O2 0.686071 0.987887 0.126548
O O3 0.778804 0.043669 0.969376
O O4 0.500000 0.000000 0.000000
O O5 0.227639 0.348291 0.830157
O O6 0.000000 0.370550 0.750000
O O7 0.991197 0.261527 0.871522
O O8 0.317346 0.654205 0.862380
O O9 0.220394 0.784658 0.834289
O O10 0.250000 0.750000 0.000000
O O11 0.227027 0.030468 0.709992
O O12 0.970533 0.051304 0.642594
O O13 0.500000 0.311331 0.750000
O O14 0.368252 0.419582 0.682454
#
# Coordination Sequence:
#
# PCOD8143517 Si02
#       6
#     8   8   8   8   8   8
#     4  12  24  40  66 100 135 175 226 287 343 408
#     4  10  21  40  69  85 131 180 222 261 341 403
#     4  11  22  44  66  97 134 180 221 280 348 416
#     4  11  24  41  70  99 137 175 229 284 345 402
#     4  11  22  42  71  93 129 181 234 271 346 418
#     4  11  23  43  68  99 135 179 228 285 336 414
#
# _framework density 19.870964000000001
#
# number of rings (size 3 to 8) (size 9 to 14) (size 15 to 20)
#    0.000    1.000    6.667    1.500    7.000    0.000 
#    3.000    0.833    0.000    0.000    0.000    0.000 
#    0.000    0.000    0.000    0.000    0.000    0.000 
#
# Total GULP energy -297431.062784 kJ/mol
# GULP energy per Si atom -12392.960949 kJ/mol
# Density = 1.982574 g / cm^3
# Si number density = 19.870964 Si / 1000 Ang^3
#
#
#
# Elastic Constant Matrix: (Units=GPa)
#
#
# Indices 1 2 3 4 5 6 
#
# 1 126.6771 32.7099 49.6159 0.0000 1.5920 0.0000
# 2 32.7099 122.4412 37.2187 0.0000 11.7450 0.0000
# 3 49.6159 37.2187 103.1011 0.0000 -0.8572 0.0000
# 4 0.0000 0.0000 0.0000 34.4776 0.0000 -7.1489
# 5 1.5920 11.7450 -0.8572 0.0000 39.7296 0.0000
# 6 0.0000 0.0000 0.0000 -7.1489 0.0000 25.4534
#
#
#
# Elastic Compliance Matrix: (Units=1/GPa)
#
#
# Indices 1 2 3 4 5 6 
#
# 1 0.009922 -0.001337 -0.004293 0.000000 -0.000095 0.000000
# 2 -0.001337 0.009672 -0.002872 0.000000 -0.002868 0.000000
# 3 -0.004293 -0.002872 0.012813 0.000000 0.001298 0.000000
# 4 0.000000 0.000000 0.000000 0.030798 0.000000 0.008650
# 5 -0.000095 -0.002868 0.001298 0.000000 0.026050 0.000000
# 6 0.000000 0.000000 0.000000 0.008650 0.000000 0.041717
#
#
# Mechanical properties :
#
#
# Convention : Reuss Voigt Hill
#
# Bulk Modulus (GPa) = 64.92104 65.70095 65.31100
# Shear Modulus (GPa) = 32.65626 35.44379 34.05002
#
# Velocity S-wave (km/s) = 4.05830 4.22797 4.14400
# Velocity P-wave (km/s) = 7.39608 7.54784 7.47234
#
# Compressibility (1/GPa) = 0.01540333
#
# Stress axis : x y z
#
# Youngs Moduli (GPa) = 100.78749 103.38657 78.04648
#
# Poissons Ratio (x) = 0.13818 0.33506
# Poissons Ratio (y) = 0.13470 0.22418
# Poissons Ratio (z) = 0.43269 0.29696
#
# Static dielectric constant tensor:
#      x y z
#    x 3.949360 0.000000 -0.189990 
#    y 0.000000 3.694440 0.000000 
#    z -0.189990 0.000000 3.726640 
# 
# 
# High freq. dielectric constant tensor:
#      x y z
#    x 1.774180 0.000000 -0.017670 
#    y 0.000000 1.771070 0.000000 
#    z -0.017670 0.000000 1.778940 
# 
# From -- ./inp_files/134830.got.cif
#   From: 2010.06.25/outbox.cif.g09.slc.cpg/sg15_68_cif.got.tgz:134830.got - 2010.06.28 07:06:18.
