data_PCOD8143312
_publ_section_title
;
Structure prediction by ZEFSAII (Michael W. Deem and Ramdas Pophale) SiO2 
 PCOD8143312
Probable space group: C 2/C
;
_chemical_formula_sum "Si O2"
_cell_formula_units_Z 48
_cell_length_a 13.724535
_cell_length_b 32.157202
_cell_length_c 14.808571
_cell_angle_alpha 90.000000
_cell_angle_beta 160.331865
_cell_angle_gamma 90.000000
_cell_volume 2199.715539
_symmetry_space_group_name_H-M "C 2/C"
_symmetry_group_IT_number 15
_symmetry_cell_setting 'monoclinic'
loop_
_space_group_symop_operation_xyz
x,y,z
-x,y,1/2-z
-x,-y,-z
x,-y,1/2+z
1/2+x,1/2+y,z
1/2-x,1/2+y,1/2-z
1/2-x,1/2-y,-z
1/2+x,1/2-y,1/2+z
loop_
_atom_site_type_symbol
_atom_site_label
_atom_site_fract_x
_atom_site_fract_y
_atom_site_fract_z
Si Si1 0.676831 0.843777 0.990019
Si Si2 0.927822 0.278202 0.903494
Si Si3 0.385761 0.457686 0.356491
Si Si4 0.145796 0.394499 0.283127
Si Si5 0.148611 0.161653 0.287066
Si Si6 0.989224 0.437047 0.637955
O O1 0.500000 0.830421 0.750000
O O2 0.522409 0.819906 0.935740
O O3 0.668583 0.892807 0.002433
O O4 0.000000 0.829348 0.250000
O O5 0.727173 0.245060 0.680010
O O6 0.732506 0.294433 0.815966
O O7 0.500000 0.500000 0.500000
O O8 0.189829 0.435165 0.260449
O O9 0.673915 0.430620 0.591804
O O10 0.193559 0.464424 0.096024
O O11 0.439671 0.368697 0.549312
O O12 0.000000 0.409139 0.250000
O O13 0.940419 0.363539 0.051994
O O14 0.000000 0.174740 0.250000
O O15 0.000000 0.456309 0.750000
#
# Coordination Sequence:
#
# PCOD8143312 Si02
#       6
#     8   8   8   8   8   8
#     4  11  23  41  64  88 119 165 214 257 304 369
#     4  12  25  38  59  91 125 160 199 256 322 375
#     4  12  24  40  65  98 133 166 204 263 328 381
#     4  10  21  40  65  91 121 163 213 259 308 373
#     4  10  22  41  64  87 118 163 211 258 307 372
#     4  11  24  44  67  93 125 170 220 261 308 376
#
# _framework density 21.821003999999999
#
# number of rings (size 3 to 8) (size 9 to 14) (size 15 to 20)
#    0.000    1.000    0.000    8.000    0.000    3.333 
#    0.000    5.000    0.000    0.000    0.000    0.000 
#    0.000    0.000    0.000    0.000    0.000    0.000 
#
# Total GULP energy -297488.201300 kJ/mol
# GULP energy per Si atom -12395.341721 kJ/mol
# Density = 2.177134 g / cm^3
# Si number density = 21.821004 Si / 1000 Ang^3
#
#
#
# Elastic Constant Matrix: (Units=GPa)
#
#
# Indices 1 2 3 4 5 6 
#
# 1 112.7799 44.8545 40.2641 0.0002 -8.5261 0.0016
# 2 44.8545 73.5410 35.0152 0.0004 -6.2908 0.0000
# 3 40.2641 35.0152 204.8296 0.0027 6.6397 0.0042
# 4 0.0002 0.0004 0.0027 45.8124 -0.0012 4.7838
# 5 -8.5261 -6.2908 6.6397 -0.0012 49.7379 0.0016
# 6 0.0016 0.0000 0.0042 4.7838 0.0016 31.2592
#
#
#
# Elastic Compliance Matrix: (Units=1/GPa)
#
#
# Indices 1 2 3 4 5 6 
#
# 1 0.012068 -0.006629 -0.001284 0.000000 0.001402 -0.000001
# 2 -0.006629 0.018692 -0.001940 0.000000 0.001487 0.000001
# 3 -0.001284 -0.001940 0.005505 0.000000 -0.001201 -0.000001
# 4 0.000000 0.000000 0.000000 0.022183 0.000001 -0.003395
# 5 0.001402 0.001487 -0.001201 0.000001 0.020694 -0.000001
# 6 -0.000001 0.000001 -0.000001 -0.003395 -0.000001 0.032510
#
#
# Mechanical properties :
#
#
# Convention : Reuss Voigt Hill
#
# Bulk Modulus (GPa) = 60.39615 70.15757 65.27686
# Shear Modulus (GPa) = 36.52861 43.42968 39.97915
#
# Velocity S-wave (km/s) = 4.09591 4.46608 4.28499
# Velocity P-wave (km/s) = 7.07861 7.66914 7.37978
#
# Compressibility (1/GPa) = 0.01655735
#
# Stress axis : x y z
#
# Youngs Moduli (GPa) = 82.86494 53.49833 181.64535
#
# Poissons Ratio (x) = 0.35464 0.23331
# Poissons Ratio (y) = 0.54931 0.35248
# Poissons Ratio (z) = 0.10643 0.10381
#
# Static dielectric constant tensor:
#      x y z
#    x 4.137830 0.000000 -0.037480 
#    y 0.000000 3.605050 0.000000 
#    z -0.037480 0.000000 4.238630 
# 
# 
# High freq. dielectric constant tensor:
#      x y z
#    x 1.871450 0.000000 0.007110 
#    y 0.000000 1.840290 0.000000 
#    z 0.007110 0.000000 1.881860 
# 
# From -- ./inp_files/157710.got.cif
#   From: 2010.06.25/outbox.cif.g09.slc.cpg/sg15_79_cif.got.tgz:157710.got - 2010.06.28 07:06:18.
