data_PCOD8143300
_publ_section_title
;
Structure prediction by ZEFSAII (Michael W. Deem and Ramdas Pophale) SiO2 
 PCOD8143300
Probable space group: C 2/C
;
_chemical_formula_sum "Si O2"
_cell_formula_units_Z 32
_cell_length_a 12.451569
_cell_length_b 18.139109
_cell_length_c 7.799412
_cell_angle_alpha 90.000000
_cell_angle_beta 60.319632
_cell_angle_gamma 90.000000
_cell_volume 1530.461183
_symmetry_space_group_name_H-M "C 2/C"
_symmetry_group_IT_number 15
_symmetry_cell_setting 'monoclinic'
loop_
_space_group_symop_operation_xyz
x,y,z
-x,y,1/2-z
-x,-y,-z
x,-y,1/2+z
1/2+x,1/2+y,z
1/2-x,1/2+y,1/2-z
1/2-x,1/2-y,-z
1/2+x,1/2-y,1/2+z
loop_
_atom_site_type_symbol
_atom_site_label
_atom_site_fract_x
_atom_site_fract_y
_atom_site_fract_z
Si Si1 0.414312 0.290397 0.667716
Si Si2 0.133669 0.034584 0.855077
Si Si3 0.000000 0.649593 0.750000
Si Si4 0.738531 0.094547 0.418404
Si Si5 0.000000 0.857111 0.250000
O O1 0.500000 0.326348 0.750000
O O2 0.413972 0.201560 0.694776
O O3 0.463521 0.306500 0.438983
O O4 0.279812 0.327370 0.800552
O O5 0.184043 0.081497 0.971662
O O6 0.116132 0.090687 0.709410
O O7 0.233913 0.972051 0.733112
O O8 0.000000 0.000000 0.000000
O O9 0.091588 0.598321 0.567700
#
# Coordination Sequence:
#
# PCOD8143300 Si02
#       5
#     8   8   4   8   4
#     4  10  21  40  65  89 127 163 214 258 304 366
#     4  12  20  35  67  96 120 154 209 275 314 361
#     4  10  26  41  60  85 134 186 194 250 330 370
#     4  12  21  41  63  93 131 163 212 262 316 378
#     4  12  20  37  68 103 110 158 220 264 312 350
#
# _framework density 20.908729000000001
#
# number of rings (size 3 to 8) (size 9 to 14) (size 15 to 20)
#    0.750    0.000    7.500    0.750    0.000    1.000 
#    0.000    7.500    0.000    0.000    0.000    0.000 
#    0.000    0.000    0.000    0.000    0.000    0.000 
#
# Total GULP energy -198308.297244 kJ/mol
# GULP energy per Si atom -12394.268578 kJ/mol
# Density = 2.086114 g / cm^3
# Si number density = 20.908729 Si / 1000 Ang^3
#
#
#
# Elastic Constant Matrix: (Units=GPa)
#
#
# Indices 1 2 3 4 5 6 
#
# 1 37.0358 9.2031 33.7939 0.0000 5.9599 0.0000
# 2 9.2031 75.7579 46.4699 0.0000 -9.6870 0.0000
# 3 33.7939 46.4699 157.1179 0.0000 -12.9898 0.0000
# 4 0.0000 0.0000 0.0000 33.0399 0.0000 -5.8276
# 5 5.9599 -9.6870 -12.9898 0.0000 46.9881 0.0000
# 6 0.0000 0.0000 0.0000 -5.8276 0.0000 12.5788
#
#
#
# Elastic Compliance Matrix: (Units=1/GPa)
#
#
# Indices 1 2 3 4 5 6 
#
# 1 0.035592 -0.000187 -0.008163 0.000000 -0.006810 0.000000
# 2 -0.000187 0.016322 -0.004613 0.000000 0.002114 0.000000
# 3 -0.008163 -0.004613 0.009714 0.000000 0.002770 0.000000
# 4 0.000000 0.000000 0.000000 0.032960 0.000000 0.015270
# 5 -0.006810 0.002114 0.002770 0.000000 0.023347 0.000000
# 6 0.000000 0.000000 0.000000 0.015270 0.000000 0.086573
#
#
# Mechanical properties :
#
#
# Convention : Reuss Voigt Hill
#
# Bulk Modulus (GPa) = 28.00959 49.87172 38.94066
# Shear Modulus (GPa) = 20.63271 30.55100 25.59185
#
# Velocity S-wave (km/s) = 3.14474 3.82666 3.50234
# Velocity P-wave (km/s) = 5.15859 6.59002 5.91774
#
# Compressibility (1/GPa) = 0.03570205
#
# Stress axis : x y z
#
# Youngs Moduli (GPa) = 28.09654 61.26594 102.94877
#
# Poissons Ratio (x) = 0.01148 0.84035
# Poissons Ratio (y) = 0.00526 0.47485
# Poissons Ratio (z) = 0.22935 0.28259
#
# Static dielectric constant tensor:
#      x y z
#    x 3.482730 0.000000 0.079860 
#    y 0.000000 3.727780 0.000000 
#    z 0.079860 0.000000 3.813380 
# 
# 
# High freq. dielectric constant tensor:
#      x y z
#    x 1.780230 0.000000 0.013080 
#    y 0.000000 1.813340 0.000000 
#    z 0.013080 0.000000 1.824060 
# 
# From -- ./inp_files/28663.got.cif
#   From: 2010.06.25/outbox.cif.g09.slc.cpg/sg15_15_cif.got.tgz:28663.got - 2010.06.28 07:06:18.
