data_PCOD8143948
_publ_section_title
;
Structure prediction by ZEFSAII (Michael W. Deem and Ramdas Pophale) SiO2 
 PCOD8143948
Probable space group: C 2/C
;
_chemical_formula_sum "Si O2"
_cell_formula_units_Z 60
_cell_length_a 8.410964
_cell_length_b 12.215338
_cell_length_c 27.472490
_cell_angle_alpha 90.000000
_cell_angle_beta 104.482357
_cell_angle_gamma 90.000000
_cell_volume 2732.910702
_symmetry_space_group_name_H-M "C 2/C"
_symmetry_group_IT_number 15
_symmetry_cell_setting 'monoclinic'
loop_
_space_group_symop_operation_xyz
x,y,z
-x,y,1/2-z
-x,-y,-z
x,-y,1/2+z
1/2+x,1/2+y,z
1/2-x,1/2+y,1/2-z
1/2-x,1/2-y,-z
1/2+x,1/2-y,1/2+z
loop_
_atom_site_type_symbol
_atom_site_label
_atom_site_fract_x
_atom_site_fract_y
_atom_site_fract_z
Si Si1 0.000000 0.237824 0.750000
Si Si2 0.632303 0.938718 0.977913
Si Si3 0.720698 0.583814 0.826733
Si Si4 0.367545 0.803452 0.918630
Si Si5 0.782284 0.939914 0.401691
Si Si6 0.146030 0.003158 0.924499
Si Si7 0.766194 0.341273 0.806663
Si Si8 0.950159 0.361240 0.194289
O O1 0.923858 0.161021 0.702839
O O2 0.863020 0.313038 0.764763
O O3 0.546573 0.823991 0.956583
O O4 0.662070 0.002002 0.930004
O O5 0.798201 0.930215 0.022600
O O6 0.500000 0.000000 0.000000
O O7 0.705472 0.574253 0.883386
O O8 0.705724 0.466209 0.799033
O O9 0.894241 0.641264 0.829225
O O10 0.318495 0.679839 0.926139
O O11 0.385011 0.825720 0.862260
O O12 0.225243 0.882209 0.929671
O O13 0.694073 0.932190 0.342133
O O14 0.949566 0.008818 0.408750
O O15 0.608518 0.262947 0.800904
O O16 0.000000 0.415280 0.250000
#
# Coordination Sequence:
#
# PCOD8143948 Si02
#       8
#     4   8   8   8   8   8   8   8
#     4  12  24  38  64  90 118 164 210 256 304 374
#     4  10  21  41  67  94 129 164 208 258 309 379
#     4  11  24  42  64  87 129 164 204 259 318 357
#     4   9  21  42  63  90 127 163 206 252 316 369
#     4  11  22  41  65  89 132 163 206 266 305 371
#     4  10  22  41  65  97 123 164 214 256 310 374
#     4  10  23  41  60  91 123 158 208 256 302 376
#     4  11  22  41  62  90 123 165 211 252 314 373
#
# _framework density 21.954615
#
# number of rings (size 3 to 8) (size 9 to 14) (size 15 to 20)
#    0.000    1.600    1.333    4.400    1.867    2.667 
#    0.000   16.000    0.000    0.000    0.000    0.000 
#    0.000    0.000    0.000    0.000    0.000    0.000 
#
# Total GULP energy -371997.801262 kJ/mol
# GULP energy per Si atom -12399.926709 kJ/mol
# Density = 2.190465 g / cm^3
# Si number density = 21.954615 Si / 1000 Ang^3
#
#
#
# Elastic Constant Matrix: (Units=GPa)
#
#
# Indices 1 2 3 4 5 6 
#
# 1 104.5410 35.7369 33.1609 0.0000 -4.2956 0.0000
# 2 35.7369 83.6610 33.1625 0.0000 -1.5341 0.0000
# 3 33.1609 33.1625 115.3483 0.0000 9.3862 0.0000
# 4 0.0000 0.0000 0.0000 25.7181 0.0000 4.1189
# 5 -4.2956 -1.5341 9.3862 0.0000 37.8374 0.0000
# 6 0.0000 0.0000 0.0000 4.1189 0.0000 24.1800
#
#
#
# Elastic Compliance Matrix: (Units=1/GPa)
#
#
# Indices 1 2 3 4 5 6 
#
# 1 0.011775 -0.004062 -0.002360 0.000000 0.001758 0.000000
# 2 -0.004062 0.014980 -0.003216 0.000000 0.000944 0.000000
# 3 -0.002360 -0.003216 0.010517 0.000000 -0.003007 0.000000
# 4 0.000000 0.000000 0.000000 0.039974 0.000000 -0.006809
# 5 0.001758 0.000944 -0.003007 0.000000 0.027413 0.000000
# 6 0.000000 0.000000 0.000000 -0.006809 0.000000 0.042516
#
#
# Mechanical properties :
#
#
# Convention : Reuss Voigt Hill
#
# Bulk Modulus (GPa) = 55.56762 56.40787 55.98774
# Shear Modulus (GPa) = 28.99380 30.97976 29.98678
#
# Velocity S-wave (km/s) = 3.63798 3.76051 3.69975
# Velocity P-wave (km/s) = 6.55833 6.67862 6.61875
#
# Compressibility (1/GPa) = 0.01799609
#
# Stress axis : x y z
#
# Youngs Moduli (GPa) = 84.92449 66.75484 95.08214
#
# Poissons Ratio (x) = 0.27116 0.22443
# Poissons Ratio (y) = 0.34497 0.30577
# Poissons Ratio (z) = 0.20045 0.21467
#
# Static dielectric constant tensor:
#      x y z
#    x 3.966450 0.000000 0.183880 
#    y 0.000000 3.855520 0.000000 
#    z 0.183880 0.000000 4.560000 
# 
# 
# High freq. dielectric constant tensor:
#      x y z
#    x 1.863810 0.000000 0.004090 
#    y 0.000000 1.844880 0.000000 
#    z 0.004090 0.000000 1.875300 
# 
# From -- ./inp_files/307519.got.cif
#   From: 2010.06.25/outbox.cif.g09.slc.cpg/sg15_154_cif.got.tgz:307519.got - 2010.06.28 07:06:18.
