data_PCOD8143248
_publ_section_title
;
Structure prediction by ZEFSAII (Michael W. Deem and Ramdas Pophale) SiO2 
 PCOD8143248
Probable space group: C 2/C
;
_chemical_formula_sum "Si O2"
_cell_formula_units_Z 44
_cell_length_a 13.831605
_cell_length_b 17.306533
_cell_length_c 8.090061
_cell_angle_alpha 90.000000
_cell_angle_beta 76.159931
_cell_angle_gamma 90.000000
_cell_volume 1880.351412
_symmetry_space_group_name_H-M "C 2/C"
_symmetry_group_IT_number 15
_symmetry_cell_setting 'monoclinic'
loop_
_space_group_symop_operation_xyz
x,y,z
-x,y,1/2-z
-x,-y,-z
x,-y,1/2+z
1/2+x,1/2+y,z
1/2-x,1/2+y,1/2-z
1/2-x,1/2-y,-z
1/2+x,1/2-y,1/2+z
loop_
_atom_site_type_symbol
_atom_site_label
_atom_site_fract_x
_atom_site_fract_y
_atom_site_fract_z
Si Si1 0.778463 0.273452 0.172647
Si Si2 0.625440 0.929189 0.418865
Si Si3 0.576704 0.361502 0.862214
Si Si4 0.391889 0.622809 0.628842
Si Si5 0.500000 0.975530 0.750000
Si Si6 0.167097 0.980659 0.045694
O O1 0.854331 0.343035 0.140440
O O2 0.843282 0.204025 0.223775
O O3 0.681588 0.302999 0.314682
O O4 0.750000 0.250000 0.000000
O O5 0.593637 0.972720 0.266001
O O6 0.716881 0.973808 0.464116
O O7 0.533753 0.923304 0.583570
O O8 0.500000 0.380035 0.750000
O O9 0.502805 0.342616 0.049808
O O10 0.641400 0.436900 0.882987
O O11 0.359465 0.570896 0.478647
O O12 0.392507 0.564268 0.784632
#
# Coordination Sequence:
#
# PCOD8143248 Si02
#       6
#     8   8   8   8   4   8
#     4  11  24  45  67  97 142 183 223 282 354 416
#     4  10  21  40  64  92 132 171 231 278 343 402
#     4  12  26  44  68 106 141 181 234 285 354 420
#     4  11  24  44  76 100 140 180 236 292 346 418
#     4  10  22  38  64  96 122 178 232 286 324 404
#     4  11  22  44  70 100 135 178 230 297 347 402
#
# _framework density 23.399882000000002
#
# number of rings (size 3 to 8) (size 9 to 14) (size 15 to 20)
#    0.000    1.091    3.636    4.364    1.273    2.182 
#    0.000    0.000    0.000    0.000    0.000    0.000 
#    0.000    0.000    0.000    0.000    0.000    0.000 
#
# Total GULP energy -272561.404108 kJ/mol
# GULP energy per Si atom -12389.154732 kJ/mol
# Density = 2.334662 g / cm^3
# Si number density = 23.399882 Si / 1000 Ang^3
#
#
#
# Elastic Constant Matrix: (Units=GPa)
#
#
# Indices 1 2 3 4 5 6 
#
# 1 134.2167 48.9703 19.5261 0.0000 10.6744 0.0000
# 2 48.9703 72.2605 -8.2018 0.0000 -24.3659 0.0000
# 3 19.5261 -8.2018 52.7921 0.0000 -10.0704 0.0000
# 4 0.0000 0.0000 0.0000 31.9424 0.0000 -8.5757
# 5 10.6744 -24.3659 -10.0704 0.0000 47.3960 0.0000
# 6 0.0000 0.0000 0.0000 -8.5757 0.0000 9.8272
#
#
#
# Elastic Compliance Matrix: (Units=1/GPa)
#
#
# Indices 1 2 3 4 5 6 
#
# 1 0.017265 -0.018498 -0.012315 0.000000 -0.016015 0.000000
# 2 -0.018498 0.037613 0.017894 0.000000 0.027305 0.000000
# 3 -0.012315 0.017894 0.029767 0.000000 0.018297 0.000000
# 4 0.000000 0.000000 0.000000 0.040885 0.000000 0.035678
# 5 -0.016015 0.027305 0.018297 0.000000 0.042630 0.000000
# 6 0.000000 0.000000 0.000000 0.035678 0.000000 0.132893
#
#
# Mechanical properties :
#
#
# Convention : Reuss Voigt Hill
#
# Bulk Modulus (GPa) = 17.00457 42.20649 29.60553
# Shear Modulus (GPa) = 14.43025 31.09812 22.76418
#
# Velocity S-wave (km/s) = 2.48600 3.64948 3.12241
# Velocity P-wave (km/s) = 3.93992 5.98619 5.06742
#
# Compressibility (1/GPa) = 0.05880773
#
# Stress axis : x y z
#
# Youngs Moduli (GPa) = 57.92015 26.58660 33.59375
#
# Poissons Ratio (x) = 0.49181 0.41370
# Poissons Ratio (y) = 1.07142 -0.60113
# Poissons Ratio (z) = 0.71327 -0.47574
#
# Static dielectric constant tensor:
#      x y z
#    x 4.409590 0.000000 -0.137060 
#    y 0.000000 4.609600 0.000000 
#    z -0.137060 0.000000 4.554360 
# 
# 
# High freq. dielectric constant tensor:
#      x y z
#    x 1.939740 0.000000 -0.000340 
#    y 0.000000 1.903340 0.000000 
#    z -0.000340 0.000000 1.937840 
# 
# From -- ./inp_files/39147.got.cif
#   From: 2010.06.25/outbox.cif.g09.slc.cpg/sg15_20_cif.got.tgz:39147.got - 2010.06.28 07:06:18.
