data_PCOD8143457
_publ_section_title
;
Structure prediction by ZEFSAII (Michael W. Deem and Ramdas Pophale) SiO2 
 PCOD8143457
Probable space group: C 2/C
;
_chemical_formula_sum "Si O2"
_cell_formula_units_Z 56
_cell_length_a 8.924243
_cell_length_b 23.240388
_cell_length_c 13.505560
_cell_angle_alpha 90.000000
_cell_angle_beta 67.535988
_cell_angle_gamma 90.000000
_cell_volume 2588.544258
_symmetry_space_group_name_H-M "C 2/C"
_symmetry_group_IT_number 15
_symmetry_cell_setting 'monoclinic'
loop_
_space_group_symop_operation_xyz
x,y,z
-x,y,1/2-z
-x,-y,-z
x,-y,1/2+z
1/2+x,1/2+y,z
1/2-x,1/2+y,1/2-z
1/2-x,1/2-y,-z
1/2+x,1/2-y,1/2+z
loop_
_atom_site_type_symbol
_atom_site_label
_atom_site_fract_x
_atom_site_fract_y
_atom_site_fract_z
Si Si1 0.636746 0.947419 0.398508
Si Si2 0.832313 0.444886 0.745113
Si Si3 0.089569 0.846718 0.445965
Si Si4 0.858923 0.659778 0.721721
Si Si5 0.938524 0.732109 0.968400
Si Si6 0.663387 0.885527 0.950665
Si Si7 0.125119 0.950490 0.988448
O O1 0.700971 0.885248 0.345565
O O2 0.451951 0.938681 0.484129
O O3 0.744320 0.969967 0.463009
O O4 0.648988 0.990840 0.303240
O O5 0.772612 0.401783 0.673818
O O6 0.699973 0.438673 0.862894
O O7 0.000000 0.423920 0.750000
O O8 0.206919 0.824886 0.328589
O O9 0.986695 0.789401 0.501108
O O10 0.190646 0.875722 0.509976
O O11 0.961394 0.894097 0.444435
O O12 0.000000 0.627885 0.750000
O O13 0.948804 0.717204 0.655565
O O14 0.750000 0.750000 0.000000
O O15 0.939828 0.673775 0.033286
O O16 0.000000 0.000000 0.000000
#
# Coordination Sequence:
#
# PCOD8143457 Si02
#       7
#     8   8   8   8   8   8   8
#     4  11  23  41  66  93 125 170 220 259 310 405
#     4  12  25  40  69  92 122 175 210 262 333 376
#     4  11  23  41  66  99 133 166 210 274 319 372
#     4  11  19  37  69  94 125 173 217 254 314 381
#     4   9  19  37  64  99 128 159 217 268 299 378
#     4  10  21  40  67  96 123 165 222 257 313 391
#     4  12  28  44  60  96 137 160 213 276 326 379
#
# _framework density 21.633783000000001
#
# number of rings (size 3 to 8) (size 9 to 14) (size 15 to 20)
#    0.000    1.143    5.714    2.571    2.000    5.143 
#    0.000    2.857    3.143    0.000    0.000    0.000 
#    0.000    0.000    0.000    0.000    0.000    0.000 
#
# Total GULP energy -347005.437137 kJ/mol
# GULP energy per Si atom -12393.051326 kJ/mol
# Density = 2.158454 g / cm^3
# Si number density = 21.633783 Si / 1000 Ang^3
#
#
#
# Elastic Constant Matrix: (Units=GPa)
#
#
# Indices 1 2 3 4 5 6 
#
# 1 59.1754 24.2370 33.2818 0.0000 0.7135 0.0000
# 2 24.2370 88.1445 34.3525 0.0000 -11.7216 0.0000
# 3 33.2818 34.3525 159.5787 0.0000 -12.7316 0.0000
# 4 0.0000 0.0000 0.0000 35.5948 0.0000 -7.4022
# 5 0.7135 -11.7216 -12.7316 0.0000 31.1067 0.0000
# 6 0.0000 0.0000 0.0000 -7.4022 0.0000 28.3751
#
#
#
# Elastic Compliance Matrix: (Units=1/GPa)
#
#
# Indices 1 2 3 4 5 6 
#
# 1 0.020977 -0.004858 -0.003632 0.000000 -0.003798 0.000000
# 2 -0.004858 0.013934 -0.001611 0.000000 0.004703 0.000000
# 3 -0.003632 -0.001611 0.007577 0.000000 0.002577 0.000000
# 4 0.000000 0.000000 0.000000 0.029705 0.000000 0.007749
# 5 -0.003798 0.004703 0.002577 0.000000 0.035061 0.000000
# 6 0.000000 0.000000 0.000000 0.007749 0.000000 0.037264
#
#
# Mechanical properties :
#
#
# Convention : Reuss Voigt Hill
#
# Bulk Modulus (GPa) = 44.87257 54.51572 49.69414
# Shear Modulus (GPa) = 29.04457 33.35047 31.19752
#
# Velocity S-wave (km/s) = 3.66807 3.93057 3.80158
# Velocity P-wave (km/s) = 6.22306 6.77150 6.50307
#
# Compressibility (1/GPa) = 0.02228533
#
# Stress axis : x y z
#
# Youngs Moduli (GPa) = 47.67076 71.76689 131.98626
#
# Poissons Ratio (x) = 0.34861 0.47942
# Poissons Ratio (y) = 0.23156 0.21267
# Poissons Ratio (z) = 0.17316 0.11564
#
# Static dielectric constant tensor:
#      x y z
#    x 3.628450 0.000000 0.071890 
#    y 0.000000 4.377460 0.000000 
#    z 0.071890 0.000000 4.074650 
# 
# 
# High freq. dielectric constant tensor:
#      x y z
#    x 1.821230 0.000000 -0.002850 
#    y 0.000000 1.855920 0.000000 
#    z -0.002850 0.000000 1.858110 
# 
# From -- ./inp_files/137721.got.cif
#   From: 2010.06.25/outbox.cif.g09.slc.cpg/sg15_69_cif.got.tgz:137721.got - 2010.06.28 07:06:18.
