data_PCOD8143844
_publ_section_title
;
Structure prediction by ZEFSAII (Michael W. Deem and Ramdas Pophale) SiO2 
 PCOD8143844
Probable space group: C 2/C
;
_chemical_formula_sum "Si O2"
_cell_formula_units_Z 48
_cell_length_a 11.210151
_cell_length_b 27.152750
_cell_length_c 8.384651
_cell_angle_alpha 90.000000
_cell_angle_beta 109.621294
_cell_angle_gamma 90.000000
_cell_volume 2403.976156
_symmetry_space_group_name_H-M "C 2/C"
_symmetry_group_IT_number 15
_symmetry_cell_setting 'monoclinic'
loop_
_space_group_symop_operation_xyz
x,y,z
-x,y,1/2-z
-x,-y,-z
x,-y,1/2+z
1/2+x,1/2+y,z
1/2-x,1/2+y,1/2-z
1/2-x,1/2-y,-z
1/2+x,1/2-y,1/2+z
loop_
_atom_site_type_symbol
_atom_site_label
_atom_site_fract_x
_atom_site_fract_y
_atom_site_fract_z
Si Si1 0.369934 0.854318 0.972707
Si Si2 0.235751 0.934159 0.109565
Si Si3 0.262490 0.960872 0.489699
Si Si4 0.615192 0.318157 0.703129
Si Si5 0.467335 0.395555 0.055512
Si Si6 0.500000 0.909939 0.750000
Si Si7 0.500000 0.223530 0.750000
O O1 0.248449 0.833657 0.830391
O O2 0.463667 0.876214 0.883367
O O3 0.335542 0.893826 0.093060
O O4 0.435301 0.808452 0.085961
O O5 0.270865 0.946952 0.307308
O O6 0.094094 0.913262 0.022736
O O7 0.250112 0.980659 0.999789
O O8 0.138957 0.937291 0.516233
O O9 0.385258 0.944239 0.642623
O O10 0.500000 0.342711 0.750000
O O11 0.592973 0.342948 0.521488
O O12 0.601888 0.258574 0.702625
O O13 0.500000 0.386413 0.250000
#
# Coordination Sequence:
#
# PCOD8143844 Si02
#       7
#     8   8   8   8   8   4   4
#     4  12  23  44  65  92 131 167 213 261 321 379
#     4  11  23  40  67  90 129 170 211 267 312 377
#     4  11  24  39  61  98 127 172 215 253 317 379
#     4  10  21  41  71  92 122 164 212 262 323 374
#     4  10  21  41  65  97 131 161 210 270 317 368
#     4  12  26  41  62  88 134 170 209 264 310 384
#     4  10  24  41  68  98 122 166 213 262 328 382
#
# _framework density 19.966920999999999
#
# number of rings (size 3 to 8) (size 9 to 14) (size 15 to 20)
#    0.500    0.667    3.333    3.000    0.000    3.333 
#    1.500    0.833    0.000    0.000    0.000    0.000 
#    0.000    0.000    0.000    0.000    0.000    0.000 
#
# Total GULP energy -297543.411631 kJ/mol
# GULP energy per Si atom -12397.642151 kJ/mol
# Density = 1.992148 g / cm^3
# Si number density = 19.966921 Si / 1000 Ang^3
#
#
#
# Elastic Constant Matrix: (Units=GPa)
#
#
# Indices 1 2 3 4 5 6 
#
# 1 63.4220 31.0277 30.2844 0.0000 -3.0364 0.0000
# 2 31.0277 134.4809 59.2048 0.0000 -11.1038 0.0000
# 3 30.2844 59.2048 104.0752 0.0000 21.5618 0.0000
# 4 0.0000 0.0000 0.0000 41.1477 0.0000 -1.3542
# 5 -3.0364 -11.1038 21.5618 0.0000 24.1233 0.0000
# 6 0.0000 0.0000 0.0000 -1.3542 0.0000 15.0895
#
#
#
# Elastic Compliance Matrix: (Units=1/GPa)
#
#
# Indices 1 2 3 4 5 6 
#
# 1 0.019961 -0.000746 -0.007159 0.000000 0.008568 0.000000
# 2 -0.000746 0.013723 -0.010897 0.000000 0.015962 0.000000
# 3 -0.007159 -0.010897 0.023460 0.000000 -0.026886 0.000000
# 4 0.000000 0.000000 0.000000 0.024375 0.000000 0.002188
# 5 0.008568 0.015962 -0.026886 0.000000 0.073910 0.000000
# 6 0.000000 0.000000 0.000000 0.002188 0.000000 0.066468
#
#
# Mechanical properties :
#
#
# Convention : Reuss Voigt Hill
#
# Bulk Modulus (GPa) = 51.17374 60.33466 55.75420
# Shear Modulus (GPa) = 18.79594 28.16951 23.48272
#
# Velocity S-wave (km/s) = 3.07148 3.76015 3.43312
# Velocity P-wave (km/s) = 6.18575 7.00960 6.61052
#
# Compressibility (1/GPa) = 0.01954127
#
# Stress axis : x y z
#
# Youngs Moduli (GPa) = 50.09739 72.86842 42.62528
#
# Poissons Ratio (x) = 0.05439 0.30514
# Poissons Ratio (y) = 0.03739 0.46447
# Poissons Ratio (z) = 0.35864 0.79401
#
# Static dielectric constant tensor:
#      x y z
#    x 4.006640 0.000000 0.104970 
#    y 0.000000 3.637370 0.000000 
#    z 0.104970 0.000000 3.634940 
# 
# 
# High freq. dielectric constant tensor:
#      x y z
#    x 1.780850 0.000000 0.010950 
#    y 0.000000 1.780840 0.000000 
#    z 0.010950 0.000000 1.790780 
# 
# From -- ./inp_files/33854.got.cif
#   From: 2010.06.25/outbox.cif.g09.slc.cpg/sg15_17_cif.got.tgz:33854.got - 2010.06.28 07:06:18.
