data_PCOD8143508
_publ_section_title
;
Structure prediction by ZEFSAII (Michael W. Deem and Ramdas Pophale) SiO2 
 PCOD8143508
Probable space group: C 2/C
;
_chemical_formula_sum "Si O2"
_cell_formula_units_Z 52
_cell_length_a 23.475465
_cell_length_b 19.490984
_cell_length_c 7.217649
_cell_angle_alpha 90.000000
_cell_angle_beta 135.087850
_cell_angle_gamma 90.000000
_cell_volume 2331.641708
_symmetry_space_group_name_H-M "C 2/C"
_symmetry_group_IT_number 15
_symmetry_cell_setting 'monoclinic'
loop_
_space_group_symop_operation_xyz
x,y,z
-x,y,1/2-z
-x,-y,-z
x,-y,1/2+z
1/2+x,1/2+y,z
1/2-x,1/2+y,1/2-z
1/2-x,1/2-y,-z
1/2+x,1/2-y,1/2+z
loop_
_atom_site_type_symbol
_atom_site_label
_atom_site_fract_x
_atom_site_fract_y
_atom_site_fract_z
Si Si1 0.827701 0.419014 0.034339
Si Si2 0.911252 0.448231 0.586775
Si Si3 0.651516 0.151394 0.289079
Si Si4 0.500000 0.368839 0.250000
Si Si5 0.821511 0.100496 0.769450
Si Si6 0.562460 0.713021 0.542795
Si Si7 0.656947 0.450377 0.591036
O O1 0.881676 0.405477 0.338806
O O2 0.850536 0.489708 0.983721
O O3 0.840028 0.358780 0.912718
O O4 0.734598 0.425734 0.889772
O O5 0.915922 0.398558 0.776308
O O6 0.000000 0.477545 0.750000
O O7 0.732663 0.133346 0.592854
O O8 0.624115 0.229317 0.259493
O O9 0.480438 0.320667 0.378847
O O10 0.574069 0.418886 0.479731
O O11 0.888471 0.157474 0.965072
O O12 0.827233 0.079975 0.571241
O O13 0.843806 0.032823 0.938372
O O14 0.500000 0.744989 0.250000
#
# Coordination Sequence:
#
# PCOD8143508 Si02
#       7
#     8   8   8   4   8   8   8
#     4  11  22  41  64 101 128 174 214 276 341 392
#     4  12  24  36  64  96 129 172 225 279 331 382
#     4  11  25  42  64  91 138 177 219 272 326 410
#     4  10  26  44  68 104 134 168 228 286 326 392
#     4  10  22  42  68  97 131 173 221 275 338 395
#     4  11  27  43  65  94 134 184 221 267 334 404
#     4  10  21  40  69 101 133 162 220 283 335 392
#
# _framework density 22.301884000000001
#
# number of rings (size 3 to 8) (size 9 to 14) (size 15 to 20)
#    0.000    1.231    3.077    1.846    6.462    1.231 
#    0.000    0.000    0.000    7.385    0.000    0.000 
#    0.000    0.000    0.000    0.000    0.000    0.000 
#
# Total GULP energy -322373.221597 kJ/mol
# GULP energy per Si atom -12398.970061 kJ/mol
# Density = 2.225112 g / cm^3
# Si number density = 22.301884 Si / 1000 Ang^3
#
#
#
# Elastic Constant Matrix: (Units=GPa)
#
#
# Indices 1 2 3 4 5 6 
#
# 1 86.7637 40.9857 42.8465 0.0000 25.2493 0.0000
# 2 40.9857 118.0510 34.1648 0.0000 23.3589 0.0000
# 3 42.8465 34.1648 99.4959 0.0000 19.8676 0.0000
# 4 0.0000 0.0000 0.0000 28.1055 0.0000 14.2767
# 5 25.2493 23.3589 19.8676 0.0000 37.2680 0.0000
# 6 0.0000 0.0000 0.0000 14.2767 0.0000 28.2400
#
#
#
# Elastic Compliance Matrix: (Units=1/GPa)
#
#
# Indices 1 2 3 4 5 6 
#
# 1 0.017653 -0.003236 -0.005045 0.000000 -0.007243 0.000000
# 2 -0.003236 0.010786 -0.001565 0.000000 -0.003734 0.000000
# 3 -0.005045 -0.001565 0.013298 0.000000 -0.002690 0.000000
# 4 0.000000 0.000000 0.000000 0.047874 0.000000 -0.024203
# 5 -0.007243 -0.003734 -0.002690 0.000000 0.035514 0.000000
# 6 0.000000 0.000000 0.000000 -0.024203 0.000000 0.047646
#
#
# Mechanical properties :
#
#
# Convention : Reuss Voigt Hill
#
# Bulk Modulus (GPa) = 45.35895 60.03384 52.69640
# Shear Modulus (GPa) = 25.02371 31.14363 28.08367
#
# Velocity S-wave (km/s) = 3.35333 3.74097 3.55244
# Velocity P-wave (km/s) = 5.94776 6.75552 6.36447
#
# Compressibility (1/GPa) = 0.02204636
#
# Stress axis : x y z
#
# Youngs Moduli (GPa) = 56.64768 92.71265 75.20159
#
# Poissons Ratio (x) = 0.30000 0.37937
# Poissons Ratio (y) = 0.18330 0.11766
# Poissons Ratio (z) = 0.28577 0.14506
#
# Static dielectric constant tensor:
#      x y z
#    x 4.201670 0.000000 0.337900 
#    y 0.000000 4.049750 0.000000 
#    z 0.337900 0.000000 4.149140 
# 
# 
# High freq. dielectric constant tensor:
#      x y z
#    x 1.887860 0.000000 0.010480 
#    y 0.000000 1.858960 0.000000 
#    z 0.010480 0.000000 1.878750 
# 
# From -- ./inp_files/63445.got.cif
#   From: 2010.06.25/outbox.cif.g09.slc.cpg/sg15_32_cif.got.tgz:63445.got - 2010.06.28 07:06:18.
