data_PCOD8143261
_publ_section_title
;
Structure prediction by ZEFSAII (Michael W. Deem and Ramdas Pophale) SiO2 
 PCOD8143261
Probable space group: C 2/C
;
_chemical_formula_sum "Si O2"
_cell_formula_units_Z 56
_cell_length_a 12.260312
_cell_length_b 14.145229
_cell_length_c 29.936771
_cell_angle_alpha 90.000000
_cell_angle_beta 29.011815
_cell_angle_gamma 90.000000
_cell_volume 2517.962243
_symmetry_space_group_name_H-M "C 2/C"
_symmetry_group_IT_number 15
_symmetry_cell_setting 'monoclinic'
loop_
_space_group_symop_operation_xyz
x,y,z
-x,y,1/2-z
-x,-y,-z
x,-y,1/2+z
1/2+x,1/2+y,z
1/2-x,1/2+y,1/2-z
1/2-x,1/2-y,-z
1/2+x,1/2-y,1/2+z
loop_
_atom_site_type_symbol
_atom_site_label
_atom_site_fract_x
_atom_site_fract_y
_atom_site_fract_z
Si Si1 0.209419 0.756482 0.084317
Si Si2 0.257961 0.869937 0.342416
Si Si3 0.502467 0.449172 0.143193
Si Si4 0.595206 0.309916 0.494720
Si Si5 0.805982 0.612112 0.005163
Si Si6 0.261236 0.480123 0.313929
Si Si7 0.409481 0.184271 0.121270
O O1 0.090007 0.855552 0.137562
O O2 0.035763 0.682536 0.124015
O O3 0.323851 0.705869 0.086373
O O4 0.416463 0.779654 0.977848
O O5 0.500000 0.919207 0.250000
O O6 0.193271 0.866890 0.417485
O O7 0.280512 0.765598 0.311479
O O8 0.073123 0.928974 0.380501
O O9 0.294403 0.483873 0.248290
O O10 0.704076 0.525417 0.069944
O O11 0.646110 0.373114 0.519535
O O12 0.706947 0.205812 0.459789
O O13 0.064044 0.592516 0.898192
O O14 0.500000 0.451450 0.250000
O O15 0.190340 0.583781 0.355798
#
# Coordination Sequence:
#
# PCOD8143261 Si02
#       7
#     8   8   8   8   8   8   8
#     4   9  18  40  64  90 119 169 210 257 319 382
#     4  10  21  40  64  95 128 173 219 261 323 389
#     4  11  24  41  67  96 129 167 220 272 314 389
#     4  10  23  41  68  87 130 177 206 264 332 374
#     4  11  25  44  62  98 133 164 224 268 318 391
#     4  12  25  39  65 100 130 169 211 277 330 375
#     4   9  19  35  63  95 123 159 216 261 314 385
#
# _framework density 22.240206000000001
#
# number of rings (size 3 to 8) (size 9 to 14) (size 15 to 20)
#    0.000    1.714    1.429    3.000    6.000    1.714 
#    5.143    0.000    0.000    0.000    0.000    0.000 
#    0.000    0.000    0.000    0.000    0.000    0.000 
#
# Total GULP energy -347073.784935 kJ/mol
# GULP energy per Si atom -12395.492319 kJ/mol
# Density = 2.218959 g / cm^3
# Si number density = 22.240206 Si / 1000 Ang^3
#
#
#
# Elastic Constant Matrix: (Units=GPa)
#
#
# Indices 1 2 3 4 5 6 
#
# 1 91.7296 4.0754 10.3460 0.0290 -8.7770 -0.0044
# 2 4.0754 55.2831 16.0089 -0.0151 -2.3470 0.0006
# 3 10.3460 16.0089 82.3160 0.1048 -2.7598 0.0186
# 4 0.0290 -0.0151 0.1048 17.9007 -0.0333 -2.8484
# 5 -8.7770 -2.3470 -2.7598 -0.0333 35.0209 -0.0069
# 6 -0.0044 0.0006 0.0186 -2.8484 -0.0069 23.0097
#
#
#
# Elastic Compliance Matrix: (Units=1/GPa)
#
#
# Indices 1 2 3 4 5 6 
#
# 1 0.011319 -0.000354 -0.001263 -0.000006 0.002714 0.000003
# 2 -0.000354 0.019214 -0.003662 0.000041 0.000911 0.000008
# 3 -0.001263 -0.003662 0.013035 -0.000080 0.000465 -0.000020
# 4 -0.000006 0.000041 -0.000080 0.056987 0.000051 0.007055
# 5 0.002714 0.000911 0.000465 0.000051 0.029332 0.000015
# 6 0.000003 0.000008 -0.000020 0.007055 0.000015 0.044333
#
#
# Mechanical properties :
#
#
# Convention : Reuss Voigt Hill
#
# Bulk Modulus (GPa) = 30.29241 32.24323 31.26782
# Shear Modulus (GPa) = 25.53876 28.44617 26.99247
#
# Velocity S-wave (km/s) = 3.39236 3.58025 3.48757
# Velocity P-wave (km/s) = 5.38463 5.62318 5.50520
#
# Compressibility (1/GPa) = 0.03301157
#
# Stress axis : x y z
#
# Youngs Moduli (GPa) = 88.34387 52.04585 76.71716
#
# Poissons Ratio (x) = 0.01840 0.09689
# Poissons Ratio (y) = 0.03123 0.28092
# Poissons Ratio (z) = 0.11157 0.19058
#
# Static dielectric constant tensor:
#      x y z
#    x 4.350440 -0.000010 -0.258920 
#    y -0.000010 3.893690 0.000050 
#    z -0.258920 0.000050 3.862190 
# 
# 
# High freq. dielectric constant tensor:
#      x y z
#    x 1.888480 0.000000 -0.014870 
#    y 0.000000 1.862110 0.000000 
#    z -0.014870 0.000000 1.853600 
# 
# From -- ./inp_files/311332.got.cif
#   From: 2010.06.25/outbox.cif.g09.slc.cpg/sg15_156_cif.got.tgz:311332.got - 2010.06.28 07:06:18.
