data_PCOD8143898
_publ_section_title
;
Structure prediction by ZEFSAII (Michael W. Deem and Ramdas Pophale) SiO2 
 PCOD8143898
Probable space group: C 2/C
;
_chemical_formula_sum "Si O2"
_cell_formula_units_Z 52
_cell_length_a 17.079546
_cell_length_b 21.437769
_cell_length_c 9.233306
_cell_angle_alpha 90.000000
_cell_angle_beta 44.350132
_cell_angle_gamma 90.000000
_cell_volume 2363.284069
_symmetry_space_group_name_H-M "C 2/C"
_symmetry_group_IT_number 15
_symmetry_cell_setting 'monoclinic'
loop_
_space_group_symop_operation_xyz
x,y,z
-x,y,1/2-z
-x,-y,-z
x,-y,1/2+z
1/2+x,1/2+y,z
1/2-x,1/2+y,1/2-z
1/2-x,1/2-y,-z
1/2+x,1/2-y,1/2+z
loop_
_atom_site_type_symbol
_atom_site_label
_atom_site_fract_x
_atom_site_fract_y
_atom_site_fract_z
Si Si1 0.260887 0.767581 0.153104
Si Si2 0.500000 0.536645 0.250000
Si Si3 0.718664 0.456092 0.019324
Si Si4 0.829958 0.420725 0.358411
Si Si5 0.032889 0.643112 0.052995
Si Si6 0.184922 0.642034 0.323741
Si Si7 0.349912 0.615630 0.614331
O O1 0.259957 0.704005 0.248384
O O2 0.153577 0.811287 0.339214
O O3 0.250000 0.750000 0.000000
O O4 0.377150 0.801853 0.039924
O O5 0.601540 0.491136 0.153390
O O6 0.470641 0.582791 0.426281
O O7 0.719087 0.418798 0.168220
O O8 0.820060 0.505301 0.897217
O O9 0.741198 0.409946 0.856004
O O10 0.859752 0.385216 0.466564
O O11 0.712357 0.393764 0.456425
O O12 0.923901 0.409960 0.112819
O O13 0.000000 0.612051 0.250000
O O14 0.918564 0.668403 0.133932
#
# Coordination Sequence:
#
# PCOD8143898 Si02
#       7
#     8   4   8   8   8   8   8
#     4  11  22  46  67  97 134 180 231 281 344 410
#     4  10  22  40  66 108 134 178 240 284 358 404
#     4  11  22  44  70  97 144 181 228 292 344 421
#     4  10  23  41  65 101 135 174 225 284 345 403
#     4  11  23  43  68  96 135 179 224 283 338 419
#     4  12  24  44  70 101 136 182 233 287 342 414
#     4  10  21  41  66  95 140 178 222 288 338 413
#
# _framework density 22.003278999999999
#
# number of rings (size 3 to 8) (size 9 to 14) (size 15 to 20)
#    0.000    1.231    3.077    3.692    0.000    4.308 
#   12.462    3.077    0.000    0.000    0.000    0.000 
#    0.000    0.000    0.000    0.000    0.000    0.000 
#
# Total GULP energy -322263.383947 kJ/mol
# GULP energy per Si atom -12394.745536 kJ/mol
# Density = 2.195320 g / cm^3
# Si number density = 22.003279 Si / 1000 Ang^3
#
#
#
# Elastic Constant Matrix: (Units=GPa)
#
#
# Indices 1 2 3 4 5 6 
#
# 1 82.5002 28.3428 33.9384 0.0000 5.6175 0.0000
# 2 28.3428 161.7665 73.9062 0.0000 7.2752 0.0000
# 3 33.9384 73.9062 155.0342 0.0000 14.2360 0.0000
# 4 0.0000 0.0000 0.0000 35.5301 0.0000 2.1738
# 5 5.6175 7.2752 14.2360 0.0000 39.0641 0.0000
# 6 0.0000 0.0000 0.0000 2.1738 0.0000 24.3386
#
#
#
# Elastic Compliance Matrix: (Units=1/GPa)
#
#
# Indices 1 2 3 4 5 6 
#
# 1 0.013561 -0.001300 -0.002268 0.000000 -0.000881 0.000000
# 2 -0.001300 0.008028 -0.003541 0.000000 -0.000018 0.000000
# 3 -0.002268 -0.003541 0.008840 0.000000 -0.002236 0.000000
# 4 0.000000 0.000000 0.000000 0.028300 0.000000 -0.002528
# 5 -0.000881 -0.000018 -0.002236 0.000000 0.026544 0.000000
# 6 0.000000 0.000000 0.000000 -0.002528 0.000000 0.041313
#
#
# Mechanical properties :
#
#
# Convention : Reuss Voigt Hill
#
# Bulk Modulus (GPa) = 61.68617 74.63063 68.15840
# Shear Modulus (GPa) = 34.19824 37.32748 35.76286
#
# Velocity S-wave (km/s) = 3.94665 4.12327 4.03593
# Velocity P-wave (km/s) = 6.99028 7.52729 7.26375
#
# Compressibility (1/GPa) = 0.01621109
#
# Stress axis : x y z
#
# Youngs Moduli (GPa) = 73.74190 124.56357 113.12384
#
# Poissons Ratio (x) = 0.16196 0.25654
# Poissons Ratio (y) = 0.09588 0.40055
# Poissons Ratio (z) = 0.16723 0.44105
#
# Static dielectric constant tensor:
#      x y z
#    x 3.920070 0.000000 -0.046340 
#    y 0.000000 4.213980 0.000000 
#    z -0.046340 0.000000 4.263580 
# 
# 
# High freq. dielectric constant tensor:
#      x y z
#    x 1.850410 0.000000 0.005850 
#    y 0.000000 1.867570 0.000000 
#    z 0.005850 0.000000 1.879010 
# 
# From -- ./inp_files/50578.got.cif
#   From: 2010.06.25/outbox.cif.g09.slc.cpg/sg15_26_cif.got.tgz:50578.got - 2010.06.28 07:06:18.
