data_PCOD8143877
_publ_section_title
;
Structure prediction by ZEFSAII (Michael W. Deem and Ramdas Pophale) SiO2 
 PCOD8143877
Probable space group: C 2/C
;
_chemical_formula_sum "Si O2"
_cell_formula_units_Z 52
_cell_length_a 14.338858
_cell_length_b 17.409073
_cell_length_c 16.917940
_cell_angle_alpha 90.000000
_cell_angle_beta 37.240978
_cell_angle_gamma 90.000000
_cell_volume 2555.724903
_symmetry_space_group_name_H-M "C 2/C"
_symmetry_group_IT_number 15
_symmetry_cell_setting 'monoclinic'
loop_
_space_group_symop_operation_xyz
x,y,z
-x,y,1/2-z
-x,-y,-z
x,-y,1/2+z
1/2+x,1/2+y,z
1/2-x,1/2+y,1/2-z
1/2-x,1/2-y,-z
1/2+x,1/2-y,1/2+z
loop_
_atom_site_type_symbol
_atom_site_label
_atom_site_fract_x
_atom_site_fract_y
_atom_site_fract_z
Si Si1 0.730027 0.403981 0.021137
Si Si2 0.183311 0.659742 0.199649
Si Si3 0.500000 0.288686 0.250000
Si Si4 0.502249 0.079980 0.044705
Si Si5 0.176693 0.682833 0.445541
Si Si6 0.884515 0.068268 0.397074
Si Si7 0.061269 0.808680 0.857998
O O1 0.599767 0.342847 0.126893
O O2 0.676057 0.487785 0.029642
O O3 0.824204 0.372999 0.883459
O O4 0.828427 0.409541 0.034771
O O5 0.084761 0.737715 0.259802
O O6 0.119087 0.593041 0.301509
O O7 0.352758 0.686276 0.115663
O O8 0.463100 0.144463 0.007691
O O9 0.500000 0.000000 0.000000
O O10 0.244794 0.623438 0.463390
O O11 0.315227 0.711793 0.294727
O O12 0.086175 0.752119 0.548778
O O13 0.000000 0.046693 0.250000
O O14 0.985745 0.107944 0.396462
#
# Coordination Sequence:
#
# PCOD8143877 Si02
#       7
#     8   8   4   8   8   8   8
#     4  12  23  41  65  92 134 167 219 261 333 392
#     4  11  25  41  63  97 133 161 217 278 317 395
#     4  12  24  38  68  92 130 178 212 262 338 384
#     4  11  22  42  67  92 127 171 210 268 331 386
#     4  10  21  41  66  91 129 166 217 265 322 388
#     4  10  21  42  62  90 127 171 209 265 320 382
#     4  10  23  40  64  93 126 167 217 268 324 383
#
# _framework density 20.346478000000001
#
# number of rings (size 3 to 8) (size 9 to 14) (size 15 to 20)
#    0.000    1.231    3.846    1.846    4.308    0.615 
#    2.769    0.000    0.000    0.000    0.000    0.000 
#    0.000    0.000    0.000    0.000    0.000    0.000 
#
# Total GULP energy -322249.585198 kJ/mol
# GULP energy per Si atom -12394.214815 kJ/mol
# Density = 2.030017 g / cm^3
# Si number density = 20.346478 Si / 1000 Ang^3
#
#
#
# Elastic Constant Matrix: (Units=GPa)
#
#
# Indices 1 2 3 4 5 6 
#
# 1 112.7340 48.8858 26.4970 0.0001 -12.1306 0.0009
# 2 48.8858 125.7754 65.2148 -0.0004 -6.8825 0.0019
# 3 26.4970 65.2148 80.9447 0.0012 -7.0186 0.0017
# 4 0.0001 -0.0004 0.0012 35.3620 -0.0006 -10.3142
# 5 -12.1306 -6.8825 -7.0186 -0.0006 31.4967 -0.0013
# 6 0.0009 0.0019 0.0017 -10.3142 -0.0013 26.9817
#
#
#
# Elastic Compliance Matrix: (Units=1/GPa)
#
#
# Indices 1 2 3 4 5 6 
#
# 1 0.011006 -0.004083 -0.000024 0.000000 0.003341 0.000000
# 2 -0.004083 0.015178 -0.010953 0.000001 -0.000696 0.000000
# 3 -0.000024 -0.010953 0.021391 -0.000001 0.002364 -0.000001
# 4 0.000000 0.000001 -0.000001 0.031828 0.000001 0.012167
# 5 0.003341 -0.000696 0.002364 0.000001 0.033411 0.000002
# 6 0.000000 0.000000 -0.000001 0.012167 0.000002 0.041713
#
#
# Mechanical properties :
#
#
# Convention : Reuss Voigt Hill
#
# Bulk Modulus (GPa) = 57.28270 66.73881 62.01076
# Shear Modulus (GPa) = 26.25159 30.69184 28.47171
#
# Velocity S-wave (km/s) = 3.59587 3.88810 3.74484
# Velocity P-wave (km/s) = 6.74204 7.28209 7.01726
#
# Compressibility (1/GPa) = 0.01745728
#
# Stress axis : x y z
#
# Youngs Moduli (GPa) = 90.86009 65.88323 46.74813
#
# Poissons Ratio (x) = 0.26897 0.00112
# Poissons Ratio (y) = 0.37094 0.51202
# Poissons Ratio (z) = 0.00217 0.72160
#
# Static dielectric constant tensor:
#      x y z
#    x 3.845360 0.000000 -0.271700 
#    y 0.000000 3.739700 0.000010 
#    z -0.271700 0.000010 3.324260 
# 
# 
# High freq. dielectric constant tensor:
#      x y z
#    x 1.813010 0.000000 -0.013810 
#    y 0.000000 1.797250 0.000000 
#    z -0.013810 0.000000 1.779450 
# 
# From -- ./inp_files/205634.got.cif
#   From: 2010.06.25/outbox.cif.g09.slc.cpg/sg15_103_cif.got.tgz:205634.got - 2010.06.28 07:06:18.
