data_PCOD8143594
_publ_section_title
;
Structure prediction by ZEFSAII (Michael W. Deem and Ramdas Pophale) SiO2 
 PCOD8143594
Probable space group: C 2/C
;
_chemical_formula_sum "Si O2"
_cell_formula_units_Z 64
_cell_length_a 23.413358
_cell_length_b 12.705686
_cell_length_c 11.847031
_cell_angle_alpha 90.000000
_cell_angle_beta 67.348903
_cell_angle_gamma 90.000000
_cell_volume 3252.449240
_symmetry_space_group_name_H-M "C 2/C"
_symmetry_group_IT_number 15
_symmetry_cell_setting 'monoclinic'
loop_
_space_group_symop_operation_xyz
x,y,z
-x,y,1/2-z
-x,-y,-z
x,-y,1/2+z
1/2+x,1/2+y,z
1/2-x,1/2+y,1/2-z
1/2-x,1/2-y,-z
1/2+x,1/2-y,1/2+z
loop_
_atom_site_type_symbol
_atom_site_label
_atom_site_fract_x
_atom_site_fract_y
_atom_site_fract_z
Si Si1 0.170718 0.120096 0.296479
Si Si2 0.677677 0.717887 0.056765
Si Si3 0.892538 0.609320 0.343267
Si Si4 0.034019 0.788177 0.332254
Si Si5 0.722977 0.785192 0.639054
Si Si6 0.078797 0.716874 0.951402
Si Si7 0.151763 0.879436 0.335560
Si Si8 0.428614 0.873040 0.281037
O O1 0.169720 0.133418 0.162478
O O2 0.229519 0.177520 0.303767
O O3 0.111515 0.173081 0.398602
O O4 0.173378 0.998593 0.323783
O O5 0.626316 0.809718 0.113444
O O6 0.750000 0.750000 0.000000
O O7 0.660533 0.666280 0.952369
O O8 0.935881 0.680287 0.232822
O O9 0.823741 0.616770 0.344057
O O10 0.888234 0.655396 0.472494
O O11 0.919795 0.492979 0.324817
O O12 0.080559 0.872529 0.350263
O O13 0.000000 0.841928 0.250000
O O14 0.990091 0.751358 0.466235
O O15 0.750000 0.750000 0.500000
O O16 0.690628 0.681919 0.712676
O O17 0.081327 0.637431 0.844796
O O18 0.500000 0.836365 0.250000
#
# Coordination Sequence:
#
# PCOD8143594 Si02
#       8
#     8   8   8   8   8   8   8   8
#     4  11  25  41  67  93 126 173 212 264 322 389
#     4  11  25  45  61  97 138 168 218 267 326 398
#     4  10  22  37  65  94 122 170 214 264 322 387
#     4   9  20  40  64  94 130 164 217 270 311 385
#     4  11  23  42  64  94 128 166 218 265 320 382
#     4  10  21  41  60  88 131 158 211 270 311 384
#     4  11  25  42  68  93 127 172 211 266 326 386
#     4  11  24  40  64  94 129 173 212 265 338 387
#
# _framework density 19.677478000000001
#
# number of rings (size 3 to 8) (size 9 to 14) (size 15 to 20)
#    0.000    1.500    2.500    1.875    3.500    4.500 
#    0.000    2.500    0.000    0.000    0.000    0.000 
#    0.000    0.000    0.000    0.000    0.000    0.000 
#
# Total GULP energy -396740.044629 kJ/mol
# GULP energy per Si atom -12398.126395 kJ/mol
# Density = 1.963269 g / cm^3
# Si number density = 19.677478 Si / 1000 Ang^3
#
#
#
# Elastic Constant Matrix: (Units=GPa)
#
#
# Indices 1 2 3 4 5 6 
#
# 1 117.8943 29.2750 43.9046 0.0000 -3.4543 0.0000
# 2 29.2750 85.9364 40.9666 0.0000 -3.1489 0.0000
# 3 43.9046 40.9666 131.8463 0.0000 -2.0700 0.0000
# 4 0.0000 0.0000 0.0000 14.5522 0.0000 2.5445
# 5 -3.4543 -3.1489 -2.0700 0.0000 31.0538 0.0000
# 6 0.0000 0.0000 0.0000 2.5445 0.0000 21.8328
#
#
#
# Elastic Compliance Matrix: (Units=1/GPa)
#
#
# Indices 1 2 3 4 5 6 
#
# 1 0.010023 -0.002116 -0.002669 0.000000 0.000722 0.000000
# 2 -0.002116 0.014144 -0.003675 0.000000 0.000954 0.000000
# 3 -0.002669 -0.003675 0.009615 0.000000 -0.000029 0.000000
# 4 0.000000 0.000000 0.000000 0.070148 0.000000 -0.008175
# 5 0.000722 0.000954 -0.000029 0.000000 0.032377 0.000000
# 6 0.000000 0.000000 0.000000 -0.008175 0.000000 0.046755
#
#
# Mechanical properties :
#
#
# Convention : Reuss Voigt Hill
#
# Bulk Modulus (GPa) = 59.30444 62.66327 60.98385
# Shear Modulus (GPa) = 24.31880 28.25649 26.28765
#
# Velocity S-wave (km/s) = 3.51931 3.79355 3.65900
# Velocity P-wave (km/s) = 6.83503 7.14859 6.99357
#
# Compressibility (1/GPa) = 0.01686214
#
# Stress axis : x y z
#
# Youngs Moduli (GPa) = 99.77503 70.70023 104.00592
#
# Poissons Ratio (x) = 0.14957 0.27757
# Poissons Ratio (y) = 0.21108 0.38226
# Poissons Ratio (z) = 0.26628 0.25985
#
# Static dielectric constant tensor:
#      x y z
#    x 4.790560 0.000000 0.266110 
#    y 0.000000 3.360200 0.000000 
#    z 0.266110 0.000000 3.886690 
# 
# 
# High freq. dielectric constant tensor:
#      x y z
#    x 1.786430 0.000000 -0.000540 
#    y 0.000000 1.748010 0.000000 
#    z -0.000540 0.000000 1.786860 
# 
# From -- ./inp_files/117996.got.cif
#   From: 2010.06.25/outbox.cif.g09.slc.cpg/sg15_59_cif.got.tgz:117996.got - 2010.06.28 07:06:18.
