data_PCOD8143389
_publ_section_title
;
Structure prediction by ZEFSAII (Michael W. Deem and Ramdas Pophale) SiO2 
 PCOD8143389
Probable space group: C 2/C
;
_chemical_formula_sum "Si O2"
_cell_formula_units_Z 56
_cell_length_a 11.847297
_cell_length_b 15.640226
_cell_length_c 14.265538
_cell_angle_alpha 90.000000
_cell_angle_beta 92.360536
_cell_angle_gamma 90.000000
_cell_volume 2641.081311
_symmetry_space_group_name_H-M "C 2/C"
_symmetry_group_IT_number 15
_symmetry_cell_setting 'monoclinic'
loop_
_space_group_symop_operation_xyz
x,y,z
-x,y,1/2-z
-x,-y,-z
x,-y,1/2+z
1/2+x,1/2+y,z
1/2-x,1/2+y,1/2-z
1/2-x,1/2-y,-z
1/2+x,1/2-y,1/2+z
loop_
_atom_site_type_symbol
_atom_site_label
_atom_site_fract_x
_atom_site_fract_y
_atom_site_fract_z
Si Si1 0.404169 0.568447 0.510920
Si Si2 0.968469 0.835145 0.845159
Si Si3 0.518351 0.880603 0.550447
Si Si4 0.804154 0.689481 0.785109
Si Si5 0.335543 0.962092 0.421132
Si Si6 0.437255 0.716849 0.654813
Si Si7 0.657663 0.225422 0.921188
O O1 0.500000 0.500000 0.500000
O O2 0.385060 0.609816 0.407333
O O3 0.291792 0.523132 0.545802
O O4 0.451222 0.642840 0.579211
O O5 0.910790 0.746392 0.814748
O O6 0.000000 0.886002 0.750000
O O7 0.085022 0.811300 0.901427
O O8 0.400456 0.919379 0.510949
O O9 0.494016 0.804516 0.621860
O O10 0.580312 0.849393 0.459114
O O11 0.600470 0.949886 0.603892
O O12 0.829033 0.595170 0.827024
O O13 0.694771 0.731191 0.829775
O O14 0.786764 0.688147 0.672239
O O15 0.500000 0.685394 0.750000
O O16 0.750000 0.250000 0.000000
#
# Coordination Sequence:
#
# PCOD8143389 Si02
#       7
#     8   8   8   8   8   8   8
#     4  11  24  42  66  91 132 174 221 276 338 395
#     4  10  21  40  66  92 122 171 222 266 327 405
#     4  11  22  41  66  95 133 172 224 272 338 398
#     4  10  21  41  67  96 129 175 222 273 337 409
#     4  10  23  41  63  96 132 175 218 277 337 406
#     4  11  23  42  66  96 130 175 221 274 336 408
#     4  11  22  37  69  95 129 168 220 277 330 396
#
# _framework density 21.203436
#
# number of rings (size 3 to 8) (size 9 to 14) (size 15 to 20)
#    0.000    1.429    2.857    1.714    2.000    2.857 
#    5.143    1.429    0.000    0.000    0.000    0.000 
#    0.000    0.000    0.000    0.000    0.000    0.000 
#
# Total GULP energy -347198.469047 kJ/mol
# GULP energy per Si atom -12399.945323 kJ/mol
# Density = 2.115518 g / cm^3
# Si number density = 21.203436 Si / 1000 Ang^3
#
#
#
# Elastic Constant Matrix: (Units=GPa)
#
#
# Indices 1 2 3 4 5 6 
#
# 1 116.0435 52.9325 54.5665 0.0000 -1.9595 0.0000
# 2 52.9325 101.0248 55.2991 0.0000 -9.7071 0.0000
# 3 54.5665 55.2991 144.8854 0.0000 -8.8733 0.0000
# 4 0.0000 0.0000 0.0000 12.0345 0.0000 -0.5923
# 5 -1.9595 -9.7071 -8.8733 0.0000 39.3864 0.0000
# 6 0.0000 0.0000 0.0000 -0.5923 0.0000 35.5779
#
#
#
# Elastic Compliance Matrix: (Units=1/GPa)
#
#
# Indices 1 2 3 4 5 6 
#
# 1 0.012166 -0.004986 -0.002755 0.000000 -0.001244 0.000000
# 2 -0.004986 0.014719 -0.003583 0.000000 0.002573 0.000000
# 3 -0.002755 -0.003583 0.009374 0.000000 0.001092 0.000000
# 4 0.000000 0.000000 0.000000 0.083163 0.000000 0.001385
# 5 -0.001244 0.002573 0.001092 0.000000 0.026208 0.000000
# 6 0.000000 0.000000 0.000000 0.001385 0.000000 0.028130
#
#
# Mechanical properties :
#
#
# Convention : Reuss Voigt Hill
#
# Bulk Modulus (GPa) = 73.46548 76.39441 74.92994
# Shear Modulus (GPa) = 24.88243 30.67680 27.77961
#
# Velocity S-wave (km/s) = 3.42937 3.80779 3.62352
# Velocity P-wave (km/s) = 7.09957 7.44579 7.27474
#
# Compressibility (1/GPa) = 0.01361184
#
# Stress axis : x y z
#
# Youngs Moduli (GPa) = 82.19373 67.93835 106.67883
#
# Poissons Ratio (x) = 0.33874 0.29393
# Poissons Ratio (y) = 0.40982 0.38219
# Poissons Ratio (z) = 0.22646 0.24339
#
# Static dielectric constant tensor:
#      x y z
#    x 4.035890 0.000000 -0.065840 
#    y 0.000000 3.697930 0.000000 
#    z -0.065840 0.000000 3.897470 
# 
# 
# High freq. dielectric constant tensor:
#      x y z
#    x 1.844940 0.000000 -0.007280 
#    y 0.000000 1.814340 0.000000 
#    z -0.007280 0.000000 1.837320 
# 
# From -- ./inp_files/144253.got.cif
#   From: 2010.06.25/outbox.cif.g09.slc.cpg/sg15_73_cif.got.tgz:144253.got - 2010.06.28 07:06:18.
