data_PCOD8143126
_publ_section_title
;
Structure prediction by ZEFSAII (Michael W. Deem and Ramdas Pophale) SiO2 
 PCOD8143126
Probable space group: C 2/C
;
_chemical_formula_sum "Si O2"
_cell_formula_units_Z 56
_cell_length_a 7.989492
_cell_length_b 22.850676
_cell_length_c 15.088936
_cell_angle_alpha 90.000000
_cell_angle_beta 91.235477
_cell_angle_gamma 90.000000
_cell_volume 2754.075619
_symmetry_space_group_name_H-M "C 2/C"
_symmetry_group_IT_number 15
_symmetry_cell_setting 'monoclinic'
loop_
_space_group_symop_operation_xyz
x,y,z
-x,y,1/2-z
-x,-y,-z
x,-y,1/2+z
1/2+x,1/2+y,z
1/2-x,1/2+y,1/2-z
1/2-x,1/2-y,-z
1/2+x,1/2-y,1/2+z
loop_
_atom_site_type_symbol
_atom_site_label
_atom_site_fract_x
_atom_site_fract_y
_atom_site_fract_z
Si Si1 0.253991 0.139993 0.932543
Si Si2 0.689209 0.515493 0.006027
Si Si3 0.693384 0.008100 0.303497
Si Si4 0.417912 0.823419 0.957814
Si Si5 0.684748 0.384864 0.238896
Si Si6 0.856451 0.559755 0.367394
Si Si7 0.400099 0.308084 0.425508
O O1 0.248992 0.071746 0.953757
O O2 0.263505 0.146135 0.826373
O O3 0.078215 0.167649 0.963512
O O4 0.418006 0.169238 0.978030
O O5 0.791983 0.462142 0.962393
O O6 0.500000 0.500000 0.000000
O O7 0.703367 0.526251 0.109947
O O8 0.504882 0.019631 0.332434
O O9 0.763840 0.047379 0.219981
O O10 0.700033 0.938313 0.289420
O O11 0.412360 0.873049 0.881130
O O12 0.426709 0.760870 0.910704
O O13 0.242308 0.825657 0.006743
O O14 0.500000 0.412409 0.250000
O O15 0.664589 0.333872 0.167188
#
# Coordination Sequence:
#
# PCOD8143126 Si02
#       7
#     8   8   8   8   8   8   8
#     4  11  22  41  66  94 126 172 221 269 324 395
#     4  12  23  38  63  94 133 170 212 272 330 391
#     4  11  23  38  62  92 133 166 211 265 329 403
#     4  11  23  44  66  91 134 169 223 270 333 392
#     4  10  21  40  62  96 130 168 220 269 325 391
#     4  11  24  40  60  98 129 169 214 260 337 398
#     4  10  24  43  66  94 125 175 222 276 320 388
#
# _framework density 20.333501999999999
#
# number of rings (size 3 to 8) (size 9 to 14) (size 15 to 20)
#    0.000    1.143    2.857    4.286    2.000    0.571 
#    7.714    0.000    0.000    3.429    0.000    0.000 
#    0.000    0.000    0.000    0.000    0.000    0.000 
#
# Total GULP energy -346952.155522 kJ/mol
# GULP energy per Si atom -12391.148411 kJ/mol
# Density = 2.028722 g / cm^3
# Si number density = 20.333502 Si / 1000 Ang^3
#
#
#
# Elastic Constant Matrix: (Units=GPa)
#
#
# Indices 1 2 3 4 5 6 
#
# 1 90.2960 45.9661 30.1343 0.0000 -0.3322 0.0000
# 2 45.9661 138.3619 51.1295 0.0000 5.1645 0.0000
# 3 30.1343 51.1295 126.3357 0.0000 21.0548 0.0000
# 4 0.0000 0.0000 0.0000 33.3226 0.0000 3.5538
# 5 -0.3322 5.1645 21.0548 0.0000 28.3334 0.0000
# 6 0.0000 0.0000 0.0000 3.5538 0.0000 34.9576
#
#
#
# Elastic Compliance Matrix: (Units=1/GPa)
#
#
# Indices 1 2 3 4 5 6 
#
# 1 0.013767 -0.003881 -0.002120 0.000000 0.002445 0.000000
# 2 -0.003881 0.009626 -0.003047 0.000000 0.000464 0.000000
# 3 -0.002120 -0.003047 0.010918 0.000000 -0.007583 0.000000
# 4 0.000000 0.000000 0.000000 0.030339 0.000000 -0.003084
# 5 0.002445 0.000464 -0.007583 0.000000 0.040873 0.000000
# 6 0.000000 0.000000 0.000000 -0.003084 0.000000 0.028920
#
#
# Mechanical properties :
#
#
# Convention : Reuss Voigt Hill
#
# Bulk Modulus (GPa) = 61.67874 67.71702 64.69788
# Shear Modulus (GPa) = 31.65677 34.50698 33.08188
#
# Velocity S-wave (km/s) = 3.95001 4.12400 4.03794
# Velocity P-wave (km/s) = 7.15562 7.48678 7.32307
#
# Compressibility (1/GPa) = 0.01621304
#
# Stress axis : x y z
#
# Youngs Moduli (GPa) = 72.63658 103.88992 91.59069
#
# Poissons Ratio (x) = 0.40323 0.19421
# Poissons Ratio (y) = 0.28193 0.27909
# Poissons Ratio (z) = 0.15402 0.31657
#
# Static dielectric constant tensor:
#      x y z
#    x 3.798390 0.000000 -0.219710 
#    y 0.000000 3.958860 0.000000 
#    z -0.219710 0.000000 2.937470 
# 
# 
# High freq. dielectric constant tensor:
#      x y z
#    x 1.802790 0.000000 0.003770 
#    y 0.000000 1.787640 0.000000 
#    z 0.003770 0.000000 1.802820 
# 
# From -- ./inp_files/136455.got.cif
#   From: 2010.06.25/outbox.cif.g09.slc.cpg/sg15_69_cif.got.tgz:136455.got - 2010.06.28 07:06:18.
