data_PCOD8143527
_publ_section_title
;
Structure prediction by ZEFSAII (Michael W. Deem and Ramdas Pophale) SiO2 
 PCOD8143527
Probable space group: C 2/C
;
_chemical_formula_sum "Si O2"
_cell_formula_units_Z 40
_cell_length_a 10.418830
_cell_length_b 15.390910
_cell_length_c 10.935600
_cell_angle_alpha 90.000000
_cell_angle_beta 86.636198
_cell_angle_gamma 90.000000
_cell_volume 1750.559893
_symmetry_space_group_name_H-M "C 2/C"
_symmetry_group_IT_number 15
_symmetry_cell_setting 'monoclinic'
loop_
_space_group_symop_operation_xyz
x,y,z
-x,y,1/2-z
-x,-y,-z
x,-y,1/2+z
1/2+x,1/2+y,z
1/2-x,1/2+y,1/2-z
1/2-x,1/2-y,-z
1/2+x,1/2-y,1/2+z
loop_
_atom_site_type_symbol
_atom_site_label
_atom_site_fract_x
_atom_site_fract_y
_atom_site_fract_z
Si Si1 0.075659 0.025348 0.873945
Si Si2 0.643181 0.994502 0.147194
Si Si3 0.379391 0.166381 0.688781
Si Si4 0.375086 0.717856 0.679474
Si Si5 0.025515 0.626299 0.456132
O O1 0.209122 0.971457 0.863453
O O2 0.000000 0.010111 0.750000
O O3 0.113533 0.126215 0.889358
O O4 0.000000 0.000000 0.000000
O O5 0.545370 0.076594 0.152175
O O6 0.626191 0.935520 0.269495
O O7 0.615436 0.937623 0.028404
O O8 0.500000 0.212264 0.750000
O O9 0.250287 0.218633 0.726763
O O10 0.408205 0.166607 0.543073
O O11 0.500000 0.736148 0.750000
O O12 0.373182 0.798833 0.587044
#
# Coordination Sequence:
#
# PCOD8143527 Si02
#       5
#     8   8   8   8   8
#     4  10  23  44  66  94 136 180 222 283 344 411
#     4   9  21  38  66  96 126 174 229 275 336 407
#     4   9  20  39  62  91 132 171 218 282 335 403
#     4  10  23  41  63  98 137 173 222 284 341 407
#     4  10  21  40  69  96 131 174 222 283 340 404
#
# _framework density 22.849830000000001
#
# number of rings (size 3 to 8) (size 9 to 14) (size 15 to 20)
#    0.000    2.400    0.000    0.000    8.400   12.000 
#    0.000    3.000    0.000    0.000    0.000    0.000 
#    0.000    0.000    0.000    0.000    0.000    0.000 
#
# Total GULP energy -247850.679131 kJ/mol
# GULP energy per Si atom -12392.533957 kJ/mol
# Density = 2.279782 g / cm^3
# Si number density = 22.849830 Si / 1000 Ang^3
#
#
#
# Elastic Constant Matrix: (Units=GPa)
#
#
# Indices 1 2 3 4 5 6 
#
# 1 152.6003 29.0841 49.0059 0.0000 -14.6499 0.0000
# 2 29.0841 75.9132 31.3312 0.0000 -7.0833 0.0000
# 3 49.0059 31.3312 113.7924 0.0000 -20.6481 0.0000
# 4 0.0000 0.0000 0.0000 26.8497 0.0000 -2.7312
# 5 -14.6499 -7.0833 -20.6481 0.0000 37.8863 0.0000
# 6 0.0000 0.0000 0.0000 -2.7312 0.0000 10.7213
#
#
#
# Elastic Compliance Matrix: (Units=1/GPa)
#
#
# Indices 1 2 3 4 5 6 
#
# 1 0.007873 -0.001798 -0.002668 0.000000 0.001254 0.000000
# 2 -0.001798 0.015285 -0.003376 0.000000 0.000323 0.000000
# 3 -0.002668 -0.003376 0.011724 0.000000 0.004727 0.000000
# 4 0.000000 0.000000 0.000000 0.038235 0.000000 0.009740
# 5 0.001254 0.000323 0.004727 0.000000 0.029516 0.000000
# 6 0.000000 0.000000 0.000000 0.009740 0.000000 0.095754
#
#
# Mechanical properties :
#
#
# Convention : Reuss Voigt Hill
#
# Bulk Modulus (GPa) = 52.08663 62.34981 57.21822
# Shear Modulus (GPa) = 22.67878 30.61709 26.64794
#
# Velocity S-wave (km/s) = 3.15384 3.66447 3.41870
# Velocity P-wave (km/s) = 6.00890 6.72685 6.37799
#
# Compressibility (1/GPa) = 0.01919879
#
# Stress axis : x y z
#
# Youngs Moduli (GPa) = 127.01726 65.42291 85.29493
#
# Poissons Ratio (x) = 0.11764 0.22756
# Poissons Ratio (y) = 0.22840 0.28792
# Poissons Ratio (z) = 0.33887 0.22084
#
# Static dielectric constant tensor:
#      x y z
#    x 4.615900 0.000000 -0.176770 
#    y 0.000000 4.028410 0.000000 
#    z -0.176770 0.000000 4.155710 
# 
# 
# High freq. dielectric constant tensor:
#      x y z
#    x 1.915220 0.000000 -0.007990 
#    y 0.000000 1.873820 0.000000 
#    z -0.007990 0.000000 1.900670 
# 
# From -- ./inp_files/85525.got.cif
#   From: 2010.06.25/outbox.cif.g09.slc.cpg/sg15_43_cif.got.tgz:85525.got - 2010.06.28 07:06:18.
