data_PCOD8143614
_publ_section_title
;
Structure prediction by ZEFSAII (Michael W. Deem and Ramdas Pophale) SiO2 
 PCOD8143614
Probable space group: C 2/C
;
_chemical_formula_sum "Si O2"
_cell_formula_units_Z 44
_cell_length_a 6.618773
_cell_length_b 24.110047
_cell_length_c 15.097021
_cell_angle_alpha 90.000000
_cell_angle_beta 56.946882
_cell_angle_gamma 90.000000
_cell_volume 2019.279658
_symmetry_space_group_name_H-M "C 2/C"
_symmetry_group_IT_number 15
_symmetry_cell_setting 'monoclinic'
loop_
_space_group_symop_operation_xyz
x,y,z
-x,y,1/2-z
-x,-y,-z
x,-y,1/2+z
1/2+x,1/2+y,z
1/2-x,1/2+y,1/2-z
1/2-x,1/2-y,-z
1/2+x,1/2-y,1/2+z
loop_
_atom_site_type_symbol
_atom_site_label
_atom_site_fract_x
_atom_site_fract_y
_atom_site_fract_z
Si Si1 0.614081 0.581003 0.469475
Si Si2 0.844314 0.168859 0.446477
Si Si3 0.500000 0.306849 0.250000
Si Si4 0.645732 0.112079 0.916513
Si Si5 0.893299 0.475675 0.370824
Si Si6 0.234503 0.730264 0.651707
O O1 0.569360 0.625470 0.400360
O O2 0.667936 0.610879 0.548274
O O3 0.842535 0.541470 0.392394
O O4 0.362412 0.551457 0.548926
O O5 0.600571 0.136202 0.487899
O O6 0.867493 0.210112 0.358053
O O7 0.840910 0.198864 0.542330
O O8 0.734499 0.345847 0.182045
O O9 0.557429 0.267616 0.321725
O O10 0.593627 0.050205 0.889554
O O11 0.000000 0.462118 0.250000
O O12 0.000000 0.700271 0.750000
#
# Coordination Sequence:
#
# PCOD8143614 Si02
#       6
#     8   8   4   8   8   8
#     4  10  21  41  61  89 127 165 203 263 319 378
#     4  10  23  40  62  86 129 164 205 266 319 372
#     4  12  22  34  66  96 120 166 224 262 314 372
#     4  11  21  36  63  91 120 162 211 265 311 376
#     4  10  22  38  62  91 124 160 209 259 319 382
#     4  11  23  41  60  91 124 165 213 264 316 379
#
# _framework density 21.789947999999999
#
# number of rings (size 3 to 8) (size 9 to 14) (size 15 to 20)
#    0.000    1.455    3.636    1.636    2.545    2.182 
#    3.273    0.000    0.000    0.000    0.000    0.000 
#    0.000    0.000    0.000    0.000    0.000    0.000 
#
# Total GULP energy -272585.243142 kJ/mol
# GULP energy per Si atom -12390.238325 kJ/mol
# Density = 2.174035 g / cm^3
# Si number density = 21.789948 Si / 1000 Ang^3
#
#
#
# Elastic Constant Matrix: (Units=GPa)
#
#
# Indices 1 2 3 4 5 6 
#
# 1 123.3364 55.7674 28.8009 0.0000 23.7393 0.0000
# 2 55.7674 106.6843 20.8770 0.0000 15.3915 0.0000
# 3 28.8009 20.8770 51.0229 0.0000 9.8562 0.0000
# 4 0.0000 0.0000 0.0000 36.1451 0.0000 14.9546
# 5 23.7393 15.3915 9.8562 0.0000 27.1280 0.0000
# 6 0.0000 0.0000 0.0000 14.9546 0.0000 39.1688
#
#
#
# Elastic Compliance Matrix: (Units=1/GPa)
#
#
# Indices 1 2 3 4 5 6 
#
# 1 0.012468 -0.004798 -0.003756 0.000000 -0.006823 0.000000
# 2 -0.004798 0.012596 -0.002018 0.000000 -0.002215 0.000000
# 3 -0.003756 -0.002018 0.023326 0.000000 -0.004043 0.000000
# 4 0.000000 0.000000 0.000000 0.032856 0.000000 -0.012545
# 5 -0.006823 -0.002215 -0.004043 0.000000 0.045559 0.000000
# 6 0.000000 0.000000 0.000000 -0.012545 0.000000 0.030320
#
#
# Mechanical properties :
#
#
# Convention : Reuss Voigt Hill
#
# Bulk Modulus (GPa) = 36.70319 54.65934 45.68126
# Shear Modulus (GPa) = 26.68787 32.19492 29.44140
#
# Velocity S-wave (km/s) = 3.50348 3.84801 3.67978
# Velocity P-wave (km/s) = 5.76598 6.69941 6.25014
#
# Compressibility (1/GPa) = 0.02724559
#
# Stress axis : x y z
#
# Youngs Moduli (GPa) = 80.20649 79.39150 42.87057
#
# Poissons Ratio (x) = 0.38090 0.16104
# Poissons Ratio (y) = 0.38481 0.08650
# Poissons Ratio (z) = 0.30129 0.16019
#
# Static dielectric constant tensor:
#      x y z
#    x 4.027000 0.000000 0.095910 
#    y 0.000000 4.308630 0.000000 
#    z 0.095910 0.000000 3.709090 
# 
# 
# High freq. dielectric constant tensor:
#      x y z
#    x 1.868950 0.000000 0.007140 
#    y 0.000000 1.849990 0.000000 
#    z 0.007140 0.000000 1.835320 
# 
# From -- ./inp_files/129805.got.cif
#   From: 2010.06.25/outbox.cif.g09.slc.cpg/sg15_65_cif.got.tgz:129805.got - 2010.06.28 07:06:18.
