data_PCOD8143181
_publ_section_title
;
Structure prediction by ZEFSAII (Michael W. Deem and Ramdas Pophale) SiO2 
 PCOD8143181
Probable space group: C 2/C
;
_chemical_formula_sum "Si O2"
_cell_formula_units_Z 48
_cell_length_a 8.544389
_cell_length_b 14.315620
_cell_length_c 26.279946
_cell_angle_alpha 90.000000
_cell_angle_beta 39.032786
_cell_angle_gamma 90.000000
_cell_volume 2024.389871
_symmetry_space_group_name_H-M "C 2/C"
_symmetry_group_IT_number 15
_symmetry_cell_setting 'monoclinic'
loop_
_space_group_symop_operation_xyz
x,y,z
-x,y,1/2-z
-x,-y,-z
x,-y,1/2+z
1/2+x,1/2+y,z
1/2-x,1/2+y,1/2-z
1/2-x,1/2-y,-z
1/2+x,1/2-y,1/2+z
loop_
_atom_site_type_symbol
_atom_site_label
_atom_site_fract_x
_atom_site_fract_y
_atom_site_fract_z
Si Si1 0.666404 0.870313 0.793424
Si Si2 0.599799 0.056701 0.673883
Si Si3 0.460266 0.242211 0.866834
Si Si4 0.647772 0.287165 0.159248
Si Si5 0.132239 0.947251 0.082107
Si Si6 0.139875 0.387566 0.915387
O O1 0.879921 0.815311 0.708515
O O2 0.434762 0.799956 0.853924
O O3 0.743964 0.893213 0.831632
O O4 0.570650 0.965025 0.790996
O O5 0.500000 0.105291 0.750000
O O6 0.544826 0.133170 0.645483
O O7 0.893248 0.037538 0.606628
O O8 0.566618 0.236151 0.897393
O O9 0.183624 0.284881 0.930039
O O10 0.500000 0.297920 0.250000
O O11 0.600829 0.378473 0.137795
O O12 0.199194 0.045362 0.089656
O O13 0.349015 0.911222 0.989907
#
# Coordination Sequence:
#
# PCOD8143181 Si02
#       6
#     8   8   8   8   8   8
#     4  11  23  40  66  94 125 164 209 259 307 368
#     4  12  23  40  65  93 124 162 210 259 311 369
#     4  11  23  40  66  96 125 163 209 257 310 368
#     4  10  21  40  63  93 124 159 211 260 309 365
#     4  11  25  42  64  92 127 167 207 256 310 368
#     4  11  24  42  61  92 131 166 208 255 308 367
#
# _framework density 23.710849
#
# number of rings (size 3 to 8) (size 9 to 14) (size 15 to 20)
#    0.000    1.000    0.000    9.000    0.000    5.333 
#    0.000    0.000    0.000    0.000    0.000    0.000 
#    0.000    0.000    0.000    0.000    0.000    0.000 
#
# Total GULP energy -297415.753882 kJ/mol
# GULP energy per Si atom -12392.323078 kJ/mol
# Density = 2.365688 g / cm^3
# Si number density = 23.710849 Si / 1000 Ang^3
#
#
#
# Elastic Constant Matrix: (Units=GPa)
#
#
# Indices 1 2 3 4 5 6 
#
# 1 87.5003 4.0441 12.1220 -0.0019 -17.0631 0.0002
# 2 4.0441 98.5183 20.0354 -0.0001 -8.7821 -0.0004
# 3 12.1220 20.0354 37.0860 -0.0109 -2.1904 0.0072
# 4 -0.0019 -0.0001 -0.0109 24.9860 0.0027 -0.7435
# 5 -17.0631 -8.7821 -2.1904 0.0027 36.2145 0.0012
# 6 0.0002 -0.0004 0.0072 -0.7435 0.0012 36.0330
#
#
#
# Elastic Compliance Matrix: (Units=1/GPa)
#
#
# Indices 1 2 3 4 5 6 
#
# 1 0.013206 0.000912 -0.004445 -0.000002 0.006175 0.000001
# 2 0.000912 0.011678 -0.006438 -0.000003 0.002872 0.000001
# 3 -0.004445 -0.006438 0.031793 0.000013 -0.001732 -0.000006
# 4 -0.000002 -0.000003 0.000013 0.040047 -0.000004 0.000826
# 5 0.006175 0.002872 -0.001732 -0.000004 0.031114 -0.000001
# 6 0.000001 0.000001 -0.000006 0.000826 -0.000001 0.027769
#
#
# Mechanical properties :
#
#
# Convention : Reuss Voigt Hill
#
# Bulk Modulus (GPa) = 27.22053 32.83417 30.02735
# Shear Modulus (GPa) = 26.62493 31.90688 29.26591
#
# Velocity S-wave (km/s) = 3.35461 3.67231 3.51705
# Velocity P-wave (km/s) = 5.14875 5.64438 5.40225
#
# Compressibility (1/GPa) = 0.03673698
#
# Stress axis : x y z
#
# Youngs Moduli (GPa) = 75.72179 85.62959 31.45374
#
# Poissons Ratio (x) = -0.07812 0.13980
# Poissons Ratio (y) = -0.06908 0.20249
# Poissons Ratio (z) = 0.33656 0.55125
#
# Static dielectric constant tensor:
#      x y z
#    x 4.721000 0.000000 -0.366540 
#    y 0.000000 4.368590 0.000000 
#    z -0.366540 0.000000 4.085400 
# 
# 
# High freq. dielectric constant tensor:
#      x y z
#    x 1.962680 0.000000 -0.014320 
#    y 0.000000 1.951210 0.000000 
#    z -0.014320 0.000000 1.913190 
# 
# From -- ./inp_files/289019.got.cif
#   From: 2010.06.25/outbox.cif.g09.slc.cpg/sg15_145_cif.got.tgz:289019.got - 2010.06.28 07:06:18.
