data_PCOD8143241
_publ_section_title
;
Structure prediction by ZEFSAII (Michael W. Deem and Ramdas Pophale) SiO2 
 PCOD8143241
Probable space group: C 2/C
;
_chemical_formula_sum "Si O2"
_cell_formula_units_Z 48
_cell_length_a 9.487698
_cell_length_b 21.801427
_cell_length_c 11.488459
_cell_angle_alpha 90.000000
_cell_angle_beta 99.583769
_cell_angle_gamma 90.000000
_cell_volume 2343.168457
_symmetry_space_group_name_H-M "C 2/C"
_symmetry_group_IT_number 15
_symmetry_cell_setting 'monoclinic'
loop_
_space_group_symop_operation_xyz
x,y,z
-x,y,1/2-z
-x,-y,-z
x,-y,1/2+z
1/2+x,1/2+y,z
1/2-x,1/2+y,1/2-z
1/2-x,1/2-y,-z
1/2+x,1/2-y,1/2+z
loop_
_atom_site_type_symbol
_atom_site_label
_atom_site_fract_x
_atom_site_fract_y
_atom_site_fract_z
Si Si1 0.608424 0.468314 0.664521
Si Si2 0.380449 0.808718 0.489194
Si Si3 0.837171 0.369961 0.724378
Si Si4 0.088885 0.193493 0.866395
Si Si5 0.695762 0.183583 0.035016
Si Si6 0.585178 0.407518 0.045876
O O1 0.500000 0.487200 0.750000
O O2 0.746165 0.432033 0.729481
O O3 0.529233 0.422600 0.567539
O O4 0.655419 0.531405 0.609433
O O5 0.311037 0.838264 0.596187
O O6 0.260717 0.817994 0.370290
O O7 0.414792 0.737074 0.520754
O O8 0.534214 0.833848 0.470706
O O9 0.798032 0.322072 0.823037
O O10 0.000000 0.391799 0.750000
O O11 0.000000 0.227393 0.750000
O O12 0.001772 0.130802 0.870294
O O13 0.750000 0.250000 0.000000
O O14 0.787924 0.131454 0.989138
#
# Coordination Sequence:
#
# PCOD8143241 Si02
#       6
#     8   8   8   8   8   8
#     4  11  22  42  61  90 123 175 217 256 309 383
#     4  10  22  38  63  92 127 164 206 255 330 381
#     4  10  21  40  64  92 125 169 211 260 325 380
#     4  11  21  39  61  92 128 166 203 259 317 381
#     4  11  21  39  65 100 131 160 212 272 321 380
#     4  11  23  38  64  92 128 163 217 262 311 379
#
# _framework density 20.485081999999998
#
# number of rings (size 3 to 8) (size 9 to 14) (size 15 to 20)
#    0.000    1.333    5.000    2.000    0.000    0.000 
#    0.000    7.500    0.000    0.000    0.000    0.000 
#    0.000    0.000    0.000    0.000    0.000    0.000 
#
# Total GULP energy -297440.834060 kJ/mol
# GULP energy per Si atom -12393.368086 kJ/mol
# Density = 2.043846 g / cm^3
# Si number density = 20.485082 Si / 1000 Ang^3
#
#
#
# Elastic Constant Matrix: (Units=GPa)
#
#
# Indices 1 2 3 4 5 6 
#
# 1 130.2130 81.6377 48.3818 0.0000 -7.1092 0.0000
# 2 81.6377 109.6471 34.3740 0.0000 -0.1364 0.0000
# 3 48.3818 34.3740 69.8090 0.0000 3.6212 0.0000
# 4 0.0000 0.0000 0.0000 34.1759 0.0000 -3.2876
# 5 -7.1092 -0.1364 3.6212 0.0000 29.5903 0.0000
# 6 0.0000 0.0000 0.0000 -3.2876 0.0000 33.3541
#
#
#
# Elastic Compliance Matrix: (Units=1/GPa)
#
#
# Indices 1 2 3 4 5 6 
#
# 1 0.017177 -0.010608 -0.006937 0.000000 0.004927 0.000000
# 2 -0.010608 0.017351 -0.001070 0.000000 -0.002338 0.000000
# 3 -0.006937 -0.001070 0.019872 0.000000 -0.004103 0.000000
# 4 0.000000 0.000000 0.000000 0.029541 0.000000 0.002912
# 5 0.004927 -0.002338 -0.004103 0.000000 0.035470 0.000000
# 6 0.000000 0.000000 0.000000 0.002912 0.000000 0.030268
#
#
# Mechanical properties :
#
#
# Convention : Reuss Voigt Hill
#
# Bulk Modulus (GPa) = 58.24184 70.93959 64.59072
# Shear Modulus (GPa) = 25.95600 29.10908 27.53254
#
# Velocity S-wave (km/s) = 3.56345 3.77369 3.67008
# Velocity P-wave (km/s) = 6.73973 7.32753 7.03977
#
# Compressibility (1/GPa) = 0.01716979
#
# Stress axis : x y z
#
# Youngs Moduli (GPa) = 58.21680 57.63249 50.32151
#
# Poissons Ratio (x) = 0.61139 0.34907
# Poissons Ratio (y) = 0.61759 0.05386
# Poissons Ratio (z) = 0.40384 0.06168
#
# Static dielectric constant tensor:
#      x y z
#    x 4.112080 0.000000 0.199250 
#    y 0.000000 3.616250 0.000000 
#    z 0.199250 0.000000 3.673180 
# 
# 
# High freq. dielectric constant tensor:
#      x y z
#    x 1.811810 0.000000 0.006410 
#    y 0.000000 1.796630 0.000000 
#    z 0.006410 0.000000 1.785760 
# 
# From -- ./inp_files/79277.got.cif
#   From: 2010.06.25/outbox.cif.g09.slc.cpg/sg15_40_cif.got.tgz:79277.got - 2010.06.28 07:06:18.
