data_PCOD8143408
_publ_section_title
;
Structure prediction by ZEFSAII (Michael W. Deem and Ramdas Pophale) SiO2 
 PCOD8143408
Probable space group: C 2/C
;
_chemical_formula_sum "Si O2"
_cell_formula_units_Z 60
_cell_length_a 21.558454
_cell_length_b 8.635321
_cell_length_c 23.483840
_cell_angle_alpha 90.000000
_cell_angle_beta 35.770315
_cell_angle_gamma 90.000000
_cell_volume 2555.509523
_symmetry_space_group_name_H-M "C 2/C"
_symmetry_group_IT_number 15
_symmetry_cell_setting 'monoclinic'
loop_
_space_group_symop_operation_xyz
x,y,z
-x,y,1/2-z
-x,-y,-z
x,-y,1/2+z
1/2+x,1/2+y,z
1/2-x,1/2+y,1/2-z
1/2-x,1/2-y,-z
1/2+x,1/2-y,1/2+z
loop_
_atom_site_type_symbol
_atom_site_label
_atom_site_fract_x
_atom_site_fract_y
_atom_site_fract_z
Si Si1 0.000000 0.792067 0.250000
Si Si2 0.278799 0.596994 0.330855
Si Si3 0.415607 0.521509 0.915779
Si Si4 0.429420 0.580356 0.116362
Si Si5 0.105571 0.587471 0.902733
Si Si6 0.249129 0.427768 0.188411
Si Si7 0.117266 0.232852 0.141561
Si Si8 0.694586 0.937836 0.611894
O O1 0.004892 0.897492 0.189217
O O2 0.105283 0.690174 0.171075
O O3 0.382477 0.592621 0.214598
O O4 0.196848 0.452687 0.382419
O O5 0.224651 0.756042 0.351845
O O6 0.317851 0.611092 0.366715
O O7 0.458060 0.496692 0.949457
O O8 0.386064 0.347020 0.917495
O O9 0.307201 0.621373 0.002692
O O10 0.429693 0.735111 0.078123
O O11 0.364422 0.462257 0.127041
O O12 0.157532 0.541255 0.803660
O O13 0.000000 0.500000 0.000000
O O14 0.207242 0.535416 0.169507
O O15 0.168558 0.401922 0.098639
O O16 0.000000 0.263689 0.250000
#
# Coordination Sequence:
#
# PCOD8143408 Si02
#       8
#     4   8   8   8   8   8   8   8
#     4  12  26  48  70  98 146 182 240 298 348 414
#     4   9  19  39  65  94 135 172 220 274 336 396
#     4  12  25  44  73 100 136 186 237 287 354 425
#     4  10  21  40  66  95 133 172 218 273 343 406
#     4  10  22  39  64 103 132 171 228 279 342 411
#     4   9  22  43  64  88 140 179 217 280 340 407
#     4  11  20  43  72 100 137 186 231 286 344 415
#     4  11  26  45  68 102 138 186 234 291 354 411
#
# _framework density 23.478684000000001
#
# number of rings (size 3 to 8) (size 9 to 14) (size 15 to 20)
#    0.000    1.600    2.667    0.800    3.733    5.867 
#    4.800    0.000    0.000    0.000    0.000    0.000 
#    0.000    0.000    0.000    0.000    0.000    0.000 
#
# Total GULP energy -371675.894483 kJ/mol
# GULP energy per Si atom -12389.196483 kJ/mol
# Density = 2.342525 g / cm^3
# Si number density = 23.478684 Si / 1000 Ang^3
#
#
#
# Elastic Constant Matrix: (Units=GPa)
#
#
# Indices 1 2 3 4 5 6 
#
# 1 90.7242 35.9247 16.3485 -0.0001 -21.1209 -0.0011
# 2 35.9247 69.1456 30.8854 0.0018 -8.4201 -0.0016
# 3 16.3485 30.8854 102.0426 -0.0003 -18.4614 0.0002
# 4 -0.0001 0.0018 -0.0003 10.3712 -0.0010 -5.2448
# 5 -21.1209 -8.4201 -18.4614 -0.0010 32.6549 0.0007
# 6 -0.0011 -0.0016 0.0002 -5.2448 0.0007 31.8050
#
#
#
# Elastic Compliance Matrix: (Units=1/GPa)
#
#
# Indices 1 2 3 4 5 6 
#
# 1 0.015999 -0.007854 0.001470 0.000003 0.009154 0.000000
# 2 -0.007854 0.020656 -0.005513 -0.000004 -0.002871 0.000000
# 3 0.001470 -0.005513 0.012418 0.000002 0.006550 0.000000
# 4 0.000003 -0.000004 0.000002 0.105194 0.000004 0.017347
# 5 0.009154 -0.002871 0.006550 0.000004 0.039506 0.000000
# 6 0.000000 0.000000 0.000000 0.017347 0.000000 0.034302
#
#
# Mechanical properties :
#
#
# Convention : Reuss Voigt Hill
#
# Bulk Modulus (GPa) = 39.55945 47.58105 43.57025
# Shear Modulus (GPa) = 19.20903 26.88314 23.04609
#
# Velocity S-wave (km/s) = 2.86343 3.38746 3.13641
# Velocity P-wave (km/s) = 5.27428 5.96737 5.63149
#
# Compressibility (1/GPa) = 0.02527841
#
# Stress axis : x y z
#
# Youngs Moduli (GPa) = 62.50580 48.41274 80.52908
#
# Poissons Ratio (x) = 0.38024 -0.11839
# Poissons Ratio (y) = 0.49092 0.44395
# Poissons Ratio (z) = -0.09189 0.26690
#
# Static dielectric constant tensor:
#      x y z
#    x 113.720780 -0.005530 20.558280 
#    y -0.005530 4.167300 -0.001040 
#    z 20.558280 -0.001040 8.189160 
# 
# 
# High freq. dielectric constant tensor:
#      x y z
#    x 1.937890 0.000000 -0.008040 
#    y 0.000000 1.913990 0.000000 
#    z -0.008040 0.000000 1.941690 
# 
# From -- ./inp_files/302049.got.cif
#   From: 2010.06.25/outbox.cif.g09.slc.cpg/sg15_152_cif.got.tgz:302049.got - 2010.06.28 07:06:18.
