data_PCOD8143755
_publ_section_title
;
Structure prediction by ZEFSAII (Michael W. Deem and Ramdas Pophale) SiO2 
 PCOD8143755
Probable space group: C 2/C
;
_chemical_formula_sum "Si O2"
_cell_formula_units_Z 52
_cell_length_a 10.145855
_cell_length_b 15.725669
_cell_length_c 22.575051
_cell_angle_alpha 90.000000
_cell_angle_beta 48.299326
_cell_angle_gamma 90.000000
_cell_volume 2689.256118
_symmetry_space_group_name_H-M "C 2/C"
_symmetry_group_IT_number 15
_symmetry_cell_setting 'monoclinic'
loop_
_space_group_symop_operation_xyz
x,y,z
-x,y,1/2-z
-x,-y,-z
x,-y,1/2+z
1/2+x,1/2+y,z
1/2-x,1/2+y,1/2-z
1/2-x,1/2-y,-z
1/2+x,1/2-y,1/2+z
loop_
_atom_site_type_symbol
_atom_site_label
_atom_site_fract_x
_atom_site_fract_y
_atom_site_fract_z
Si Si1 0.805339 0.784006 0.827820
Si Si2 0.168825 0.501746 0.528149
Si Si3 0.791767 0.822614 0.033116
Si Si4 0.159216 0.847019 0.969563
Si Si5 0.527225 0.726816 0.633018
Si Si6 0.000000 0.899561 0.250000
Si Si7 0.270747 0.973490 0.623065
O O1 0.759224 0.710785 0.887735
O O2 0.657957 0.776934 0.820222
O O3 0.000000 0.760329 0.750000
O O4 0.808174 0.878856 0.853005
O O5 0.173599 0.597001 0.551118
O O6 0.277745 0.443577 0.540827
O O7 0.247669 0.493713 0.438614
O O8 0.969846 0.468563 0.586003
O O9 0.750000 0.750000 0.000000
O O10 0.999911 0.845891 0.969871
O O11 0.318253 0.791819 0.893736
O O12 0.094434 0.813916 0.052213
O O13 0.492569 0.657365 0.693681
O O14 0.830791 0.961566 0.303488
#
# Coordination Sequence:
#
# PCOD8143755 Si02
#       7
#     8   8   8   8   8   4   8
#     4  11  23  42  59  90 130 165 194 261 318 372
#     4  11  22  41  63  93 121 164 211 260 306 380
#     4  11  24  37  65  96 120 163 214 257 310 372
#     4  10  21  41  64  90 126 163 207 263 311 371
#     4  10  23  39  64  91 124 161 210 253 320 368
#     4  12  24  40  64  96 120 170 206 268 302 382
#     4  11  23  38  67  91 123 161 212 254 313 378
#
# _framework density 19.336202
#
# number of rings (size 3 to 8) (size 9 to 14) (size 15 to 20)
#    0.000    1.231    5.385    0.462    4.308    0.000 
#    0.000    0.000    1.692    0.000    0.000    0.000 
#    0.000    0.000    0.000    0.000    0.000    0.000 
#
# Total GULP energy -322425.432942 kJ/mol
# GULP energy per Si atom -12400.978190 kJ/mol
# Density = 1.929219 g / cm^3
# Si number density = 19.336202 Si / 1000 Ang^3
#
#
#
# Elastic Constant Matrix: (Units=GPa)
#
#
# Indices 1 2 3 4 5 6 
#
# 1 94.0527 30.8554 34.0356 0.0000 -10.9900 0.0000
# 2 30.8554 112.4399 34.9942 0.0000 -5.1203 0.0000
# 3 34.0356 34.9942 89.2394 0.0000 -17.7298 0.0001
# 4 0.0000 0.0000 0.0000 37.6611 0.0000 2.8387
# 5 -10.9900 -5.1203 -17.7298 0.0000 20.4135 -0.0001
# 6 0.0000 0.0000 0.0001 2.8387 -0.0001 39.3342
#
#
#
# Elastic Compliance Matrix: (Units=1/GPa)
#
#
# Indices 1 2 3 4 5 6 
#
# 1 0.013032 -0.002377 -0.003339 0.000000 0.003520 0.000000
# 2 -0.002377 0.010584 -0.003590 0.000000 -0.001743 0.000000
# 3 -0.003339 -0.003590 0.016135 0.000000 0.011316 0.000000
# 4 0.000000 0.000000 0.000000 0.026698 0.000000 -0.001927
# 5 0.003520 -0.001743 0.011316 0.000000 0.060273 0.000000
# 6 0.000000 0.000000 0.000000 -0.001927 0.000000 0.025562
#
#
# Mechanical properties :
#
#
# Convention : Reuss Voigt Hill
#
# Bulk Modulus (GPa) = 47.30544 55.05584 51.18064
# Shear Modulus (GPa) = 28.09909 32.53822 30.31865
#
# Velocity S-wave (km/s) = 3.81620 4.10660 3.96406
# Velocity P-wave (km/s) = 6.62840 7.14285 6.89043
#
# Compressibility (1/GPa) = 0.02113922
#
# Stress axis : x y z
#
# Youngs Moduli (GPa) = 76.73652 94.48397 61.97583
#
# Poissons Ratio (x) = 0.22455 0.20693
# Poissons Ratio (y) = 0.18238 0.22250
# Poissons Ratio (z) = 0.25622 0.33921
#
# Static dielectric constant tensor:
#      x y z
#    x 3.554950 0.000000 -0.231460 
#    y 0.000000 4.459320 0.000000 
#    z -0.231460 0.000000 3.459210 
# 
# 
# High freq. dielectric constant tensor:
#      x y z
#    x 1.754820 0.000000 -0.016510 
#    y 0.000000 1.765580 0.000000 
#    z -0.016510 0.000000 1.740360 
# 
# From -- ./inp_files/197678.got.cif
#   From: 2010.06.25/outbox.cif.g09.slc.cpg/sg15_99_cif.got.tgz:197678.got - 2010.06.28 07:06:18.
