data_PCOD8143537
_publ_section_title
;
Structure prediction by ZEFSAII (Michael W. Deem and Ramdas Pophale) SiO2 
 PCOD8143537
Probable space group: C 2/C
;
_chemical_formula_sum "Si O2"
_cell_formula_units_Z 56
_cell_length_a 11.979175
_cell_length_b 26.878161
_cell_length_c 9.069375
_cell_angle_alpha 90.000000
_cell_angle_beta 108.461330
_cell_angle_gamma 90.000000
_cell_volume 2769.863505
_symmetry_space_group_name_H-M "C 2/C"
_symmetry_group_IT_number 15
_symmetry_cell_setting 'monoclinic'
loop_
_space_group_symop_operation_xyz
x,y,z
-x,y,1/2-z
-x,-y,-z
x,-y,1/2+z
1/2+x,1/2+y,z
1/2-x,1/2+y,1/2-z
1/2-x,1/2-y,-z
1/2+x,1/2-y,1/2+z
loop_
_atom_site_type_symbol
_atom_site_label
_atom_site_fract_x
_atom_site_fract_y
_atom_site_fract_z
Si Si1 0.000000 0.778863 0.250000
Si Si2 0.656659 0.903300 0.194400
Si Si3 0.500000 0.501171 0.250000
Si Si4 0.623775 0.985385 0.719181
Si Si5 0.145071 0.949196 0.560502
Si Si6 0.882005 0.315556 0.762832
Si Si7 0.603523 0.892937 0.497559
Si Si8 0.311691 0.652815 0.530229
O O1 0.084327 0.742192 0.186745
O O2 0.078412 0.812585 0.387745
O O3 0.677097 0.895966 0.377572
O O4 0.532347 0.880974 0.091776
O O5 0.759483 0.873826 0.154094
O O6 0.661591 0.962234 0.162245
O O7 0.582655 0.467509 0.386000
O O8 0.419486 0.535428 0.317470
O O9 0.500000 0.992606 0.750000
O O10 0.720390 0.968241 0.879328
O O11 0.615233 0.945200 0.586040
O O12 0.142785 0.889659 0.560631
O O13 0.784141 0.314279 0.594752
O O14 0.000000 0.343310 0.750000
O O15 0.841238 0.346858 0.887829
#
# Coordination Sequence:
#
# PCOD8143537 Si02
#       8
#     4   8   4   8   8   8   8   8
#     4  10  25  42  68  92 114 166 226 277 328 390
#     4  11  24  34  60  91 143 168 202 255 316 398
#     4  10  25  46  58  92 130 188 234 247 304 372
#     4  12  23  35  61  99 136 169 212 255 328 387
#     4  11  24  41  67  87 133 179 221 272 302 384
#     4  10  21  40  70  88 121 155 212 280 334 384
#     4  11  21  38  56  98 130 168 202 259 328 384
#     4  12  22  43  64  95 124 170 216 265 327 386
#
# _framework density 20.217603
#
# number of rings (size 3 to 8) (size 9 to 14) (size 15 to 20)
#    0.429    0.571    4.286    3.429    4.000    1.143 
#    0.000    0.714    0.000    5.143    0.000    0.000 
#    0.000    0.000    0.000    0.000    0.000    0.000 
#
# Total GULP energy -347185.228535 kJ/mol
# GULP energy per Si atom -12399.472448 kJ/mol
# Density = 2.017159 g / cm^3
# Si number density = 20.217603 Si / 1000 Ang^3
#
#
#
# Elastic Constant Matrix: (Units=GPa)
#
#
# Indices 1 2 3 4 5 6 
#
# 1 80.9919 49.0446 53.7118 0.0000 9.4415 0.0000
# 2 49.0446 124.4182 46.0420 0.0000 9.6006 0.0000
# 3 53.7118 46.0420 123.4790 0.0000 13.3756 0.0000
# 4 0.0000 0.0000 0.0000 -29.1099 0.0000 105.4191
# 5 9.4415 9.6006 13.3756 0.0000 31.7143 0.0000
# 6 0.0000 0.0000 0.0000 105.4191 0.0000 -135.9949
#
#
#
# Elastic Compliance Matrix: (Units=1/GPa)
#
#
# Indices 1 2 3 4 5 6 
#
# 1 0.020165 -0.005387 -0.006590 0.000000 -0.001593 0.000000
# 2 -0.005387 0.010825 -0.001584 0.000000 -0.001005 0.000000
# 3 -0.006590 -0.001584 0.011832 0.000000 -0.002549 0.000000
# 4 0.000000 0.000000 0.000000 0.019009 0.000000 0.014735
# 5 -0.001593 -0.001005 -0.002549 0.000000 0.033385 0.000000
# 6 0.000000 0.000000 0.000000 0.014735 0.000000 0.004069
#
#
# Mechanical properties :
#
#
# Convention : Reuss Voigt Hill
#
# Bulk Modulus (GPa) = 63.69892 69.60954 66.65423
# Shear Modulus (GPa) = 37.98214 -14.67204 11.65505
#
# Velocity S-wave (km/s) = 4.33906 -2.69682 2.40360
# Velocity P-wave (km/s) = 7.52850 4.98074 6.38303
#
# Compressibility (1/GPa) = 0.01569885
#
# Stress axis : x y z
#
# Youngs Moduli (GPa) = 49.58970 92.38089 84.51659
#
# Poissons Ratio (x) = 0.49768 0.55700
# Poissons Ratio (y) = 0.26715 0.13387
# Poissons Ratio (z) = 0.32682 0.14633
#
# Static dielectric constant tensor:
#      x y z
#    x 3.585340 0.000000 0.171260 
#    y 0.000000 3.593240 0.000000 
#    z 0.171260 0.000000 3.791750 
# 
# 
# High freq. dielectric constant tensor:
#      x y z
#    x 1.773960 0.000000 0.014740 
#    y 0.000000 1.780440 0.000000 
#    z 0.014740 0.000000 1.799890 
# 
# From -- ./inp_files/34366.got.cif
#   From: 2010.06.25/outbox.cif.g09.slc.cpg/sg15_18_cif.got.tgz:34366.got - 2010.06.28 07:06:18.
