data_PCOD8143060
_publ_section_title
;
Structure prediction by ZEFSAII (Michael W. Deem and Ramdas Pophale) SiO2 
 PCOD8143060
Probable space group: C 2/C
;
_chemical_formula_sum "Si O2"
_cell_formula_units_Z 44
_cell_length_a 7.061507
_cell_length_b 8.053488
_cell_length_c 35.280907
_cell_angle_alpha 90.000000
_cell_angle_beta 121.140190
_cell_angle_gamma 90.000000
_cell_volume 1717.301257
_symmetry_space_group_name_H-M "C 2/C"
_symmetry_group_IT_number 15
_symmetry_cell_setting 'monoclinic'
loop_
_space_group_symop_operation_xyz
x,y,z
-x,y,1/2-z
-x,-y,-z
x,-y,1/2+z
1/2+x,1/2+y,z
1/2-x,1/2+y,1/2-z
1/2-x,1/2-y,-z
1/2+x,1/2-y,1/2+z
loop_
_atom_site_type_symbol
_atom_site_label
_atom_site_fract_x
_atom_site_fract_y
_atom_site_fract_z
Si Si1 0.595589 0.915908 0.472726
Si Si2 0.000000 0.706347 0.750000
Si Si3 0.762541 0.027602 0.714394
Si Si4 0.734008 0.988024 0.627496
Si Si5 0.031374 0.155817 0.604218
Si Si6 0.376573 0.400916 0.952028
O O1 0.600920 0.712868 0.475138
O O2 0.500000 0.000000 0.500000
O O3 0.465943 0.964424 0.420916
O O4 0.832200 0.005490 0.488084
O O5 0.789582 0.826136 0.719317
O O6 0.934013 0.589593 0.778624
O O7 0.700307 0.075212 0.664748
O O8 0.000000 0.109904 0.750000
O O9 0.727509 0.787414 0.632125
O O10 0.971522 0.043796 0.634928
O O11 0.805842 0.253528 0.570428
O O12 0.119835 0.030813 0.581589
#
# Coordination Sequence:
#
# PCOD8143060 Si02
#       6
#     8   4   8   8   8   8
#     4  10  21  41  64  96 130 172 217 268 323 387
#     4  10  26  42  72  96 138 170 224 278 336 406
#     4  10  26  45  69 101 134 175 223 276 341 399
#     4  10  23  41  66  94 131 170 215 268 325 393
#     4  10  22  39  63  93 123 166 211 259 317 380
#     4  10  21  40  61  88 127 165 213 261 313 375
#
# _framework density 25.621600000000001
#
# number of rings (size 3 to 8) (size 9 to 14) (size 15 to 20)
#    0.545    1.455    0.000    1.636    3.818    5.818 
#    0.000   21.818    0.000    0.000    0.000    0.000 
#    0.000    0.000    0.000    0.000    0.000    0.000 
#
# Total GULP energy -272689.874126 kJ/mol
# GULP energy per Si atom -12394.994278 kJ/mol
# Density = 2.556328 g / cm^3
# Si number density = 25.621600 Si / 1000 Ang^3
#
#
#
# Elastic Constant Matrix: (Units=GPa)
#
#
# Indices 1 2 3 4 5 6 
#
# 1 139.3871 81.1514 61.6553 0.0000 -55.7943 0.0000
# 2 81.1514 166.6458 47.0359 0.0000 -34.7257 0.0000
# 3 61.6553 47.0359 171.6305 0.0000 -43.8422 0.0000
# 4 0.0000 0.0000 0.0000 22.9874 0.0000 -15.7575
# 5 -55.7943 -34.7257 -43.8422 0.0000 57.0891 0.0000
# 6 0.0000 0.0000 0.0000 -15.7575 0.0000 68.4143
#
#
#
# Elastic Compliance Matrix: (Units=1/GPa)
#
#
# Indices 1 2 3 4 5 6 
#
# 1 0.014612 -0.004556 -0.001319 0.000000 0.010496 0.000000
# 2 -0.004556 0.008437 -0.000625 0.000000 0.000200 0.000000
# 3 -0.001319 -0.000625 0.007520 0.000000 0.004106 0.000000
# 4 0.000000 0.000000 0.000000 0.051658 0.000000 0.011898
# 5 0.010496 0.000200 0.004106 0.000000 0.031049 0.000000
# 6 0.000000 0.000000 0.000000 0.011898 0.000000 0.017357
#
#
# Mechanical properties :
#
#
# Convention : Reuss Voigt Hill
#
# Bulk Modulus (GPa) = 56.91584 95.26096 76.08840
# Shear Modulus (GPa) = 33.44707 48.88622 41.16664
#
# Velocity S-wave (km/s) = 3.61699 4.37281 4.01274
# Velocity P-wave (km/s) = 6.30124 7.92187 7.15757
#
# Compressibility (1/GPa) = 0.01756980
#
# Stress axis : x y z
#
# Youngs Moduli (GPa) = 68.43889 118.52158 132.97056
#
# Poissons Ratio (x) = 0.53997 0.17543
# Poissons Ratio (y) = 0.31180 0.08305
# Poissons Ratio (z) = 0.09029 0.07402
#
# Static dielectric constant tensor:
#      x y z
#    x 5.437730 0.000000 -0.133130 
#    y 0.000000 5.318730 0.000000 
#    z -0.133130 0.000000 4.404790 
# 
# 
# High freq. dielectric constant tensor:
#      x y z
#    x 2.047860 0.000000 -0.002150 
#    y 0.000000 2.044710 0.000000 
#    z -0.002150 0.000000 2.020270 
# 
# From -- ./inp_files/306541.got.cif
#   From: 2010.06.25/outbox.cif.g09.slc.cpg/sg15_154_cif.got.tgz:306541.got - 2010.06.28 07:06:18.
