data_PCOD8143470
_publ_section_title
;
Structure prediction by ZEFSAII (Michael W. Deem and Ramdas Pophale) SiO2 
 PCOD8143470
Probable space group: C 2/C
;
_chemical_formula_sum "Si O2"
_cell_formula_units_Z 40
_cell_length_a 15.113413
_cell_length_b 13.566717
_cell_length_c 9.298674
_cell_angle_alpha 90.000000
_cell_angle_beta 113.378244
_cell_angle_gamma 90.000000
_cell_volume 1750.073325
_symmetry_space_group_name_H-M "C 2/C"
_symmetry_group_IT_number 15
_symmetry_cell_setting 'monoclinic'
loop_
_space_group_symop_operation_xyz
x,y,z
-x,y,1/2-z
-x,-y,-z
x,-y,1/2+z
1/2+x,1/2+y,z
1/2-x,1/2+y,1/2-z
1/2-x,1/2-y,-z
1/2+x,1/2-y,1/2+z
loop_
_atom_site_type_symbol
_atom_site_label
_atom_site_fract_x
_atom_site_fract_y
_atom_site_fract_z
Si Si1 0.815518 0.688521 0.929864
Si Si2 0.572306 0.004259 0.415140
Si Si3 0.916296 0.056249 0.078417
Si Si4 0.725754 0.853892 0.420857
Si Si5 0.971194 0.158723 0.570952
O O1 0.766797 0.658567 0.747307
O O2 0.750000 0.750000 0.000000
O O3 0.844552 0.585584 0.019781
O O4 0.909556 0.754995 0.957766
O O5 0.500000 0.041946 0.250000
O O6 0.500000 0.000000 0.500000
O O7 0.623011 0.899616 0.405812
O O8 0.000000 0.072467 0.250000
O O9 0.912051 0.943332 0.026328
O O10 0.806432 0.076840 0.048859
O O11 0.934202 0.135394 0.961762
O O12 0.750000 0.750000 0.500000
O O13 0.000000 0.190377 0.750000
#
# Coordination Sequence:
#
# PCOD8143470 Si02
#       5
#     8   8   8   8   8
#     4  12  26  44  75 107 150 199 255 305 382 465
#     4  12  28  52  76 109 159 208 253 316 388 464
#     4  10  22  42  68 100 142 180 238 309 369 434
#     4  12  28  44  73 108 146 194 255 308 380 456
#     4  10  21  40  67  98 135 184 237 298 369 434
#
# _framework density 22.856185
#
# number of rings (size 3 to 8) (size 9 to 14) (size 15 to 20)
#    0.000    0.800    2.000    4.200    5.600    5.600 
#    0.000    0.000    0.000    0.000    0.000    0.000 
#    0.000    0.000    0.000    0.000    0.000    0.000 
#
# Total GULP energy -247810.243260 kJ/mol
# GULP energy per Si atom -12390.512163 kJ/mol
# Density = 2.280416 g / cm^3
# Si number density = 22.856185 Si / 1000 Ang^3
#
#
#
# Elastic Constant Matrix: (Units=GPa)
#
#
# Indices 1 2 3 4 5 6 
#
# 1 103.9392 39.7861 41.0757 0.0000 -3.1117 0.0000
# 2 39.7861 119.3590 36.6997 0.0000 6.7185 0.0000
# 3 41.0757 36.6997 149.3349 0.0000 6.2994 0.0000
# 4 0.0000 0.0000 0.0000 37.4777 0.0000 6.1919
# 5 -3.1117 6.7185 6.2994 0.0000 40.7426 0.0000
# 6 0.0000 0.0000 0.0000 6.1919 0.0000 36.2698
#
#
#
# Elastic Compliance Matrix: (Units=1/GPa)
#
#
# Indices 1 2 3 4 5 6 
#
# 1 0.011950 -0.003302 -0.002553 0.000000 0.001852 0.000000
# 2 -0.003302 0.010030 -0.001486 0.000000 -0.001676 0.000000
# 3 -0.002553 -0.001486 0.007813 0.000000 -0.001158 0.000000
# 4 0.000000 0.000000 0.000000 0.027457 0.000000 -0.004687
# 5 0.001852 -0.001676 -0.001158 0.000000 0.025141 0.000000
# 6 0.000000 0.000000 0.000000 -0.004687 0.000000 0.028371
#
#
# Mechanical properties :
#
#
# Convention : Reuss Voigt Hill
#
# Bulk Modulus (GPa) = 66.18493 67.52845 66.85669
# Shear Modulus (GPa) = 38.31960 39.90281 39.11120
#
# Velocity S-wave (km/s) = 4.09902 4.18284 4.14114
# Velocity P-wave (km/s) = 7.17095 7.27580 7.22356
#
# Compressibility (1/GPa) = 0.01510918
#
# Stress axis : x y z
#
# Youngs Moduli (GPa) = 83.68485 99.70002 127.99680
#
# Poissons Ratio (x) = 0.32924 0.32683
# Poissons Ratio (y) = 0.27635 0.19019
# Poissons Ratio (z) = 0.21368 0.14814
#
# Static dielectric constant tensor:
#      x y z
#    x 4.476070 0.000000 -0.087510 
#    y 0.000000 3.967630 0.000000 
#    z -0.087510 0.000000 3.867720 
# 
# 
# High freq. dielectric constant tensor:
#      x y z
#    x 1.904650 0.000000 0.007440 
#    y 0.000000 1.911620 0.000000 
#    z 0.007440 0.000000 1.909730 
# 
# From -- ./inp_files/38057.got.cif
#   From: 2010.06.25/outbox.cif.g09.slc.cpg/sg15_20_cif.got.tgz:38057.got - 2010.06.28 07:06:18.
