data_PCOD8143375
_publ_section_title
;
Structure prediction by ZEFSAII (Michael W. Deem and Ramdas Pophale) SiO2 
 PCOD8143375
Probable space group: C 2/C
;
_chemical_formula_sum "Si O2"
_cell_formula_units_Z 36
_cell_length_a 6.581134
_cell_length_b 24.024678
_cell_length_c 10.194685
_cell_angle_alpha 90.000000
_cell_angle_beta 88.491145
_cell_angle_gamma 90.000000
_cell_volume 1611.318934
_symmetry_space_group_name_H-M "C 2/C"
_symmetry_group_IT_number 15
_symmetry_cell_setting 'monoclinic'
loop_
_space_group_symop_operation_xyz
x,y,z
-x,y,1/2-z
-x,-y,-z
x,-y,1/2+z
1/2+x,1/2+y,z
1/2-x,1/2+y,1/2-z
1/2-x,1/2-y,-z
1/2+x,1/2-y,1/2+z
loop_
_atom_site_type_symbol
_atom_site_label
_atom_site_fract_x
_atom_site_fract_y
_atom_site_fract_z
Si Si1 0.656917 0.703539 0.644954
Si Si2 0.170616 0.182766 0.356416
Si Si3 0.880935 0.935050 0.619296
Si Si4 0.845370 0.942863 0.131198
Si Si5 0.000000 0.632083 0.750000
O O1 0.500000 0.675561 0.750000
O O2 0.669914 0.769164 0.681856
O O3 0.572877 0.698661 0.499354
O O4 0.872063 0.671810 0.654937
O O5 0.264924 0.119795 0.365732
O O6 0.000000 0.181695 0.250000
O O7 0.000000 0.943196 0.750000
O O8 0.035161 0.920843 0.497805
O O9 0.766158 0.993818 0.599816
O O10 0.645430 0.906303 0.159062
O O11 0.000000 0.940936 0.250000
#
# Coordination Sequence:
#
# PCOD8143375 Si02
#       5
#     8   8   8   8   4
#     4  11  24  42  64  91 127 169 210 260 312 375
#     4  10  21  43  63  90 126 162 213 256 315 372
#     4   9  19  40  63  89 126 167 202 261 319 363
#     4  10  21  40  66  89 127 167 211 257 308 375
#     4  12  22  40  66 100 122 170 218 254 306 392
#
# _framework density 22.341946
#
# number of rings (size 3 to 8) (size 9 to 14) (size 15 to 20)
#    0.000    1.778    1.111    3.333    0.000    0.889 
#   18.000   15.556    0.000    0.000    0.000    0.000 
#    0.000    0.000    0.000    0.000    0.000    0.000 
#
# Total GULP energy -223001.381891 kJ/mol
# GULP energy per Si atom -12388.965661 kJ/mol
# Density = 2.229109 g / cm^3
# Si number density = 22.341946 Si / 1000 Ang^3
#
#
#
# Elastic Constant Matrix: (Units=GPa)
#
#
# Indices 1 2 3 4 5 6 
#
# 1 76.2576 49.0418 48.6510 0.0000 -5.2020 0.0000
# 2 49.0418 190.5757 11.2044 0.0000 -3.1882 0.0000
# 3 48.6510 11.2044 142.3840 0.0000 2.7874 0.0000
# 4 0.0000 0.0000 0.0000 29.1193 0.0000 -2.3951
# 5 -5.2020 -3.1882 2.7874 0.0000 26.9439 0.0000
# 6 0.0000 0.0000 0.0000 -2.3951 0.0000 57.4224
#
#
#
# Elastic Compliance Matrix: (Units=1/GPa)
#
#
# Indices 1 2 3 4 5 6 
#
# 1 0.020923 -0.004912 -0.006844 0.000000 0.004166 0.000000
# 2 -0.004912 0.006437 0.001178 0.000000 -0.000309 0.000000
# 3 -0.006844 0.001178 0.009311 0.000000 -0.002145 0.000000
# 4 0.000000 0.000000 0.000000 0.034460 0.000000 0.001437
# 5 0.004166 -0.000309 -0.002145 0.000000 0.038104 0.000000
# 6 0.000000 0.000000 0.000000 0.001437 0.000000 0.017475
#
#
# Mechanical properties :
#
#
# Convention : Reuss Voigt Hill
#
# Bulk Modulus (GPa) = 64.45647 69.66796 67.06221
# Shear Modulus (GPa) = 32.67159 42.71846 37.69502
#
# Velocity S-wave (km/s) = 3.82821 4.37742 4.11199
# Velocity P-wave (km/s) = 6.96081 7.53653 7.25438
#
# Compressibility (1/GPa) = 0.01551435
#
# Stress axis : x y z
#
# Youngs Moduli (GPa) = 47.79374 155.35377 107.39799
#
# Poissons Ratio (x) = 0.76313 0.73506
# Poissons Ratio (y) = 0.23477 -0.12651
# Poissons Ratio (z) = 0.32711 -0.18300
#
# Static dielectric constant tensor:
#      x y z
#    x 3.401720 0.000000 0.067420 
#    y 0.000000 5.146660 0.000000 
#    z 0.067420 0.000000 4.074640 
# 
# 
# High freq. dielectric constant tensor:
#      x y z
#    x 1.813070 0.000000 0.011060 
#    y 0.000000 1.926460 0.000000 
#    z 0.011060 0.000000 1.895890 
# 
# From -- ./inp_files/72897.got.cif
#   From: 2010.06.25/outbox.cif.g09.slc.cpg/sg15_37_cif.got.tgz:72897.got - 2010.06.28 07:06:18.
