data_PCOD8143910
_publ_section_title
;
Structure prediction by ZEFSAII (Michael W. Deem and Ramdas Pophale) SiO2 
 PCOD8143910
Probable space group: C 2/C
;
_chemical_formula_sum "Si O2"
_cell_formula_units_Z 44
_cell_length_a 15.491026
_cell_length_b 27.315590
_cell_length_c 5.338909
_cell_angle_alpha 90.000000
_cell_angle_beta 120.378556
_cell_angle_gamma 90.000000
_cell_volume 1948.967494
_symmetry_space_group_name_H-M "C 2/C"
_symmetry_group_IT_number 15
_symmetry_cell_setting 'monoclinic'
loop_
_space_group_symop_operation_xyz
x,y,z
-x,y,1/2-z
-x,-y,-z
x,-y,1/2+z
1/2+x,1/2+y,z
1/2-x,1/2+y,1/2-z
1/2-x,1/2-y,-z
1/2+x,1/2-y,1/2+z
loop_
_atom_site_type_symbol
_atom_site_label
_atom_site_fract_x
_atom_site_fract_y
_atom_site_fract_z
Si Si1 0.677338 0.691474 0.289656
Si Si2 0.708852 0.529656 0.003338
Si Si3 0.308694 0.873187 0.712438
Si Si4 0.635834 0.792739 0.106828
Si Si5 0.500000 0.644511 0.250000
Si Si6 0.000000 0.919456 0.250000
Si Si7 0.000000 0.344469 0.250000
O O1 0.701515 0.641023 0.178376
O O2 0.634134 0.734436 0.040098
O O3 0.786526 0.705904 0.549736
O O4 0.598011 0.679355 0.392714
O O5 0.731998 0.506751 0.308936
O O6 0.786448 0.574163 0.061139
O O7 0.593924 0.545407 0.842951
O O8 0.329713 0.828654 0.557340
O O9 0.404550 0.878170 0.038505
O O10 0.527812 0.810004 0.053454
O O11 0.493969 0.613327 0.493098
#
# Coordination Sequence:
#
# PCOD8143910 Si02
#       7
#     8   8   8   8   4   4   4
#     4  10  22  38  65 100 143 180 233 270 342 414
#     4  12  27  46  73 103 135 181 233 294 358 423
#     4  11  23  44  68  97 138 184 230 294 347 409
#     4  10  21  41  66  97 136 185 229 284 340 413
#     4  12  23  41  68 108 146 188 218 281 339 424
#     4  12  24  45  72 101 144 183 228 283 356 428
#     4  10  23  40  68  95 134 181 232 284 345 414
#
# _framework density 22.576056999999999
#
# number of rings (size 3 to 8) (size 9 to 14) (size 15 to 20)
#    0.000    1.091    1.818    4.364    5.091    0.000 
#    3.273    0.909    0.000    0.000    0.000    0.000 
#    0.000    0.000    0.000    0.000    0.000    0.000 
#
# Total GULP energy -272629.113197 kJ/mol
# GULP energy per Si atom -12392.232418 kJ/mol
# Density = 2.252467 g / cm^3
# Si number density = 22.576057 Si / 1000 Ang^3
#
#
#
# Elastic Constant Matrix: (Units=GPa)
#
#
# Indices 1 2 3 4 5 6 
#
# 1 118.4971 29.6357 29.9072 0.0000 4.0090 0.0000
# 2 29.6357 94.8339 38.2752 0.0000 7.6217 0.0000
# 3 29.9072 38.2752 69.1777 0.0000 -9.1563 0.0000
# 4 0.0000 0.0000 0.0000 33.0517 0.0000 -9.6271
# 5 4.0090 7.6217 -9.1563 0.0000 38.0925 0.0000
# 6 0.0000 0.0000 0.0000 -9.6271 0.0000 35.7330
#
#
#
# Elastic Compliance Matrix: (Units=1/GPa)
#
#
# Indices 1 2 3 4 5 6 
#
# 1 0.009775 -0.001460 -0.003631 0.000000 -0.001610 0.000000
# 2 -0.001460 0.014650 -0.008100 0.000000 -0.004724 0.000000
# 3 -0.003631 -0.008100 0.021455 0.000000 0.007160 0.000000
# 4 0.000000 0.000000 0.000000 0.032832 0.000000 0.008846
# 5 -0.001610 -0.004724 0.007160 0.000000 0.029088 0.000000
# 6 0.000000 0.000000 0.000000 0.008846 0.000000 0.030368
#
#
# Mechanical properties :
#
#
# Convention : Reuss Voigt Hill
#
# Bulk Modulus (GPa) = 51.28819 53.12719 52.20769
# Shear Modulus (GPa) = 29.23147 33.68815 31.45981
#
# Velocity S-wave (km/s) = 3.60224 3.86710 3.73702
# Velocity P-wave (km/s) = 6.32999 6.59719 6.46497
#
# Compressibility (1/GPa) = 0.01949767
#
# Stress axis : x y z
#
# Youngs Moduli (GPa) = 102.30099 68.26077 46.60994
#
# Poissons Ratio (x) = 0.09964 0.16926
# Poissons Ratio (y) = 0.14933 0.37753
# Poissons Ratio (z) = 0.37150 0.55290
#
# Static dielectric constant tensor:
#      x y z
#    x 4.162530 0.000000 0.171250 
#    y 0.000000 4.232040 0.000000 
#    z 0.171250 0.000000 4.034350 
# 
# 
# High freq. dielectric constant tensor:
#      x y z
#    x 1.903090 0.000000 0.007310 
#    y 0.000000 1.886710 0.000000 
#    z 0.007310 0.000000 1.882270 
# 
# From -- ./inp_files/7591.got.cif
#   From: 2010.06.25/outbox.cif.g09.slc.cpg/sg15_4_cif.got.tgz:7591.got - 2010.06.28 07:06:18.
