data_PCOD8143013
_publ_section_title
;
Structure prediction by ZEFSAII (Michael W. Deem and Ramdas Pophale) SiO2 
 PCOD8143013
Probable space group: C 2/C
;
_chemical_formula_sum "Si O2"
_cell_formula_units_Z 60
_cell_length_a 13.710697
_cell_length_b 14.887587
_cell_length_c 14.256783
_cell_angle_alpha 90.000000
_cell_angle_beta 91.827197
_cell_angle_gamma 90.000000
_cell_volume 2908.603394
_symmetry_space_group_name_H-M "C 2/C"
_symmetry_group_IT_number 15
_symmetry_cell_setting 'monoclinic'
loop_
_space_group_symop_operation_xyz
x,y,z
-x,y,1/2-z
-x,-y,-z
x,-y,1/2+z
1/2+x,1/2+y,z
1/2-x,1/2+y,1/2-z
1/2-x,1/2-y,-z
1/2+x,1/2-y,1/2+z
loop_
_atom_site_type_symbol
_atom_site_label
_atom_site_fract_x
_atom_site_fract_y
_atom_site_fract_z
Si Si1 0.795819 0.492172 0.295697
Si Si2 0.383820 0.192857 0.611666
Si Si3 0.423507 0.277101 0.421495
Si Si4 0.746409 0.901268 0.010124
Si Si5 0.265825 0.803312 0.786593
Si Si6 0.860745 0.742478 0.096261
Si Si7 0.500000 0.926170 0.250000
Si Si8 0.787373 0.930968 0.392145
O O1 0.783061 0.454710 0.398734
O O2 0.751848 0.590587 0.282494
O O3 0.735399 0.431760 0.220083
O O4 0.910729 0.490941 0.275128
O O5 0.430981 0.251452 0.530847
O O6 0.336877 0.258464 0.688528
O O7 0.470438 0.136052 0.661364
O O8 0.300422 0.127652 0.564747
O O9 0.345257 0.214963 0.368453
O O10 0.526739 0.258869 0.375258
O O11 0.390943 0.381509 0.411341
O O12 0.827825 0.826551 0.032231
O O13 0.652887 0.850769 0.961851
O O14 0.791413 0.970477 0.936522
O O15 0.297479 0.761856 0.688510
#
# Coordination Sequence:
#
# PCOD8143013 Si02
#       8
#     8   8   8   8   8   8   4   8
#     4  11  22  38  61  89 122 161 201 259 315 365
#     4  10  21  40  61  88 120 165 204 248 313 380
#     4  11  22  37  63  90 120 160 209 256 306 372
#     4  11  22  41  62  86 126 167 202 255 321 377
#     4  11  22  40  62  89 126 165 204 252 318 379
#     4  11  24  38  62  93 123 162 210 261 315 366
#     4  10  22  36  60  90 122 150 214 262 300 364
#     4  10  21  40  59  87 120 160 206 246 308 381
#
# _framework density 20.628457999999998
#
# number of rings (size 3 to 8) (size 9 to 14) (size 15 to 20)
#    0.000    1.333    1.333    6.800    1.867    1.600 
#    0.000    3.333    0.000    0.000    0.000    0.000 
#    0.000    0.000    0.000    0.000    0.000    0.000 
#
# Total GULP energy -372093.311278 kJ/mol
# GULP energy per Si atom -12403.110376 kJ/mol
# Density = 2.058151 g / cm^3
# Si number density = 20.628458 Si / 1000 Ang^3
#
#
#
# Elastic Constant Matrix: (Units=GPa)
#
#
# Indices 1 2 3 4 5 6 
#
# 1 35.5686 17.0318 10.0036 0.0000 -2.7441 0.0000
# 2 17.0318 112.1600 22.8412 0.0000 -0.9156 0.0000
# 3 10.0036 22.8412 96.0714 0.0000 -9.3413 0.0000
# 4 0.0000 0.0000 0.0000 36.8114 0.0000 -4.2382
# 5 -2.7441 -0.9156 -9.3413 0.0000 25.4123 0.0000
# 6 0.0000 0.0000 0.0000 -4.2382 0.0000 21.8129
#
#
#
# Elastic Compliance Matrix: (Units=1/GPa)
#
#
# Indices 1 2 3 4 5 6 
#
# 1 0.030903 -0.004273 -0.001963 0.000000 0.002462 0.000000
# 2 -0.004273 0.009966 -0.002006 0.000000 -0.000840 0.000000
# 3 -0.001963 -0.002006 0.011473 0.000000 0.003933 0.000000
# 4 0.000000 0.000000 0.000000 0.027787 0.000000 0.005399
# 5 0.002462 -0.000840 0.003933 0.000000 0.041032 0.000000
# 6 0.000000 0.000000 0.000000 0.005399 0.000000 0.046893
#
#
# Mechanical properties :
#
#
# Convention : Reuss Voigt Hill
#
# Bulk Modulus (GPa) = 27.88756 38.17259 33.03008
# Shear Modulus (GPa) = 25.44650 29.73554 27.59102
#
# Velocity S-wave (km/s) = 3.51602 3.80080 3.66118
# Velocity P-wave (km/s) = 5.48010 6.14870 5.82400
#
# Compressibility (1/GPa) = 0.03585828
#
# Stress axis : x y z
#
# Youngs Moduli (GPa) = 32.35974 100.33704 87.16344
#
# Poissons Ratio (x) = 0.42873 0.17106
# Poissons Ratio (y) = 0.13827 0.17487
# Poissons Ratio (z) = 0.06351 0.20130
#
# Static dielectric constant tensor:
#      x y z
#    x 3.475010 0.000000 0.037680 
#    y 0.000000 3.872700 0.000000 
#    z 0.037680 0.000000 3.797220 
# 
# 
# High freq. dielectric constant tensor:
#      x y z
#    x 1.781370 0.000000 0.002180 
#    y 0.000000 1.816500 0.000000 
#    z 0.002180 0.000000 1.819870 
# 
# From -- ./inp_files/153983.got.cif
#   From: 2010.06.25/outbox.cif.g09.slc.cpg/sg15_77_cif.got.tgz:153983.got - 2010.06.28 07:06:18.
