data_PCOD8143914
_publ_section_title
;
Structure prediction by ZEFSAII (Michael W. Deem and Ramdas Pophale) SiO2 
 PCOD8143914
Probable space group: C 2/C
;
_chemical_formula_sum "Si O2"
_cell_formula_units_Z 44
_cell_length_a 15.171261
_cell_length_b 12.233563
_cell_length_c 10.729395
_cell_angle_alpha 90.000000
_cell_angle_beta 78.797280
_cell_angle_gamma 90.000000
_cell_volume 1953.416932
_symmetry_space_group_name_H-M "C 2/C"
_symmetry_group_IT_number 15
_symmetry_cell_setting 'monoclinic'
loop_
_space_group_symop_operation_xyz
x,y,z
-x,y,1/2-z
-x,-y,-z
x,-y,1/2+z
1/2+x,1/2+y,z
1/2-x,1/2+y,1/2-z
1/2-x,1/2-y,-z
1/2+x,1/2-y,1/2+z
loop_
_atom_site_type_symbol
_atom_site_label
_atom_site_fract_x
_atom_site_fract_y
_atom_site_fract_z
Si Si1 0.521024 0.794997 0.965605
Si Si2 0.664677 0.225168 0.858490
Si Si3 0.655541 0.889316 0.119494
Si Si4 0.974095 0.929949 0.388761
Si Si5 0.274081 0.418757 0.508810
Si Si6 0.000000 0.460648 0.750000
O O1 0.529504 0.683878 0.883380
O O2 0.500846 0.891953 0.875990
O O3 0.442271 0.773114 0.087691
O O4 0.611338 0.827323 0.014415
O O5 0.687628 0.202890 0.708036
O O6 0.713144 0.340714 0.873970
O O7 0.700108 0.129802 0.937798
O O8 0.742253 0.960169 0.055735
O O9 0.587857 0.965254 0.216292
O O10 0.867523 0.918045 0.410234
O O11 0.000000 0.986229 0.250000
O O12 0.000000 0.000000 0.500000
#
# Coordination Sequence:
#
# PCOD8143914 Si02
#       6
#     8   8   8   8   8   4
#     4  11  22  42  69 106 133 181 227 290 348 418
#     4  10  21  41  66  98 141 177 222 283 355 414
#     4  12  22  39  70 107 137 177 228 289 349 423
#     4  11  27  50  73  95 138 194 243 285 351 422
#     4  10  24  42  66  99 137 183 225 287 355 413
#     4  12  20  36  70  98 146 170 226 280 358 410
#
# _framework density 22.524633999999999
#
# number of rings (size 3 to 8) (size 9 to 14) (size 15 to 20)
#    0.000    1.091    4.545    1.636    2.545    2.909 
#    0.000    0.909    0.000    0.000    0.000    0.000 
#    0.000    0.000    0.000    0.000    0.000    0.000 
#
# Total GULP energy -272830.984350 kJ/mol
# GULP energy per Si atom -12401.408380 kJ/mol
# Density = 2.247337 g / cm^3
# Si number density = 22.524634 Si / 1000 Ang^3
#
#
#
# Elastic Constant Matrix: (Units=GPa)
#
#
# Indices 1 2 3 4 5 6 
#
# 1 80.9919 42.4450 43.7594 0.0000 13.2490 0.0000
# 2 42.4450 59.7526 42.0263 0.0000 7.1987 0.0000
# 3 43.7594 42.0263 122.4276 0.0000 21.5642 0.0000
# 4 0.0000 0.0000 0.0000 37.9091 0.0000 -1.1942
# 5 13.2490 7.1987 21.5642 0.0000 31.8161 0.0000
# 6 0.0000 0.0000 0.0000 -1.1942 0.0000 33.0427
#
#
#
# Elastic Compliance Matrix: (Units=1/GPa)
#
#
# Indices 1 2 3 4 5 6 
#
# 1 0.021002 -0.012726 -0.002390 0.000000 -0.004246 0.000000
# 2 -0.012726 0.029774 -0.006154 0.000000 0.002733 0.000000
# 3 -0.002390 -0.006154 0.012167 0.000000 -0.005859 0.000000
# 4 0.000000 0.000000 0.000000 0.026409 0.000000 0.000954
# 5 -0.004246 0.002733 -0.005859 0.000000 0.036551 0.000000
# 6 0.000000 0.000000 0.000000 0.000954 0.000000 0.030298
#
#
# Mechanical properties :
#
#
# Convention : Reuss Voigt Hill
#
# Bulk Modulus (GPa) = 49.01150 57.73707 53.37428
# Shear Modulus (GPa) = 24.32576 29.54967 26.93771
#
# Velocity S-wave (km/s) = 3.28984 3.62592 3.46196
# Velocity P-wave (km/s) = 6.01972 6.57406 6.30299
#
# Compressibility (1/GPa) = 0.02040337
#
# Stress axis : x y z
#
# Youngs Moduli (GPa) = 47.61360 33.58595 82.19106
#
# Poissons Ratio (x) = 0.42742 0.19647
# Poissons Ratio (y) = 0.60594 0.50577
# Poissons Ratio (z) = 0.11382 0.20667
#
# Static dielectric constant tensor:
#      x y z
#    x 4.310880 0.000000 -0.146240 
#    y 0.000000 4.148790 0.000000 
#    z -0.146240 0.000000 4.246770 
# 
# 
# High freq. dielectric constant tensor:
#      x y z
#    x 1.886150 0.000000 0.009850 
#    y 0.000000 1.885390 0.000000 
#    z 0.009850 0.000000 1.886690 
# 
# From -- ./inp_files/94952.got.cif
#   From: 2010.06.25/outbox.cif.g09.slc.cpg/sg15_48_cif.got.tgz:94952.got - 2010.06.28 07:06:18.
