data_PCOD8143358
_publ_section_title
;
Structure prediction by ZEFSAII (Michael W. Deem and Ramdas Pophale) SiO2 
 PCOD8143358
Probable space group: C 2/C
;
_chemical_formula_sum "Si O2"
_cell_formula_units_Z 60
_cell_length_a 24.797731
_cell_length_b 8.075502
_cell_length_c 21.069049
_cell_angle_alpha 90.000000
_cell_angle_beta 138.266945
_cell_angle_gamma 90.000000
_cell_volume 2808.532899
_symmetry_space_group_name_H-M "C 2/C"
_symmetry_group_IT_number 15
_symmetry_cell_setting 'monoclinic'
loop_
_space_group_symop_operation_xyz
x,y,z
-x,y,1/2-z
-x,-y,-z
x,-y,1/2+z
1/2+x,1/2+y,z
1/2-x,1/2+y,1/2-z
1/2-x,1/2-y,-z
1/2+x,1/2-y,1/2+z
loop_
_atom_site_type_symbol
_atom_site_label
_atom_site_fract_x
_atom_site_fract_y
_atom_site_fract_z
Si Si1 0.857749 0.385672 0.835998
Si Si2 0.500000 0.128748 0.250000
Si Si3 0.545411 0.372140 0.398959
Si Si4 0.368477 0.039188 0.710453
Si Si5 0.755599 0.115304 0.688290
Si Si6 0.724084 0.663976 0.042017
Si Si7 0.405304 0.370847 0.800040
Si Si8 0.986444 0.805739 0.993238
O O1 0.889091 0.447924 0.794994
O O2 0.784735 0.255920 0.762723
O O3 0.822378 0.529445 0.849193
O O4 0.931468 0.301467 0.939359
O O5 0.512072 0.240309 0.321310
O O6 0.575582 0.014501 0.299104
O O7 0.635986 0.420476 0.457765
O O8 0.485768 0.530757 0.347899
O O9 0.553421 0.277449 0.473337
O O10 0.377550 0.237084 0.723797
O O11 0.278382 0.991836 0.609960
O O12 0.728262 0.190539 0.597571
O O13 0.832443 0.996312 0.746485
O O14 0.750000 0.750000 0.000000
O O15 0.426321 0.263401 0.882294
O O16 0.000000 0.000000 0.000000
#
# Coordination Sequence:
#
# PCOD8143358 Si02
#       8
#     8   4   8   8   8   8   8   8
#     4  11  22  41  67 100 140 179 221 286 346 407
#     4  12  22  46  70  94 138 188 236 272 340 406
#     4  11  23  43  75  94 134 190 230 276 345 418
#     4  11  25  43  67 103 139 175 234 286 341 409
#     4  11  24  42  70 101 138 181 227 287 355 406
#     4  11  25  47  73  97 135 187 237 280 345 424
#     4  11  25  43  68 103 138 173 228 292 350 408
#     4  10  21  40  66 100 132 174 230 275 345 415
#
# _framework density 21.363467
#
# number of rings (size 3 to 8) (size 9 to 14) (size 15 to 20)
#    0.000    1.067    5.333    1.600    5.600    4.267 
#    0.000    0.667    0.000    0.000    0.000    0.000 
#    0.000    0.000    0.000    0.000    0.000    0.000 
#
# Total GULP energy -371935.030017 kJ/mol
# GULP energy per Si atom -12397.834334 kJ/mol
# Density = 2.131484 g / cm^3
# Si number density = 21.363467 Si / 1000 Ang^3
#
#
#
# Elastic Constant Matrix: (Units=GPa)
#
#
# Indices 1 2 3 4 5 6 
#
# 1 122.7090 44.3950 29.1696 0.0000 5.3065 0.0000
# 2 44.3950 86.3810 23.9584 0.0000 -2.3107 -0.0003
# 3 29.1696 23.9584 56.4489 0.0000 0.4355 0.0000
# 4 0.0000 0.0000 0.0000 52.1705 0.0000 -0.5033
# 5 5.3065 -2.3107 0.4355 0.0000 41.6745 0.0000
# 6 0.0000 -0.0003 0.0000 -0.5033 0.0000 44.3896
#
#
#
# Elastic Compliance Matrix: (Units=1/GPa)
#
#
# Indices 1 2 3 4 5 6 
#
# 1 0.010720 -0.004555 -0.003594 0.000000 -0.001580 0.000000
# 2 -0.004555 0.015082 -0.004059 0.000000 0.001459 0.000000
# 3 -0.003594 -0.004059 0.021295 0.000000 0.000010 0.000000
# 4 0.000000 0.000000 0.000000 0.019170 0.000000 0.000217
# 5 -0.001580 0.001459 0.000010 0.000000 0.024277 0.000000
# 6 0.000000 0.000000 0.000000 0.000217 0.000000 0.022530
#
#
# Mechanical properties :
#
#
# Convention : Reuss Voigt Hill
#
# Bulk Modulus (GPa) = 44.08861 51.17611 47.63236
# Shear Modulus (GPa) = 34.47058 38.84798 36.65928
#
# Velocity S-wave (km/s) = 4.02123 4.26893 4.14693
# Velocity P-wave (km/s) = 6.49943 6.95020 6.72859
#
# Compressibility (1/GPa) = 0.02268159
#
# Stress axis : x y z
#
# Youngs Moduli (GPa) = 93.28399 66.30268 46.95938
#
# Poissons Ratio (x) = 0.30200 0.16878
# Poissons Ratio (y) = 0.42490 0.19060
# Poissons Ratio (z) = 0.33527 0.26912
#
# Static dielectric constant tensor:
#      x y z
#    x 4.257670 0.000000 -0.454320 
#    y 0.000000 3.816640 0.000000 
#    z -0.454320 0.000000 4.576630 
# 
# 
# High freq. dielectric constant tensor:
#      x y z
#    x 1.844770 0.000000 0.005780 
#    y 0.000000 1.833860 0.000000 
#    z 0.005780 0.000000 1.842900 
# 
# From -- ./inp_files/255200.got.cif
#   From: 2010.06.25/outbox.cif.g09.slc.cpg/sg15_128_cif.got.tgz:255200.got - 2010.06.28 07:06:18.
