data_PCOD8143991
_publ_section_title
;
Structure prediction by ZEFSAII (Michael W. Deem and Ramdas Pophale) SiO2 
 PCOD8143991
Probable space group: C 2/C
;
_chemical_formula_sum "Si O2"
_cell_formula_units_Z 52
_cell_length_a 17.406562
_cell_length_b 8.398727
_cell_length_c 23.863528
_cell_angle_alpha 90.000000
_cell_angle_beta 39.805225
_cell_angle_gamma 90.000000
_cell_volume 2233.382225
_symmetry_space_group_name_H-M "C 2/C"
_symmetry_group_IT_number 15
_symmetry_cell_setting 'monoclinic'
loop_
_space_group_symop_operation_xyz
x,y,z
-x,y,1/2-z
-x,-y,-z
x,-y,1/2+z
1/2+x,1/2+y,z
1/2-x,1/2+y,1/2-z
1/2-x,1/2-y,-z
1/2+x,1/2-y,1/2+z
loop_
_atom_site_type_symbol
_atom_site_label
_atom_site_fract_x
_atom_site_fract_y
_atom_site_fract_z
Si Si1 0.719108 0.584902 0.848738
Si Si2 0.572787 0.834514 0.600671
Si Si3 0.466351 0.403228 0.615479
Si Si4 0.608381 0.937050 0.350810
Si Si5 0.305385 0.574435 0.312523
Si Si6 0.500000 0.366709 0.250000
Si Si7 0.705842 0.556610 0.469796
O O1 0.590565 0.547473 0.890421
O O2 0.822349 0.566382 0.746223
O O3 0.740042 0.758779 0.865762
O O4 0.732332 0.451472 0.888749
O O5 0.507157 0.739133 0.688790
O O6 0.650713 0.725600 0.516235
O O7 0.664404 0.966904 0.573886
O O8 0.483143 0.919193 0.607903
O O9 0.451343 0.228623 0.597576
O O10 0.406073 0.398787 0.709377
O O11 0.608932 0.423855 0.541764
O O12 0.697071 0.966791 0.352171
O O13 0.379173 0.478082 0.319006
#
# Coordination Sequence:
#
# PCOD8143991 Si02
#       7
#     8   8   8   8   8   4   8
#     4  10  22  41  68  95 132 170 221 281 330 388
#     4  11  25  42  67  95 138 175 219 270 336 403
#     4  10  21  41  68  97 133 172 221 280 330 395
#     4  10  23  42  70  98 125 179 229 272 322 403
#     4  10  23  41  69  96 129 172 235 269 328 395
#     4  12  24  44  72 100 134 182 228 280 328 404
#     4  11  23  43  63  95 139 176 210 276 345 391
#
# _framework density 23.283073000000002
#
# number of rings (size 3 to 8) (size 9 to 14) (size 15 to 20)
#    0.000    1.538    1.538    2.308    8.615    3.077 
#    5.538    1.538    0.000    0.000    0.000    0.000 
#    0.000    0.000    0.000    0.000    0.000    0.000 
#
# Total GULP energy -322122.964768 kJ/mol
# GULP energy per Si atom -12389.344799 kJ/mol
# Density = 2.323008 g / cm^3
# Si number density = 23.283073 Si / 1000 Ang^3
#
#
#
# Elastic Constant Matrix: (Units=GPa)
#
#
# Indices 1 2 3 4 5 6 
#
# 1 97.9436 47.7579 27.8388 -0.0005 -13.4274 0.0004
# 2 47.7579 120.0105 32.8879 -0.0009 -12.5795 0.0000
# 3 27.8388 32.8879 50.6354 -0.0003 -15.7263 0.0004
# 4 -0.0005 -0.0009 -0.0003 -2.8381 0.0001 -6.2185
# 5 -13.4274 -12.5795 -15.7263 0.0001 15.9927 0.0000
# 6 0.0004 0.0000 0.0004 -6.2185 0.0000 41.8985
#
#
#
# Elastic Compliance Matrix: (Units=1/GPa)
#
#
# Indices 1 2 3 4 5 6 
#
# 1 0.013848 -0.004044 -0.003403 0.000000 0.005099 0.000000
# 2 -0.004044 0.011370 -0.004950 -0.000002 0.000680 0.000000
# 3 -0.003403 -0.004950 0.032737 0.000000 0.025440 0.000000
# 4 0.000000 -0.000002 0.000000 -0.265883 0.000000 -0.039462
# 5 0.005099 0.000680 0.025440 0.000000 0.092362 0.000000
# 6 0.000000 0.000000 0.000000 -0.039462 0.000000 0.018010
#
#
# Mechanical properties :
#
#
# Convention : Reuss Voigt Hill
#
# Bulk Modulus (GPa) = 30.15689 53.95095 42.05392
# Shear Modulus (GPa) = -81.02543 21.68428 -29.67057
#
# Velocity S-wave (km/s) = -5.90556 3.05508 -3.57366
# Velocity P-wave (km/s) = 5.78969 5.97217 1.03592
#
# Compressibility (1/GPa) = 0.03315992
#
# Stress axis : x y z
#
# Youngs Moduli (GPa) = 72.21202 87.95369 30.54686
#
# Poissons Ratio (x) = 0.35565 0.10396
# Poissons Ratio (y) = 0.29200 0.15121
# Poissons Ratio (z) = 0.24577 0.43539
#
# Static dielectric constant tensor:
#      x y z
#    x 4.365810 0.000000 -0.257900 
#    y 0.000000 4.440920 0.000000 
#    z -0.257900 0.000000 4.151980 
# 
# 
# High freq. dielectric constant tensor:
#      x y z
#    x 1.919430 0.000000 -0.013530 
#    y 0.000000 1.917130 0.000000 
#    z -0.013530 0.000000 1.916840 
# 
# From -- ./inp_files/298343.got.cif
#   From: 2010.06.25/outbox.cif.g09.slc.cpg/sg15_150_cif.got.tgz:298343.got - 2010.06.28 07:06:18.
