data_PCOD8143400
_publ_section_title
;
Structure prediction by ZEFSAII (Michael W. Deem and Ramdas Pophale) SiO2 
 PCOD8143400
Probable space group: C 2/C
;
_chemical_formula_sum "Si O2"
_cell_formula_units_Z 32
_cell_length_a 9.379878
_cell_length_b 18.065903
_cell_length_c 14.012881
_cell_angle_alpha 90.000000
_cell_angle_beta 151.195312
_cell_angle_gamma 90.000000
_cell_volume 1144.126287
_symmetry_space_group_name_H-M "C 2/C"
_symmetry_group_IT_number 15
_symmetry_cell_setting 'monoclinic'
loop_
_space_group_symop_operation_xyz
x,y,z
-x,y,1/2-z
-x,-y,-z
x,-y,1/2+z
1/2+x,1/2+y,z
1/2-x,1/2+y,1/2-z
1/2-x,1/2-y,-z
1/2+x,1/2-y,1/2+z
loop_
_atom_site_type_symbol
_atom_site_label
_atom_site_fract_x
_atom_site_fract_y
_atom_site_fract_z
Si Si1 0.339146 0.852250 0.413959
Si Si2 0.253717 0.235963 0.681321
Si Si3 0.310722 0.609036 0.396921
Si Si4 0.151806 0.003316 0.743821
O O1 0.406137 0.803823 0.359222
O O2 0.577924 0.809619 0.620773
O O3 0.413760 0.938872 0.433576
O O4 0.000000 0.845590 0.250000
O O5 0.500000 0.259475 0.750000
O O6 0.031686 0.175891 0.503327
O O7 0.432553 0.556805 0.554041
O O8 0.241716 0.562409 0.260895
O O9 0.000000 0.641511 0.250000
O O10 0.000000 0.971040 0.750000
#
# Coordination Sequence:
#
# PCOD8143400 Si02
#       4
#     8   8   8   8
#     4  10  21  40  66  94 125 165 212 261 318 381
#     4  11  23  41  65  94 129 166 209 264 319 376
#     4  10  22  41  65  93 129 172 213 261 319 381
#     4   9  21  40  64  94 129 167 214 265 317 379
#
# _framework density 27.968938999999999
#
# number of rings (size 3 to 8) (size 9 to 14) (size 15 to 20)
#    0.000    2.000    0.000    2.250    0.000   14.000 
#    0.000    8.750    0.000    6.000    0.000    0.000 
#    0.000    0.000    0.000    0.000    0.000    0.000 
#
# Total GULP energy -198373.852536 kJ/mol
# GULP energy per Si atom -12398.365783 kJ/mol
# Density = 2.790528 g / cm^3
# Si number density = 27.968939 Si / 1000 Ang^3
#
#
#
# Elastic Constant Matrix: (Units=GPa)
#
#
# Indices 1 2 3 4 5 6 
#
# 1 163.7467 53.6947 20.0525 -0.0241 16.6974 -0.0058
# 2 53.6947 182.6661 28.2421 0.0093 20.5830 -0.0081
# 3 20.0525 28.2421 82.1786 -0.0093 9.6476 -0.0344
# 4 -0.0241 0.0093 -0.0093 32.1663 0.0423 1.0993
# 5 16.6974 20.5830 9.6476 0.0423 54.9994 0.0151
# 6 -0.0058 -0.0081 -0.0344 1.0993 0.0151 39.0036
#
#
#
# Elastic Compliance Matrix: (Units=1/GPa)
#
#
# Indices 1 2 3 4 5 6 
#
# 1 0.006925 -0.001746 -0.000939 0.000007 -0.001284 0.000000
# 2 -0.001746 0.006413 -0.001591 -0.000002 -0.001591 0.000000
# 3 -0.000939 -0.001591 0.013111 0.000005 -0.001419 0.000012
# 4 0.000007 -0.000002 0.000005 0.031118 -0.000026 -0.000877
# 5 -0.001284 -0.001591 -0.001419 -0.000026 0.019416 -0.000009
# 6 0.000000 0.000000 0.000012 -0.000877 -0.000009 0.025663
#
#
# Mechanical properties :
#
#
# Convention : Reuss Voigt Hill
#
# Bulk Modulus (GPa) = 55.87393 70.28557 63.07975
# Shear Modulus (GPa) = 42.67457 47.00730 44.84094
#
# Velocity S-wave (km/s) = 3.91037 4.10408 4.00839
# Velocity P-wave (km/s) = 6.35676 6.90234 6.63516
#
# Compressibility (1/GPa) = 0.01789744
#
# Stress axis : x y z
#
# Youngs Moduli (GPa) = 144.39495 155.93529 76.27050
#
# Poissons Ratio (x) = 0.27223 0.07163
# Poissons Ratio (y) = 0.25209 0.12136
# Poissons Ratio (z) = 0.13560 0.24812
#
# Static dielectric constant tensor:
#      x y z
#    x 5.063320 0.000030 -0.832850 
#    y 0.000030 5.584430 -0.000970 
#    z -0.832850 -0.000970 5.794760 
# 
# 
# High freq. dielectric constant tensor:
#      x y z
#    x 2.129800 0.000000 -0.037790 
#    y 0.000000 2.157100 -0.000020 
#    z -0.037790 -0.000020 2.168910 
# 
# From -- ./inp_files/137666.got.cif
#   From: 2010.06.25/outbox.cif.g09.slc.cpg/sg15_69_cif.got.tgz:137666.got - 2010.06.28 07:06:18.
