data_PCOD8143193
_publ_section_title
;
Structure prediction by ZEFSAII (Michael W. Deem and Ramdas Pophale) SiO2 
 PCOD8143193
Probable space group: C 2/C
;
_chemical_formula_sum "Si O2"
_cell_formula_units_Z 52
_cell_length_a 26.157528
_cell_length_b 7.948042
_cell_length_c 11.109640
_cell_angle_alpha 90.000000
_cell_angle_beta 87.852104
_cell_angle_gamma 90.000000
_cell_volume 2308.083952
_symmetry_space_group_name_H-M "C 2/C"
_symmetry_group_IT_number 15
_symmetry_cell_setting 'monoclinic'
loop_
_space_group_symop_operation_xyz
x,y,z
-x,y,1/2-z
-x,-y,-z
x,-y,1/2+z
1/2+x,1/2+y,z
1/2-x,1/2+y,1/2-z
1/2-x,1/2-y,-z
1/2+x,1/2-y,1/2+z
loop_
_atom_site_type_symbol
_atom_site_label
_atom_site_fract_x
_atom_site_fract_y
_atom_site_fract_z
Si Si1 0.477115 0.060036 0.875024
Si Si2 0.165918 0.159176 0.439973
Si Si3 0.203099 0.046922 0.129994
Si Si4 0.000000 0.881461 0.750000
Si Si5 0.374255 0.883904 0.849080
Si Si6 0.285976 0.879264 0.274933
Si Si7 0.393296 0.551110 0.730230
O O1 0.500000 0.973706 0.750000
O O2 0.488502 0.260481 0.866388
O O3 0.416692 0.023866 0.873981
O O4 0.500000 0.000000 0.000000
O O5 0.134430 0.282709 0.527948
O O6 0.189326 0.272180 0.334343
O O7 0.211770 0.057392 0.505699
O O8 0.127093 0.016564 0.395427
O O9 0.221364 0.241526 0.117039
O O10 0.232283 0.956944 0.238771
O O11 0.142316 0.033104 0.162948
O O12 0.048027 0.000459 0.764454
O O13 0.390588 0.754175 0.741715
O O14 0.322132 0.970896 0.812714
#
# Coordination Sequence:
#
# PCOD8143193 Si02
#       7
#     8   8   8   4   8   8   8
#     4  10  23  42  68  98 137 179 233 283 349 412
#     4  10  22  42  66  95 134 176 222 276 339 415
#     4  10  21  40  63  95 128 176 212 276 332 403
#     4  10  22  42  66  92 132 184 218 288 346 404
#     4  11  24  42  66 101 130 179 227 281 345 410
#     4  11  23  42  68  94 139 168 225 276 338 413
#     4  10  22  42  61  91 131 169 227 274 336 404
#
# _framework density 22.529509999999998
#
# number of rings (size 3 to 8) (size 9 to 14) (size 15 to 20)
#    0.462    1.231    0.000    5.077    3.231    2.462 
#    5.538    8.462    0.000    0.000    0.000    0.000 
#    0.000    0.000    0.000    0.000    0.000    0.000 
#
# Total GULP energy -322219.320247 kJ/mol
# GULP energy per Si atom -12393.050779 kJ/mol
# Density = 2.247823 g / cm^3
# Si number density = 22.529510 Si / 1000 Ang^3
#
#
#
# Elastic Constant Matrix: (Units=GPa)
#
#
# Indices 1 2 3 4 5 6 
#
# 1 89.9562 23.6833 12.5518 0.0000 17.7070 0.0000
# 2 23.6833 99.6062 15.4637 0.0000 -0.7004 0.0000
# 3 12.5518 15.4637 98.2906 0.0000 7.1986 0.0000
# 4 0.0000 0.0000 0.0000 23.7471 0.0000 4.4811
# 5 17.7070 -0.7004 7.1986 0.0000 25.3816 0.0000
# 6 0.0000 0.0000 0.0000 4.4811 0.0000 46.9730
#
#
#
# Elastic Compliance Matrix: (Units=1/GPa)
#
#
# Indices 1 2 3 4 5 6 
#
# 1 0.013969 -0.003303 -0.000555 0.000000 -0.009679 0.000000
# 2 -0.003303 0.011086 -0.001546 0.000000 0.003049 0.000000
# 3 -0.000555 -0.001546 0.010685 0.000000 -0.002686 0.000000
# 4 0.000000 0.000000 0.000000 0.042882 0.000000 -0.004091
# 5 -0.009679 0.003049 -0.002686 0.000000 0.046997 0.000000
# 6 0.000000 0.000000 0.000000 -0.004091 0.000000 0.021679
#
#
# Mechanical properties :
#
#
# Convention : Reuss Voigt Hill
#
# Bulk Modulus (GPa) = 40.10980 43.47228 41.79104
# Shear Modulus (GPa) = 30.04506 34.96395 32.50450
#
# Velocity S-wave (km/s) = 3.65579 3.94371 3.80248
# Velocity P-wave (km/s) = 5.97174 6.33046 6.15371
#
# Compressibility (1/GPa) = 0.02493156
#
# Stress axis : x y z
#
# Youngs Moduli (GPa) = 71.58796 90.20113 93.59195
#
# Poissons Ratio (x) = 0.29795 0.05197
# Poissons Ratio (y) = 0.23647 0.14466
# Poissons Ratio (z) = 0.03975 0.13942
#
# Static dielectric constant tensor:
#      x y z
#    x 3.883050 0.000000 0.112760 
#    y 0.000000 4.330960 0.000000 
#    z 0.112760 0.000000 4.275980 
# 
# 
# High freq. dielectric constant tensor:
#      x y z
#    x 1.884270 0.000000 0.008400 
#    y 0.000000 1.896870 0.000000 
#    z 0.008400 0.000000 1.882360 
# 
# From -- ./inp_files/121562.got.cif
#   From: 2010.06.25/outbox.cif.g09.slc.cpg/sg15_61_cif.got.tgz:121562.got - 2010.06.28 07:06:18.
