data_PCOD8143063
_publ_section_title
;
Structure prediction by ZEFSAII (Michael W. Deem and Ramdas Pophale) SiO2 
 PCOD8143063
Probable space group: C 2/C
;
_chemical_formula_sum "Si O2"
_cell_formula_units_Z 56
_cell_length_a 12.948317
_cell_length_b 16.495897
_cell_length_c 19.921523
_cell_angle_alpha 90.000000
_cell_angle_beta 138.778954
_cell_angle_gamma 90.000000
_cell_volume 2803.978429
_symmetry_space_group_name_H-M "C 2/C"
_symmetry_group_IT_number 15
_symmetry_cell_setting 'monoclinic'
loop_
_space_group_symop_operation_xyz
x,y,z
-x,y,1/2-z
-x,-y,-z
x,-y,1/2+z
1/2+x,1/2+y,z
1/2-x,1/2+y,1/2-z
1/2-x,1/2-y,-z
1/2+x,1/2-y,1/2+z
loop_
_atom_site_type_symbol
_atom_site_label
_atom_site_fract_x
_atom_site_fract_y
_atom_site_fract_z
Si Si1 0.000000 0.531320 0.750000
Si Si2 0.291235 0.197009 0.414759
Si Si3 0.797973 0.638246 0.568098
Si Si4 0.224542 0.604309 0.311997
Si Si5 0.983920 0.311302 0.596103
Si Si6 0.026937 0.026992 0.401582
Si Si7 0.665471 0.643357 0.993095
Si Si8 0.000000 0.905344 0.750000
O O1 0.951841 0.589342 0.664997
O O2 0.858170 0.475628 0.702071
O O3 0.239428 0.290075 0.397752
O O4 0.330173 0.165649 0.508070
O O5 0.444845 0.183159 0.443996
O O6 0.148756 0.151852 0.307917
O O7 0.651340 0.578991 0.503382
O O8 0.360229 0.566343 0.334003
O O9 0.287644 0.656763 0.405881
O O10 0.112767 0.662722 0.214002
O O11 0.827331 0.366960 0.528804
O O12 0.932394 0.218689 0.583805
O O13 0.049652 0.035268 0.333580
O O14 0.050522 0.933550 0.431985
#
# Coordination Sequence:
#
# PCOD8143063 Si02
#       8
#     4   8   8   8   8   8   8   4
#     4  12  23  40  65  96 124 166 222 270 307 376
#     4  10  21  41  62  94 126 171 205 265 328 375
#     4  10  22  40  66  92 129 162 217 267 315 379
#     4  12  22  42  68  92 126 170 216 263 317 384
#     4  11  23  43  66  93 131 171 210 261 322 383
#     4  11  22  42  64  94 123 171 208 270 320 375
#     4  11  24  43  64  94 132 168 215 264 313 386
#     4  10  21  40  61  88 134 154 212 264 321 380
#
# _framework density 19.971623000000001
#
# number of rings (size 3 to 8) (size 9 to 14) (size 15 to 20)
#    0.000    1.143    4.286    1.714    2.000    0.000 
#   10.286    2.143    0.000    0.000    0.000    0.000 
#    0.000    0.000    0.000    0.000    0.000    0.000 
#
# Total GULP energy -347131.326983 kJ/mol
# GULP energy per Si atom -12397.547392 kJ/mol
# Density = 1.992617 g / cm^3
# Si number density = 19.971623 Si / 1000 Ang^3
#
#
#
# Elastic Constant Matrix: (Units=GPa)
#
#
# Indices 1 2 3 4 5 6 
#
# 1 99.0968 26.3841 26.6707 0.0001 9.1737 0.0001
# 2 26.3841 103.6363 58.6595 0.0000 -3.1604 0.0000
# 3 26.6707 58.6595 110.8042 0.0003 0.7978 0.0002
# 4 0.0001 0.0000 0.0003 -27.8103 0.0001 -48.5793
# 5 9.1737 -3.1604 0.7978 0.0001 25.2149 0.0001
# 6 0.0001 0.0000 0.0002 -48.5793 0.0001 -23.9531
#
#
#
# Elastic Compliance Matrix: (Units=1/GPa)
#
#
# Indices 1 2 3 4 5 6 
#
# 1 0.011503 -0.002161 -0.001593 0.000000 -0.004406 0.000000
# 2 -0.002161 0.014281 -0.007060 0.000000 0.002800 0.000000
# 3 -0.001593 -0.007060 0.013151 0.000000 -0.000722 0.000000
# 4 0.000000 0.000000 0.000000 0.014142 0.000000 -0.028681
# 5 -0.004406 0.002800 -0.000722 0.000000 0.041636 0.000000
# 6 0.000000 0.000000 0.000000 -0.028681 0.000000 0.016419
#
#
# Mechanical properties :
#
#
# Convention : Reuss Voigt Hill
#
# Bulk Modulus (GPa) = 57.78196 59.66288 58.72242
# Shear Modulus (GPa) = 36.09359 8.14519 22.11939
#
# Velocity S-wave (km/s) = 4.25578 2.02169 3.33158
# Velocity P-wave (km/s) = 7.28997 5.94881 6.65327
#
# Compressibility (1/GPa) = 0.01730644
#
# Stress axis : x y z
#
# Youngs Moduli (GPa) = 86.93294 70.02365 76.03864
#
# Poissons Ratio (x) = 0.15134 0.12113
# Poissons Ratio (y) = 0.18788 0.53685
# Poissons Ratio (z) = 0.13848 0.49438
#
# Static dielectric constant tensor:
#      x y z
#    x 3.536110 0.000000 0.058510 
#    y 0.000000 3.638500 0.000000 
#    z 0.058510 0.000000 3.667930 
# 
# 
# High freq. dielectric constant tensor:
#      x y z
#    x 1.782010 0.000000 0.004230 
#    y 0.000000 1.779690 0.000000 
#    z 0.004230 0.000000 1.784930 
# 
# From -- ./inp_files/244582.got.cif
#   From: 2010.06.25/outbox.cif.g09.slc.cpg/sg15_123_cif.got.tgz:244582.got - 2010.06.28 07:06:18.
