data_PCOD8143758
_publ_section_title
;
Structure prediction by ZEFSAII (Michael W. Deem and Ramdas Pophale) SiO2 
 PCOD8143758
Probable space group: C 2/C
;
_chemical_formula_sum "Si O2"
_cell_formula_units_Z 64
_cell_length_a 17.209801
_cell_length_b 9.730355
_cell_length_c 30.156244
_cell_angle_alpha 90.000000
_cell_angle_beta 141.866272
_cell_angle_gamma 90.000000
_cell_volume 3118.301096
_symmetry_space_group_name_H-M "C 2/C"
_symmetry_group_IT_number 15
_symmetry_cell_setting 'monoclinic'
loop_
_space_group_symop_operation_xyz
x,y,z
-x,y,1/2-z
-x,-y,-z
x,-y,1/2+z
1/2+x,1/2+y,z
1/2-x,1/2+y,1/2-z
1/2-x,1/2-y,-z
1/2+x,1/2-y,1/2+z
loop_
_atom_site_type_symbol
_atom_site_label
_atom_site_fract_x
_atom_site_fract_y
_atom_site_fract_z
Si Si1 0.828061 0.722372 0.209229
Si Si2 0.361964 0.162307 0.814215
Si Si3 0.406139 0.009214 0.091066
Si Si4 0.762350 0.826979 0.421324
Si Si5 0.722201 0.565486 0.670850
Si Si6 0.719087 0.532323 0.435725
Si Si7 0.892134 0.239123 0.643579
Si Si8 0.478208 0.407151 0.580437
O O1 0.724160 0.831910 0.180001
O O2 0.802915 0.571433 0.217407
O O3 0.823676 0.691737 0.154802
O O4 0.960855 0.785555 0.282592
O O5 0.445433 0.024409 0.846912
O O6 0.269113 0.173000 0.729632
O O7 0.456189 0.290679 0.860291
O O8 0.342080 0.908802 0.097959
O O9 0.379077 0.165273 0.094501
O O10 0.355553 0.989374 0.018724
O O11 0.754838 0.867907 0.366651
O O12 0.722175 0.667839 0.407177
O O13 0.903933 0.848471 0.504000
O O14 0.574903 0.526234 0.609034
O O15 0.679935 0.404425 0.388874
O O16 0.624738 0.527390 0.434499
#
# Coordination Sequence:
#
# PCOD8143758 Si02
#       8
#     8   8   8   8   8   8   8   8
#     4  10  23  40  62  87 126 168 208 271 324 379
#     4  11  21  40  64  91 124 161 213 269 320 371
#     4  11  20  40  66  88 124 172 213 258 317 401
#     4  11  21  40  64  97 124 166 216 267 320 380
#     4  11  22  38  67  92 123 169 227 256 324 396
#     4  11  22  40  61  95 126 165 210 265 329 375
#     4  11  22  42  62  90 126 170 217 255 320 395
#     4  10  21  41  64  90 130 165 206 271 325 378
#
# _framework density 20.523996
#
# number of rings (size 3 to 8) (size 9 to 14) (size 15 to 20)
#    0.000    1.250    5.000    2.250    0.000    0.500 
#    9.000    0.625    0.000    0.000    0.000    0.000 
#    0.000    0.000    0.000    0.000    0.000    0.000 
#
# Total GULP energy -396617.182602 kJ/mol
# GULP energy per Si atom -12394.286956 kJ/mol
# Density = 2.047728 g / cm^3
# Si number density = 20.523996 Si / 1000 Ang^3
#
#
#
# Elastic Constant Matrix: (Units=GPa)
#
#
# Indices 1 2 3 4 5 6 
#
# 1 91.0112 27.1314 45.4808 0.0000 9.4343 0.0000
# 2 27.1314 96.2576 37.4064 0.0000 4.0254 0.0000
# 3 45.4808 37.4064 89.6540 0.0000 2.4247 0.0000
# 4 0.0000 0.0000 0.0000 32.9359 0.0000 0.3679
# 5 9.4343 4.0254 2.4247 0.0000 21.4424 0.0000
# 6 0.0000 0.0000 0.0000 0.3679 0.0000 35.4075
#
#
#
# Elastic Compliance Matrix: (Units=1/GPa)
#
#
# Indices 1 2 3 4 5 6 
#
# 1 0.015581 -0.001359 -0.007181 0.000000 -0.005788 0.000000
# 2 -0.001359 0.012583 -0.004527 0.000000 -0.001252 0.000000
# 3 -0.007181 -0.004527 0.016628 0.000000 0.002129 0.000000
# 4 0.000000 0.000000 0.000000 0.030366 0.000000 -0.000316
# 5 -0.005788 -0.001252 0.002129 0.000000 0.049178 0.000000
# 6 0.000000 0.000000 0.000000 -0.000316 0.000000 0.028246
#
#
# Mechanical properties :
#
#
# Convention : Reuss Voigt Hill
#
# Bulk Modulus (GPa) = 53.59288 55.21780 54.40534
# Shear Modulus (GPa) = 27.03658 29.08409 28.06033
#
# Velocity S-wave (km/s) = 3.63342 3.76849 3.70157
# Velocity P-wave (km/s) = 6.61599 6.77479 6.69586
#
# Compressibility (1/GPa) = 0.01865919
#
# Stress axis : x y z
#
# Youngs Moduli (GPa) = 64.17982 79.46961 60.14035
#
# Poissons Ratio (x) = 0.10802 0.43184
# Poissons Ratio (y) = 0.08724 0.27224
# Poissons Ratio (z) = 0.46085 0.35974
#
# Static dielectric constant tensor:
#      x y z
#    x 3.757190 0.000000 0.125390 
#    y 0.000000 3.564110 0.000000 
#    z 0.125390 0.000000 3.884120 
# 
# 
# High freq. dielectric constant tensor:
#      x y z
#    x 1.801210 0.000000 0.009090 
#    y 0.000000 1.789640 0.000000 
#    z 0.009090 0.000000 1.807890 
# 
# From -- ./inp_files/315730.got.cif
#   From: 2010.06.25/outbox.cif.g09.slc.cpg/sg15_158_cif.got.tgz:315730.got - 2010.06.28 07:06:18.
