data_PCOD8143309
_publ_section_title
;
Structure prediction by ZEFSAII (Michael W. Deem and Ramdas Pophale) SiO2 
 PCOD8143309
Probable space group: C 2/C
;
_chemical_formula_sum "Si O2"
_cell_formula_units_Z 60
_cell_length_a 17.598920
_cell_length_b 17.607551
_cell_length_c 17.677319
_cell_angle_alpha 90.000000
_cell_angle_beta 149.262558
_cell_angle_gamma 90.000000
_cell_volume 2799.698436
_symmetry_space_group_name_H-M "C 2/C"
_symmetry_group_IT_number 15
_symmetry_cell_setting 'monoclinic'
loop_
_space_group_symop_operation_xyz
x,y,z
-x,y,1/2-z
-x,-y,-z
x,-y,1/2+z
1/2+x,1/2+y,z
1/2-x,1/2+y,1/2-z
1/2-x,1/2-y,-z
1/2+x,1/2-y,1/2+z
loop_
_atom_site_type_symbol
_atom_site_label
_atom_site_fract_x
_atom_site_fract_y
_atom_site_fract_z
Si Si1 0.180513 0.875656 0.097530
Si Si2 0.733893 0.160504 0.995117
Si Si3 0.492159 0.112029 0.901778
Si Si4 0.594177 0.527877 0.976262
Si Si5 0.588152 0.828995 0.641511
Si Si6 0.500000 0.559599 0.250000
Si Si7 0.071064 0.459748 0.731740
Si Si8 0.433139 0.682439 0.471628
O O1 0.324816 0.854134 0.271589
O O2 0.108613 0.959664 0.050658
O O3 0.252340 0.877604 0.075352
O O4 0.046398 0.815823 0.995467
O O5 0.862699 0.116367 0.151672
O O6 0.750000 0.250000 0.000000
O O7 0.576949 0.147800 0.902126
O O8 0.467664 0.023267 0.863803
O O9 0.580761 0.128761 0.054227
O O10 0.760272 0.551616 0.099351
O O11 0.519048 0.605290 0.943134
O O12 0.510892 0.496156 0.831132
O O13 0.521009 0.881627 0.649794
O O14 0.484858 0.755315 0.563125
O O15 0.762779 0.811402 0.802268
O O16 0.000000 0.479057 0.750000
#
# Coordination Sequence:
#
# PCOD8143309 Si02
#       8
#     8   8   8   8   8   4   8   8
#     4  10  21  40  65  90 126 172 213 261 325 377
#     4  11  24  36  61  93 134 171 210 261 321 386
#     4  11  22  41  66  94 128 170 216 264 321 393
#     4   9  21  41  64  92 124 172 214 270 322 382
#     4  11  25  41  65  98 127 172 215 269 335 385
#     4  10  22  40  60  98 124 168 228 254 328 386
#     4  10  21  45  68  93 127 167 223 274 320 387
#     4  11  23  44  62  92 136 165 216 274 322 385
#
# _framework density 21.430879999999998
#
# number of rings (size 3 to 8) (size 9 to 14) (size 15 to 20)
#    0.000    1.600    0.000    5.200    5.600    0.000 
#   10.800    1.333    0.000    0.000    0.000    0.000 
#    0.000    0.000    0.000    0.000    0.000    0.000 
#
# Total GULP energy -371675.513847 kJ/mol
# GULP energy per Si atom -12389.183795 kJ/mol
# Density = 2.138210 g / cm^3
# Si number density = 21.430880 Si / 1000 Ang^3
#
#
#
# Elastic Constant Matrix: (Units=GPa)
#
#
# Indices 1 2 3 4 5 6 
#
# 1 37.6537 26.7075 20.2927 0.0039 -1.6220 -0.0003
# 2 26.7075 124.4824 61.2429 0.0066 -4.5975 0.0006
# 3 20.2927 61.2429 122.6574 0.0095 -0.6228 0.0020
# 4 0.0039 0.0066 0.0095 39.1577 0.0045 3.4004
# 5 -1.6220 -4.5975 -0.6228 0.0045 28.2104 0.0003
# 6 -0.0003 0.0006 0.0020 3.4004 0.0003 27.3597
#
#
#
# Elastic Compliance Matrix: (Units=1/GPa)
#
#
# Indices 1 2 3 4 5 6 
#
# 1 0.031898 -0.005591 -0.002481 -0.000002 0.000868 0.000001
# 2 -0.005591 0.011703 -0.004911 0.000000 0.001477 0.000000
# 3 -0.002481 -0.004911 0.011012 -0.000001 -0.000700 -0.000001
# 4 -0.000002 0.000000 -0.000001 0.025816 -0.000004 -0.003209
# 5 0.000868 0.001477 -0.000700 -0.000004 0.035723 0.000000
# 6 0.000001 0.000000 -0.000001 -0.003209 0.000000 0.036949
#
#
# Mechanical properties :
#
#
# Convention : Reuss Voigt Hill
#
# Bulk Modulus (GPa) = 34.90787 55.69772 45.30280
# Shear Modulus (GPa) = 26.50868 30.71558 28.61213
#
# Velocity S-wave (km/s) = 3.52083 3.78992 3.65785
# Velocity P-wave (km/s) = 5.73169 6.72289 6.24698
#
# Compressibility (1/GPa) = 0.02864683
#
# Stress axis : x y z
#
# Youngs Moduli (GPa) = 31.34987 85.44453 90.81102
#
# Poissons Ratio (x) = 0.47770 0.22534
# Poissons Ratio (y) = 0.17527 0.44598
# Poissons Ratio (z) = 0.07779 0.41963
#
# Static dielectric constant tensor:
#      x y z
#    x 4.144210 0.000000 0.224480 
#    y 0.000000 4.120060 -0.000020 
#    z 0.224480 -0.000020 3.992790 
# 
# 
# High freq. dielectric constant tensor:
#      x y z
#    x 1.826480 0.000000 0.014730 
#    y 0.000000 1.852770 0.000000 
#    z 0.014730 0.000000 1.843180 
# 
# From -- ./inp_files/211747.got.cif
#   From: 2010.06.25/outbox.cif.g09.slc.cpg/sg15_106_cif.got.tgz:211747.got - 2010.06.28 07:06:18.
