data_PCOD8143882
_publ_section_title
;
Structure prediction by ZEFSAII (Michael W. Deem and Ramdas Pophale) SiO2 
 PCOD8143882
Probable space group: C 2/C
;
_chemical_formula_sum "Si O2"
_cell_formula_units_Z 48
_cell_length_a 17.533438
_cell_length_b 8.482906
_cell_length_c 16.665557
_cell_angle_alpha 90.000000
_cell_angle_beta 62.562734
_cell_angle_gamma 90.000000
_cell_volume 2199.924117
_symmetry_space_group_name_H-M "C 2/C"
_symmetry_group_IT_number 15
_symmetry_cell_setting 'monoclinic'
loop_
_space_group_symop_operation_xyz
x,y,z
-x,y,1/2-z
-x,-y,-z
x,-y,1/2+z
1/2+x,1/2+y,z
1/2-x,1/2+y,1/2-z
1/2-x,1/2-y,-z
1/2+x,1/2-y,1/2+z
loop_
_atom_site_type_symbol
_atom_site_label
_atom_site_fract_x
_atom_site_fract_y
_atom_site_fract_z
Si Si1 0.823339 0.566282 0.516088
Si Si2 0.834202 0.060338 0.665516
Si Si3 0.993190 0.901875 0.661246
Si Si4 0.666352 0.927462 0.813382
Si Si5 0.351318 0.568540 0.987846
Si Si6 0.506068 0.065130 0.587764
O O1 0.815384 0.493012 0.607482
O O2 0.735490 0.521972 0.515328
O O3 0.844710 0.749819 0.515419
O O4 0.900678 0.490581 0.425779
O O5 0.832932 0.241197 0.689116
O O6 0.899539 0.975561 0.694175
O O7 0.739447 0.987704 0.718267
O O8 0.864188 0.038485 0.559864
O O9 0.000000 0.845937 0.750000
O O10 0.002898 0.753675 0.596608
O O11 0.066260 0.032640 0.607587
O O12 0.574082 0.989596 0.825157
O O13 0.500000 0.000000 0.500000
#
# Coordination Sequence:
#
# PCOD8143882 Si02
#       6
#     8   8   8   8   8   8
#     4  10  22  41  64  94 129 166 214 265 318 382
#     4  12  24  41  66  92 128 172 214 266 324 385
#     4  12  26  43  66  97 131 169 218 271 324 385
#     4  11  23  41  64  93 128 166 214 267 320 381
#     4  11  23  41  66  93 128 172 213 262 323 384
#     4  10  21  41  66  92 128 170 215 264 318 383
#
# _framework density 21.818935
#
# number of rings (size 3 to 8) (size 9 to 14) (size 15 to 20)
#    0.000    1.000    0.000    8.500    0.000    6.667 
#    0.000    1.667    0.000    0.000    0.000    0.000 
#    0.000    0.000    0.000    0.000    0.000    0.000 
#
# Total GULP energy -297662.729365 kJ/mol
# GULP energy per Si atom -12402.613724 kJ/mol
# Density = 2.176927 g / cm^3
# Si number density = 21.818935 Si / 1000 Ang^3
#
#
#
# Elastic Constant Matrix: (Units=GPa)
#
#
# Indices 1 2 3 4 5 6 
#
# 1 77.0871 8.4881 32.4232 0.0000 -25.3564 0.0000
# 2 8.4881 100.8243 16.2714 0.0000 -8.6947 -0.0001
# 3 32.4232 16.2714 85.1281 0.0000 -15.1968 0.0000
# 4 0.0000 0.0000 0.0000 30.7643 0.0000 -7.0298
# 5 -25.3564 -8.6947 -15.1968 0.0000 46.7335 0.0000
# 6 0.0000 -0.0001 0.0000 -7.0298 0.0000 35.0514
#
#
#
# Elastic Compliance Matrix: (Units=1/GPa)
#
#
# Indices 1 2 3 4 5 6 
#
# 1 0.017845 0.000052 -0.005389 0.000000 0.007939 0.000000
# 2 0.000052 0.010314 -0.001745 0.000000 0.001380 0.000000
# 3 -0.005389 -0.001745 0.014389 0.000000 0.001430 0.000000
# 4 0.000000 0.000000 0.000000 0.034066 0.000000 0.006832
# 5 0.007939 0.001380 0.001430 0.000000 0.026427 0.000000
# 6 0.000000 0.000000 0.000000 0.006832 0.000000 0.029900
#
#
# Mechanical properties :
#
#
# Convention : Reuss Voigt Hill
#
# Bulk Modulus (GPa) = 35.23192 41.93387 38.58290
# Shear Modulus (GPa) = 31.93518 36.23362 34.08440
#
# Velocity S-wave (km/s) = 3.82991 4.07953 3.95669
# Velocity P-wave (km/s) = 5.97830 6.43823 6.21252
#
# Compressibility (1/GPa) = 0.02838335
#
# Stress axis : x y z
#
# Youngs Moduli (GPa) = 56.03845 96.95120 69.49991
#
# Poissons Ratio (x) = -0.00505 0.37456
# Poissons Ratio (y) = -0.00292 0.12128
# Poissons Ratio (z) = 0.30201 0.16918
#
# Static dielectric constant tensor:
#      x y z
#    x 4.395540 0.000000 -0.485610 
#    y 0.000000 3.913190 0.000000 
#    z -0.485610 0.000000 3.938920 
# 
# 
# High freq. dielectric constant tensor:
#      x y z
#    x 1.871380 0.000000 -0.023950 
#    y 0.000000 1.867540 0.000000 
#    z -0.023950 0.000000 1.852310 
# 
# From -- ./inp_files/208931.got.cif
#   From: 2010.06.25/outbox.cif.g09.slc.cpg/sg15_105_cif.got.tgz:208931.got - 2010.06.28 07:06:18.
