data_PCOD8143628
_publ_section_title
;
Structure prediction by ZEFSAII (Michael W. Deem and Ramdas Pophale) SiO2 
 PCOD8143628
Probable space group: C 2/C
;
_chemical_formula_sum "Si O2"
_cell_formula_units_Z 32
_cell_length_a 9.994072
_cell_length_b 25.720263
_cell_length_c 5.579091
_cell_angle_alpha 90.000000
_cell_angle_beta 108.686427
_cell_angle_gamma 90.000000
_cell_volume 1358.509050
_symmetry_space_group_name_H-M "C 2/C"
_symmetry_group_IT_number 15
_symmetry_cell_setting 'monoclinic'
loop_
_space_group_symop_operation_xyz
x,y,z
-x,y,1/2-z
-x,-y,-z
x,-y,1/2+z
1/2+x,1/2+y,z
1/2-x,1/2+y,1/2-z
1/2-x,1/2-y,-z
1/2+x,1/2-y,1/2+z
loop_
_atom_site_type_symbol
_atom_site_label
_atom_site_fract_x
_atom_site_fract_y
_atom_site_fract_z
Si Si1 0.856827 0.785561 0.814983
Si Si2 0.658085 0.175315 0.809609
Si Si3 0.836810 0.529444 0.167503
Si Si4 0.652374 0.616213 0.890845
O O1 0.716851 0.802195 0.590518
O O2 0.840917 0.724410 0.880425
O O3 0.000000 0.791482 0.750000
O O4 0.874501 0.824913 0.042178
O O5 0.500000 0.153868 0.750000
O O6 0.749359 0.124882 0.785876
O O7 0.800801 0.499045 0.393269
O O8 0.000000 0.546204 0.250000
O O9 0.737306 0.580224 0.125713
O O10 0.500000 0.590098 0.750000
#
# Coordination Sequence:
#
# PCOD8143628 Si02
#       4
#     8   8   8   8
#     4  10  21  41  61  94 140 178 221 274 334 398
#     4  10  23  39  63  94 136 183 224 271 328 402
#     4  10  26  49  73 101 135 173 225 290 350 416
#     4  12  25  40  68  98 134 174 227 280 345 406
#
# _framework density 23.555236000000001
#
# number of rings (size 3 to 8) (size 9 to 14) (size 15 to 20)
#    0.000    1.500    2.500    0.750    7.000    2.000 
#    0.000    0.000    0.000    0.000    0.000    0.000 
#    0.000    0.000    0.000    0.000    0.000    0.000 
#
# Total GULP energy -198285.397781 kJ/mol
# GULP energy per Si atom -12392.837361 kJ/mol
# Density = 2.350162 g / cm^3
# Si number density = 23.555236 Si / 1000 Ang^3
#
#
#
# Elastic Constant Matrix: (Units=GPa)
#
#
# Indices 1 2 3 4 5 6 
#
# 1 138.6632 47.3451 34.2704 0.0000 36.7065 0.0000
# 2 47.3451 74.5798 30.9740 0.0000 1.6759 0.0000
# 3 34.2704 30.9740 92.5004 0.0000 9.9277 0.0000
# 4 0.0000 0.0000 0.0000 32.9637 0.0000 12.5279
# 5 36.7065 1.6759 9.9277 0.0000 32.5319 0.0000
# 6 0.0000 0.0000 0.0000 12.5279 0.0000 19.1699
#
#
#
# Elastic Compliance Matrix: (Units=1/GPa)
#
#
# Indices 1 2 3 4 5 6 
#
# 1 0.014440 -0.008468 -0.000840 0.000000 -0.015601 0.000000
# 2 -0.008468 0.020561 -0.004817 0.000000 0.009965 0.000000
# 3 -0.000840 -0.004817 0.013034 0.000000 -0.002781 0.000000
# 4 0.000000 0.000000 0.000000 0.040361 0.000000 -0.026377
# 5 -0.015601 0.009965 -0.002781 0.000000 0.048677 0.000000
# 6 0.000000 0.000000 0.000000 -0.026377 0.000000 0.069403
#
#
# Mechanical properties :
#
#
# Convention : Reuss Voigt Hill
#
# Bulk Modulus (GPa) = 50.54422 58.99137 54.76779
# Shear Modulus (GPa) = 20.71937 29.81003 25.26470
#
# Velocity S-wave (km/s) = 2.96904 3.56130 3.27857
# Velocity P-wave (km/s) = 5.76697 6.48141 6.13460
#
# Compressibility (1/GPa) = 0.01978466
#
# Stress axis : x y z
#
# Youngs Moduli (GPa) = 69.25052 48.63679 76.72484
#
# Poissons Ratio (x) = 0.41183 0.06447
# Poissons Ratio (y) = 0.58638 0.36959
# Poissons Ratio (z) = 0.05819 0.23429
#
# Static dielectric constant tensor:
#      x y z
#    x 4.583510 0.000000 0.061960 
#    y 0.000000 4.159710 0.000000 
#    z 0.061960 0.000000 4.258130 
# 
# 
# High freq. dielectric constant tensor:
#      x y z
#    x 1.949320 0.000000 0.013170 
#    y 0.000000 1.917990 0.000000 
#    z 0.013170 0.000000 1.916510 
# 
# From -- ./inp_files/2568.got.cif
#   From: 2010.06.25/outbox.cif.g09.slc.cpg/sg15_2_cif.got.tgz:2568.got - 2010.06.28 07:06:18.
