data_PCOD8143433
_publ_section_title
;
Structure prediction by ZEFSAII (Michael W. Deem and Ramdas Pophale) SiO2 
 PCOD8143433
Probable space group: C 2/C
;
_chemical_formula_sum "Si O2"
_cell_formula_units_Z 48
_cell_length_a 15.869684
_cell_length_b 8.328285
_cell_length_c 26.663088
_cell_angle_alpha 90.000000
_cell_angle_beta 139.531292
_cell_angle_gamma 90.000000
_cell_volume 2287.182678
_symmetry_space_group_name_H-M "C 2/C"
_symmetry_group_IT_number 15
_symmetry_cell_setting 'monoclinic'
loop_
_space_group_symop_operation_xyz
x,y,z
-x,y,1/2-z
-x,-y,-z
x,-y,1/2+z
1/2+x,1/2+y,z
1/2-x,1/2+y,1/2-z
1/2-x,1/2-y,-z
1/2+x,1/2-y,1/2+z
loop_
_atom_site_type_symbol
_atom_site_label
_atom_site_fract_x
_atom_site_fract_y
_atom_site_fract_z
Si Si1 0.853791 0.351486 0.855866
Si Si2 0.274154 0.058210 0.051525
Si Si3 0.951917 0.852142 0.783803
Si Si4 0.903410 0.862076 0.472048
Si Si5 0.048890 0.165403 0.880448
Si Si6 0.523391 0.141099 0.906815
O O1 0.701420 0.370017 0.781149
O O2 0.888998 0.278740 0.925704
O O3 0.910470 0.530219 0.878094
O O4 0.913182 0.238562 0.839096
O O5 0.369388 0.200475 0.113849
O O6 0.238069 0.942646 0.081904
O O7 0.344549 0.961787 0.038345
O O8 0.137343 0.123343 0.968559
O O9 0.989953 0.704291 0.836358
O O10 0.000000 0.810811 0.750000
O O11 0.021417 0.016385 0.832204
O O12 0.957212 0.790817 0.548194
O O13 0.000000 0.000000 0.500000
#
# Coordination Sequence:
#
# PCOD8143433 Si02
#       6
#     8   8   8   8   8   8
#     4  11  24  42  65  96 132 170 219 265 335 394
#     4  10  21  40  67  89 130 164 222 266 326 377
#     4  12  25  42  64  94 133 176 219 266 335 394
#     4  12  22  39  66 101 126 167 218 273 324 389
#     4  10  22  43  63  93 129 175 211 274 323 386
#     4  11  24  41  66  93 131 173 215 274 324 389
#
# _framework density 20.986518
#
# number of rings (size 3 to 8) (size 9 to 14) (size 15 to 20)
#    0.000    1.000    3.333    3.000    2.333    1.333 
#    0.000    8.333    0.000    0.000    0.000    0.000 
#    0.000    0.000    0.000    0.000    0.000    0.000 
#
# Total GULP energy -297656.642546 kJ/mol
# GULP energy per Si atom -12402.360106 kJ/mol
# Density = 2.093875 g / cm^3
# Si number density = 20.986518 Si / 1000 Ang^3
#
#
#
# Elastic Constant Matrix: (Units=GPa)
#
#
# Indices 1 2 3 4 5 6 
#
# 1 121.7687 68.4962 52.2313 0.0000 6.9723 0.0000
# 2 68.4962 131.9542 46.4172 0.0000 0.6232 0.0000
# 3 52.2313 46.4172 85.4417 0.0000 8.8790 0.0000
# 4 0.0000 0.0000 0.0000 31.4071 0.0000 4.9189
# 5 6.9723 0.6232 8.8790 0.0000 40.5239 0.0000
# 6 0.0000 0.0000 0.0000 4.9189 0.0000 40.6488
#
#
#
# Elastic Compliance Matrix: (Units=1/GPa)
#
#
# Indices 1 2 3 4 5 6 
#
# 1 0.013421 -0.005087 -0.005331 0.000000 -0.001063 0.000000
# 2 -0.005087 0.011336 -0.003194 0.000000 0.001401 0.000000
# 3 -0.005331 -0.003194 0.016984 0.000000 -0.002755 0.000000
# 4 0.000000 0.000000 0.000000 0.032455 0.000000 -0.003927
# 5 -0.001063 0.001401 -0.002755 0.000000 0.025442 0.000000
# 6 0.000000 0.000000 0.000000 -0.003927 0.000000 0.025076
#
#
# Mechanical properties :
#
#
# Convention : Reuss Voigt Hill
#
# Bulk Modulus (GPa) = 68.88042 74.82822 71.85432
# Shear Modulus (GPa) = 31.89258 33.98394 32.93826
#
# Velocity S-wave (km/s) = 3.90252 4.02845 3.96598
# Velocity P-wave (km/s) = 7.29375 7.57434 7.43537
#
# Compressibility (1/GPa) = 0.01451791
#
# Stress axis : x y z
#
# Youngs Moduli (GPa) = 74.51101 88.21580 58.87821
#
# Poissons Ratio (x) = 0.44871 0.31385
# Poissons Ratio (y) = 0.37900 0.18808
# Poissons Ratio (z) = 0.39718 0.28180
#
# Static dielectric constant tensor:
#      x y z
#    x 3.971090 0.000000 0.201720 
#    y 0.000000 4.055770 0.000000 
#    z 0.201720 0.000000 3.665170 
# 
# 
# High freq. dielectric constant tensor:
#      x y z
#    x 1.834370 0.000000 0.020130 
#    y 0.000000 1.842710 0.000000 
#    z 0.020130 0.000000 1.799810 
# 
# From -- ./inp_files/295440.got.cif
#   From: 2010.06.25/outbox.cif.g09.slc.cpg/sg15_148_cif.got.tgz:295440.got - 2010.06.28 07:06:18.
