data_PCOD8143080
_publ_section_title
;
Structure prediction by ZEFSAII (Michael W. Deem and Ramdas Pophale) SiO2 
 PCOD8143080
Probable space group: C 2/C
;
_chemical_formula_sum "Si O2"
_cell_formula_units_Z 56
_cell_length_a 20.119397
_cell_length_b 18.059784
_cell_length_c 15.008532
_cell_angle_alpha 90.000000
_cell_angle_beta 28.005905
_cell_angle_gamma 90.000000
_cell_volume 2560.702867
_symmetry_space_group_name_H-M "C 2/C"
_symmetry_group_IT_number 15
_symmetry_cell_setting 'monoclinic'
loop_
_space_group_symop_operation_xyz
x,y,z
-x,y,1/2-z
-x,-y,-z
x,-y,1/2+z
1/2+x,1/2+y,z
1/2-x,1/2+y,1/2-z
1/2-x,1/2-y,-z
1/2+x,1/2-y,1/2+z
loop_
_atom_site_type_symbol
_atom_site_label
_atom_site_fract_x
_atom_site_fract_y
_atom_site_fract_z
Si Si1 0.124020 0.381656 0.483524
Si Si2 0.897669 0.005367 0.798027
Si Si3 0.606495 0.371494 0.990785
Si Si4 0.272122 0.952470 0.650751
Si Si5 0.574218 0.810666 0.069848
Si Si6 0.139775 0.260807 0.326918
Si Si7 0.306089 0.115853 0.403693
O O1 0.175726 0.464225 0.403651
O O2 0.186617 0.329344 0.333080
O O3 0.176362 0.350931 0.517539
O O4 0.954495 0.382562 0.677421
O O5 0.000000 0.966416 0.750000
O O6 0.966586 0.082365 0.680399
O O7 0.860301 0.948694 0.763103
O O8 0.750678 0.030780 0.018917
O O9 0.715462 0.426914 0.813048
O O10 0.568307 0.302290 0.973632
O O11 0.688576 0.341632 0.982364
O O12 0.397727 0.898828 0.468951
O O13 0.500000 0.790050 0.250000
O O14 0.476250 0.786041 0.105403
O O15 0.723595 0.768564 0.886804
#
# Coordination Sequence:
#
# PCOD8143080 Si02
#       7
#     8   8   8   8   8   8   8
#     4  10  21  40  63 100 133 169 228 269 335 395
#     4   9  19  38  61  94 133 168 216 273 334 399
#     4  10  21  40  61  93 135 174 220 263 338 399
#     4  10  22  39  68  93 128 172 219 287 325 391
#     4  11  26  47  70  95 132 176 228 281 334 395
#     4  11  25  44  70  96 133 182 222 274 338 400
#     4   9  20  37  60  94 133 167 209 269 324 401
#
# _framework density 21.868995999999999
#
# number of rings (size 3 to 8) (size 9 to 14) (size 15 to 20)
#    0.000    2.000    0.000    2.571    8.000    2.857 
#   10.286    2.857    0.000    0.000    0.000    0.000 
#    0.000    0.000    0.000    0.000    0.000    0.000 
#
# Total GULP energy -347115.262942 kJ/mol
# GULP energy per Si atom -12396.973676 kJ/mol
# Density = 2.181922 g / cm^3
# Si number density = 21.868996 Si / 1000 Ang^3
#
#
#
# Elastic Constant Matrix: (Units=GPa)
#
#
# Indices 1 2 3 4 5 6 
#
# 1 146.6821 51.8403 22.9297 0.0005 -2.3811 -0.0022
# 2 51.8403 112.0245 32.5292 0.0011 4.6395 -0.0034
# 3 22.9297 32.5292 75.6835 0.0026 2.9049 -0.0071
# 4 0.0005 0.0011 0.0026 16.6443 -0.0020 -7.0757
# 5 -2.3811 4.6395 2.9049 -0.0020 28.4124 0.0043
# 6 -0.0022 -0.0034 -0.0071 -7.0757 0.0043 21.2563
#
#
#
# Elastic Compliance Matrix: (Units=1/GPa)
#
#
# Indices 1 2 3 4 5 6 
#
# 1 0.008267 -0.003588 -0.001016 0.000000 0.001382 0.000000
# 2 -0.003588 0.011799 -0.003914 0.000000 -0.001827 0.000001
# 3 -0.001016 -0.003914 0.015242 0.000000 -0.001004 0.000004
# 4 0.000000 0.000000 0.000000 0.069984 0.000001 0.023296
# 5 0.001382 -0.001827 -0.001004 0.000001 0.035713 -0.000007
# 6 0.000000 0.000001 0.000004 0.023296 -0.000007 0.054800
#
#
# Mechanical properties :
#
#
# Convention : Reuss Voigt Hill
#
# Bulk Modulus (GPa) = 54.72803 60.99871 57.86337
# Shear Modulus (GPa) = 22.83835 28.40198 25.62017
#
# Velocity S-wave (km/s) = 3.23511 3.60770 3.42647
# Velocity P-wave (km/s) = 6.24774 6.73107 6.49391
#
# Compressibility (1/GPa) = 0.01827217
#
# Stress axis : x y z
#
# Youngs Moduli (GPa) = 120.96771 84.75157 65.61030
#
# Poissons Ratio (x) = 0.30407 0.06663
# Poissons Ratio (y) = 0.43401 0.25681
# Poissons Ratio (z) = 0.12285 0.33174
#
# Static dielectric constant tensor:
#      x y z
#    x 4.270130 0.000000 0.034190 
#    y 0.000000 3.672710 0.000000 
#    z 0.034190 0.000000 4.001780 
# 
# 
# High freq. dielectric constant tensor:
#      x y z
#    x 1.880230 0.000000 0.000330 
#    y 0.000000 1.830440 0.000000 
#    z 0.000330 0.000000 1.861650 
# 
# From -- ./inp_files/169125.got.cif
#   From: 2010.06.25/outbox.cif.g09.slc.cpg/sg15_85_cif.got.tgz:169125.got - 2010.06.28 07:06:18.
