data_PCOD8143939
_publ_section_title
;
Structure prediction by ZEFSAII (Michael W. Deem and Ramdas Pophale) SiO2 
 PCOD8143939
Probable space group: C 2/C
;
_chemical_formula_sum "Si O2"
_cell_formula_units_Z 44
_cell_length_a 16.935314
_cell_length_b 30.258213
_cell_length_c 5.363325
_cell_angle_alpha 90.000000
_cell_angle_beta 55.152076
_cell_angle_gamma 90.000000
_cell_volume 2255.485433
_symmetry_space_group_name_H-M "C 2/C"
_symmetry_group_IT_number 15
_symmetry_cell_setting 'monoclinic'
loop_
_space_group_symop_operation_xyz
x,y,z
-x,y,1/2-z
-x,-y,-z
x,-y,1/2+z
1/2+x,1/2+y,z
1/2-x,1/2+y,1/2-z
1/2-x,1/2-y,-z
1/2+x,1/2-y,1/2+z
loop_
_atom_site_type_symbol
_atom_site_label
_atom_site_fract_x
_atom_site_fract_y
_atom_site_fract_z
Si Si1 0.799645 0.879674 0.634841
Si Si2 0.140279 0.747603 0.633343
Si Si3 0.000000 0.714712 0.250000
Si Si4 0.388662 0.526599 0.949937
Si Si5 0.095625 0.342860 0.962310
Si Si6 0.890654 0.159499 0.472522
O O1 0.822835 0.931061 0.611676
O O2 0.684624 0.876480 0.799933
O O3 0.831971 0.855374 0.831103
O O4 0.849887 0.859874 0.300794
O O5 0.250000 0.750000 0.500000
O O6 0.121019 0.698552 0.583478
O O7 0.115686 0.787282 0.487697
O O8 0.064576 0.751154 0.993179
O O9 0.925785 0.680026 0.261216
O O10 0.500000 0.540884 0.750000
O O11 0.364437 0.505740 0.724289
O O12 0.000000 0.366548 0.250000
O O13 0.000000 0.142766 0.250000
#
# Coordination Sequence:
#
# PCOD8143939 Si02
#       6
#     8   8   4   8   8   8
#     4  12  25  41  65  94 125 160 207 258 308 369
#     4  11  22  37  56  82 121 174 212 253 305 354
#     4  10  22  38  58  78 120 176 218 256 308 350
#     4  10  21  41  67  92 124 157 189 238 315 397
#     4  10  23  40  60  85 121 172 222 259 304 352
#     4  12  25  37  59  92 130 163 205 258 305 362
#
# _framework density 19.507995000000001
#
# number of rings (size 3 to 8) (size 9 to 14) (size 15 to 20)
#    0.000    1.091    1.818    5.455    7.636    2.909 
#    0.000    0.000    0.000    1.091    0.000    0.000 
#    0.000    0.000    0.000    0.000    0.000    0.000 
#
# Total GULP energy -272602.024543 kJ/mol
# GULP energy per Si atom -12391.001116 kJ/mol
# Density = 1.946359 g / cm^3
# Si number density = 19.507995 Si / 1000 Ang^3
#
#
#
# Elastic Constant Matrix: (Units=GPa)
#
#
# Indices 1 2 3 4 5 6 
#
# 1 97.2472 11.0921 46.4867 0.0000 -20.8805 0.0000
# 2 11.0921 73.3591 36.9855 0.0000 -21.4066 0.0000
# 3 46.4867 36.9855 92.5054 0.0000 -5.0908 0.0000
# 4 0.0000 0.0000 0.0000 28.7254 0.0000 -5.4577
# 5 -20.8805 -21.4066 -5.0908 0.0000 42.5799 0.0000
# 6 0.0000 0.0000 0.0000 -5.4577 0.0000 33.0304
#
#
#
# Elastic Compliance Matrix: (Units=1/GPa)
#
#
# Indices 1 2 3 4 5 6 
#
# 1 0.016428 0.005251 -0.009831 0.000000 0.009520 0.000000
# 2 0.005251 0.021799 -0.010680 0.000000 0.012257 0.000000
# 3 -0.009831 -0.010680 0.019588 0.000000 -0.007848 0.000000
# 4 0.000000 0.000000 0.000000 0.035941 0.000000 0.005939
# 5 0.009520 0.012257 -0.007848 0.000000 0.033378 0.000000
# 6 0.000000 0.000000 0.000000 0.005939 0.000000 0.031256
#
#
# Mechanical properties :
#
#
# Convention : Reuss Voigt Hill
#
# Bulk Modulus (GPa) = 36.63645 50.24891 43.44268
# Shear Modulus (GPa) = 25.25157 32.10364 28.67761
#
# Velocity S-wave (km/s) = 3.60171 4.06108 3.83827
# Velocity P-wave (km/s) = 6.00978 6.91403 6.47770
#
# Compressibility (1/GPa) = 0.02729522
#
# Stress axis : x y z
#
# Youngs Moduli (GPa) = 60.87291 45.87432 51.05056
#
# Poissons Ratio (x) = -0.24086 0.50186
# Poissons Ratio (y) = -0.31961 0.54520
# Poissons Ratio (z) = 0.59843 0.48992
#
# Static dielectric constant tensor:
#      x y z
#    x 3.799700 0.000000 -0.215530 
#    y 0.000000 3.331130 0.000000 
#    z -0.215530 0.000000 3.080740 
# 
# 
# High freq. dielectric constant tensor:
#      x y z
#    x 1.772560 0.000000 0.002850 
#    y 0.000000 1.731320 0.000000 
#    z 0.002850 0.000000 1.772840 
# 
# From -- ./inp_files/8087.got.cif
#   From: 2010.06.25/outbox.cif.g09.slc.cpg/sg15_5_cif.got.tgz:8087.got - 2010.06.28 07:06:18.
