data_PCOD8143057
_publ_section_title
;
Structure prediction by ZEFSAII (Michael W. Deem and Ramdas Pophale) SiO2 
 PCOD8143057
Probable space group: C 2/C
;
_chemical_formula_sum "Si O2"
_cell_formula_units_Z 48
_cell_length_a 15.001938
_cell_length_b 8.547007
_cell_length_c 20.779376
_cell_angle_alpha 90.000000
_cell_angle_beta 58.337669
_cell_angle_gamma 90.000000
_cell_volume 2267.792395
_symmetry_space_group_name_H-M "C 2/C"
_symmetry_group_IT_number 15
_symmetry_cell_setting 'monoclinic'
loop_
_space_group_symop_operation_xyz
x,y,z
-x,y,1/2-z
-x,-y,-z
x,-y,1/2+z
1/2+x,1/2+y,z
1/2-x,1/2+y,1/2-z
1/2-x,1/2-y,-z
1/2+x,1/2-y,1/2+z
loop_
_atom_site_type_symbol
_atom_site_label
_atom_site_fract_x
_atom_site_fract_y
_atom_site_fract_z
Si Si1 0.355353 0.272394 0.419051
Si Si2 0.255141 0.659492 0.157320
Si Si3 0.486233 0.442402 0.830153
Si Si4 0.809110 0.872239 0.208535
Si Si5 0.057182 0.643447 0.413429
Si Si6 0.532941 0.210093 0.921336
O O1 0.250000 0.250000 0.500000
O O2 0.335255 0.177887 0.360799
O O3 0.384142 0.451561 0.387340
O O4 0.449996 0.192710 0.419847
O O5 0.254283 0.800538 0.208801
O O6 0.235357 0.491113 0.197142
O O7 0.374314 0.677068 0.085473
O O8 0.500000 0.394116 0.750000
O O9 0.587689 0.542625 0.806751
O O10 0.482384 0.287171 0.876342
O O11 0.840407 0.729282 0.150876
O O12 0.077367 0.462397 0.390974
O O13 0.053504 0.689336 0.490193
#
# Coordination Sequence:
#
# PCOD8143057 Si02
#       6
#     8   8   8   8   8   8
#     4  11  22  38  63  88 120 155 206 252 300 362
#     4  11  21  39  61  89 115 159 199 255 296 365
#     4  10  21  40  61  88 123 163 197 251 309 362
#     4  10  22  37  62  85 121 157 203 246 308 365
#     4  10  22  41  59  88 117 162 199 250 304 368
#     4  10  22  40  62  83 124 157 203 247 306 366
#
# _framework density 21.165959999999998
#
# number of rings (size 3 to 8) (size 9 to 14) (size 15 to 20)
#    0.000    1.667    3.333    1.000    2.333    2.000 
#    9.000    0.833    0.000    0.000    0.000    0.000 
#    0.000    0.000    0.000    0.000    0.000    0.000 
#
# Total GULP energy -297476.099993 kJ/mol
# GULP energy per Si atom -12394.837500 kJ/mol
# Density = 2.111779 g / cm^3
# Si number density = 21.165960 Si / 1000 Ang^3
#
#
#
# Elastic Constant Matrix: (Units=GPa)
#
#
# Indices 1 2 3 4 5 6 
#
# 1 53.6466 22.5306 28.5115 0.0000 16.0543 0.0000
# 2 22.5306 79.5931 49.3570 0.0000 19.7474 0.0001
# 3 28.5115 49.3570 107.5157 0.0000 18.8013 0.0000
# 4 0.0000 0.0000 0.0000 37.8839 0.0000 0.7663
# 5 16.0543 19.7474 18.8013 0.0000 34.8169 0.0000
# 6 0.0000 0.0001 0.0000 0.7663 0.0000 22.1246
#
#
#
# Elastic Compliance Matrix: (Units=1/GPa)
#
#
# Indices 1 2 3 4 5 6 
#
# 1 0.024026 -0.002510 -0.003899 0.000000 -0.007549 0.000000
# 2 -0.002510 0.019125 -0.007089 0.000000 -0.005862 0.000000
# 3 -0.003899 -0.007089 0.013883 0.000000 -0.001678 0.000000
# 4 0.000000 0.000000 0.000000 0.026415 0.000000 -0.000915
# 5 -0.007549 -0.005862 -0.001678 0.000000 0.036434 0.000000
# 6 0.000000 0.000000 0.000000 -0.000915 0.000000 0.045230
#
#
# Mechanical properties :
#
#
# Convention : Reuss Voigt Hill
#
# Bulk Modulus (GPa) = 33.29169 49.06151 41.17660
# Shear Modulus (GPa) = 24.73770 28.32217 26.52994
#
# Velocity S-wave (km/s) = 3.42241 3.66197 3.54421
# Velocity P-wave (km/s) = 5.60180 6.41169 6.02038
#
# Compressibility (1/GPa) = 0.03003753
#
# Stress axis : x y z
#
# Youngs Moduli (GPa) = 41.62127 52.28846 72.03272
#
# Poissons Ratio (x) = 0.13126 0.28084
# Poissons Ratio (y) = 0.10449 0.51062
# Poissons Ratio (z) = 0.16227 0.37066
#
# Static dielectric constant tensor:
#      x y z
#    x 3.659300 0.000000 0.096470 
#    y 0.000000 3.961190 0.000000 
#    z 0.096470 0.000000 4.049130 
# 
# 
# High freq. dielectric constant tensor:
#      x y z
#    x 1.808930 0.000000 0.002330 
#    y 0.000000 1.830190 0.000000 
#    z 0.002330 0.000000 1.844490 
# 
# From -- ./inp_files/242325.got.cif
#   From: 2010.06.25/outbox.cif.g09.slc.cpg/sg15_122_cif.got.tgz:242325.got - 2010.06.28 07:06:18.
