data_PCOD8143804
_publ_section_title
;
Structure prediction by ZEFSAII (Michael W. Deem and Ramdas Pophale) SiO2 
 PCOD8143804
Probable space group: C 2/C
;
_chemical_formula_sum "Si O2"
_cell_formula_units_Z 64
_cell_length_a 24.099117
_cell_length_b 17.594967
_cell_length_c 15.622646
_cell_angle_alpha 90.000000
_cell_angle_beta 152.036550
_cell_angle_gamma 90.000000
_cell_volume 3106.218659
_symmetry_space_group_name_H-M "C 2/C"
_symmetry_group_IT_number 15
_symmetry_cell_setting 'monoclinic'
loop_
_space_group_symop_operation_xyz
x,y,z
-x,y,1/2-z
-x,-y,-z
x,-y,1/2+z
1/2+x,1/2+y,z
1/2-x,1/2+y,1/2-z
1/2-x,1/2-y,-z
1/2+x,1/2-y,1/2+z
loop_
_atom_site_type_symbol
_atom_site_label
_atom_site_fract_x
_atom_site_fract_y
_atom_site_fract_z
Si Si1 0.345787 0.483644 0.351517
Si Si2 0.677577 0.114939 0.057955
Si Si3 0.535253 0.399190 0.139145
Si Si4 0.158700 0.618764 0.668614
Si Si5 0.766419 0.170321 0.477675
Si Si6 0.410316 0.902392 0.240317
Si Si7 0.835661 0.213794 0.381615
Si Si8 0.950055 0.430710 0.777517
O O1 0.258557 0.540162 0.181090
O O2 0.404146 0.423533 0.366496
O O3 0.442998 0.532721 0.536881
O O4 0.277977 0.430724 0.326579
O O5 0.737127 0.188475 0.179944
O O6 0.657902 0.136197 0.931709
O O7 0.551441 0.103000 0.929796
O O8 0.633737 0.384321 0.345268
O O9 0.463109 0.320459 0.028446
O O10 0.136001 0.637115 0.736844
O O11 0.161863 0.695308 0.616515
O O12 0.056627 0.566734 0.490013
O O13 0.750000 0.250000 0.500000
O O14 0.801056 0.182153 0.427003
O O15 0.638075 0.134534 0.313362
O O16 0.378337 0.991205 0.188985
O O17 0.000000 0.418025 0.750000
#
# Coordination Sequence:
#
# PCOD8143804 Si02
#       8
#     8   8   8   8   8   8   8   8
#     4  10  21  41  65  87 132 167 216 268 318 396
#     4  10  21  43  62  91 125 168 212 267 334 373
#     4  10  22  40  62  89 127 180 209 256 326 390
#     4  12  24  39  64  98 126 167 221 268 329 381
#     4  12  24  39  63  98 138 173 210 260 337 403
#     4  11  22  38  66  95 120 161 222 280 317 377
#     4  11  25  41  62  91 135 175 212 263 324 400
#     4  12  22  38  67  99 131 160 212 278 328 386
#
# _framework density 20.603829000000001
#
# number of rings (size 3 to 8) (size 9 to 14) (size 15 to 20)
#    0.000    1.000    2.500    5.250    3.500    1.500 
#    2.250    0.000    0.000    3.000    0.000    0.000 
#    0.000    0.000    0.000    0.000    0.000    0.000 
#
# Total GULP energy -396817.392886 kJ/mol
# GULP energy per Si atom -12400.543528 kJ/mol
# Density = 2.055693 g / cm^3
# Si number density = 20.603829 Si / 1000 Ang^3
#
#
#
# Elastic Constant Matrix: (Units=GPa)
#
#
# Indices 1 2 3 4 5 6 
#
# 1 113.2918 31.4493 52.7725 0.0000 -9.6381 0.0000
# 2 31.4493 67.2861 34.5181 0.0000 2.9192 0.0000
# 3 52.7725 34.5181 98.2114 0.0000 -2.2947 0.0000
# 4 0.0000 0.0000 0.0000 28.7447 0.0000 0.5597
# 5 -9.6381 2.9192 -2.2947 0.0000 30.2374 0.0000
# 6 0.0000 0.0000 0.0000 0.5597 0.0000 36.1528
#
#
#
# Elastic Compliance Matrix: (Units=1/GPa)
#
#
# Indices 1 2 3 4 5 6 
#
# 1 0.012651 -0.003224 -0.005573 0.000000 0.003921 0.000000
# 2 -0.003224 0.019105 -0.005058 0.000000 -0.003256 0.000000
# 3 -0.005573 -0.005058 0.014951 0.000000 -0.000153 0.000000
# 4 0.000000 0.000000 0.000000 0.034799 0.000000 -0.000539
# 5 0.003921 -0.003256 -0.000153 0.000000 0.034624 0.000000
# 6 0.000000 0.000000 0.000000 -0.000539 0.000000 0.027669
#
#
# Mechanical properties :
#
#
# Convention : Reuss Voigt Hill
#
# Bulk Modulus (GPa) = 52.64295 57.36324 55.00310
# Shear Modulus (GPa) = 28.11456 29.69695 28.90576
#
# Velocity S-wave (km/s) = 3.69796 3.80061 3.74964
# Velocity P-wave (km/s) = 6.62109 6.86738 6.74536
#
# Compressibility (1/GPa) = 0.01899589
#
# Stress axis : x y z
#
# Youngs Moduli (GPa) = 79.04234 52.34183 66.88473
#
# Poissons Ratio (x) = 0.16876 0.37276
# Poissons Ratio (y) = 0.25485 0.33833
# Poissons Ratio (z) = 0.44052 0.26477
#
# Static dielectric constant tensor:
#      x y z
#    x 3.686760 0.000000 0.128440 
#    y 0.000000 3.802040 0.000000 
#    z 0.128440 0.000000 3.877700 
# 
# 
# High freq. dielectric constant tensor:
#      x y z
#    x 1.807630 0.000000 0.009040 
#    y 0.000000 1.802070 0.000000 
#    z 0.009040 0.000000 1.812480 
# 
# From -- ./inp_files/174244.got.cif
#   From: 2010.06.25/outbox.cif.g09.slc.cpg/sg15_88_cif.got.tgz:174244.got - 2010.06.28 07:06:18.
