data_PCOD8143558
_publ_section_title
;
Structure prediction by ZEFSAII (Michael W. Deem and Ramdas Pophale) SiO2 
 PCOD8143558
Probable space group: C 2/C
;
_chemical_formula_sum "Si O2"
_cell_formula_units_Z 48
_cell_length_a 7.581062
_cell_length_b 14.446142
_cell_length_c 18.068323
_cell_angle_alpha 90.000000
_cell_angle_beta 89.675310
_cell_angle_gamma 90.000000
_cell_volume 1978.758530
_symmetry_space_group_name_H-M "C 2/C"
_symmetry_group_IT_number 15
_symmetry_cell_setting 'monoclinic'
loop_
_space_group_symop_operation_xyz
x,y,z
-x,y,1/2-z
-x,-y,-z
x,-y,1/2+z
1/2+x,1/2+y,z
1/2-x,1/2+y,1/2-z
1/2-x,1/2-y,-z
1/2+x,1/2-y,1/2+z
loop_
_atom_site_type_symbol
_atom_site_label
_atom_site_fract_x
_atom_site_fract_y
_atom_site_fract_z
Si Si1 0.297655 0.236078 0.273803
Si Si2 0.975152 0.903835 0.961299
Si Si3 0.069478 0.771580 0.077682
Si Si4 0.427264 0.103954 0.001097
Si Si5 0.281037 0.142006 0.853895
Si Si6 0.135961 0.951823 0.808731
O O1 0.500000 0.244778 0.250000
O O2 0.281320 0.274910 0.358459
O O3 0.173310 0.296926 0.219077
O O4 0.243515 0.129337 0.268006
O O5 0.030258 0.906567 0.876481
O O6 0.106509 0.830404 0.002858
O O7 0.768414 0.881558 0.965724
O O8 0.000000 0.000000 0.000000
O O9 0.895479 0.819324 0.109964
O O10 0.048484 0.664125 0.055189
O O11 0.431993 0.145272 0.916968
O O12 0.500000 0.000000 0.000000
O O13 0.263706 0.033992 0.833154
O O14 0.000000 0.995023 0.750000
#
# Coordination Sequence:
#
# PCOD8143558 Si02
#       6
#     8   8   8   8   8   8
#     4  10  24  44  66  93 133 180 222 269 342 405
#     4  11  23  42  66  98 130 171 224 274 336 401
#     4  10  21  40  71  91 131 177 213 274 333 393
#     4  11  23  42  70  99 133 174 226 276 331 392
#     4  10  21  44  65  93 133 180 213 272 344 391
#     4  12  25  41  67  96 133 174 222 276 339 401
#
# _framework density 24.257632999999998
#
# number of rings (size 3 to 8) (size 9 to 14) (size 15 to 20)
#    0.000    1.333    3.333    4.500    7.000    0.667 
#    0.000    0.833    0.000    0.000    0.000    0.000 
#    0.000    0.000    0.000    0.000    0.000    0.000 
#
# Total GULP energy -297509.458858 kJ/mol
# GULP energy per Si atom -12396.227452 kJ/mol
# Density = 2.420242 g / cm^3
# Si number density = 24.257633 Si / 1000 Ang^3
#
#
#
# Elastic Constant Matrix: (Units=GPa)
#
#
# Indices 1 2 3 4 5 6 
#
# 1 17.9772 -2.7997 13.5569 0.0000 -0.3829 0.0000
# 2 -2.7997 142.1781 42.0581 0.0000 -3.7944 0.0000
# 3 13.5569 42.0581 154.1542 0.0000 18.6209 0.0000
# 4 0.0000 0.0000 0.0000 55.5391 0.0000 8.1475
# 5 -0.3829 -3.7944 18.6209 0.0000 28.0382 0.0000
# 6 0.0000 0.0000 0.0000 8.1475 0.0000 30.5234
#
#
#
# Elastic Compliance Matrix: (Units=1/GPa)
#
#
# Indices 1 2 3 4 5 6 
#
# 1 0.061647 0.003474 -0.007097 0.000000 0.006026 0.000000
# 2 0.003474 0.008030 -0.002863 0.000000 0.003036 0.000000
# 3 -0.007097 -0.002863 0.008644 0.000000 -0.006225 0.000000
# 4 0.000000 0.000000 0.000000 0.018739 0.000000 -0.005002
# 5 0.006026 0.003036 -0.006225 0.000000 0.040293 0.000000
# 6 0.000000 0.000000 0.000000 -0.005002 0.000000 0.034097
#
#
# Mechanical properties :
#
#
# Convention : Reuss Voigt Hill
#
# Bulk Modulus (GPa) = 15.30235 46.66000 30.98118
# Shear Modulus (GPa) = 24.24763 40.25310 32.25037
#
# Velocity S-wave (km/s) = 3.16506 4.07799 3.65018
# Velocity P-wave (km/s) = 4.43607 6.43819 5.52852
#
# Compressibility (1/GPa) = 0.06534945
#
# Stress axis : x y z
#
# Youngs Moduli (GPa) = 16.22127 124.53673 115.68374
#
# Poissons Ratio (x) = -0.43267 0.82104
# Poissons Ratio (y) = -0.05636 0.33120
# Poissons Ratio (z) = 0.11513 0.35655
#
# Static dielectric constant tensor:
#      x y z
#    x 3.758800 0.000000 0.395150 
#    y 0.000000 4.573940 0.000000 
#    z 0.395150 0.000000 5.318460 
# 
# 
# High freq. dielectric constant tensor:
#      x y z
#    x 1.932560 0.000000 0.014110 
#    y 0.000000 1.972660 0.000000 
#    z 0.014110 0.000000 1.988100 
# 
# From -- ./inp_files/189192.got.cif
#   From: 2010.06.25/outbox.cif.g09.slc.cpg/sg15_95_cif.got.tgz:189192.got - 2010.06.28 07:06:18.
