data_PCOD8143115
_publ_section_title
;
Structure prediction by ZEFSAII (Michael W. Deem and Ramdas Pophale) SiO2 
 PCOD8143115
Probable space group: C 2/C
;
_chemical_formula_sum "Si O2"
_cell_formula_units_Z 60
_cell_length_a 6.844233
_cell_length_b 26.103431
_cell_length_c 21.867583
_cell_angle_alpha 90.000000
_cell_angle_beta 51.018074
_cell_angle_gamma 90.000000
_cell_volume 3036.943146
_symmetry_space_group_name_H-M "C 2/C"
_symmetry_group_IT_number 15
_symmetry_cell_setting 'monoclinic'
loop_
_space_group_symop_operation_xyz
x,y,z
-x,y,1/2-z
-x,-y,-z
x,-y,1/2+z
1/2+x,1/2+y,z
1/2-x,1/2+y,1/2-z
1/2-x,1/2-y,-z
1/2+x,1/2-y,1/2+z
loop_
_atom_site_type_symbol
_atom_site_label
_atom_site_fract_x
_atom_site_fract_y
_atom_site_fract_z
Si Si1 0.000000 0.004578 0.750000
Si Si2 0.069943 0.318950 0.111989
Si Si3 0.703510 0.775393 0.661094
Si Si4 0.044107 0.576659 0.812474
Si Si5 0.692221 0.335655 0.564566
Si Si6 0.222844 0.445737 0.904265
Si Si7 0.975325 0.249803 0.581567
Si Si8 0.279235 0.011964 0.959705
O O1 0.219062 0.043579 0.718165
O O2 0.049534 0.969553 0.680404
O O3 0.321260 0.302935 0.100505
O O4 0.865151 0.274240 0.147070
O O5 0.927273 0.363641 0.176586
O O6 0.155705 0.339011 0.028570
O O7 0.500000 0.793817 0.750000
O O8 0.512356 0.761693 0.644614
O O9 0.897581 0.822316 0.609404
O O10 0.000000 0.569887 0.750000
O O11 0.828091 0.554310 0.898269
O O12 0.729728 0.385406 0.599478
O O13 0.804005 0.291009 0.582748
O O14 0.963052 0.461958 0.920628
O O15 0.208469 0.465992 0.975267
O O16 0.250000 0.250000 0.500000
O O17 0.000000 0.000000 0.000000
#
# Coordination Sequence:
#
# PCOD8143115 Si02
#       8
#     4   8   8   8   8   8   8   8
#     4  10  24  44  60  88 134 162 206 270 328 368
#     4  11  23  39  63  95 125 164 217 258 310 398
#     4  11  25  41  61  94 132 164 207 267 317 376
#     4  11  24  40  63  94 124 162 205 263 322 377
#     4  11  22  42  65  93 124 166 222 255 313 394
#     4  10  22  40  64  88 124 166 205 263 311 373
#     4  11  21  40  64  88 128 169 201 259 323 372
#     4  10  21  40  62  92 122 158 208 254 312 380
#
# _framework density 19.756709000000001
#
# number of rings (size 3 to 8) (size 9 to 14) (size 15 to 20)
#    0.000    1.333    4.000    1.600    2.800    4.800 
#    0.000    2.000    0.000    0.000    0.000    0.000 
#    0.000    0.000    0.000    0.000    0.000    0.000 
#
# Total GULP energy -371777.493707 kJ/mol
# GULP energy per Si atom -12392.583124 kJ/mol
# Density = 1.971174 g / cm^3
# Si number density = 19.756709 Si / 1000 Ang^3
#
#
#
# Elastic Constant Matrix: (Units=GPa)
#
#
# Indices 1 2 3 4 5 6 
#
# 1 88.1723 22.9718 19.3372 0.0000 6.0837 0.0000
# 2 22.9718 94.8263 28.1074 0.0000 1.7331 0.0000
# 3 19.3372 28.1074 108.5281 0.0000 4.3509 0.0000
# 4 0.0000 0.0000 0.0000 15.7496 0.0000 20.7489
# 5 6.0837 1.7331 4.3509 0.0000 36.1984 0.0000
# 6 0.0000 0.0000 0.0000 20.7489 0.0000 11.3908
#
#
#
# Elastic Compliance Matrix: (Units=1/GPa)
#
#
# Indices 1 2 3 4 5 6 
#
# 1 0.012454 -0.002543 -0.001489 0.000000 -0.001792 0.000000
# 2 -0.002543 0.011943 -0.002647 0.000000 0.000174 0.000000
# 3 -0.001489 -0.002647 0.010199 0.000000 -0.000849 0.000000
# 4 0.000000 0.000000 0.000000 -0.045361 0.000000 0.082626
# 5 -0.001792 0.000174 -0.000849 0.000000 0.028021 0.000000
# 6 0.000000 0.000000 0.000000 0.082626 0.000000 -0.062718
#
#
# Mechanical properties :
#
#
# Convention : Reuss Voigt Hill
#
# Bulk Modulus (GPa) = 47.08307 48.03993 47.56150
# Shear Modulus (GPa) = -199.80004 27.40844 -86.19580
#
# Velocity S-wave (km/s) = -10.06726 3.72869 -6.61236
# Velocity P-wave (km/s) = 10.54750 6.55027 5.84568
#
# Compressibility (1/GPa) = 0.02123906
#
# Stress axis : x y z
#
# Youngs Moduli (GPa) = 80.29476 83.73062 98.04887
#
# Poissons Ratio (x) = 0.21293 0.14595
# Poissons Ratio (y) = 0.20419 0.25953
# Poissons Ratio (z) = 0.11952 0.22163
#
# Static dielectric constant tensor:
#      x y z
#    x 3.426970 0.000000 -1.065850 
#    y 0.000000 3.950330 0.000000 
#    z -1.065850 0.000000 1.961490 
# 
# 
# High freq. dielectric constant tensor:
#      x y z
#    x 1.775900 0.000000 0.000960 
#    y 0.000000 1.765830 0.000000 
#    z 0.000960 0.000000 1.783870 
# 
# From -- ./inp_files/228613.got.cif
#   From: 2010.06.25/outbox.cif.g09.slc.cpg/sg15_115_cif.got.tgz:228613.got - 2010.06.28 07:06:18.
