data_PCOD8143687
_publ_section_title
;
Structure prediction by ZEFSAII (Michael W. Deem and Ramdas Pophale) SiO2 
 PCOD8143687
Probable space group: C 2/C
;
_chemical_formula_sum "Si O2"
_cell_formula_units_Z 56
_cell_length_a 9.300489
_cell_length_b 28.166142
_cell_length_c 12.214321
_cell_angle_alpha 90.000000
_cell_angle_beta 59.769681
_cell_angle_gamma 90.000000
_cell_volume 2764.524812
_symmetry_space_group_name_H-M "C 2/C"
_symmetry_group_IT_number 15
_symmetry_cell_setting 'monoclinic'
loop_
_space_group_symop_operation_xyz
x,y,z
-x,y,1/2-z
-x,-y,-z
x,-y,1/2+z
1/2+x,1/2+y,z
1/2-x,1/2+y,1/2-z
1/2-x,1/2-y,-z
1/2+x,1/2-y,1/2+z
loop_
_atom_site_type_symbol
_atom_site_label
_atom_site_fract_x
_atom_site_fract_y
_atom_site_fract_z
Si Si1 0.753115 0.090427 0.568976
Si Si2 0.809577 0.022806 0.354654
Si Si3 0.553998 0.244046 0.604439
Si Si4 0.535262 0.652613 0.365103
Si Si5 0.013444 0.356419 0.451928
Si Si6 0.688549 0.418051 0.202369
Si Si7 0.142567 0.400184 0.781251
O O1 0.774911 0.043200 0.488264
O O2 0.576061 0.115748 0.614055
O O3 0.774654 0.074073 0.684360
O O4 0.889024 0.129856 0.490327
O O5 0.696503 0.049095 0.308543
O O6 0.000000 0.031314 0.250000
O O7 0.764545 0.967310 0.375512
O O8 0.500000 0.234075 0.750000
O O9 0.750000 0.250000 0.500000
O O10 0.459077 0.291976 0.605087
O O11 0.481934 0.200020 0.564438
O O12 0.500000 0.644699 0.250000
O O13 0.705619 0.627178 0.335336
O O14 0.200625 0.375925 0.389490
O O15 0.915547 0.365305 0.600880
O O16 0.500000 0.403532 0.250000
O O17 0.000000 0.410848 0.750000
#
# Coordination Sequence:
#
# PCOD8143687 Si02
#       7
#     8   8   8   8   8   8   8
#     4  11  20  40  69  83 127 162 212 264 306 368
#     4  10  21  41  63  89 118 169 218 252 309 378
#     4  11  21  37  69 100 123 164 226 273 317 379
#     4  11  19  40  67  96 117 161 217 265 313 370
#     4  11  23  42  61  96 128 163 213 265 316 380
#     4  11  27  39  59  96 131 169 203 255 329 379
#     4  11  23  39  66  91 126 164 211 268 317 378
#
# _framework density 20.256646
#
# number of rings (size 3 to 8) (size 9 to 14) (size 15 to 20)
#    0.000    1.143    5.714    2.143    2.000    6.857 
#    0.000    1.429    0.000    0.000    0.000    0.000 
#    0.000    0.000    0.000    0.000    0.000    0.000 
#
# Total GULP energy -347248.097965 kJ/mol
# GULP energy per Si atom -12401.717784 kJ/mol
# Density = 2.021054 g / cm^3
# Si number density = 20.256646 Si / 1000 Ang^3
#
#
#
# Elastic Constant Matrix: (Units=GPa)
#
#
# Indices 1 2 3 4 5 6 
#
# 1 101.6246 30.1502 6.1593 0.0000 -9.1457 0.0000
# 2 30.1502 122.1372 12.1667 0.0000 -16.1298 0.0000
# 3 6.1593 12.1667 49.6565 0.0000 -8.3541 0.0000
# 4 0.0000 0.0000 0.0000 28.1068 0.0000 -5.3495
# 5 -9.1457 -16.1298 -8.3541 0.0000 33.9835 0.0000
# 6 0.0000 0.0000 0.0000 -5.3495 0.0000 28.6959
#
#
#
# Elastic Compliance Matrix: (Units=1/GPa)
#
#
# Indices 1 2 3 4 5 6 
#
# 1 0.010723 -0.002384 -0.000470 0.000000 0.001639 0.000000
# 2 -0.002384 0.009374 -0.001419 0.000000 0.003459 0.000000
# 3 -0.000470 -0.001419 0.021290 0.000000 0.004434 0.000000
# 4 0.000000 0.000000 0.000000 0.036887 0.000000 0.006877
# 5 0.001639 0.003459 0.004434 0.000000 0.032599 0.000000
# 6 0.000000 0.000000 0.000000 0.006877 0.000000 0.036130
#
#
# Mechanical properties :
#
#
# Convention : Reuss Voigt Hill
#
# Bulk Modulus (GPa) = 30.44967 41.15228 35.80097
# Shear Modulus (GPa) = 30.03044 33.15339 31.59191
#
# Velocity S-wave (km/s) = 3.85450 4.04996 3.95344
# Velocity P-wave (km/s) = 5.90543 6.49840 6.20900
#
# Compressibility (1/GPa) = 0.03284108
#
# Stress axis : x y z
#
# Youngs Moduli (GPa) = 93.25424 106.67636 46.96970
#
# Poissons Ratio (x) = 0.25430 0.02209
# Poissons Ratio (y) = 0.22230 0.06666
# Poissons Ratio (z) = 0.04386 0.15140
#
# Static dielectric constant tensor:
#      x y z
#    x 3.490570 0.000000 0.039610 
#    y 0.000000 3.782630 0.000000 
#    z 0.039610 0.000000 3.588880 
# 
# 
# High freq. dielectric constant tensor:
#      x y z
#    x 1.777220 0.000000 -0.018010 
#    y 0.000000 1.797150 0.000000 
#    z -0.018010 0.000000 1.796320 
# 
# From -- ./inp_files/82451.got.cif
#   From: 2010.06.25/outbox.cif.g09.slc.cpg/sg15_42_cif.got.tgz:82451.got - 2010.06.28 07:06:18.
