data_PCOD8143441
_publ_section_title
;
Structure prediction by ZEFSAII (Michael W. Deem and Ramdas Pophale) SiO2 
 PCOD8143441
Probable space group: C 2/C
;
_chemical_formula_sum "Si O2"
_cell_formula_units_Z 44
_cell_length_a 10.422468
_cell_length_b 15.342797
_cell_length_c 15.008482
_cell_angle_alpha 90.000000
_cell_angle_beta 59.632070
_cell_angle_gamma 90.000000
_cell_volume 2070.715294
_symmetry_space_group_name_H-M "C 2/C"
_symmetry_group_IT_number 15
_symmetry_cell_setting 'monoclinic'
loop_
_space_group_symop_operation_xyz
x,y,z
-x,y,1/2-z
-x,-y,-z
x,-y,1/2+z
1/2+x,1/2+y,z
1/2-x,1/2+y,1/2-z
1/2-x,1/2-y,-z
1/2+x,1/2-y,1/2+z
loop_
_atom_site_type_symbol
_atom_site_label
_atom_site_fract_x
_atom_site_fract_y
_atom_site_fract_z
Si Si1 0.645662 0.370115 0.301899
Si Si2 0.404010 0.901585 0.940580
Si Si3 0.453411 0.083759 0.620684
Si Si4 0.594858 0.488824 0.054088
Si Si5 0.760164 0.156821 0.539465
Si Si6 0.500000 0.774839 0.750000
O O1 0.803746 0.413201 0.229703
O O2 0.512486 0.442370 0.335049
O O3 0.643517 0.336981 0.404549
O O4 0.628825 0.287828 0.242588
O O5 0.438722 0.830025 0.853934
O O6 0.517467 0.981109 0.892334
O O7 0.428391 0.869340 0.033516
O O8 0.232654 0.925720 0.986471
O O9 0.591161 0.129255 0.621658
O O10 0.500000 0.500000 0.000000
O O11 0.662447 0.585031 0.054898
O O12 0.750000 0.250000 0.500000
#
# Coordination Sequence:
#
# PCOD8143441 Si02
#       6
#     8   8   8   8   8   4
#     4  11  23  39  62  96 129 170 211 267 332 388
#     4  10  23  41  64  93 126 172 217 269 331 394
#     4  10  22  42  66  89 130 173 218 269 331 400
#     4   9  21  39  63  90 125 173 206 262 327 388
#     4  10  21  40  67  92 128 170 221 271 323 389
#     4  12  26  38  66 100 130 168 224 280 326 394
#
# _framework density 21.248698000000001
#
# number of rings (size 3 to 8) (size 9 to 14) (size 15 to 20)
#    0.000    1.818    0.000    2.727    7.636    5.818 
#    0.000    0.000   12.000    0.000    0.000    0.000 
#    0.000    0.000    0.000    0.000    0.000    0.000 
#
# Total GULP energy -272634.201385 kJ/mol
# GULP energy per Si atom -12392.463699 kJ/mol
# Density = 2.120033 g / cm^3
# Si number density = 21.248698 Si / 1000 Ang^3
#
#
#
# Elastic Constant Matrix: (Units=GPa)
#
#
# Indices 1 2 3 4 5 6 
#
# 1 113.4782 45.1100 36.6186 0.0000 -10.9637 0.0000
# 2 45.1100 127.7124 58.0033 0.0000 -11.0676 0.0000
# 3 36.6186 58.0033 90.5594 0.0000 -6.6016 0.0000
# 4 0.0000 0.0000 0.0000 32.9171 0.0000 10.7066
# 5 -10.9637 -11.0676 -6.6016 0.0000 44.5718 0.0000
# 6 0.0000 0.0000 0.0000 10.7066 0.0000 30.2836
#
#
#
# Elastic Compliance Matrix: (Units=1/GPa)
#
#
# Indices 1 2 3 4 5 6 
#
# 1 0.010814 -0.002461 -0.002676 0.000000 0.001653 0.000000
# 2 -0.002461 0.011733 -0.006421 0.000000 0.001357 0.000000
# 3 -0.002676 -0.006421 0.016248 0.000000 0.000154 0.000000
# 4 0.000000 0.000000 0.000000 0.034327 0.000000 -0.012136
# 5 0.001653 0.001357 0.000154 0.000000 0.023202 0.000000
# 6 0.000000 0.000000 0.000000 -0.012136 0.000000 0.037312
#
#
# Mechanical properties :
#
#
# Convention : Reuss Voigt Hill
#
# Bulk Modulus (GPa) = 63.77795 67.91264 65.84530
# Shear Modulus (GPa) = 30.86837 34.35572 32.61205
#
# Velocity S-wave (km/s) = 3.81559 4.02536 3.92188
# Velocity P-wave (km/s) = 7.03504 7.32358 7.18076
#
# Compressibility (1/GPa) = 0.01567940
#
# Stress axis : x y z
#
# Youngs Moduli (GPa) = 92.47507 85.22800 61.54459
#
# Poissons Ratio (x) = 0.20975 0.16468
# Poissons Ratio (y) = 0.22759 0.39518
# Poissons Ratio (z) = 0.24745 0.54725
#
# Static dielectric constant tensor:
#      x y z
#    x 4.251800 0.000000 -0.033690 
#    y 0.000000 3.998560 0.000000 
#    z -0.033690 0.000000 3.877840 
# 
# 
# High freq. dielectric constant tensor:
#      x y z
#    x 1.857760 0.000000 0.000980 
#    y 0.000000 1.825960 0.000000 
#    z 0.000980 0.000000 1.817460 
# 
# From -- ./inp_files/143337.got.cif
#   From: 2010.06.25/outbox.cif.g09.slc.cpg/sg15_72_cif.got.tgz:143337.got - 2010.06.28 07:06:18.
