data_PCOD8143986
_publ_section_title
;
Structure prediction by ZEFSAII (Michael W. Deem and Ramdas Pophale) SiO2 
 PCOD8143986
Probable space group: C 2/C
;
_chemical_formula_sum "Si O2"
_cell_formula_units_Z 52
_cell_length_a 15.065159
_cell_length_b 27.837778
_cell_length_c 5.366000
_cell_angle_alpha 90.000000
_cell_angle_beta 66.136354
_cell_angle_gamma 90.000000
_cell_volume 2058.011556
_symmetry_space_group_name_H-M "C 2/C"
_symmetry_group_IT_number 15
_symmetry_cell_setting 'monoclinic'
loop_
_space_group_symop_operation_xyz
x,y,z
-x,y,1/2-z
-x,-y,-z
x,-y,1/2+z
1/2+x,1/2+y,z
1/2-x,1/2+y,1/2-z
1/2-x,1/2-y,-z
1/2+x,1/2-y,1/2+z
loop_
_atom_site_type_symbol
_atom_site_label
_atom_site_fract_x
_atom_site_fract_y
_atom_site_fract_z
Si Si1 0.612387 0.477808 0.143510
Si Si2 0.114444 0.818738 0.639362
Si Si3 0.391171 0.785685 0.266275
Si Si4 0.174363 0.871272 0.072713
Si Si5 0.500000 0.175287 0.250000
Si Si6 0.637010 0.875221 0.912424
Si Si7 0.390433 0.017845 0.057404
O O1 0.500000 0.492677 0.250000
O O2 0.661160 0.505988 0.324383
O O3 0.621597 0.421453 0.180484
O O4 0.160476 0.765065 0.618505
O O5 0.158457 0.839103 0.333854
O O6 0.000000 0.815039 0.750000
O O7 0.133745 0.850076 0.861319
O O8 0.500000 0.784645 0.250000
O O9 0.328948 0.832213 0.435904
O O10 0.408768 0.792214 0.947488
O O11 0.288798 0.878749 0.902531
O O12 0.468252 0.140465 0.064203
O O13 0.619792 0.928209 0.042346
O O14 0.340065 0.013154 0.389212
O O15 0.500000 0.000000 0.000000
#
# Coordination Sequence:
#
# PCOD8143986 Si02
#       7
#     8   8   8   8   4   8   8
#     4  10  21  41  68  95 130 176 225 273 346 415
#     4  11  25  46  71 101 140 182 234 283 359 416
#     4   9  23  41  70  97 133 190 233 286 336 428
#     4  12  27  42  70 107 143 177 227 299 342 418
#     4  10  22  44  70  90 136 190 232 280 338 410
#     4  11  26  42  67 102 141 182 237 284 354 411
#     4  10  23  39  64  94 128 179 230 283 333 402
#
# _framework density 25.267106999999999
#
# number of rings (size 3 to 8) (size 9 to 14) (size 15 to 20)
#    0.000    1.538    0.000    3.231   17.231    3.692 
#    0.000    0.000    0.000    0.000    0.000    0.000 
#    0.000    0.000    0.000    0.000    0.000    0.000 
#
# Total GULP energy -322123.124034 kJ/mol
# GULP energy per Si atom -12389.350924 kJ/mol
# Density = 2.520960 g / cm^3
# Si number density = 25.267107 Si / 1000 Ang^3
#
#
#
# Elastic Constant Matrix: (Units=GPa)
#
#
# Indices 1 2 3 4 5 6 
#
# 1 26.2227 11.8042 14.4840 0.0000 18.4772 0.0000
# 2 11.8042 193.1192 71.0438 0.0000 12.0062 0.0000
# 3 14.4840 71.0438 163.0160 0.0000 33.6082 0.0000
# 4 0.0000 0.0000 0.0000 43.5673 0.0000 5.3236
# 5 18.4772 12.0062 33.6082 0.0000 36.0680 0.0000
# 6 0.0000 0.0000 0.0000 5.3236 0.0000 18.9540
#
#
#
# Elastic Compliance Matrix: (Units=1/GPa)
#
#
# Indices 1 2 3 4 5 6 
#
# 1 0.060951 -0.002596 0.002445 0.000000 -0.032638 0.000000
# 2 -0.002596 0.006286 -0.002911 0.000000 0.001950 0.000000
# 3 0.002445 -0.002911 0.008967 0.000000 -0.008639 0.000000
# 4 0.000000 0.000000 0.000000 0.023769 0.000000 -0.006676
# 5 -0.032638 0.001950 -0.008639 0.000000 0.051846 0.000000
# 6 0.000000 0.000000 0.000000 -0.006676 0.000000 0.054634
#
#
# Mechanical properties :
#
#
# Convention : Reuss Voigt Hill
#
# Bulk Modulus (GPa) = 14.26948 64.11356 39.19152
# Shear Modulus (GPa) = 21.19208 38.71959 29.95583
#
# Velocity S-wave (km/s) = 2.89921 3.91885 3.44694
# Velocity P-wave (km/s) = 4.10694 6.77539 5.60236
#
# Compressibility (1/GPa) = 0.07007963
#
# Stress axis : x y z
#
# Youngs Moduli (GPa) = 16.40670 159.07106 111.52270
#
# Poissons Ratio (x) = 0.41291 -0.27263
# Poissons Ratio (y) = 0.04259 0.32465
# Poissons Ratio (z) = -0.04011 0.46306
#
# Static dielectric constant tensor:
#      x y z
#    x 4.400960 0.000000 0.225530 
#    y 0.000000 4.709020 0.000000 
#    z 0.225530 0.000000 6.764590 
# 
# 
# High freq. dielectric constant tensor:
#      x y z
#    x 1.997380 0.000000 0.000120 
#    y 0.000000 2.011540 0.000000 
#    z 0.000120 0.000000 2.026640 
# 
# From -- ./inp_files/11460.got.cif
#   From: 2010.06.25/outbox.cif.g09.slc.cpg/sg15_6_cif.got.tgz:11460.got - 2010.06.28 07:06:18.
