data_PCOD8143787
_publ_section_title
;
Structure prediction by ZEFSAII (Michael W. Deem and Ramdas Pophale) SiO2 
 PCOD8143787
Probable space group: C 2/C
;
_chemical_formula_sum "Si O2"
_cell_formula_units_Z 52
_cell_length_a 8.002652
_cell_length_b 24.173599
_cell_length_c 12.706330
_cell_angle_alpha 90.000000
_cell_angle_beta 108.360781
_cell_angle_gamma 90.000000
_cell_volume 2332.940273
_symmetry_space_group_name_H-M "C 2/C"
_symmetry_group_IT_number 15
_symmetry_cell_setting 'monoclinic'
loop_
_space_group_symop_operation_xyz
x,y,z
-x,y,1/2-z
-x,-y,-z
x,-y,1/2+z
1/2+x,1/2+y,z
1/2-x,1/2+y,1/2-z
1/2-x,1/2-y,-z
1/2+x,1/2-y,1/2+z
loop_
_atom_site_type_symbol
_atom_site_label
_atom_site_fract_x
_atom_site_fract_y
_atom_site_fract_z
Si Si1 0.822760 0.012973 0.401037
Si Si2 0.407518 0.294531 0.038086
Si Si3 0.066205 0.305118 0.650134
Si Si4 0.000000 0.940555 0.750000
Si Si5 0.916103 0.406947 0.125394
Si Si6 0.182448 0.389754 0.011243
Si Si7 0.146787 0.150943 0.425305
O O1 0.858331 0.021361 0.282808
O O2 0.732920 0.067650 0.430419
O O3 0.685302 0.963754 0.378021
O O4 0.000000 0.000000 0.500000
O O5 0.551443 0.261538 0.134637
O O6 0.250000 0.250000 0.000000
O O7 0.353328 0.353233 0.080976
O O8 0.489600 0.310689 0.939651
O O9 0.267292 0.318108 0.658462
O O10 0.000000 0.324136 0.750000
O O11 0.947508 0.341676 0.551012
O O12 0.080052 0.906385 0.863168
O O13 0.000000 0.383477 0.250000
O O14 0.784250 0.361969 0.047262
O O15 0.085730 0.421086 0.086440
#
# Coordination Sequence:
#
# PCOD8143787 Si02
#       7
#     8   8   8   4   8   8   8
#     4  12  24  43  66 102 134 178 232 281 351 408
#     4  10  21  41  64  97 136 176 223 289 343 413
#     4  10  22  38  67  99 131 178 227 284 344 405
#     4  12  24  40  76  96 136 180 228 282 352 400
#     4  11  26  43  67  97 138 189 228 286 351 412
#     4  10  22  43  62  91 141 172 229 285 337 413
#     4  11  23  45  68 102 141 181 233 285 346 413
#
# _framework density 22.289469
#
# number of rings (size 3 to 8) (size 9 to 14) (size 15 to 20)
#    0.000    1.231    3.077    1.846    4.308    4.308 
#    0.000    0.000    3.385    0.000    0.000    0.000 
#    0.000    0.000    0.000    0.000    0.000    0.000 
#
# Total GULP energy -322115.338978 kJ/mol
# GULP energy per Si atom -12389.051499 kJ/mol
# Density = 2.223874 g / cm^3
# Si number density = 22.289469 Si / 1000 Ang^3
#
#
#
# Elastic Constant Matrix: (Units=GPa)
#
#
# Indices 1 2 3 4 5 6 
#
# 1 140.6803 59.9836 48.6843 0.0000 -50.3864 0.0000
# 2 59.9836 91.7986 29.7269 0.0000 -26.8202 0.0000
# 3 48.6843 29.7269 107.6069 0.0000 -25.4029 0.0000
# 4 0.0000 0.0000 0.0000 30.9994 0.0000 -18.1503
# 5 -50.3864 -26.8202 -25.4029 0.0000 48.5511 0.0000
# 6 0.0000 0.0000 0.0000 -18.1503 0.0000 38.8518
#
#
#
# Elastic Compliance Matrix: (Units=1/GPa)
#
#
# Indices 1 2 3 4 5 6 
#
# 1 0.013844 -0.005293 -0.002396 0.000000 0.010190 0.000000
# 2 -0.005293 0.015470 -0.001321 0.000000 0.002361 0.000000
# 3 -0.002396 -0.001321 0.011390 0.000000 0.002743 0.000000
# 4 0.000000 0.000000 0.000000 0.044405 0.000000 0.020745
# 5 0.010190 0.002361 0.002743 0.000000 0.033911 0.000000
# 6 0.000000 0.000000 0.000000 0.020745 0.000000 0.035430
#
#
# Mechanical properties :
#
#
# Convention : Reuss Voigt Hill
#
# Bulk Modulus (GPa) = 44.08605 68.54171 56.31388
# Shear Modulus (GPa) = 27.77307 37.12652 32.44979
#
# Velocity S-wave (km/s) = 3.53373 4.08567 3.81968
# Velocity P-wave (km/s) = 6.03916 7.28522 6.69126
#
# Compressibility (1/GPa) = 0.02268291
#
# Stress axis : x y z
#
# Youngs Moduli (GPa) = 72.23451 64.64199 87.79990
#
# Poissons Ratio (x) = 0.34216 0.21033
# Poissons Ratio (y) = 0.38234 0.11603
# Poissons Ratio (z) = 0.17304 0.08542
#
# Static dielectric constant tensor:
#      x y z
#    x 5.487260 0.000000 -0.542170 
#    y 0.000000 4.436380 0.000000 
#    z -0.542170 0.000000 3.986100 
# 
# 
# High freq. dielectric constant tensor:
#      x y z
#    x 1.899150 0.000000 -0.023560 
#    y 0.000000 1.880760 0.000000 
#    z -0.023560 0.000000 1.852280 
# 
# From -- ./inp_files/80781.got.cif
#   From: 2010.06.25/outbox.cif.g09.slc.cpg/sg15_41_cif.got.tgz:80781.got - 2010.06.28 07:06:18.
