data_PCOD8143325
_publ_section_title
;
Structure prediction by ZEFSAII (Michael W. Deem and Ramdas Pophale) SiO2 
 PCOD8143325
Probable space group: C 2/C
;
_chemical_formula_sum "Si O2"
_cell_formula_units_Z 44
_cell_length_a 8.543008
_cell_length_b 16.984546
_cell_length_c 17.266965
_cell_angle_alpha 90.000000
_cell_angle_beta 126.529492
_cell_angle_gamma 90.000000
_cell_volume 2013.232733
_symmetry_space_group_name_H-M "C 2/C"
_symmetry_group_IT_number 15
_symmetry_cell_setting 'monoclinic'
loop_
_space_group_symop_operation_xyz
x,y,z
-x,y,1/2-z
-x,-y,-z
x,-y,1/2+z
1/2+x,1/2+y,z
1/2-x,1/2+y,1/2-z
1/2-x,1/2-y,-z
1/2+x,1/2-y,1/2+z
loop_
_atom_site_type_symbol
_atom_site_label
_atom_site_fract_x
_atom_site_fract_y
_atom_site_fract_z
Si Si1 0.145849 0.713832 0.396532
Si Si2 0.896543 0.573540 0.799445
Si Si3 0.000000 0.135792 0.250000
Si Si4 0.704670 0.040644 0.437059
Si Si5 0.963147 0.010189 0.362851
Si Si6 0.738305 0.246213 0.730099
O O1 0.250000 0.750000 0.500000
O O2 0.090776 0.623535 0.399444
O O3 0.284471 0.715087 0.361559
O O4 0.961665 0.768304 0.320522
O O5 0.676046 0.539924 0.735917
O O6 0.888397 0.666630 0.810997
O O7 0.000000 0.554495 0.750000
O O8 0.040701 0.527660 0.901203
O O9 0.950936 0.083769 0.159874
O O10 0.174199 0.193750 0.278151
O O11 0.835281 0.034890 0.398655
O O12 0.849513 0.039481 0.553591
#
# Coordination Sequence:
#
# PCOD8143325 Si02
#       6
#     8   8   4   8   8   8
#     4  11  24  43  67  93 137 178 224 273 336 400
#     4  10  21  40  65  92 132 170 215 272 333 391
#     4  12  22  42  66 100 130 166 222 284 332 384
#     4  10  21  41  64  94 128 178 216 264 335 399
#     4  10  22  38  65  93 129 169 218 269 329 399
#     4  11  24  42  66  98 132 174 222 278 337 392
#
# _framework density 21.855398000000001
#
# number of rings (size 3 to 8) (size 9 to 14) (size 15 to 20)
#    0.000    1.455    2.727    2.182    5.091    4.364 
#    0.000    4.545    0.000    0.000    0.000    0.000 
#    0.000    0.000    0.000    0.000    0.000    0.000 
#
# Total GULP energy -272659.697379 kJ/mol
# GULP energy per Si atom -12393.622608 kJ/mol
# Density = 2.180565 g / cm^3
# Si number density = 21.855398 Si / 1000 Ang^3
#
#
#
# Elastic Constant Matrix: (Units=GPa)
#
#
# Indices 1 2 3 4 5 6 
#
# 1 74.4810 40.0405 45.4798 0.0000 4.6855 0.0000
# 2 40.0405 134.8090 44.9313 0.0000 7.8816 0.0000
# 3 45.4798 44.9313 130.8657 0.0000 13.1768 0.0000
# 4 0.0000 0.0000 0.0000 35.6301 0.0000 -2.2249
# 5 4.6855 7.8816 13.1768 0.0000 24.9096 0.0000
# 6 0.0000 0.0000 0.0000 -2.2249 0.0000 36.1961
#
#
#
# Elastic Compliance Matrix: (Units=1/GPa)
#
#
# Indices 1 2 3 4 5 6 
#
# 1 0.018635 -0.003826 -0.005209 0.000000 0.000461 0.000000
# 2 -0.003826 0.009195 -0.001698 0.000000 -0.001292 0.000000
# 3 -0.005209 -0.001698 0.010438 0.000000 -0.004004 0.000000
# 4 0.000000 0.000000 0.000000 0.028174 0.000000 0.001732
# 5 0.000461 -0.001292 -0.004004 0.000000 0.042586 0.000000
# 6 0.000000 0.000000 0.000000 0.001732 0.000000 0.027734
#
#
# Mechanical properties :
#
#
# Convention : Reuss Voigt Hill
#
# Bulk Modulus (GPa) = 59.51137 66.78433 63.14785
# Shear Modulus (GPa) = 30.51999 33.32742 31.92371
#
# Velocity S-wave (km/s) = 3.74097 3.90924 3.82603
# Velocity P-wave (km/s) = 6.77853 7.14142 6.96234
#
# Compressibility (1/GPa) = 0.01680351
#
# Stress axis : x y z
#
# Youngs Moduli (GPa) = 53.66362 108.74898 95.80596
#
# Poissons Ratio (x) = 0.41603 0.49905
# Poissons Ratio (y) = 0.20529 0.16264
# Poissons Ratio (z) = 0.27953 0.18461
#
# Static dielectric constant tensor:
#      x y z
#    x 3.981880 0.000000 -0.001540 
#    y 0.000000 3.902980 0.000000 
#    z -0.001540 0.000000 3.884180 
# 
# 
# High freq. dielectric constant tensor:
#      x y z
#    x 1.854990 0.000000 -0.002630 
#    y 0.000000 1.861120 0.000000 
#    z -0.002630 0.000000 1.847510 
# 
# From -- ./inp_files/189336.got.cif
#   From: 2010.06.25/outbox.cif.g09.slc.cpg/sg15_95_cif.got.tgz:189336.got - 2010.06.28 07:06:18.
