data_PCOD8143667
_publ_section_title
;
Structure prediction by ZEFSAII (Michael W. Deem and Ramdas Pophale) SiO2 
 PCOD8143667
Probable space group: C 2/C
;
_chemical_formula_sum "Si O2"
_cell_formula_units_Z 56
_cell_length_a 11.651899
_cell_length_b 19.565495
_cell_length_c 11.250170
_cell_angle_alpha 90.000000
_cell_angle_beta 86.760340
_cell_angle_gamma 90.000000
_cell_volume 2560.660657
_symmetry_space_group_name_H-M "C 2/C"
_symmetry_group_IT_number 15
_symmetry_cell_setting 'monoclinic'
loop_
_space_group_symop_operation_xyz
x,y,z
-x,y,1/2-z
-x,-y,-z
x,-y,1/2+z
1/2+x,1/2+y,z
1/2-x,1/2+y,1/2-z
1/2-x,1/2-y,-z
1/2+x,1/2-y,1/2+z
loop_
_atom_site_type_symbol
_atom_site_label
_atom_site_fract_x
_atom_site_fract_y
_atom_site_fract_z
Si Si1 0.378089 0.110158 0.575006
Si Si2 0.603527 0.165219 0.539010
Si Si3 0.128361 0.995703 0.443338
Si Si4 0.118150 0.725786 0.297976
Si Si5 0.161272 0.533584 0.398103
Si Si6 0.205342 0.132185 0.788794
Si Si7 0.274452 0.893011 0.831215
O O1 0.477255 0.163964 0.609259
O O2 0.265098 0.112887 0.662682
O O3 0.349883 0.125499 0.440346
O O4 0.420968 0.032010 0.585825
O O5 0.617656 0.225558 0.442382
O O6 0.598991 0.095471 0.464983
O O7 0.703040 0.167035 0.628427
O O8 0.215139 0.981446 0.546772
O O9 0.139521 0.933034 0.347908
O O10 0.155487 0.070212 0.381033
O O11 0.000000 0.000000 0.500000
O O12 0.122207 0.805104 0.260633
O O13 0.226807 0.679121 0.242944
O O14 0.000000 0.695306 0.250000
O O15 0.171755 0.549382 0.257522
#
# Coordination Sequence:
#
# PCOD8143667 Si02
#       7
#     8   8   8   8   8   8   8
#     4  11  20  38  64  95 128 161 207 266 325 378
#     4  10  21  41  63  91 127 166 212 257 329 385
#     4  10  22  42  64  90 128 176 218 264 319 385
#     4  11  23  43  67  92 130 174 214 265 324 387
#     4   9  20  36  63  93 126 161 208 267 311 382
#     4  11  24  41  63  97 130 168 217 269 318 387
#     4  10  21  41  62  96 124 164 216 264 317 381
#
# _framework density 21.869356
#
# number of rings (size 3 to 8) (size 9 to 14) (size 15 to 20)
#    0.000    1.714    2.857    1.286    0.000    3.429 
#    5.143    0.000    6.286    0.000    0.000    0.000 
#    0.000    0.000    0.000    0.000    0.000    0.000 
#
# Total GULP energy -346887.616871 kJ/mol
# GULP energy per Si atom -12388.843460 kJ/mol
# Density = 2.181958 g / cm^3
# Si number density = 21.869356 Si / 1000 Ang^3
#
#
#
# Elastic Constant Matrix: (Units=GPa)
#
#
# Indices 1 2 3 4 5 6 
#
# 1 66.9394 19.3319 21.9520 0.0000 -18.7614 0.0000
# 2 19.3319 95.6878 15.7144 0.0000 -17.9687 0.0000
# 3 21.9520 15.7144 105.1141 0.0000 -5.0535 0.0000
# 4 0.0000 0.0000 0.0000 17.3270 0.0000 2.7474
# 5 -18.7614 -17.9687 -5.0535 0.0000 34.5528 0.0000
# 6 0.0000 0.0000 0.0000 2.7474 0.0000 23.4870
#
#
#
# Elastic Compliance Matrix: (Units=1/GPa)
#
#
# Indices 1 2 3 4 5 6 
#
# 1 0.019007 -0.001608 -0.003296 0.000000 0.009002 0.000000
# 2 -0.001608 0.011942 -0.001201 0.000000 0.005161 0.000000
# 3 -0.003296 -0.001201 0.010338 0.000000 -0.000903 0.000000
# 4 0.000000 0.000000 0.000000 0.058804 0.000000 -0.006879
# 5 0.009002 0.005161 -0.000903 0.000000 0.036381 0.000000
# 6 0.000000 0.000000 0.000000 -0.006879 0.000000 0.043381
#
#
# Mechanical properties :
#
#
# Convention : Reuss Voigt Hill
#
# Bulk Modulus (GPa) = 34.39285 42.41531 38.40408
# Shear Modulus (GPa) = 24.78215 29.12289 26.95252
#
# Velocity S-wave (km/s) = 3.36994 3.65317 3.51441
# Velocity P-wave (km/s) = 5.55902 6.10174 5.83669
#
# Compressibility (1/GPa) = 0.02907581
#
# Stress axis : x y z
#
# Youngs Moduli (GPa) = 52.61114 83.73745 96.72988
#
# Poissons Ratio (x) = 0.13467 0.31885
# Poissons Ratio (y) = 0.08461 0.11620
# Poissons Ratio (z) = 0.17342 0.10060
#
# Static dielectric constant tensor:
#      x y z
#    x 3.589340 0.000000 -0.066650 
#    y 0.000000 3.911010 0.000000 
#    z -0.066650 0.000000 4.153400 
# 
# 
# High freq. dielectric constant tensor:
#      x y z
#    x 1.831940 0.000000 -0.001720 
#    y 0.000000 1.852330 0.000000 
#    z -0.001720 0.000000 1.875080 
# 
# From -- ./inp_files/88885.got.cif
#   From: 2010.06.25/outbox.cif.g09.slc.cpg/sg15_45_cif.got.tgz:88885.got - 2010.06.28 07:06:18.
