data_PCOD8143859
_publ_section_title
;
Structure prediction by ZEFSAII (Michael W. Deem and Ramdas Pophale) SiO2 
 PCOD8143859
Probable space group: C 2/C
;
_chemical_formula_sum "Si O2"
_cell_formula_units_Z 60
_cell_length_a 20.905298
_cell_length_b 11.439762
_cell_length_c 17.005091
_cell_angle_alpha 90.000000
_cell_angle_beta 38.795847
_cell_angle_gamma 90.000000
_cell_volume 2548.039694
_symmetry_space_group_name_H-M "C 2/C"
_symmetry_group_IT_number 15
_symmetry_cell_setting 'monoclinic'
loop_
_space_group_symop_operation_xyz
x,y,z
-x,y,1/2-z
-x,-y,-z
x,-y,1/2+z
1/2+x,1/2+y,z
1/2-x,1/2+y,1/2-z
1/2-x,1/2-y,-z
1/2+x,1/2-y,1/2+z
loop_
_atom_site_type_symbol
_atom_site_label
_atom_site_fract_x
_atom_site_fract_y
_atom_site_fract_z
Si Si1 0.791192 0.551979 0.839615
Si Si2 0.708707 0.877596 0.521927
Si Si3 0.600628 0.719270 0.006731
Si Si4 0.803663 0.638715 0.206162
Si Si5 0.000000 0.283697 0.750000
Si Si6 0.369092 0.352234 0.249991
Si Si7 0.597463 0.401968 0.824835
Si Si8 0.364177 0.744664 0.356202
O O1 0.758934 0.461248 0.937861
O O2 0.693282 0.628072 0.909730
O O3 0.833744 0.480416 0.723182
O O4 0.879978 0.638647 0.787235
O O5 0.750000 0.750000 0.500000
O O6 0.585938 0.869105 0.629744
O O7 0.769245 0.914715 0.385531
O O8 0.632575 0.843225 0.936041
O O9 0.505401 0.664838 0.051385
O O10 0.565186 0.740952 0.132317
O O11 0.827936 0.752251 0.233540
O O12 0.683405 0.638084 0.303693
O O13 0.048526 0.200678 0.769286
O O14 0.421469 0.458460 0.152459
O O15 0.624859 0.369391 0.708054
O O16 0.250000 0.750000 0.500000
#
# Coordination Sequence:
#
# PCOD8143859 Si02
#       8
#     8   8   8   8   4   8   8   8
#     4  11  22  45  70  97 149 187 226 298 362 419
#     4  10  21  41  66 102 137 185 230 302 350 419
#     4  11  26  46  73 108 139 191 247 298 347 430
#     4  12  25  46  65 105 151 182 225 296 379 419
#     4  10  22  42  66 108 136 184 240 296 364 422
#     4  11  25  42  73 101 141 184 247 302 352 426
#     4  12  26  44  76 105 132 194 241 298 352 427
#     4  10  21  45  71  98 139 184 241 288 348 416
#
# _framework density 23.547515000000001
#
# number of rings (size 3 to 8) (size 9 to 14) (size 15 to 20)
#    0.000    1.067    5.333    2.800    5.600    3.200 
#    2.400    0.667    0.000    0.000    0.000    0.000 
#    0.000    0.000    0.000    0.000    0.000    0.000 
#
# Total GULP energy -371899.516708 kJ/mol
# GULP energy per Si atom -12396.650557 kJ/mol
# Density = 2.349392 g / cm^3
# Si number density = 23.547515 Si / 1000 Ang^3
#
#
#
# Elastic Constant Matrix: (Units=GPa)
#
#
# Indices 1 2 3 4 5 6 
#
# 1 140.8675 55.2943 14.4694 0.0000 -3.8108 0.0000
# 2 55.2943 125.1838 18.2902 0.0000 7.7278 0.0000
# 3 14.4694 18.2902 48.6260 0.0000 0.2879 0.0000
# 4 0.0000 0.0000 0.0000 34.2125 0.0000 6.1405
# 5 -3.8108 7.7278 0.2879 0.0000 39.3788 0.0000
# 6 0.0000 0.0000 0.0000 6.1405 0.0000 41.2059
#
#
#
# Elastic Compliance Matrix: (Units=1/GPa)
#
#
# Indices 1 2 3 4 5 6 
#
# 1 0.008752 -0.003791 -0.001188 0.000000 0.001600 0.000000
# 2 -0.003791 0.010202 -0.002695 0.000000 -0.002349 0.000000
# 3 -0.001188 -0.002695 0.021931 0.000000 0.000254 0.000000
# 4 0.000000 0.000000 0.000000 0.030032 0.000000 -0.004475
# 5 0.001600 -0.002349 0.000254 0.000000 0.026008 0.000000
# 6 0.000000 0.000000 0.000000 -0.004475 0.000000 0.024935
#
#
# Mechanical properties :
#
#
# Convention : Reuss Voigt Hill
#
# Bulk Modulus (GPa) = 39.15982 54.53168 46.84575
# Shear Modulus (GPa) = 34.31210 38.06768 36.18989
#
# Velocity S-wave (km/s) = 3.82140 4.02510 3.92457
# Velocity P-wave (km/s) = 6.01140 6.69405 6.36189
#
# Compressibility (1/GPa) = 0.02553638
#
# Stress axis : x y z
#
# Youngs Moduli (GPa) = 114.25602 98.02365 45.59782
#
# Poissons Ratio (x) = 0.37162 0.05416
# Poissons Ratio (y) = 0.43316 0.12290
# Poissons Ratio (z) = 0.13572 0.26419
#
# Static dielectric constant tensor:
#      x y z
#    x 4.660580 0.000000 0.167820 
#    y 0.000000 4.564210 0.000000 
#    z 0.167820 0.000000 5.199290 
# 
# 
# High freq. dielectric constant tensor:
#      x y z
#    x 1.938640 0.000000 0.003320 
#    y 0.000000 1.934650 0.000000 
#    z 0.003320 0.000000 1.926980 
# 
# From -- ./inp_files/215185.got.cif
#   From: 2010.06.25/outbox.cif.g09.slc.cpg/sg15_108_cif.got.tgz:215185.got - 2010.06.28 07:06:18.
