data_PCOD8143849
_publ_section_title
;
Structure prediction by ZEFSAII (Michael W. Deem and Ramdas Pophale) SiO2 
 PCOD8143849
Probable space group: C 2/C
;
_chemical_formula_sum "Si O2"
_cell_formula_units_Z 48
_cell_length_a 17.207434
_cell_length_b 28.499770
_cell_length_c 9.187654
_cell_angle_alpha 90.000000
_cell_angle_beta 149.808404
_cell_angle_gamma 90.000000
_cell_volume 2265.884862
_symmetry_space_group_name_H-M "C 2/C"
_symmetry_group_IT_number 15
_symmetry_cell_setting 'monoclinic'
loop_
_space_group_symop_operation_xyz
x,y,z
-x,y,1/2-z
-x,-y,-z
x,-y,1/2+z
1/2+x,1/2+y,z
1/2-x,1/2+y,1/2-z
1/2-x,1/2-y,-z
1/2+x,1/2-y,1/2+z
loop_
_atom_site_type_symbol
_atom_site_label
_atom_site_fract_x
_atom_site_fract_y
_atom_site_fract_z
Si Si1 0.167710 0.712913 0.472719
Si Si2 0.711847 0.370889 0.494855
Si Si3 0.120986 0.872556 0.667723
Si Si4 0.427283 0.052415 0.267524
Si Si5 0.634969 0.950375 0.369468
Si Si6 0.337210 0.287793 0.544139
O O1 0.250000 0.750000 0.500000
O O2 0.166849 0.665117 0.379555
O O3 0.000000 0.731431 0.250000
O O4 0.248902 0.701103 0.754471
O O5 0.680269 0.353492 0.607831
O O6 0.793846 0.420985 0.638438
O O7 0.562026 0.378949 0.150804
O O8 0.148010 0.834831 0.837411
O O9 0.206299 0.920958 0.853242
O O10 0.500000 0.081404 0.250000
O O11 0.576971 0.046309 0.610570
O O12 0.347813 0.005713 0.066432
O O13 0.500000 0.926987 0.250000
O O14 0.500000 0.267684 0.750000
O O15 0.250000 0.250000 0.500000
#
# Coordination Sequence:
#
# PCOD8143849 Si02
#       6
#     8   8   8   8   8   8
#     4  12  27  45  71 100 133 175 220 274 334 396
#     4  11  24  44  64  96 135 176 221 274 338 394
#     4  11  25  42  67  95 137 174 220 276 333 401
#     4  10  22  40  67  95 133 173 226 278 331 399
#     4  10  21  41  65  98 130 176 227 275 330 401
#     4  12  26  47  69 100 135 174 221 271 332 399
#
# _framework density 21.183779000000001
#
# number of rings (size 3 to 8) (size 9 to 14) (size 15 to 20)
#    0.000    1.000    3.333    2.500    7.000    1.333 
#    0.000    0.000    3.667    0.000    0.000    0.000 
#    0.000    0.000    0.000    0.000    0.000    0.000 
#
# Total GULP energy -297374.175660 kJ/mol
# GULP energy per Si atom -12390.590653 kJ/mol
# Density = 2.113556 g / cm^3
# Si number density = 21.183779 Si / 1000 Ang^3
#
#
#
# Elastic Constant Matrix: (Units=GPa)
#
#
# Indices 1 2 3 4 5 6 
#
# 1 133.8754 44.5502 46.7040 0.0000 4.8979 0.0000
# 2 44.5502 90.3370 38.7358 0.0000 6.3615 0.0000
# 3 46.7040 38.7358 109.8295 0.0000 -6.6707 0.0000
# 4 0.0000 0.0000 0.0000 36.4632 0.0000 -10.5912
# 5 4.8979 6.3615 -6.6707 0.0000 45.2839 0.0000
# 6 0.0000 0.0000 0.0000 -10.5912 0.0000 55.1748
#
#
#
# Elastic Compliance Matrix: (Units=1/GPa)
#
#
# Indices 1 2 3 4 5 6 
#
# 1 0.009684 -0.003432 -0.002968 0.000000 -0.001003 0.000000
# 2 -0.003432 0.014553 -0.003809 0.000000 -0.002234 0.000000
# 3 -0.002968 -0.003809 0.011869 0.000000 0.002604 0.000000
# 4 0.000000 0.000000 0.000000 0.029044 0.000000 0.005575
# 5 -0.001003 -0.002234 0.002604 0.000000 0.022889 0.000000
# 6 0.000000 0.000000 0.000000 0.005575 0.000000 0.019194
#
#
# Mechanical properties :
#
#
# Convention : Reuss Voigt Hill
#
# Bulk Modulus (GPa) = 63.74826 66.00244 64.87535
# Shear Modulus (GPa) = 37.62758 40.98783 39.30770
#
# Velocity S-wave (km/s) = 4.21912 4.40349 4.31229
# Velocity P-wave (km/s) = 7.34118 7.55506 7.44889
#
# Compressibility (1/GPa) = 0.01568670
#
# Stress axis : x y z
#
# Youngs Moduli (GPa) = 103.26250 68.71506 84.25437
#
# Poissons Ratio (x) = 0.23585 0.25010
# Poissons Ratio (y) = 0.35443 0.32091
# Poissons Ratio (z) = 0.30652 0.26172
#
# Static dielectric constant tensor:
#      x y z
#    x 4.053930 0.000000 -0.180220 
#    y 0.000000 3.769550 0.000000 
#    z -0.180220 0.000000 3.812680 
# 
# 
# High freq. dielectric constant tensor:
#      x y z
#    x 1.852680 0.000000 -0.016390 
#    y 0.000000 1.819570 0.000000 
#    z -0.016390 0.000000 1.830550 
# 
# From -- ./inp_files/52875.got.cif
#   From: 2010.06.25/outbox.cif.g09.slc.cpg/sg15_27_cif.got.tgz:52875.got - 2010.06.28 07:06:18.
