data_PCOD8143530
_publ_section_title
;
Structure prediction by ZEFSAII (Michael W. Deem and Ramdas Pophale) SiO2 
 PCOD8143530
Probable space group: C 2/C
;
_chemical_formula_sum "Si O2"
_cell_formula_units_Z 56
_cell_length_a 8.986828
_cell_length_b 29.588266
_cell_length_c 17.466368
_cell_angle_alpha 90.000000
_cell_angle_beta 33.965424
_cell_angle_gamma 90.000000
_cell_volume 2594.785107
_symmetry_space_group_name_H-M "C 2/C"
_symmetry_group_IT_number 15
_symmetry_cell_setting 'monoclinic'
loop_
_space_group_symop_operation_xyz
x,y,z
-x,y,1/2-z
-x,-y,-z
x,-y,1/2+z
1/2+x,1/2+y,z
1/2-x,1/2+y,1/2-z
1/2-x,1/2-y,-z
1/2+x,1/2-y,1/2+z
loop_
_atom_site_type_symbol
_atom_site_label
_atom_site_fract_x
_atom_site_fract_y
_atom_site_fract_z
Si Si1 0.500000 0.702469 0.750000
Si Si2 0.983506 0.928635 0.963065
Si Si3 0.727045 0.277629 0.774888
Si Si4 0.500000 0.774227 0.250000
Si Si5 0.136488 0.489622 0.611194
Si Si6 0.400951 0.157172 0.470819
Si Si7 0.988741 0.165194 0.513924
Si Si8 0.259389 0.071327 0.190725
O O1 0.402025 0.734898 0.724630
O O2 0.739306 0.671221 0.615989
O O3 0.141376 0.951236 0.967042
O O4 0.179484 0.914534 0.810729
O O5 0.851530 0.881354 0.044460
O O6 0.764089 0.963860 0.025638
O O7 0.474564 0.256974 0.836776
O O8 0.892335 0.304080 0.639916
O O9 0.641401 0.308991 0.881060
O O10 0.236815 0.804008 0.353806
O O11 0.000000 0.501476 0.750000
O O12 0.939117 0.473664 0.627274
O O13 0.564022 0.111436 0.420870
O O14 0.202186 0.149977 0.485275
O O15 0.000000 0.060737 0.250000
#
# Coordination Sequence:
#
# PCOD8143530 Si02
#       8
#     4   8   8   4   8   8   8   8
#     4  12  24  42  68  92 140 184 232 272 342 400
#     4  10  21  40  69  99 127 174 219 271 330 404
#     4  12  24  43  68  95 131 187 228 282 337 399
#     4  12  28  40  60 106 140 170 232 284 338 396
#     4   9  20  40  70 101 131 164 219 272 330 405
#     4  12  24  44  68  97 134 182 230 280 337 405
#     4  12  23  43  70  96 135 178 227 283 336 399
#     4  11  24  42  69 101 135 176 220 270 337 407
#
# _framework density 21.581748000000001
#
# number of rings (size 3 to 8) (size 9 to 14) (size 15 to 20)
#    0.000    0.857    5.714    1.714    2.000    1.714 
#    0.000    0.000    1.571    0.000    0.000    0.000 
#    0.000    0.000    0.000    0.000    0.000    0.000 
#
# Total GULP energy -347161.394316 kJ/mol
# GULP energy per Si atom -12398.621226 kJ/mol
# Density = 2.153263 g / cm^3
# Si number density = 21.581748 Si / 1000 Ang^3
#
#
#
# Elastic Constant Matrix: (Units=GPa)
#
#
# Indices 1 2 3 4 5 6 
#
# 1 103.6280 34.5952 9.4409 0.0000 -27.6900 0.0000
# 2 34.5952 107.1046 49.1780 0.0000 -14.4368 0.0000
# 3 9.4409 49.1780 98.2516 0.0000 -4.4334 0.0000
# 4 0.0000 0.0000 0.0000 16.1774 0.0000 -9.2926
# 5 -27.6900 -14.4368 -4.4334 0.0000 27.1195 0.0000
# 6 0.0000 0.0000 0.0000 -9.2926 0.0000 20.3034
#
#
#
# Elastic Compliance Matrix: (Units=1/GPa)
#
#
# Indices 1 2 3 4 5 6 
#
# 1 0.014059 -0.003197 0.000826 0.000000 0.012788 0.000000
# 2 -0.003197 0.013723 -0.006427 0.000000 0.002991 0.000000
# 3 0.000826 -0.006427 0.013297 0.000000 -0.000404 0.000000
# 4 0.000000 0.000000 0.000000 0.083862 0.000000 0.038383
# 5 0.012788 0.002991 -0.000404 0.000000 0.051457 0.000000
# 6 0.000000 0.000000 0.000000 0.038383 0.000000 0.066820
#
#
# Mechanical properties :
#
#
# Convention : Reuss Voigt Hill
#
# Bulk Modulus (GPa) = 42.58108 55.04582 48.81345
# Shear Modulus (GPa) = 18.61217 27.10473 22.85845
#
# Velocity S-wave (km/s) = 2.93986 3.54773 3.25800
# Velocity P-wave (km/s) = 5.59434 6.50714 6.06793
#
# Compressibility (1/GPa) = 0.02348461
#
# Stress axis : x y z
#
# Youngs Moduli (GPa) = 71.12969 72.86879 75.20398
#
# Poissons Ratio (x) = 0.23294 -0.06213
# Poissons Ratio (y) = 0.22738 0.48332
# Poissons Ratio (z) = -0.05877 0.46831
#
# Static dielectric constant tensor:
#      x y z
#    x 3.838880 0.000000 -0.107560 
#    y 0.000000 3.936170 0.000000 
#    z -0.107560 0.000000 3.803440 
# 
# 
# High freq. dielectric constant tensor:
#      x y z
#    x 1.841340 0.000000 -0.006030 
#    y 0.000000 1.853060 0.000000 
#    z -0.006030 0.000000 1.836530 
# 
# From -- ./inp_files/193881.got.cif
#   From: 2010.06.25/outbox.cif.g09.slc.cpg/sg15_97_cif.got.tgz:193881.got - 2010.06.28 07:06:18.
