data_PCOD8143387
_publ_section_title
;
Structure prediction by ZEFSAII (Michael W. Deem and Ramdas Pophale) SiO2 
 PCOD8143387
Probable space group: C 2/C
;
_chemical_formula_sum "Si O2"
_cell_formula_units_Z 56
_cell_length_a 12.892443
_cell_length_b 22.948942
_cell_length_c 9.215144
_cell_angle_alpha 90.000000
_cell_angle_beta 103.517872
_cell_angle_gamma 90.000000
_cell_volume 2650.934425
_symmetry_space_group_name_H-M "C 2/C"
_symmetry_group_IT_number 15
_symmetry_cell_setting 'monoclinic'
loop_
_space_group_symop_operation_xyz
x,y,z
-x,y,1/2-z
-x,-y,-z
x,-y,1/2+z
1/2+x,1/2+y,z
1/2-x,1/2+y,1/2-z
1/2-x,1/2-y,-z
1/2+x,1/2-y,1/2+z
loop_
_atom_site_type_symbol
_atom_site_label
_atom_site_fract_x
_atom_site_fract_y
_atom_site_fract_z
Si Si1 0.196968 0.652391 0.459264
Si Si2 0.610568 0.232042 0.199065
Si Si3 0.586675 0.958184 0.460290
Si Si4 0.377364 0.641954 0.746220
Si Si5 0.701110 0.038203 0.286377
Si Si6 0.995870 0.331356 0.087773
Si Si7 0.580210 0.480955 0.146208
O O1 0.199785 0.700478 0.330420
O O2 0.310485 0.642405 0.574159
O O3 0.163897 0.591847 0.373943
O O4 0.111805 0.671415 0.552341
O O5 0.500000 0.229967 0.250000
O O6 0.650555 0.297999 0.178432
O O7 0.593464 0.200857 0.039011
O O8 0.677124 0.949906 0.610991
O O9 0.537059 0.897502 0.400379
O O10 0.500000 0.000000 0.500000
O O11 0.636753 0.983093 0.328266
O O12 0.500000 0.644783 0.750000
O O13 0.361584 0.583310 0.838045
O O14 0.827555 0.028873 0.328379
O O15 0.000000 0.302293 0.250000
O O16 0.500000 0.484640 0.250000
O O17 0.500000 0.500000 0.000000
#
# Coordination Sequence:
#
# PCOD8143387 Si02
#       7
#     8   8   8   8   8   8   8
#     4  11  21  39  65  93 126 165 214 260 312 383
#     4   9  20  40  66  92 124 164 211 262 315 378
#     4  12  23  35  57  92 131 163 201 245 315 386
#     4  10  21  40  66  92 118 164 219 268 311 369
#     4  12  23  38  61  93 125 169 206 255 318 381
#     4  11  23  39  59  93 135 165 199 257 318 384
#     4  11  24  44  64  92 126 163 218 273 316 367
#
# _framework density 21.124625999999999
#
# number of rings (size 3 to 8) (size 9 to 14) (size 15 to 20)
#    0.000    1.143    2.857    5.143    2.000    0.000 
#    0.000    1.429    0.000    0.000    0.000    0.000 
#    0.000    0.000    0.000    0.000    0.000    0.000 
#
# Total GULP energy -347020.533998 kJ/mol
# GULP energy per Si atom -12393.590500 kJ/mol
# Density = 2.107655 g / cm^3
# Si number density = 21.124626 Si / 1000 Ang^3
#
#
#
# Elastic Constant Matrix: (Units=GPa)
#
#
# Indices 1 2 3 4 5 6 
#
# 1 61.0928 8.0550 22.7857 0.0000 8.7379 0.0000
# 2 8.0550 61.2583 55.0049 0.0000 -8.5190 0.0000
# 3 22.7857 55.0049 156.4301 0.0000 19.5248 0.0000
# 4 0.0000 0.0000 0.0000 33.6477 0.0000 -6.8911
# 5 8.7379 -8.5190 19.5248 0.0000 39.7554 0.0000
# 6 0.0000 0.0000 0.0000 -6.8911 0.0000 36.0907
#
#
#
# Elastic Compliance Matrix: (Units=1/GPa)
#
#
# Indices 1 2 3 4 5 6 
#
# 1 0.017646 -0.001227 -0.001728 0.000000 -0.003293 0.000000
# 2 -0.001227 0.028195 -0.011210 0.000000 0.011817 0.000000
# 3 -0.001728 -0.011210 0.011546 0.000000 -0.007693 0.000000
# 4 0.000000 0.000000 0.000000 0.030929 0.000000 0.005906
# 5 -0.003293 0.011817 -0.007693 0.000000 0.032188 0.000000
# 6 0.000000 0.000000 0.000000 0.005906 0.000000 0.028836
#
#
# Mechanical properties :
#
#
# Convention : Reuss Voigt Hill
#
# Bulk Modulus (GPa) = 34.41488 50.05248 42.23368
# Shear Modulus (GPa) = 26.68726 34.76113 30.72419
#
# Velocity S-wave (km/s) = 3.55818 4.06091 3.81783
# Velocity P-wave (km/s) = 5.76261 6.76264 6.28255
#
# Compressibility (1/GPa) = 0.02905720
#
# Stress axis : x y z
#
# Youngs Moduli (GPa) = 56.67109 35.46738 86.60704
#
# Poissons Ratio (x) = 0.04350 0.14966
# Poissons Ratio (y) = 0.06951 0.97090
# Poissons Ratio (z) = 0.09793 0.39760
#
# Static dielectric constant tensor:
#      x y z
#    x 3.636210 0.000000 0.187270 
#    y 0.000000 4.265640 0.000000 
#    z 0.187270 0.000000 4.089030 
# 
# 
# High freq. dielectric constant tensor:
#      x y z
#    x 1.810380 0.000000 0.022890 
#    y 0.000000 1.830730 0.000000 
#    z 0.022890 0.000000 1.838060 
# 
# From -- ./inp_files/42273.got.cif
#   From: 2010.06.25/outbox.cif.g09.slc.cpg/sg15_22_cif.got.tgz:42273.got - 2010.06.28 07:06:18.
