data_PCOD8143404
_publ_section_title
;
Structure prediction by ZEFSAII (Michael W. Deem and Ramdas Pophale) SiO2 
 PCOD8143404
Probable space group: C 2/C
;
_chemical_formula_sum "Si O2"
_cell_formula_units_Z 64
_cell_length_a 11.282813
_cell_length_b 20.604500
_cell_length_c 17.401027
_cell_angle_alpha 90.000000
_cell_angle_beta 127.453485
_cell_angle_gamma 90.000000
_cell_volume 3211.377209
_symmetry_space_group_name_H-M "C 2/C"
_symmetry_group_IT_number 15
_symmetry_cell_setting 'monoclinic'
loop_
_space_group_symop_operation_xyz
x,y,z
-x,y,1/2-z
-x,-y,-z
x,-y,1/2+z
1/2+x,1/2+y,z
1/2-x,1/2+y,1/2-z
1/2-x,1/2-y,-z
1/2+x,1/2-y,1/2+z
loop_
_atom_site_type_symbol
_atom_site_label
_atom_site_fract_x
_atom_site_fract_y
_atom_site_fract_z
Si Si1 0.362657 0.606139 0.033693
Si Si2 0.886140 0.887954 0.369093
Si Si3 0.582166 0.820088 0.478785
Si Si4 0.319515 0.250116 0.111393
Si Si5 0.389641 0.296801 0.854047
Si Si6 0.211822 0.618032 0.649406
Si Si7 0.885566 0.260428 0.849318
Si Si8 0.102958 0.022835 0.863404
O O1 0.240534 0.660378 0.006652
O O2 0.527159 0.634146 0.120288
O O3 0.340334 0.542107 0.074480
O O4 0.343930 0.586213 0.936972
O O5 0.755937 0.895254 0.255125
O O6 0.918506 0.811784 0.393392
O O7 0.026827 0.928702 0.394324
O O8 0.521140 0.756024 0.412808
O O9 0.465800 0.877987 0.419665
O O10 0.584195 0.810124 0.570749
O O11 0.222420 0.196381 0.117742
O O12 0.295789 0.317087 0.150473
O O13 0.495514 0.230603 0.174192
O O14 0.250000 0.250000 0.000000
O O15 0.285168 0.275183 0.741695
O O16 0.250546 0.558164 0.610385
O O17 0.000000 0.006401 0.750000
#
# Coordination Sequence:
#
# PCOD8143404 Si02
#       8
#     8   8   8   8   8   8   8   8
#     4  12  26  43  58  92 135 174 208 248 315 389
#     4  11  21  40  67  91 120 161 220 261 306 374
#     4  11  24  40  62  96 128 169 205 255 321 373
#     4  11  18  36  64  97 125 148 204 271 322 355
#     4  11  24  36  59  96 131 165 201 256 320 381
#     4  10  21  40  66  95 118 160 219 270 307 361
#     4  12  21  37  66  97 129 157 204 266 320 372
#     4  10  24  42  68  90 117 166 220 267 311 368
#
# _framework density 19.929144000000001
#
# number of rings (size 3 to 8) (size 9 to 14) (size 15 to 20)
#    0.000    1.000    7.500    1.125    1.750    1.000 
#    0.000    0.000    0.000    0.000    0.000    0.000 
#    0.000    0.000    0.000    0.000    0.000    0.000 
#
# Total GULP energy -396658.326995 kJ/mol
# GULP energy per Si atom -12395.572719 kJ/mol
# Density = 1.988378 g / cm^3
# Si number density = 19.929144 Si / 1000 Ang^3
#
#
#
# Elastic Constant Matrix: (Units=GPa)
#
#
# Indices 1 2 3 4 5 6 
#
# 1 94.3428 34.8449 32.6872 0.0000 5.2854 0.0000
# 2 34.8449 71.0159 36.1142 0.0000 1.4541 0.0000
# 3 32.6872 36.1142 74.2964 0.0000 2.5150 0.0000
# 4 0.0000 0.0000 0.0000 25.4248 0.0000 -2.1354
# 5 5.2854 1.4541 2.5150 0.0000 35.4077 0.0000
# 6 0.0000 0.0000 0.0000 -2.1354 0.0000 31.1406
#
#
#
# Elastic Compliance Matrix: (Units=1/GPa)
#
#
# Indices 1 2 3 4 5 6 
#
# 1 0.013743 -0.004866 -0.003627 0.000000 -0.001594 0.000000
# 2 -0.004866 0.020429 -0.007804 0.000000 0.000442 0.000000
# 3 -0.003627 -0.007804 0.018865 0.000000 -0.000478 0.000000
# 4 0.000000 0.000000 0.000000 0.039559 0.000000 0.002713
# 5 -0.001594 0.000442 -0.000478 0.000000 0.028496 0.000000
# 6 0.000000 0.000000 0.000000 0.002713 0.000000 0.032298
#
#
# Mechanical properties :
#
#
# Convention : Reuss Voigt Hill
#
# Bulk Modulus (GPa) = 48.91861 49.66086 49.28973
# Shear Modulus (GPa) = 25.93378 27.46187 26.69783
#
# Velocity S-wave (km/s) = 3.61127 3.71614 3.66408
# Velocity P-wave (km/s) = 6.47981 6.58678 6.53351
#
# Compressibility (1/GPa) = 0.02044212
#
# Stress axis : x y z
#
# Youngs Moduli (GPa) = 72.76525 48.95114 53.00835
#
# Poissons Ratio (x) = 0.23820 0.19226
# Poissons Ratio (y) = 0.35407 0.41368
# Poissons Ratio (z) = 0.26392 0.38202
#
# Static dielectric constant tensor:
#      x y z
#    x 3.749820 0.000000 0.001220 
#    y 0.000000 3.375610 0.000000 
#    z 0.001220 0.000000 3.743270 
# 
# 
# High freq. dielectric constant tensor:
#      x y z
#    x 1.779900 0.000000 -0.005760 
#    y 0.000000 1.745420 0.000000 
#    z -0.005760 0.000000 1.791080 
# 
# From -- ./inp_files/200401.got.cif
#   From: 2010.06.25/outbox.cif.g09.slc.cpg/sg15_101_cif.got.tgz:200401.got - 2010.06.28 07:06:18.
