data_PCOD8143533
_publ_section_title
;
Structure prediction by ZEFSAII (Michael W. Deem and Ramdas Pophale) SiO2 
 PCOD8143533
Probable space group: C 2/C
;
_chemical_formula_sum "Si O2"
_cell_formula_units_Z 40
_cell_length_a 21.617473
_cell_length_b 9.107245
_cell_length_c 9.063854
_cell_angle_alpha 90.000000
_cell_angle_beta 80.394210
_cell_angle_gamma 90.000000
_cell_volume 1759.432422
_symmetry_space_group_name_H-M "C 2/C"
_symmetry_group_IT_number 15
_symmetry_cell_setting 'monoclinic'
loop_
_space_group_symop_operation_xyz
x,y,z
-x,y,1/2-z
-x,-y,-z
x,-y,1/2+z
1/2+x,1/2+y,z
1/2-x,1/2+y,1/2-z
1/2-x,1/2-y,-z
1/2+x,1/2-y,1/2+z
loop_
_atom_site_type_symbol
_atom_site_label
_atom_site_fract_x
_atom_site_fract_y
_atom_site_fract_z
Si Si1 0.125287 0.648451 0.892665
Si Si2 0.255414 0.825913 0.342459
Si Si3 0.039863 0.397507 0.880222
Si Si4 0.790027 0.648441 0.380426
Si Si5 0.005601 0.844475 0.922978
O O1 0.178962 0.713075 0.765091
O O2 0.103748 0.491376 0.827219
O O3 0.072154 0.770512 0.931337
O O4 0.147035 0.612679 0.052391
O O5 0.250000 0.750000 0.500000
O O6 0.199194 0.749312 0.269764
O O7 0.250413 0.001779 0.355749
O O8 0.000000 0.362320 0.750000
O O9 0.000000 0.500000 0.000000
O O10 0.049557 0.250122 0.974285
O O11 0.750000 0.750000 0.500000
O O12 0.000000 0.853159 0.750000
O O13 0.000000 0.000000 0.000000
#
# Coordination Sequence:
#
# PCOD8143533 Si02
#       5
#     8   8   8   8   8
#     4  10  23  42  70 100 131 189 226 270 359 408
#     4  11  23  45  68 101 140 179 238 294 339 423
#     4  10  21  40  69  99 141 173 237 282 331 420
#     4  10  23  45  66  99 137 179 238 288 351 413
#     4  11  25  48  66 105 146 177 227 293 351 420
#
# _framework density 22.734604999999998
#
# number of rings (size 3 to 8) (size 9 to 14) (size 15 to 20)
#    0.000    1.600    0.000    5.400    8.400    0.000 
#   14.400    0.000    0.000    0.000    0.000    0.000 
#    0.000    0.000    0.000    0.000    0.000    0.000 
#
# Total GULP energy -247784.411860 kJ/mol
# GULP energy per Si atom -12389.220593 kJ/mol
# Density = 2.268286 g / cm^3
# Si number density = 22.734605 Si / 1000 Ang^3
#
#
#
# Elastic Constant Matrix: (Units=GPa)
#
#
# Indices 1 2 3 4 5 6 
#
# 1 66.0309 36.0805 39.9195 0.0000 9.1243 0.0000
# 2 36.0805 195.9997 81.6765 0.0000 15.6305 0.0000
# 3 39.9195 81.6765 204.2464 0.0000 28.7001 0.0000
# 4 0.0000 0.0000 0.0000 55.7111 0.0000 -2.0644
# 5 9.1243 15.6305 28.7001 0.0000 37.9108 0.0000
# 6 0.0000 0.0000 0.0000 -2.0644 0.0000 25.9559
#
#
#
# Elastic Compliance Matrix: (Units=1/GPa)
#
#
# Indices 1 2 3 4 5 6 
#
# 1 0.018023 -0.002179 -0.002426 0.000000 -0.001603 0.000000
# 2 -0.002179 0.006405 -0.002057 0.000000 -0.000559 0.000000
# 3 -0.002426 -0.002057 0.006705 0.000000 -0.003644 0.000000
# 4 0.000000 0.000000 0.000000 0.018003 0.000000 0.001432
# 5 -0.001603 -0.000559 -0.003644 0.000000 0.029753 0.000000
# 6 0.000000 0.000000 0.000000 0.001432 0.000000 0.038641
#
#
# Mechanical properties :
#
#
# Convention : Reuss Voigt Hill
#
# Bulk Modulus (GPa) = 56.15086 86.84779 71.49933
# Shear Modulus (GPa) = 36.55267 44.48893 40.52080
#
# Velocity S-wave (km/s) = 4.01409 4.42846 4.22636
# Velocity P-wave (km/s) = 6.79970 8.02696 7.43868
#
# Compressibility (1/GPa) = 0.01780917
#
# Stress axis : x y z
#
# Youngs Moduli (GPa) = 55.48403 156.13112 149.14849
#
# Poissons Ratio (x) = 0.34021 0.36183
# Poissons Ratio (y) = 0.12090 0.30677
# Poissons Ratio (z) = 0.13460 0.32113
#
# Static dielectric constant tensor:
#      x y z
#    x 9.858690 0.000000 0.067900 
#    y 0.000000 5.228260 0.000000 
#    z 0.067900 0.000000 4.846200 
# 
# 
# High freq. dielectric constant tensor:
#      x y z
#    x 1.873530 0.000000 -0.002490 
#    y 0.000000 1.905000 0.000000 
#    z -0.002490 0.000000 1.929240 
# 
# From -- ./inp_files/59996.got.cif
#   From: 2010.06.25/outbox.cif.g09.slc.cpg/sg15_30_cif.got.tgz:59996.got - 2010.06.28 07:06:18.
