data_PCOD8143817
_publ_section_title
;
Structure prediction by ZEFSAII (Michael W. Deem and Ramdas Pophale) SiO2 
 PCOD8143817
Probable space group: C 2/C
;
_chemical_formula_sum "Si O2"
_cell_formula_units_Z 64
_cell_length_a 27.341751
_cell_length_b 9.482794
_cell_length_c 18.284053
_cell_angle_alpha 90.000000
_cell_angle_beta 136.815117
_cell_angle_gamma 90.000000
_cell_volume 3244.265570
_symmetry_space_group_name_H-M "C 2/C"
_symmetry_group_IT_number 15
_symmetry_cell_setting 'monoclinic'
loop_
_space_group_symop_operation_xyz
x,y,z
-x,y,1/2-z
-x,-y,-z
x,-y,1/2+z
1/2+x,1/2+y,z
1/2-x,1/2+y,1/2-z
1/2-x,1/2-y,-z
1/2+x,1/2-y,1/2+z
loop_
_atom_site_type_symbol
_atom_site_label
_atom_site_fract_x
_atom_site_fract_y
_atom_site_fract_z
Si Si1 0.231583 0.297358 0.654931
Si Si2 0.755469 0.470768 0.691327
Si Si3 0.391225 0.683687 0.310779
Si Si4 0.613475 0.972999 0.256084
Si Si5 0.900830 0.108041 0.483643
Si Si6 0.986875 0.888212 0.658502
Si Si7 0.106569 0.374779 0.413436
Si Si8 0.021054 0.361331 0.854501
O O1 0.209913 0.397741 0.699165
O O2 0.307838 0.348249 0.706516
O O3 0.176821 0.315802 0.528914
O O4 0.235644 0.134339 0.685548
O O5 0.811395 0.455344 0.685472
O O6 0.683885 0.383371 0.592418
O O7 0.404384 0.852248 0.323124
O O8 0.416528 0.620275 0.415106
O O9 0.436683 0.609583 0.297404
O O10 0.622149 0.899569 0.344733
O O11 0.551079 0.088532 0.183489
O O12 0.945992 0.227075 0.571940
O O13 0.928033 0.958974 0.543003
O O14 0.959156 0.731781 0.647228
O O15 0.000000 0.968636 0.750000
O O16 0.081681 0.519461 0.423155
O O17 0.000000 0.319915 0.750000
#
# Coordination Sequence:
#
# PCOD8143817 Si02
#       8
#     8   8   8   8   8   8   8   8
#     4  10  23  40  63  91 125 164 203 260 308 372
#     4  10  23  42  62  90 127 161 209 258 315 370
#     4  10  22  39  60  92 122 157 206 260 302 372
#     4  10  21  41  65  92 121 163 218 256 296 379
#     4  11  24  40  60  90 130 162 201 259 318 371
#     4  12  21  40  62  91 123 161 204 259 313 362
#     4  11  21  39  68  89 121 165 212 253 306 371
#     4  10  22  42  61  91 125 164 209 253 310 372
#
# _framework density 19.727115999999999
#
# number of rings (size 3 to 8) (size 9 to 14) (size 15 to 20)
#    0.000    1.500    3.750    1.125    5.250    4.500 
#    4.500    2.500    0.000    0.000    0.000    0.000 
#    0.000    0.000    0.000    0.000    0.000    0.000 
#
# Total GULP energy -396790.867819 kJ/mol
# GULP energy per Si atom -12399.714619 kJ/mol
# Density = 1.968222 g / cm^3
# Si number density = 19.727116 Si / 1000 Ang^3
#
#
#
# Elastic Constant Matrix: (Units=GPa)
#
#
# Indices 1 2 3 4 5 6 
#
# 1 149.9537 35.1181 45.3282 0.0000 -0.8484 0.0000
# 2 35.1181 70.4454 31.7054 0.0000 -5.0052 0.0000
# 3 45.3282 31.7054 102.5330 0.0000 1.7360 0.0000
# 4 0.0000 0.0000 0.0000 36.3841 0.0000 4.1676
# 5 -0.8484 -5.0052 1.7360 0.0000 19.8082 0.0000
# 6 0.0000 0.0000 0.0000 4.1676 0.0000 23.3054
#
#
#
# Elastic Compliance Matrix: (Units=1/GPa)
#
#
# Indices 1 2 3 4 5 6 
#
# 1 0.008159 -0.002851 -0.002723 0.000000 -0.000132 0.000000
# 2 -0.002851 0.017920 -0.004362 0.000000 0.004788 0.000000
# 3 -0.002723 -0.004362 0.012344 0.000000 -0.002301 0.000000
# 4 0.000000 0.000000 0.000000 0.028059 0.000000 -0.005018
# 5 -0.000132 0.004788 -0.002301 0.000000 0.051890 0.000000
# 6 0.000000 0.000000 0.000000 -0.005018 0.000000 0.043806
#
#
# Mechanical properties :
#
#
# Convention : Reuss Voigt Hill
#
# Bulk Modulus (GPa) = 53.90458 60.80394 57.35426
# Shear Modulus (GPa) = 26.56265 29.95159 28.25712
#
# Velocity S-wave (km/s) = 3.67346 3.90076 3.78881
# Velocity P-wave (km/s) = 6.73623 7.15383 6.94817
#
# Compressibility (1/GPa) = 0.01855130
#
# Stress axis : x y z
#
# Youngs Moduli (GPa) = 122.56699 55.80326 81.00778
#
# Poissons Ratio (x) = 0.15910 0.22058
# Poissons Ratio (y) = 0.34946 0.35335
# Poissons Ratio (z) = 0.33375 0.24341
#
# Static dielectric constant tensor:
#      x y z
#    x 3.741140 0.000000 0.025500 
#    y 0.000000 3.521950 0.000000 
#    z 0.025500 0.000000 3.650750 
# 
# 
# High freq. dielectric constant tensor:
#      x y z
#    x 1.775680 0.000000 0.006470 
#    y 0.000000 1.760810 0.000000 
#    z 0.006470 0.000000 1.772110 
# 
# From -- ./inp_files/224643.got.cif
#   From: 2010.06.25/outbox.cif.g09.slc.cpg/sg15_113_cif.got.tgz:224643.got - 2010.06.28 07:06:18.
