data_PCOD8143373
_publ_section_title
;
Structure prediction by ZEFSAII (Michael W. Deem and Ramdas Pophale) SiO2 
 PCOD8143373
Probable space group: C 2/C
;
_chemical_formula_sum "Si O2"
_cell_formula_units_Z 48
_cell_length_a 32.673823
_cell_length_b 14.001007
_cell_length_c 15.547277
_cell_angle_alpha 90.000000
_cell_angle_beta 160.928444
_cell_angle_gamma 90.000000
_cell_volume 2323.953809
_symmetry_space_group_name_H-M "C 2/C"
_symmetry_group_IT_number 15
_symmetry_cell_setting 'monoclinic'
loop_
_space_group_symop_operation_xyz
x,y,z
-x,y,1/2-z
-x,-y,-z
x,-y,1/2+z
1/2+x,1/2+y,z
1/2-x,1/2+y,1/2-z
1/2-x,1/2-y,-z
1/2+x,1/2-y,1/2+z
loop_
_atom_site_type_symbol
_atom_site_label
_atom_site_fract_x
_atom_site_fract_y
_atom_site_fract_z
Si Si1 0.737148 0.405427 0.407564
Si Si2 0.493941 0.432818 0.830271
Si Si3 0.734947 0.383468 0.942996
Si Si4 0.553197 0.622742 0.683841
Si Si5 0.207310 0.781403 0.056264
Si Si6 0.883835 0.713308 0.069096
O O1 0.784237 0.508486 0.533804
O O2 0.664894 0.348008 0.340170
O O3 0.849441 0.347041 0.586280
O O4 0.638424 0.421116 0.136772
O O5 0.500000 0.481821 0.750000
O O6 0.425936 0.509163 0.757516
O O7 0.427219 0.329982 0.696295
O O8 0.584242 0.366343 0.631893
O O9 0.806079 0.325312 0.008390
O O10 0.777747 0.343779 0.121721
O O11 0.568411 0.684145 0.800626
O O12 0.274032 0.776730 0.281303
O O13 0.000000 0.664187 0.250000
#
# Coordination Sequence:
#
# PCOD8143373 Si02
#       6
#     8   8   8   8   8   8
#     4  11  22  40  65  92 119 156 209 254 297 356
#     4  11  20  36  67  95 117 151 209 267 290 342
#     4  10  21  40  66  89 121 161 203 249 306 360
#     4  11  21  40  63  95 118 158 205 255 304 351
#     4  11  21  38  63  90 124 158 201 246 308 357
#     4  12  25  39  60  90 129 164 195 245 310 367
#
# _framework density 20.654456
#
# number of rings (size 3 to 8) (size 9 to 14) (size 15 to 20)
#    0.000    1.000    6.667    2.000    2.333    0.000 
#    0.000    1.667    3.667    0.000    0.000    0.000 
#    0.000    0.000    0.000    0.000    0.000    0.000 
#
# Total GULP energy -297404.504711 kJ/mol
# GULP energy per Si atom -12391.854363 kJ/mol
# Density = 2.060745 g / cm^3
# Si number density = 20.654456 Si / 1000 Ang^3
#
#
#
# Elastic Constant Matrix: (Units=GPa)
#
#
# Indices 1 2 3 4 5 6 
#
# 1 114.2364 27.2216 16.3855 0.0000 4.3455 0.0000
# 2 27.2216 84.6500 20.2854 0.0000 6.6571 0.0000
# 3 16.3855 20.2854 33.8003 0.0000 1.8807 0.0000
# 4 0.0000 0.0000 0.0000 24.0797 0.0000 0.0771
# 5 4.3455 6.6571 1.8807 0.0000 44.0403 0.0000
# 6 0.0000 0.0000 0.0000 0.0771 0.0000 30.7542
#
#
#
# Elastic Compliance Matrix: (Units=1/GPa)
#
#
# Indices 1 2 3 4 5 6 
#
# 1 0.009802 -0.002315 -0.003336 0.000000 -0.000475 0.000000
# 2 -0.002315 0.014478 -0.007476 0.000000 -0.001641 0.000000
# 3 -0.003336 -0.007476 0.035693 0.000000 -0.000065 0.000000
# 4 0.000000 0.000000 0.000000 0.041529 0.000000 -0.000104
# 5 -0.000475 -0.001641 -0.000065 0.000000 0.023004 0.000000
# 6 0.000000 0.000000 0.000000 -0.000104 0.000000 0.032516
#
#
# Mechanical properties :
#
#
# Convention : Reuss Voigt Hill
#
# Bulk Modulus (GPa) = 29.65617 40.05242 34.85430
# Shear Modulus (GPa) = 25.70483 31.02778 28.36630
#
# Velocity S-wave (km/s) = 3.53160 3.88007 3.70993
# Velocity P-wave (km/s) = 5.56947 6.28546 5.93827
#
# Compressibility (1/GPa) = 0.03371979
#
# Stress axis : x y z
#
# Youngs Moduli (GPa) = 102.01955 69.06839 28.01688
#
# Poissons Ratio (x) = 0.15992 0.09346
# Poissons Ratio (y) = 0.23622 0.20944
# Poissons Ratio (z) = 0.34031 0.51632
#
# Static dielectric constant tensor:
#      x y z
#    x 4.040850 0.000000 -0.114600 
#    y 0.000000 3.741680 0.000000 
#    z -0.114600 0.000000 3.427040 
# 
# 
# High freq. dielectric constant tensor:
#      x y z
#    x 1.834900 0.000000 -0.011050 
#    y 0.000000 1.798630 0.000000 
#    z -0.011050 0.000000 1.771760 
# 
# From -- ./inp_files/143518.got.cif
#   From: 2010.06.25/outbox.cif.g09.slc.cpg/sg15_72_cif.got.tgz:143518.got - 2010.06.28 07:06:18.
