data_PCOD8143483
_publ_section_title
;
Structure prediction by ZEFSAII (Michael W. Deem and Ramdas Pophale) SiO2 
 PCOD8143483
Probable space group: C 2/C
;
_chemical_formula_sum "Si O2"
_cell_formula_units_Z 56
_cell_length_a 10.232321
_cell_length_b 9.930290
_cell_length_c 23.905411
_cell_angle_alpha 90.000000
_cell_angle_beta 104.503898
_cell_angle_gamma 90.000000
_cell_volume 2351.615161
_symmetry_space_group_name_H-M "C 2/C"
_symmetry_group_IT_number 15
_symmetry_cell_setting 'monoclinic'
loop_
_space_group_symop_operation_xyz
x,y,z
-x,y,1/2-z
-x,-y,-z
x,-y,1/2+z
1/2+x,1/2+y,z
1/2-x,1/2+y,1/2-z
1/2-x,1/2-y,-z
1/2+x,1/2-y,1/2+z
loop_
_atom_site_type_symbol
_atom_site_label
_atom_site_fract_x
_atom_site_fract_y
_atom_site_fract_z
Si Si1 0.575011 0.887643 0.042098
Si Si2 0.661339 0.452858 0.131258
Si Si3 0.926675 0.168452 0.987273
Si Si4 0.774969 0.899519 0.573371
Si Si5 0.021985 0.569879 0.850073
Si Si6 0.408877 0.665893 0.288071
Si Si7 0.813236 0.672077 0.320861
O O1 0.488705 0.867731 0.089519
O O2 0.724179 0.944512 0.069952
O O3 0.573671 0.742631 0.009580
O O4 0.500000 0.000000 0.000000
O O5 0.589494 0.444616 0.062260
O O6 0.822948 0.467988 0.145162
O O7 0.594614 0.580013 0.155252
O O8 0.622663 0.318877 0.161698
O O9 0.830778 0.294104 0.963337
O O10 0.900503 0.099654 0.044876
O O11 0.799009 0.855148 0.640949
O O12 0.933856 0.434666 0.835272
O O13 0.964228 0.682740 0.802218
O O14 0.500000 0.595064 0.250000
O O15 0.256984 0.671080 0.246976
#
# Coordination Sequence:
#
# PCOD8143483 Si02
#       7
#     8   8   8   8   8   8   8
#     4   9  16  31  62  95 124 162 205 253 320 385
#     4  11  23  43  64  96 128 168 217 264 324 382
#     4   9  16  29  58  89 122 157 201 251 309 378
#     4   8  15  28  55  91 117 155 203 250 304 376
#     4  11  23  43  70  95 128 172 213 268 324 384
#     4  12  26  44  63  90 131 168 219 273 317 379
#     4  10  21  40  68  91 123 172 216 258 322 379
#
# _framework density 23.813421999999999
#
# number of rings (size 3 to 8) (size 9 to 14) (size 15 to 20)
#    0.000    2.000    1.429    5.143    0.000    0.000 
#    5.143    0.714    0.000    4.286    0.000    0.000 
#    0.000    0.000    0.000    0.000    0.000    0.000 
#
# Total GULP energy -346911.096230 kJ/mol
# GULP energy per Si atom -12389.682008 kJ/mol
# Density = 2.375922 g / cm^3
# Si number density = 23.813422 Si / 1000 Ang^3
#
#
#
# Elastic Constant Matrix: (Units=GPa)
#
#
# Indices 1 2 3 4 5 6 
#
# 1 54.0994 36.8141 10.5096 0.0000 -16.1495 0.0000
# 2 36.8141 78.6868 5.1514 0.0000 -24.3454 0.0000
# 3 10.5096 5.1514 81.8677 0.0000 -28.7407 0.0000
# 4 0.0000 0.0000 0.0000 9.6170 0.0000 -10.8268
# 5 -16.1495 -24.3454 -28.7407 0.0000 18.9730 0.0000
# 6 0.0000 0.0000 0.0000 -10.8268 0.0000 21.3854
#
#
#
# Elastic Compliance Matrix: (Units=1/GPa)
#
#
# Indices 1 2 3 4 5 6 
#
# 1 0.029155 -0.006250 0.005440 0.000000 0.025038 0.000000
# 2 -0.006250 0.048541 0.037904 0.000000 0.114384 0.000000
# 3 0.005440 0.037904 0.059444 0.000000 0.143314 0.000000
# 4 0.000000 0.000000 0.000000 0.241799 0.000000 0.122416
# 5 0.025038 0.114384 0.143314 0.000000 0.437887 0.000000
# 6 0.000000 0.000000 0.000000 0.122416 0.000000 0.108737
#
#
# Mechanical properties :
#
#
# Convention : Reuss Voigt Hill
#
# Bulk Modulus (GPa) = 4.73196 35.51158 20.12177
# Shear Modulus (GPa) = 5.42407 20.80700 13.11554
#
# Velocity S-wave (km/s) = 1.51085 2.95913 2.34938
# Velocity P-wave (km/s) = 2.24388 5.15947 3.97838
#
# Compressibility (1/GPa) = 0.21132898
#
# Stress axis : x y z
#
# Youngs Moduli (GPa) = 34.29981 20.60101 16.82264
#
# Poissons Ratio (x) = 0.12875 -0.09152
# Poissons Ratio (y) = 0.21437 -0.63765
# Poissons Ratio (z) = -0.18660 -0.78086
#
# Static dielectric constant tensor:
#      x y z
#    x 4.115810 0.000000 0.000790 
#    y 0.000000 4.427310 0.000000 
#    z 0.000790 0.000000 4.648210 
# 
# 
# High freq. dielectric constant tensor:
#      x y z
#    x 1.912200 0.000000 0.007380 
#    y 0.000000 1.945800 0.000000 
#    z 0.007380 0.000000 1.960780 
# 
# From -- ./inp_files/272843.got.cif
#   From: 2010.06.25/outbox.cif.g09.slc.cpg/sg15_137_cif.got.tgz:272843.got - 2010.06.28 07:06:18.
