data_PCOD8143843
_publ_section_title
;
Structure prediction by ZEFSAII (Michael W. Deem and Ramdas Pophale) SiO2 
 PCOD8143843
Probable space group: C 2/C
;
_chemical_formula_sum "Si O2"
_cell_formula_units_Z 40
_cell_length_a 22.240765
_cell_length_b 8.793134
_cell_length_c 7.985099
_cell_angle_alpha 90.000000
_cell_angle_beta 94.784010
_cell_angle_gamma 90.000000
_cell_volume 1556.173693
_symmetry_space_group_name_H-M "C 2/C"
_symmetry_group_IT_number 15
_symmetry_cell_setting 'monoclinic'
loop_
_space_group_symop_operation_xyz
x,y,z
-x,y,1/2-z
-x,-y,-z
x,-y,1/2+z
1/2+x,1/2+y,z
1/2-x,1/2+y,1/2-z
1/2-x,1/2-y,-z
1/2+x,1/2-y,1/2+z
loop_
_atom_site_type_symbol
_atom_site_label
_atom_site_fract_x
_atom_site_fract_y
_atom_site_fract_z
Si Si1 0.621058 0.853113 0.592340
Si Si2 0.089880 0.330201 0.963148
Si Si3 0.517621 0.334411 0.945539
Si Si4 0.303519 0.296041 0.819296
Si Si5 0.755302 0.495997 0.924973
O O1 0.587773 0.710264 0.493635
O O2 0.688641 0.877901 0.536905
O O3 0.583837 0.003563 0.539658
O O4 0.622396 0.827279 0.791457
O O5 0.129299 0.217753 0.091629
O O6 0.021887 0.271578 0.940831
O O7 0.500000 0.306446 0.750000
O O8 0.500000 0.500000 0.000000
O O9 0.301796 0.391535 0.644706
O O10 0.275114 0.126989 0.794002
O O11 0.259682 0.407032 0.915584
#
# Coordination Sequence:
#
# PCOD8143843 Si02
#       5
#     8   8   8   8   8
#     4  11  22  42  70  97 133 180 228 283 341 416
#     4  11  24  44  69  98 136 182 235 285 346 418
#     4  12  27  46  69 100 136 177 230 291 352 411
#     4  10  23  40  64  98 134 179 226 283 343 413
#     4  10  21  41  65  96 135 174 227 280 344 412
#
# _framework density 25.704070999999999
#
# number of rings (size 3 to 8) (size 9 to 14) (size 15 to 20)
#    0.000    1.200    0.000    7.200    0.000    7.200 
#    0.000    4.000    0.000    0.000    0.000    0.000 
#    0.000    0.000    0.000    0.000    0.000    0.000 
#
# Total GULP energy -247904.831007 kJ/mol
# GULP energy per Si atom -12395.241550 kJ/mol
# Density = 2.564557 g / cm^3
# Si number density = 25.704071 Si / 1000 Ang^3
#
#
#
# Elastic Constant Matrix: (Units=GPa)
#
#
# Indices 1 2 3 4 5 6 
#
# 1 90.3991 41.6039 34.6577 0.0000 7.0428 0.0000
# 2 41.6039 120.3116 46.4240 0.0000 20.4553 0.0000
# 3 34.6577 46.4240 55.3681 0.0000 18.8565 0.0000
# 4 0.0000 0.0000 0.0000 49.5852 0.0000 10.6745
# 5 7.0428 20.4553 18.8565 0.0000 37.3530 0.0000
# 6 0.0000 0.0000 0.0000 10.6745 0.0000 57.2229
#
#
#
# Elastic Compliance Matrix: (Units=1/GPa)
#
#
# Indices 1 2 3 4 5 6 
#
# 1 0.015199 -0.002498 -0.008344 0.000000 0.002714 0.000000
# 2 -0.002498 0.012804 -0.008386 0.000000 -0.002307 0.000000
# 3 -0.008344 -0.008386 0.034074 0.000000 -0.011035 0.000000
# 4 0.000000 0.000000 0.000000 0.021011 0.000000 -0.003919
# 5 0.002714 -0.002307 -0.011035 0.000000 0.033094 0.000000
# 6 0.000000 0.000000 0.000000 -0.003919 0.000000 0.018207
#
#
# Mechanical properties :
#
#
# Convention : Reuss Voigt Hill
#
# Bulk Modulus (GPa) = 42.33613 56.82778 49.58196
# Shear Modulus (GPa) = 27.66750 38.39178 33.02964
#
# Velocity S-wave (km/s) = 3.28439 3.86891 3.58857
# Velocity P-wave (km/s) = 5.55782 6.48957 6.04168
#
# Compressibility (1/GPa) = 0.02362049
#
# Stress axis : x y z
#
# Youngs Moduli (GPa) = 65.79357 78.10277 29.34822
#
# Poissons Ratio (x) = 0.19507 0.24488
# Poissons Ratio (y) = 0.16433 0.24612
# Poissons Ratio (z) = 0.54898 0.65499
#
# Static dielectric constant tensor:
#      x y z
#    x 4.477070 0.000000 0.041540 
#    y 0.000000 4.822190 0.000000 
#    z 0.041540 0.000000 4.539990 
# 
# 
# High freq. dielectric constant tensor:
#      x y z
#    x 2.018910 0.000000 0.003800 
#    y 0.000000 2.038290 0.000000 
#    z 0.003800 0.000000 2.027800 
# 
# From -- ./inp_files/60072.got.cif
#   From: 2010.06.25/outbox.cif.g09.slc.cpg/sg15_31_cif.got.tgz:60072.got - 2010.06.28 07:06:18.
