data_PCOD8143384
_publ_section_title
;
Structure prediction by ZEFSAII (Michael W. Deem and Ramdas Pophale) SiO2 
 PCOD8143384
Probable space group: C 2/C
;
_chemical_formula_sum "Si O2"
_cell_formula_units_Z 48
_cell_length_a 10.897117
_cell_length_b 8.954651
_cell_length_c 23.880431
_cell_angle_alpha 90.000000
_cell_angle_beta 99.007243
_cell_angle_gamma 90.000000
_cell_volume 2301.514243
_symmetry_space_group_name_H-M "C 2/C"
_symmetry_group_IT_number 15
_symmetry_cell_setting 'monoclinic'
loop_
_space_group_symop_operation_xyz
x,y,z
-x,y,1/2-z
-x,-y,-z
x,-y,1/2+z
1/2+x,1/2+y,z
1/2-x,1/2+y,1/2-z
1/2-x,1/2-y,-z
1/2+x,1/2-y,1/2+z
loop_
_atom_site_type_symbol
_atom_site_label
_atom_site_fract_x
_atom_site_fract_y
_atom_site_fract_z
Si Si1 0.243463 0.923815 0.643785
Si Si2 0.187932 0.387522 0.151455
Si Si3 0.089060 0.696353 0.841601
Si Si4 0.272727 0.866911 0.933891
Si Si5 0.127400 0.068615 0.529171
Si Si6 0.634214 0.554903 0.256405
O O1 0.275955 0.748768 0.635870
O O2 0.364135 0.025959 0.660256
O O3 0.162618 0.977348 0.586254
O O4 0.160677 0.925562 0.693479
O O5 0.167969 0.509773 0.102019
O O6 0.255486 0.458603 0.209511
O O7 0.056820 0.315591 0.158744
O O8 0.154675 0.782477 0.897764
O O9 0.120780 0.785144 0.786883
O O10 0.379946 0.745161 0.955474
O O11 0.229432 0.949081 0.987407
O O12 0.000000 0.000000 0.500000
O O13 0.500000 0.471888 0.250000
#
# Coordination Sequence:
#
# PCOD8143384 Si02
#       6
#     8   8   8   8   8   8
#     4  11  23  39  64  95 121 167 214 256 313 376
#     4  11  23  42  66  94 127 167 209 262 316 372
#     4  10  22  44  64  89 129 163 211 261 318 379
#     4   9  22  42  64  93 126 169 211 258 316 372
#     4  10  21  40  66  91 129 170 209 260 315 370
#     4  11  23  42  64  89 129 165 204 260 320 377
#
# _framework density 20.855834999999999
#
# number of rings (size 3 to 8) (size 9 to 14) (size 15 to 20)
#    0.000    1.667    1.667    2.000    2.333    2.000 
#    9.000   11.667    0.000    0.000    0.000    0.000 
#    0.000    0.000    0.000    0.000    0.000    0.000 
#
# Total GULP energy -297500.358358 kJ/mol
# GULP energy per Si atom -12395.848265 kJ/mol
# Density = 2.080837 g / cm^3
# Si number density = 20.855835 Si / 1000 Ang^3
#
#
#
# Elastic Constant Matrix: (Units=GPa)
#
#
# Indices 1 2 3 4 5 6 
#
# 1 -203.8924 274.0195 -17.3766 0.0000 -142.5311 0.0000
# 2 274.0195 -33.4278 108.1931 0.0000 120.0264 0.0000
# 3 -17.3766 108.1931 137.2609 0.0000 -41.7542 0.0000
# 4 0.0000 0.0000 0.0000 27.3809 0.0000 1.2481
# 5 -142.5311 120.0264 -41.7542 0.0000 -54.1637 0.0000
# 6 0.0000 0.0000 0.0000 1.2481 0.0000 28.8830
#
#
#
# Elastic Compliance Matrix: (Units=1/GPa)
#
#
# Indices 1 2 3 4 5 6 
#
# 1 0.009116 0.001987 -0.005160 0.000000 -0.015607 0.000000
# 2 0.001987 0.004760 -0.001525 0.000000 0.006495 0.000000
# 3 -0.005160 -0.001525 0.008859 0.000000 0.003370 0.000000
# 4 0.000000 0.000000 0.000000 0.036594 0.000000 -0.001581
# 5 -0.015607 0.006495 0.003370 0.000000 0.034401 0.000000
# 6 0.000000 0.000000 0.000000 -0.001581 0.000000 0.034691
#
#
# Mechanical properties :
#
#
# Convention : Reuss Voigt Hill
#
# Bulk Modulus (GPa) = 74.96144 69.95696 72.45920
# Shear Modulus (GPa) = 35.14616 -30.57298 2.28659
#
# Velocity S-wave (km/s) = 4.10957 -3.83289 1.04822
# Velocity P-wave (km/s) = 7.65106 3.74538 6.02356
#
# Compressibility (1/GPa) = 0.01334019
#
# Stress axis : x y z
#
# Youngs Moduli (GPa) = 109.70006 210.06983 112.87758
#
# Poissons Ratio (x) = -0.41746 0.58243
# Poissons Ratio (y) = -0.21800 0.17213
# Poissons Ratio (z) = 0.56604 0.32034
#
# Static dielectric constant tensor:
#      x y z
#    x 3.548750 0.000000 0.052270 
#    y 0.000000 4.135730 0.000000 
#    z 0.052270 0.000000 4.045450 
# 
# 
# High freq. dielectric constant tensor:
#      x y z
#    x 1.793890 0.000000 0.002370 
#    y 0.000000 1.824660 0.000000 
#    z 0.002370 0.000000 1.840250 
# 
# From -- ./inp_files/267775.got.cif
#   From: 2010.06.25/outbox.cif.g09.slc.cpg/sg15_134_cif.got.tgz:267775.got - 2010.06.28 07:06:18.
