data_PCOD8143125
_publ_section_title
;
Structure prediction by ZEFSAII (Michael W. Deem and Ramdas Pophale) SiO2 
 PCOD8143125
Probable space group: C 2/C
;
_chemical_formula_sum "Si O2"
_cell_formula_units_Z 56
_cell_length_a 11.472926
_cell_length_b 27.290539
_cell_length_c 8.974875
_cell_angle_alpha 90.000000
_cell_angle_beta 113.713394
_cell_angle_gamma 90.000000
_cell_volume 2572.797509
_symmetry_space_group_name_H-M "C 2/C"
_symmetry_group_IT_number 15
_symmetry_cell_setting 'monoclinic'
loop_
_space_group_symop_operation_xyz
x,y,z
-x,y,1/2-z
-x,-y,-z
x,-y,1/2+z
1/2+x,1/2+y,z
1/2-x,1/2+y,1/2-z
1/2-x,1/2-y,-z
1/2+x,1/2-y,1/2+z
loop_
_atom_site_type_symbol
_atom_site_label
_atom_site_fract_x
_atom_site_fract_y
_atom_site_fract_z
Si Si1 0.617780 0.153091 0.482770
Si Si2 0.867363 0.196359 0.759704
Si Si3 0.372024 0.333570 0.595611
Si Si4 0.594054 0.042512 0.495031
Si Si5 0.357341 0.194393 0.311561
Si Si6 0.632008 0.553977 0.382496
Si Si7 0.239902 0.494679 0.803904
O O1 0.744853 0.165292 0.642224
O O2 0.557473 0.099452 0.486347
O O3 0.499331 0.189729 0.457269
O O4 0.657066 0.154859 0.328743
O O5 0.842207 0.253704 0.719109
O O6 0.000000 0.178891 0.750000
O O7 0.881827 0.192752 0.943801
O O8 0.500000 0.320975 0.750000
O O9 0.249715 0.313390 0.619700
O O10 0.361014 0.391020 0.555940
O O11 0.626720 0.028839 0.341948
O O12 0.500000 0.000000 0.500000
O O13 0.706364 0.039184 0.675323
O O14 0.500000 0.536638 0.250000
O O15 0.657238 0.516287 0.529269
O O16 0.722386 0.550087 0.284720
#
# Coordination Sequence:
#
# PCOD8143125 Si02
#       7
#     8   8   8   8   8   8   8
#     4  11  25  43  73 104 140 185 235 283 364 415
#     4  12  25  47  71 105 139 183 233 299 350 428
#     4  11  25  42  69  97 140 182 233 285 358 414
#     4  11  24  40  64  98 135 182 222 282 336 415
#     4  11  25  44  72 100 141 180 236 290 356 428
#     4  10  21  40  62  96 125 179 222 280 338 416
#     4  10  22  38  63  89 137 168 228 274 339 396
#
# _framework density 21.766190000000002
#
# number of rings (size 3 to 8) (size 9 to 14) (size 15 to 20)
#    0.000    1.143    1.429    4.286   10.000    1.714 
#    2.571    3.571    0.000    0.000    0.000    0.000 
#    0.000    0.000    0.000    0.000    0.000    0.000 
#
# Total GULP energy -346979.164477 kJ/mol
# GULP energy per Si atom -12392.113017 kJ/mol
# Density = 2.171665 g / cm^3
# Si number density = 21.766190 Si / 1000 Ang^3
#
#
#
# Elastic Constant Matrix: (Units=GPa)
#
#
# Indices 1 2 3 4 5 6 
#
# 1 128.6878 21.8437 51.7869 0.0000 -3.6184 0.0000
# 2 21.8437 97.1964 23.5531 0.0000 7.5602 0.0000
# 3 51.7869 23.5531 103.8246 0.0000 -11.9972 0.0000
# 4 0.0000 0.0000 0.0000 78.5376 0.0000 1.4888
# 5 -3.6184 7.5602 -11.9972 0.0000 35.5135 0.0000
# 6 0.0000 0.0000 0.0000 1.4888 0.0000 33.1404
#
#
#
# Elastic Compliance Matrix: (Units=1/GPa)
#
#
# Indices 1 2 3 4 5 6 
#
# 1 0.009833 -0.001039 -0.004711 0.000000 -0.000368 0.000000
# 2 -0.001039 0.011377 -0.002450 0.000000 -0.003356 0.000000
# 3 -0.004711 -0.002450 0.013052 0.000000 0.004451 0.000000
# 4 0.000000 0.000000 0.000000 0.012744 0.000000 -0.000573
# 5 -0.000368 -0.003356 0.004451 0.000000 0.030339 0.000000
# 6 0.000000 0.000000 0.000000 -0.000573 0.000000 0.030200
#
#
# Mechanical properties :
#
#
# Convention : Reuss Voigt Hill
#
# Bulk Modulus (GPa) = 55.99274 58.23073 57.11173
# Shear Modulus (GPa) = 38.49152 44.93997 41.71574
#
# Velocity S-wave (km/s) = 4.20981 4.54879 4.38258
# Velocity P-wave (km/s) = 7.02926 7.37561 7.20451
#
# Compressibility (1/GPa) = 0.01785946
#
# Stress axis : x y z
#
# Youngs Moduli (GPa) = 101.70097 87.89829 76.61846
#
# Poissons Ratio (x) = 0.09137 0.36097
# Poissons Ratio (y) = 0.10572 0.18773
# Poissons Ratio (z) = 0.47914 0.21536
#
# Static dielectric constant tensor:
#      x y z
#    x 4.947040 0.000000 0.414180 
#    y 0.000000 3.876840 0.000000 
#    z 0.414180 0.000000 4.350800 
# 
# 
# High freq. dielectric constant tensor:
#      x y z
#    x 1.857610 0.000000 0.001490 
#    y 0.000000 1.854200 0.000000 
#    z 0.001490 0.000000 1.870400 
# 
# From -- ./inp_files/34347.got.cif
#   From: 2010.06.25/outbox.cif.g09.slc.cpg/sg15_18_cif.got.tgz:34347.got - 2010.06.28 07:06:18.
