data_PCOD8143978
_publ_section_title
;
Structure prediction by ZEFSAII (Michael W. Deem and Ramdas Pophale) SiO2 
 PCOD8143978
Probable space group: C 2/C
;
_chemical_formula_sum "Si O2"
_cell_formula_units_Z 60
_cell_length_a 27.900342
_cell_length_b 15.842060
_cell_length_c 14.222047
_cell_angle_alpha 90.000000
_cell_angle_beta 25.337694
_cell_angle_gamma 90.000000
_cell_volume 2690.164959
_symmetry_space_group_name_H-M "C 2/C"
_symmetry_group_IT_number 15
_symmetry_cell_setting 'monoclinic'
loop_
_space_group_symop_operation_xyz
x,y,z
-x,y,1/2-z
-x,-y,-z
x,-y,1/2+z
1/2+x,1/2+y,z
1/2-x,1/2+y,1/2-z
1/2-x,1/2-y,-z
1/2+x,1/2-y,1/2+z
loop_
_atom_site_type_symbol
_atom_site_label
_atom_site_fract_x
_atom_site_fract_y
_atom_site_fract_z
Si Si1 0.603598 0.895320 0.368955
Si Si2 0.126941 0.699929 0.510279
Si Si3 0.240730 0.091654 0.573266
Si Si4 0.605405 0.911816 0.872717
Si Si5 0.500000 0.651849 0.750000
Si Si6 0.239227 0.104114 0.072596
Si Si7 0.999979 0.092161 0.543910
Si Si8 0.825679 0.705208 0.583485
O O1 0.503231 0.865872 0.478774
O O2 0.600549 0.839026 0.467122
O O3 0.578736 0.991096 0.442538
O O4 0.722302 0.887816 0.103894
O O5 0.135511 0.627409 0.418146
O O6 0.176590 0.660809 0.517029
O O7 0.201459 0.778409 0.343831
O O8 0.000000 0.731568 0.750000
O O9 0.290457 0.099726 0.381225
O O10 0.316529 0.143662 0.510864
O O11 0.115800 0.132686 0.789046
O O12 0.241138 0.993343 0.603740
O O13 0.502019 0.592094 0.654336
O O14 0.611526 0.709085 0.556206
O O15 0.111863 0.140159 0.308422
O O16 0.000000 0.000000 0.500000
#
# Coordination Sequence:
#
# PCOD8143978 Si02
#       8
#     8   8   8   8   4   8   8   8
#     4  10  22  41  66  97 130 173 215 277 328 395
#     4  12  24  41  63  93 131 177 211 270 330 404
#     4  10  23  42  67 100 125 171 223 274 323 396
#     4  10  21  41  68  94 125 171 228 269 325 390
#     4  12  24  44  70  98 138 178 210 284 344 394
#     4  10  21  45  68  91 129 172 227 272 323 387
#     4  10  23  45  69  97 128 180 229 273 325 393
#     4  12  26  41  63 103 139 171 215 273 346 397
#
# _framework density 22.303464999999999
#
# number of rings (size 3 to 8) (size 9 to 14) (size 15 to 20)
#    0.000    1.333    2.667    2.400    0.000    4.800 
#    9.600    0.000    0.000    0.000    0.000    0.000 
#    0.000    0.000    0.000    0.000    0.000    0.000 
#
# Total GULP energy -372009.865692 kJ/mol
# GULP energy per Si atom -12400.328856 kJ/mol
# Density = 2.225270 g / cm^3
# Si number density = 22.303465 Si / 1000 Ang^3
#
#
#
# Elastic Constant Matrix: (Units=GPa)
#
#
# Indices 1 2 3 4 5 6 
#
# 1 59.8642 13.2826 12.9448 0.0000 -0.6060 0.0000
# 2 13.2826 45.0826 11.1535 0.0000 7.2127 0.0000
# 3 12.9448 11.1535 104.4519 0.0000 -21.0307 0.0000
# 4 0.0000 0.0000 0.0000 26.4996 0.0000 -0.1576
# 5 -0.6060 7.2127 -21.0307 0.0000 44.4047 0.0000
# 6 0.0000 0.0000 0.0000 -0.1576 0.0000 20.4694
#
#
#
# Elastic Compliance Matrix: (Units=1/GPa)
#
#
# Indices 1 2 3 4 5 6 
#
# 1 0.018174 -0.004985 -0.001666 0.000000 0.000269 0.000000
# 2 -0.004985 0.025369 -0.003244 0.000000 -0.005725 0.000000
# 3 -0.001666 -0.003244 0.011306 0.000000 0.005859 0.000000
# 4 0.000000 0.000000 0.000000 0.037738 0.000000 0.000291
# 5 0.000269 -0.005725 0.005859 0.000000 0.026229 0.000000
# 6 0.000000 0.000000 0.000000 0.000291 0.000000 0.048856
#
#
# Mechanical properties :
#
#
# Convention : Reuss Voigt Hill
#
# Bulk Modulus (GPa) = 28.52354 31.57342 30.04848
# Shear Modulus (GPa) = 25.10707 29.74258 27.42482
#
# Velocity S-wave (km/s) = 3.35879 3.65573 3.51040
# Velocity P-wave (km/s) = 5.27812 5.65740 5.47105
#
# Compressibility (1/GPa) = 0.03505876
#
# Stress axis : x y z
#
# Youngs Moduli (GPa) = 55.02506 39.41857 88.44653
#
# Poissons Ratio (x) = 0.19651 0.14733
# Poissons Ratio (y) = 0.27432 0.28690
# Poissons Ratio (z) = 0.09166 0.12786
#
# Static dielectric constant tensor:
#      x y z
#    x 4.057200 0.000000 -0.292470 
#    y 0.000000 3.719680 0.000000 
#    z -0.292470 0.000000 4.492660 
# 
# 
# High freq. dielectric constant tensor:
#      x y z
#    x 1.880150 0.000000 -0.007080 
#    y 0.000000 1.852830 0.000000 
#    z -0.007080 0.000000 1.899300 
# 
# From -- ./inp_files/123984.got.cif
#   From: 2010.06.25/outbox.cif.g09.slc.cpg/sg15_62_cif.got.tgz:123984.got - 2010.06.28 07:06:18.
