data_PCOD8143794
_publ_section_title
;
Structure prediction by ZEFSAII (Michael W. Deem and Ramdas Pophale) SiO2 
 PCOD8143794
Probable space group: C 2/C
;
_chemical_formula_sum "Si O2"
_cell_formula_units_Z 48
_cell_length_a 10.607503
_cell_length_b 20.263365
_cell_length_c 18.333447
_cell_angle_alpha 90.000000
_cell_angle_beta 146.579318
_cell_angle_gamma 90.000000
_cell_volume 2170.444289
_symmetry_space_group_name_H-M "C 2/C"
_symmetry_group_IT_number 15
_symmetry_cell_setting 'monoclinic'
loop_
_space_group_symop_operation_xyz
x,y,z
-x,y,1/2-z
-x,-y,-z
x,-y,1/2+z
1/2+x,1/2+y,z
1/2-x,1/2+y,1/2-z
1/2-x,1/2-y,-z
1/2+x,1/2-y,1/2+z
loop_
_atom_site_type_symbol
_atom_site_label
_atom_site_fract_x
_atom_site_fract_y
_atom_site_fract_z
Si Si1 0.711247 0.960165 0.521320
Si Si2 0.409186 0.661790 0.512159
Si Si3 0.025050 0.587155 0.070295
Si Si4 0.162061 0.419328 0.262758
Si Si5 0.751609 0.799430 0.092410
Si Si6 0.836509 0.065127 0.347646
O O1 0.719571 0.945544 0.612046
O O2 0.477058 0.927441 0.378636
O O3 0.917642 0.932527 0.572973
O O4 0.685358 0.039591 0.506023
O O5 0.662585 0.641883 0.661428
O O6 0.382192 0.731215 0.456233
O O7 0.257648 0.676735 0.510155
O O8 0.325097 0.603433 0.418683
O O9 0.158621 0.603726 0.209538
O O10 0.927181 0.644755 0.969997
O O11 0.281898 0.489179 0.339578
O O12 0.000000 0.398536 0.250000
O O13 0.000000 0.800656 0.250000
#
# Coordination Sequence:
#
# PCOD8143794 Si02
#       6
#     8   8   8   8   8   8
#     4  10  21  41  65 100 135 173 209 271 332 397
#     4  11  25  41  66  94 129 169 221 274 329 392
#     4  10  23  40  68  96 134 173 218 266 329 392
#     4  11  22  38  65 101 132 167 214 272 334 382
#     4  11  26  45  66  90 128 175 224 269 327 398
#     4  11  23  38  67 100 134 166 217 274 333 388
#
# _framework density 22.115286999999999
#
# number of rings (size 3 to 8) (size 9 to 14) (size 15 to 20)
#    0.000    1.333    1.667    3.000    9.333    2.667 
#    0.000    2.500    0.000    0.000    0.000    0.000 
#    0.000    0.000    0.000    0.000    0.000    0.000 
#
# Total GULP energy -297313.596759 kJ/mol
# GULP energy per Si atom -12388.066532 kJ/mol
# Density = 2.206495 g / cm^3
# Si number density = 22.115287 Si / 1000 Ang^3
#
#
#
# Elastic Constant Matrix: (Units=GPa)
#
#
# Indices 1 2 3 4 5 6 
#
# 1 79.6893 22.4241 2.5724 0.0003 -0.3590 -0.0007
# 2 22.4241 115.9669 62.3290 0.0008 10.0581 -0.0010
# 3 2.5724 62.3290 95.4585 0.0060 3.7125 0.0080
# 4 0.0003 0.0008 0.0060 33.3693 0.0000 5.7097
# 5 -0.3590 10.0581 3.7125 0.0000 32.2171 0.0011
# 6 -0.0007 -0.0010 0.0080 5.7097 0.0011 26.3304
#
#
#
# Elastic Compliance Matrix: (Units=1/GPa)
#
#
# Indices 1 2 3 4 5 6 
#
# 1 0.013570 -0.003853 0.002107 0.000000 0.001111 0.000000
# 2 -0.003853 0.014708 -0.009361 0.000001 -0.003556 0.000003
# 3 0.002107 -0.009361 0.016491 -0.000002 0.001046 -0.000005
# 4 0.000000 0.000001 -0.000002 0.031122 0.000000 -0.006749
# 5 0.001111 -0.003556 0.001046 0.000000 0.032041 -0.000002
# 6 0.000000 0.000003 -0.000005 -0.006749 -0.000002 0.039442
#
#
# Mechanical properties :
#
#
# Convention : Reuss Voigt Hill
#
# Bulk Modulus (GPa) = 44.33817 51.75173 48.04495
# Shear Modulus (GPa) = 28.23142 31.96928 30.10035
#
# Velocity S-wave (km/s) = 3.57677 3.80620 3.69326
# Velocity P-wave (km/s) = 6.09507 6.53971 6.32130
#
# Compressibility (1/GPa) = 0.02255393
#
# Stress axis : x y z
#
# Youngs Moduli (GPa) = 73.69288 67.99021 60.64001
#
# Poissons Ratio (x) = 0.26194 -0.12774
# Poissons Ratio (y) = 0.28391 0.56767
# Poissons Ratio (z) = -0.15524 0.63648
#
# Static dielectric constant tensor:
#      x y z
#    x 3.817840 0.000000 -0.109310 
#    y 0.000000 4.146920 -0.000010 
#    z -0.109310 -0.000010 4.078640 
# 
# 
# High freq. dielectric constant tensor:
#      x y z
#    x 1.872310 0.000000 -0.014440 
#    y 0.000000 1.853560 0.000000 
#    z -0.014440 0.000000 1.879680 
# 
# From -- ./inp_files/88774.got.cif
#   From: 2010.06.25/outbox.cif.g09.slc.cpg/sg15_45_cif.got.tgz:88774.got - 2010.06.28 07:06:18.
