data_PCOD8143940
_publ_section_title
;
Structure prediction by ZEFSAII (Michael W. Deem and Ramdas Pophale) SiO2 
 PCOD8143940
Probable space group: C 2/C
;
_chemical_formula_sum "Si O2"
_cell_formula_units_Z 40
_cell_length_a 7.363949
_cell_length_b 21.564813
_cell_length_c 13.368178
_cell_angle_alpha 90.000000
_cell_angle_beta 65.505405
_cell_angle_gamma 90.000000
_cell_volume 1931.836046
_symmetry_space_group_name_H-M "C 2/C"
_symmetry_group_IT_number 15
_symmetry_cell_setting 'monoclinic'
loop_
_space_group_symop_operation_xyz
x,y,z
-x,y,1/2-z
-x,-y,-z
x,-y,1/2+z
1/2+x,1/2+y,z
1/2-x,1/2+y,1/2-z
1/2-x,1/2-y,-z
1/2+x,1/2-y,1/2+z
loop_
_atom_site_type_symbol
_atom_site_label
_atom_site_fract_x
_atom_site_fract_y
_atom_site_fract_z
Si Si1 0.000000 0.801621 0.250000
Si Si2 0.000000 0.997356 0.750000
Si Si3 0.709002 0.746059 0.167513
Si Si4 0.169425 0.349614 0.021218
Si Si5 0.950421 0.062966 0.065066
Si Si6 0.755187 0.099050 0.920040
O O1 0.841882 0.756779 0.234294
O O2 0.888226 0.842492 0.358170
O O3 0.168468 0.038277 0.656768
O O4 0.111378 0.953134 0.806370
O O5 0.500000 0.715882 0.250000
O O6 0.826293 0.699207 0.069847
O O7 0.663174 0.812101 0.126152
O O8 0.358398 0.393433 0.977485
O O9 0.974212 0.392054 0.056074
O O10 0.776638 0.093632 0.036337
O O11 0.000000 0.000000 0.000000
#
# Coordination Sequence:
#
# PCOD8143940 Si02
#       6
#     4   4   8   8   8   8
#     4  11  20  40  66  96 124 172 216 257 324 394
#     4   9  22  40  64  92 130 170 208 279 322 370
#     4  11  24  40  65  96 130 170 215 265 321 384
#     4  11  24  41  65  94 130 171 213 271 320 381
#     4  10  22  42  64  92 129 167 215 275 315 377
#     4  10  21  41  67  92 125 171 220 260 324 393
#
# _framework density 20.705690000000001
#
# number of rings (size 3 to 8) (size 9 to 14) (size 15 to 20)
#    0.000    1.600    4.000    0.000    1.400    5.600 
#    0.000    4.000    0.000    0.000    0.000    0.000 
#    0.000    0.000    0.000    0.000    0.000    0.000 
#
# Total GULP energy -247990.373033 kJ/mol
# GULP energy per Si atom -12399.518652 kJ/mol
# Density = 2.065856 g / cm^3
# Si number density = 20.705690 Si / 1000 Ang^3
#
#
#
# Elastic Constant Matrix: (Units=GPa)
#
#
# Indices 1 2 3 4 5 6 
#
# 1 138.2183 36.1806 47.4292 0.0000 20.2371 0.0000
# 2 36.1806 65.6372 25.9385 0.0000 10.2219 0.0000
# 3 47.4292 25.9385 99.4253 0.0000 24.4962 0.0000
# 4 0.0000 0.0000 0.0000 4.4110 0.0000 -8.8707
# 5 20.2371 10.2219 24.4962 0.0000 39.3412 0.0000
# 6 0.0000 0.0000 0.0000 -8.8707 0.0000 30.0447
#
#
#
# Elastic Compliance Matrix: (Units=1/GPa)
#
#
# Indices 1 2 3 4 5 6 
#
# 1 0.009571 -0.003739 -0.003091 0.000000 -0.002027 0.000000
# 2 -0.003739 0.018575 -0.002773 0.000000 -0.001177 0.000000
# 3 -0.003091 -0.002773 0.013804 0.000000 -0.006285 0.000000
# 4 0.000000 0.000000 0.000000 0.558039 0.000000 0.164760
# 5 -0.002027 -0.001177 -0.006285 0.000000 0.030681 0.000000
# 6 0.000000 0.000000 0.000000 0.164760 0.000000 0.081929
#
#
# Mechanical properties :
#
#
# Convention : Reuss Voigt Hill
#
# Bulk Modulus (GPa) = 43.96375 58.04194 51.00285
# Shear Modulus (GPa) = 6.76238 27.67489 17.21864
#
# Velocity S-wave (km/s) = 1.80916 3.65990 2.88686
# Velocity P-wave (km/s) = 5.06388 6.77883 5.98312
#
# Compressibility (1/GPa) = 0.02274601
#
# Stress axis : x y z
#
# Youngs Moduli (GPa) = 104.48221 53.83588 72.44265
#
# Poissons Ratio (x) = 0.20127 0.22391
# Poissons Ratio (y) = 0.39061 0.20085
# Poissons Ratio (z) = 0.32294 0.14926
#
# Static dielectric constant tensor:
#      x y z
#    x 3.844950 0.000000 0.433350 
#    y 0.000000 3.383350 0.000000 
#    z 0.433350 0.000000 4.039770 
# 
# 
# High freq. dielectric constant tensor:
#      x y z
#    x 1.810520 0.000000 0.022040 
#    y 0.000000 1.811000 0.000000 
#    z 0.022040 0.000000 1.807520 
# 
# From -- ./inp_files/73241.got.cif
#   From: 2010.06.25/outbox.cif.g09.slc.cpg/sg15_37_cif.got.tgz:73241.got - 2010.06.28 07:06:18.
