data_PCOD8143931
_publ_section_title
;
Structure prediction by ZEFSAII (Michael W. Deem and Ramdas Pophale) SiO2 
 PCOD8143931
Probable space group: C 2/C
;
_chemical_formula_sum "Si O2"
_cell_formula_units_Z 44
_cell_length_a 31.811754
_cell_length_b 5.127428
_cell_length_c 12.245895
_cell_angle_alpha 90.000000
_cell_angle_beta 82.219095
_cell_angle_gamma 90.000000
_cell_volume 1979.067714
_symmetry_space_group_name_H-M "C 2/C"
_symmetry_group_IT_number 15
_symmetry_cell_setting 'monoclinic'
loop_
_space_group_symop_operation_xyz
x,y,z
-x,y,1/2-z
-x,-y,-z
x,-y,1/2+z
1/2+x,1/2+y,z
1/2-x,1/2+y,1/2-z
1/2-x,1/2-y,-z
1/2+x,1/2-y,1/2+z
loop_
_atom_site_type_symbol
_atom_site_label
_atom_site_fract_x
_atom_site_fract_y
_atom_site_fract_z
Si Si1 0.000000 0.534530 0.250000
Si Si2 0.534196 0.316914 0.924097
Si Si3 0.395869 0.374862 0.774560
Si Si4 0.733959 0.289629 0.123998
Si Si5 0.695512 0.214010 0.724096
Si Si6 0.078844 0.648351 0.119512
O O1 0.005861 0.373046 0.360311
O O2 0.039082 0.722367 0.211695
O O3 0.568509 0.444282 0.828826
O O4 0.500000 0.500000 0.000000
O O5 0.564514 0.164275 0.998762
O O6 0.352949 0.283354 0.729156
O O7 0.387611 0.629128 0.854700
O O8 0.407912 0.145483 0.855563
O O9 0.712770 0.572388 0.133473
O O10 0.776784 0.265920 0.177867
O O11 0.699357 0.072629 0.170478
O O12 0.750000 0.250000 0.000000
#
# Coordination Sequence:
#
# PCOD8143931 Si02
#       6
#     4   8   8   8   8   8
#     4  10  22  40  60  86 118 158 212 266 306 364
#     4  11  22  41  65  89 121 167 212 254 310 366
#     4  11  25  40  60  93 129 159 203 259 306 363
#     4  10  21  41  67  91 121 164 204 245 305 371
#     4  10  22  40  62  94 127 158 203 253 302 366
#     4  11  23  40  60  87 120 161 205 254 311 361
#
# _framework density 22.232690000000002
#
# number of rings (size 3 to 8) (size 9 to 14) (size 15 to 20)
#    0.000    1.455    0.000    5.455    0.000    8.000 
#    0.000    0.000    0.000    0.000    0.000    0.000 
#    0.000    0.000    0.000    0.000    0.000    0.000 
#
# Total GULP energy -272561.595155 kJ/mol
# GULP energy per Si atom -12389.163416 kJ/mol
# Density = 2.218209 g / cm^3
# Si number density = 22.232690 Si / 1000 Ang^3
#
#
#
# Elastic Constant Matrix: (Units=GPa)
#
#
# Indices 1 2 3 4 5 6 
#
# 1 93.3751 7.0471 22.1012 0.0000 1.1067 0.0000
# 2 7.0471 81.4495 41.1342 0.0000 16.6936 0.0000
# 3 22.1012 41.1342 110.8076 0.0000 11.0068 0.0000
# 4 0.0000 0.0000 0.0000 -21.1242 0.0000 0.9597
# 5 1.1067 16.6936 11.0068 0.0000 16.8055 0.0000
# 6 0.0000 0.0000 0.0000 0.9597 0.0000 21.8594
#
#
#
# Elastic Compliance Matrix: (Units=1/GPa)
#
#
# Indices 1 2 3 4 5 6 
#
# 1 0.011250 0.000057 -0.002338 0.000000 0.000734 0.000000
# 2 0.000057 0.017837 -0.005212 0.000000 -0.014309 0.000000
# 3 -0.002338 -0.005212 0.011654 0.000000 -0.002302 0.000000
# 4 0.000000 0.000000 0.000000 -0.047245 0.000000 0.002074
# 5 0.000734 -0.014309 -0.002302 0.000000 0.075178 0.000000
# 6 0.000000 0.000000 0.000000 0.002074 0.000000 0.045656
#
#
# Mechanical properties :
#
#
# Convention : Reuss Voigt Hill
#
# Bulk Modulus (GPa) = 38.82532 47.35526 43.09029
# Shear Modulus (GPa) = 36.25789 17.86477 27.06133
#
# Velocity S-wave (km/s) = 4.04274 2.83775 3.49260
# Velocity P-wave (km/s) = 6.26839 5.66420 5.97394
#
# Compressibility (1/GPa) = 0.02575639
#
# Stress axis : x y z
#
# Youngs Moduli (GPa) = 88.89002 56.06205 85.80526
#
# Poissons Ratio (x) = -0.00319 0.20060
# Poissons Ratio (y) = -0.00506 0.44719
# Poissons Ratio (z) = 0.20781 0.29217
#
# Static dielectric constant tensor:
#      x y z
#    x 4.160840 0.000000 0.156150 
#    y 0.000000 4.291020 0.000000 
#    z 0.156150 0.000000 3.905750 
# 
# 
# High freq. dielectric constant tensor:
#      x y z
#    x 1.879460 0.000000 0.013320 
#    y 0.000000 1.881950 0.000000 
#    z 0.013320 0.000000 1.870340 
# 
# From -- ./inp_files/124955.got.cif
#   From: 2010.06.25/outbox.cif.g09.slc.cpg/sg15_63_cif.got.tgz:124955.got - 2010.06.28 07:06:18.
