data_PCOD8143118
_publ_section_title
;
Structure prediction by ZEFSAII (Michael W. Deem and Ramdas Pophale) SiO2 
 PCOD8143118
Probable space group: C 2/C
;
_chemical_formula_sum "Si O2"
_cell_formula_units_Z 32
_cell_length_a 19.866242
_cell_length_b 16.133049
_cell_length_c 8.760511
_cell_angle_alpha 90.000000
_cell_angle_beta 144.519015
_cell_angle_gamma 90.000000
_cell_volume 1629.721949
_symmetry_space_group_name_H-M "C 2/C"
_symmetry_group_IT_number 15
_symmetry_cell_setting 'monoclinic'
loop_
_space_group_symop_operation_xyz
x,y,z
-x,y,1/2-z
-x,-y,-z
x,-y,1/2+z
1/2+x,1/2+y,z
1/2-x,1/2+y,1/2-z
1/2-x,1/2-y,-z
1/2+x,1/2-y,1/2+z
loop_
_atom_site_type_symbol
_atom_site_label
_atom_site_fract_x
_atom_site_fract_y
_atom_site_fract_z
Si Si1 0.793769 0.948346 0.022631
Si Si2 0.540723 0.667010 0.492127
Si Si3 0.114411 0.345853 0.544495
Si Si4 0.324926 0.608361 0.262648
O O1 0.662348 0.912309 0.757353
O O2 0.860699 0.941239 0.983691
O O3 0.859538 0.895061 0.271535
O O4 0.788798 0.043259 0.064721
O O5 0.500000 0.639647 0.250000
O O6 0.590010 0.759818 0.584232
O O7 0.431518 0.664370 0.405035
O O8 0.214208 0.333129 0.598153
O O9 0.000000 0.380766 0.250000
#
# Coordination Sequence:
#
# PCOD8143118 Si02
#       4
#     8   8   8   8
#     4  10  21  40  62  93 124 160 206 256 307 361
#     4  11  21  38  64  93 124 157 208 260 307 358
#     4   9  23  39  62  90 127 164 203 249 311 372
#     4  10  22  38  66  88 125 160 208 251 309 357
#
# _framework density 19.635251
#
# number of rings (size 3 to 8) (size 9 to 14) (size 15 to 20)
#    1.500    0.500    0.000    3.750    0.000    5.000 
#    0.000    0.000    0.000    0.000    0.000    0.000 
#    0.000    0.000    0.000    0.000    0.000    0.000 
#
# Total GULP energy -198252.545221 kJ/mol
# GULP energy per Si atom -12390.784076 kJ/mol
# Density = 1.959056 g / cm^3
# Si number density = 19.635251 Si / 1000 Ang^3
#
#
#
# Elastic Constant Matrix: (Units=GPa)
#
#
# Indices 1 2 3 4 5 6 
#
# 1 111.7258 55.4717 29.3739 0.0000 2.8754 0.0000
# 2 55.4717 96.7157 29.5229 0.0000 17.8239 0.0000
# 3 29.3739 29.5229 104.7894 0.0000 9.7692 0.0000
# 4 0.0000 0.0000 0.0000 28.9467 0.0000 0.4409
# 5 2.8754 17.8239 9.7692 0.0000 36.3558 0.0000
# 6 0.0000 0.0000 0.0000 0.4409 0.0000 34.3159
#
#
#
# Elastic Compliance Matrix: (Units=1/GPa)
#
#
# Indices 1 2 3 4 5 6 
#
# 1 0.013091 -0.007526 -0.001843 0.000000 0.003150 0.000000
# 2 -0.007526 0.016524 -0.001893 0.000000 -0.006997 0.000000
# 3 -0.001843 -0.001893 0.010762 0.000000 -0.001818 0.000000
# 4 0.000000 0.000000 0.000000 0.034553 0.000000 -0.000444
# 5 0.003150 -0.006997 -0.001818 0.000000 0.031176 0.000000
# 6 0.000000 0.000000 0.000000 -0.000444 0.000000 0.029147
#
#
# Mechanical properties :
#
#
# Convention : Reuss Voigt Hill
#
# Bulk Modulus (GPa) = 56.01518 60.21866 58.11692
# Shear Modulus (GPa) = 30.53863 33.18117 31.85990
#
# Velocity S-wave (km/s) = 3.94800 4.11527 4.03250
# Velocity P-wave (km/s) = 7.02653 7.30177 7.16547
#
# Compressibility (1/GPa) = 0.01785230
#
# Stress axis : x y z
#
# Youngs Moduli (GPa) = 76.39077 60.51943 92.91610
#
# Poissons Ratio (x) = 0.45547 0.17122
# Poissons Ratio (y) = 0.57492 0.17592
# Poissons Ratio (z) = 0.14077 0.11458
#
# Static dielectric constant tensor:
#      x y z
#    x 3.503380 0.000000 -0.054480 
#    y 0.000000 3.243450 0.000000 
#    z -0.054480 0.000000 3.629680 
# 
# 
# High freq. dielectric constant tensor:
#      x y z
#    x 1.756780 0.000000 -0.004790 
#    y 0.000000 1.747320 0.000000 
#    z -0.004790 0.000000 1.774180 
# 
# From -- ./inp_files/28373.got.cif
#   From: 2010.06.25/outbox.cif.g09.slc.cpg/sg15_15_cif.got.tgz:28373.got - 2010.06.28 07:06:18.
