data_PCOD8143311
_publ_section_title
;
Structure prediction by ZEFSAII (Michael W. Deem and Ramdas Pophale) SiO2 
 PCOD8143311
Probable space group: C 2/C
;
_chemical_formula_sum "Si O2"
_cell_formula_units_Z 40
_cell_length_a 4.857168
_cell_length_b 23.764743
_cell_length_c 13.650064
_cell_angle_alpha 90.000000
_cell_angle_beta 74.586140
_cell_angle_gamma 90.000000
_cell_volume 1518.944817
_symmetry_space_group_name_H-M "C 2/C"
_symmetry_group_IT_number 15
_symmetry_cell_setting 'monoclinic'
loop_
_space_group_symop_operation_xyz
x,y,z
-x,y,1/2-z
-x,-y,-z
x,-y,1/2+z
1/2+x,1/2+y,z
1/2-x,1/2+y,1/2-z
1/2-x,1/2-y,-z
1/2+x,1/2-y,1/2+z
loop_
_atom_site_type_symbol
_atom_site_label
_atom_site_fract_x
_atom_site_fract_y
_atom_site_fract_z
Si Si1 0.886297 0.853897 0.371199
Si Si2 0.106719 0.861717 0.550544
Si Si3 0.190616 0.243807 0.321539
Si Si4 0.691717 0.963158 0.321541
Si Si5 0.442336 0.920680 0.868667
O O1 0.135872 0.852381 0.430214
O O2 0.705532 0.796186 0.397135
O O3 0.705167 0.912259 0.400193
O O4 0.000000 0.856657 0.250000
O O5 0.955548 0.807961 0.611625
O O6 0.896413 0.915127 0.584579
O O7 0.404574 0.873893 0.576366
O O8 0.500000 0.226379 0.250000
O O9 0.000000 0.265121 0.250000
O O10 0.500000 0.941491 0.250000
O O11 0.000000 0.981161 0.250000
O O12 0.545786 0.016801 0.387069
O O13 0.500000 0.907459 0.750000
#
# Coordination Sequence:
#
# PCOD8143311 Si02
#       5
#     8   8   8   8   8
#     4  10  25  45  64  92 131 172 214 258 310 375
#     4  12  24  40  68  98 127 165 212 260 319 379
#     4  11  23  42  67  93 127 166 209 263 319 374
#     4  10  21  40  65  90 127 172 211 256 312 373
#     4  11  23  41  66  97 129 163 208 266 320 371
#
# _framework density 26.334073
#
# number of rings (size 3 to 8) (size 9 to 14) (size 15 to 20)
#    0.000    1.200    0.000    7.200    0.000    8.000 
#    0.000    7.000    0.000    0.000    0.000    0.000 
#    0.000    0.000    0.000    0.000    0.000    0.000 
#
# Total GULP energy -247961.716689 kJ/mol
# GULP energy per Si atom -12398.085834 kJ/mol
# Density = 2.627414 g / cm^3
# Si number density = 26.334073 Si / 1000 Ang^3
#
#
#
# Elastic Constant Matrix: (Units=GPa)
#
#
# Indices 1 2 3 4 5 6 
#
# 1 64.8644 -12.7102 2.4712 0.0000 25.2289 0.0000
# 2 -12.7102 147.6459 13.0262 0.0000 10.1340 0.0000
# 3 2.4712 13.0262 122.2964 0.0000 38.4486 0.0000
# 4 0.0000 0.0000 0.0000 18.7329 0.0000 17.7454
# 5 25.2289 10.1340 38.4486 0.0000 49.5472 0.0000
# 6 0.0000 0.0000 0.0000 17.7454 0.0000 25.2528
#
#
#
# Elastic Compliance Matrix: (Units=1/GPa)
#
#
# Indices 1 2 3 4 5 6 
#
# 1 0.021329 0.002483 0.003808 0.000000 -0.014323 0.000000
# 2 0.002483 0.007172 0.000059 0.000000 -0.002777 0.000000
# 3 0.003808 0.000059 0.011517 0.000000 -0.010888 0.000000
# 4 0.000000 0.000000 0.000000 0.159667 0.000000 -0.112200
# 5 -0.014323 -0.002777 -0.010888 0.000000 0.036493 0.000000
# 6 0.000000 0.000000 0.000000 -0.112200 0.000000 0.118444
#
#
# Mechanical properties :
#
#
# Convention : Reuss Voigt Hill
#
# Bulk Modulus (GPa) = 18.96884 37.82011 28.39447
# Shear Modulus (GPa) = 13.90838 40.84122 27.37480
#
# Velocity S-wave (km/s) = 2.30065 3.94240 3.22766
# Velocity P-wave (km/s) = 3.77837 5.92590 4.96952
#
# Compressibility (1/GPa) = 0.05271802
#
# Stress axis : x y z
#
# Youngs Moduli (GPa) = 46.88372 139.42807 86.83112
#
# Poissons Ratio (x) = -0.34625 -0.33062
# Poissons Ratio (y) = -0.11643 -0.00512
# Poissons Ratio (z) = -0.17851 -0.00823
#
# Static dielectric constant tensor:
#      x y z
#    x 5.423600 0.000000 -0.207350 
#    y 0.000000 5.399790 0.000000 
#    z -0.207350 0.000000 4.632680 
# 
# 
# High freq. dielectric constant tensor:
#      x y z
#    x 2.053480 0.000000 0.017970 
#    y 0.000000 2.069030 0.000000 
#    z 0.017970 0.000000 2.058010 
# 
# From -- ./inp_files/73217.got.cif
#   From: 2010.06.25/outbox.cif.g09.slc.cpg/sg15_37_cif.got.tgz:73217.got - 2010.06.28 07:06:18.
