data_PCOD8143010
_publ_section_title
;
Structure prediction by ZEFSAII (Michael W. Deem and Ramdas Pophale) SiO2 
 PCOD8143010
Probable space group: C 2/C
;
_chemical_formula_sum "Si O2"
_cell_formula_units_Z 40
_cell_length_a 9.214695
_cell_length_b 18.036105
_cell_length_c 19.170897
_cell_angle_alpha 90.000000
_cell_angle_beta 36.851533
_cell_angle_gamma 90.000000
_cell_volume 1910.872630
_symmetry_space_group_name_H-M "C 2/C"
_symmetry_group_IT_number 15
_symmetry_cell_setting 'monoclinic'
loop_
_space_group_symop_operation_xyz
x,y,z
-x,y,1/2-z
-x,-y,-z
x,-y,1/2+z
1/2+x,1/2+y,z
1/2-x,1/2+y,1/2-z
1/2-x,1/2-y,-z
1/2+x,1/2-y,1/2+z
loop_
_atom_site_type_symbol
_atom_site_label
_atom_site_fract_x
_atom_site_fract_y
_atom_site_fract_z
Si Si1 0.441345 0.315712 0.935853
Si Si2 0.585814 0.348041 0.029398
Si Si3 0.387853 0.201254 0.175568
Si Si4 0.325914 0.432162 0.374830
Si Si5 0.705040 0.899830 0.910866
O O1 0.710836 0.288440 0.810128
O O2 0.358613 0.382555 0.919640
O O3 0.250000 0.250000 0.000000
O O4 0.436841 0.351443 0.014844
O O5 0.470921 0.280416 0.115788
O O6 0.562734 0.420312 0.089538
O O7 0.866605 0.341340 0.898992
O O8 0.232473 0.153272 0.178657
O O9 0.500000 0.396382 0.250000
O O10 0.268722 0.515205 0.371433
O O11 0.078798 0.385539 0.466153
#
# Coordination Sequence:
#
# PCOD8143010 Si02
#       5
#     8   8   8   8   8
#     4  12  23  36  60  92 124 156 196 262 303 357
#     4  10  23  37  61  92 116 159 205 254 303 355
#     4  10  21  40  59  84 126 159 203 245 308 370
#     4  10  22  41  64  85 123 166 205 245 299 377
#     4  10  22  41  62  90 119 168 205 239 312 367
#
# _framework density 20.932846000000001
#
# number of rings (size 3 to 8) (size 9 to 14) (size 15 to 20)
#    0.000    1.600    2.000    2.400    2.800    0.800 
#    0.000    0.000    0.000    0.000    0.000    0.000 
#    0.000    0.000    0.000    0.000    0.000    0.000 
#
# Total GULP energy -247858.276834 kJ/mol
# GULP energy per Si atom -12392.913842 kJ/mol
# Density = 2.088520 g / cm^3
# Si number density = 20.932846 Si / 1000 Ang^3
#
#
#
# Elastic Constant Matrix: (Units=GPa)
#
#
# Indices 1 2 3 4 5 6 
#
# 1 110.9714 7.5500 33.8700 0.0203 10.4868 -0.0141
# 2 7.5500 49.7831 15.5815 0.0156 -2.1932 -0.0336
# 3 33.8700 15.5815 139.5792 0.0196 4.6755 -0.0601
# 4 0.0203 0.0156 0.0196 7.0838 -0.0915 2.5861
# 5 10.4868 -2.1932 4.6755 -0.0915 20.9219 0.0414
# 6 -0.0141 -0.0336 -0.0601 2.5861 0.0414 39.1897
#
#
#
# Elastic Compliance Matrix: (Units=1/GPa)
#
#
# Indices 1 2 3 4 5 6 
#
# 1 0.010202 -0.001068 -0.002198 -0.000086 -0.004735 0.000010
# 2 -0.001068 0.021081 -0.002203 0.000001 0.003237 0.000011
# 3 -0.002198 -0.002203 0.007974 -0.000027 -0.000911 0.000012
# 4 -0.000086 0.000001 -0.000027 0.144661 0.000701 -0.009547
# 5 -0.004735 0.003237 -0.000911 0.000701 0.050716 -0.000100
# 6 0.000010 0.000011 0.000012 -0.009547 -0.000100 0.026147
#
#
# Mechanical properties :
#
#
# Convention : Reuss Voigt Hill
#
# Bulk Modulus (GPa) = 35.30979 46.03743 40.67361
# Shear Modulus (GPa) = 17.78354 29.66123 23.72239
#
# Velocity S-wave (km/s) = 2.91787 3.76835 3.37005
# Velocity P-wave (km/s) = 5.31570 6.40114 5.88351
#
# Compressibility (1/GPa) = 0.02832075
#
# Stress axis : x y z
#
# Youngs Moduli (GPa) = 98.01752 47.43586 125.40552
#
# Poissons Ratio (x) = 0.05066 0.27562
# Poissons Ratio (y) = 0.10468 0.27622
# Poissons Ratio (z) = 0.21543 0.10448
#
# Static dielectric constant tensor:
#      x y z
#    x 3.904330 0.000000 -0.134700 
#    y 0.000000 3.555540 0.000050 
#    z -0.134700 0.000050 4.047240 
# 
# 
# High freq. dielectric constant tensor:
#      x y z
#    x 1.819730 0.000000 -0.006000 
#    y 0.000000 1.795750 0.000010 
#    z -0.006000 0.000010 1.836450 
# 
# From -- ./inp_files/76656.got.cif
#   From: 2010.06.25/outbox.cif.g09.slc.cpg/sg15_39_cif.got.tgz:76656.got - 2010.06.28 07:06:18.
