data_PCOD8143464
_publ_section_title
;
Structure prediction by ZEFSAII (Michael W. Deem and Ramdas Pophale) SiO2 
 PCOD8143464
Probable space group: C 2/C
;
_chemical_formula_sum "Si O2"
_cell_formula_units_Z 52
_cell_length_a 21.891087
_cell_length_b 10.950507
_cell_length_c 10.529824
_cell_angle_alpha 90.000000
_cell_angle_beta 105.107993
_cell_angle_gamma 90.000000
_cell_volume 2436.948108
_symmetry_space_group_name_H-M "C 2/C"
_symmetry_group_IT_number 15
_symmetry_cell_setting 'monoclinic'
loop_
_space_group_symop_operation_xyz
x,y,z
-x,y,1/2-z
-x,-y,-z
x,-y,1/2+z
1/2+x,1/2+y,z
1/2-x,1/2+y,1/2-z
1/2-x,1/2-y,-z
1/2+x,1/2-y,1/2+z
loop_
_atom_site_type_symbol
_atom_site_label
_atom_site_fract_x
_atom_site_fract_y
_atom_site_fract_z
Si Si1 0.914727 0.696411 0.092061
Si Si2 0.068768 0.031256 0.821251
Si Si3 0.881012 0.403161 0.319351
Si Si4 0.659291 0.836132 0.704940
Si Si5 0.368275 0.587356 0.900490
Si Si6 0.000000 0.495784 0.750000
Si Si7 0.756882 0.307863 0.139742
O O1 0.887907 0.694179 0.935504
O O2 0.857779 0.659200 0.155510
O O3 0.940273 0.830154 0.137142
O O4 0.970306 0.595248 0.128810
O O5 0.111054 0.016449 0.716804
O O6 0.000000 0.977635 0.750000
O O7 0.097563 0.955825 0.953487
O O8 0.856734 0.532264 0.363763
O O9 0.828535 0.348608 0.196809
O O10 0.947166 0.417369 0.282189
O O11 0.616140 0.732517 0.610874
O O12 0.733095 0.796940 0.727305
O O13 0.291593 0.575930 0.874564
O O14 0.750000 0.250000 0.000000
#
# Coordination Sequence:
#
# PCOD8143464 Si02
#       7
#     8   8   8   8   8   4   8
#     4  10  21  40  67  97 132 172 222 273 333 398
#     4  11  21  43  69  96 133 177 224 273 338 395
#     4  11  23  41  72  99 133 183 211 281 337 398
#     4   8  22  42  62  96 134 166 220 274 330 395
#     4   9  23  43  65  99 134 173 224 282 322 411
#     4  10  22  42  62 106 136 170 224 274 338 398
#     4  10  24  44  64  97 136 173 219 275 333 393
#
# _framework density 21.338165
#
# number of rings (size 3 to 8) (size 9 to 14) (size 15 to 20)
#    0.923    1.231    0.769    0.923    4.308    4.308 
#    2.769    0.000    3.385    0.000    0.000    0.000 
#    0.000    0.000    0.000    0.000    0.000    0.000 
#
# Total GULP energy -322168.294190 kJ/mol
# GULP energy per Si atom -12391.088238 kJ/mol
# Density = 2.128960 g / cm^3
# Si number density = 21.338165 Si / 1000 Ang^3
#
#
#
# Elastic Constant Matrix: (Units=GPa)
#
#
# Indices 1 2 3 4 5 6 
#
# 1 159.4856 40.0647 69.9412 0.0000 2.8220 0.0000
# 2 40.0647 52.3279 42.0344 0.0000 -4.7642 0.0000
# 3 69.9412 42.0344 156.2367 0.0000 -1.8943 0.0000
# 4 0.0000 0.0000 0.0000 37.7149 0.0000 2.7890
# 5 2.8220 -4.7642 -1.8943 0.0000 25.9269 0.0000
# 6 0.0000 0.0000 0.0000 2.7890 0.0000 28.2085
#
#
#
# Elastic Compliance Matrix: (Units=1/GPa)
#
#
# Indices 1 2 3 4 5 6 
#
# 1 0.008634 -0.004679 -0.002631 0.000000 -0.001992 0.000000
# 2 -0.004679 0.027337 -0.005198 0.000000 0.005153 0.000000
# 3 -0.002631 -0.005198 0.008976 0.000000 -0.000013 0.000000
# 4 0.000000 0.000000 0.000000 0.026710 0.000000 -0.002641
# 5 -0.001992 0.005153 -0.000013 0.000000 0.039733 0.000000
# 6 0.000000 0.000000 0.000000 -0.002641 0.000000 0.035711
#
#
# Mechanical properties :
#
#
# Convention : Reuss Voigt Hill
#
# Bulk Modulus (GPa) = 50.16762 74.68120 62.42441
# Shear Modulus (GPa) = 27.97016 32.77071 30.37044
#
# Velocity S-wave (km/s) = 3.62443 3.92315 3.77675
# Velocity P-wave (km/s) = 6.40914 7.45630 6.95246
#
# Compressibility (1/GPa) = 0.01993318
#
# Stress axis : x y z
#
# Youngs Moduli (GPa) = 115.81456 36.58003 111.40312
#
# Poissons Ratio (x) = 0.17117 0.29305
# Poissons Ratio (y) = 0.54192 0.57904
# Poissons Ratio (z) = 0.30466 0.19013
#
# Static dielectric constant tensor:
#      x y z
#    x 4.080140 0.000000 -0.037800 
#    y 0.000000 3.793410 0.000000 
#    z -0.037800 0.000000 3.583260 
# 
# 
# High freq. dielectric constant tensor:
#      x y z
#    x 1.842340 0.000000 -0.010160 
#    y 0.000000 1.823570 0.000000 
#    z -0.010160 0.000000 1.822890 
# 
# From -- ./inp_files/111744.got.cif
#   From: 2010.06.25/outbox.cif.g09.slc.cpg/sg15_56_cif.got.tgz:111744.got - 2010.06.28 07:06:18.
