data_PCOD8143979
_publ_section_title
;
Structure prediction by ZEFSAII (Michael W. Deem and Ramdas Pophale) SiO2 
 PCOD8143979
Probable space group: C 2/C
;
_chemical_formula_sum "Si O2"
_cell_formula_units_Z 48
_cell_length_a 10.644793
_cell_length_b 16.442976
_cell_length_c 20.247617
_cell_angle_alpha 90.000000
_cell_angle_beta 138.376427
_cell_angle_gamma 90.000000
_cell_volume 2354.032991
_symmetry_space_group_name_H-M "C 2/C"
_symmetry_group_IT_number 15
_symmetry_cell_setting 'monoclinic'
loop_
_space_group_symop_operation_xyz
x,y,z
-x,y,1/2-z
-x,-y,-z
x,-y,1/2+z
1/2+x,1/2+y,z
1/2-x,1/2+y,1/2-z
1/2-x,1/2-y,-z
1/2+x,1/2-y,1/2+z
loop_
_atom_site_type_symbol
_atom_site_label
_atom_site_fract_x
_atom_site_fract_y
_atom_site_fract_z
Si Si1 0.465118 0.945848 0.083309
Si Si2 0.453810 0.771306 0.610400
Si Si3 0.500000 0.890439 0.750000
Si Si4 0.000000 0.983498 0.750000
Si Si5 0.138607 0.104857 0.708068
Si Si6 0.623461 0.103754 0.088939
Si Si7 0.207464 0.021359 0.605555
O O1 0.668257 0.905405 0.175641
O O2 0.334180 0.943663 0.096179
O O3 0.474343 0.038548 0.060301
O O4 0.378016 0.890982 0.991013
O O5 0.250000 0.750000 0.500000
O O6 0.450425 0.838652 0.666253
O O7 0.553214 0.694153 0.682523
O O8 0.577677 0.807168 0.599083
O O9 0.314474 0.947725 0.686121
O O10 0.013393 0.041155 0.820564
O O11 0.827842 0.923284 0.692341
O O12 0.177262 0.092457 0.646218
O O13 0.000000 0.000000 0.500000
#
# Coordination Sequence:
#
# PCOD8143979 Si02
#       7
#     8   8   4   4   8   8   8
#     4  10  21  41  68  94 126 178 223 273 326 406
#     4  12  27  41  64 103 136 176 218 283 344 400
#     4  12  23  46  69  96 138 172 232 278 329 406
#     4  10  21  42  67  94 118 182 216 272 319 404
#     4  11  23  40  65  94 135 164 223 274 338 389
#     4  10  22  41  67  94 130 167 226 269 328 400
#     4  12  22  42  72  99 126 179 230 279 329 413
#
# _framework density 20.390539
#
# number of rings (size 3 to 8) (size 9 to 14) (size 15 to 20)
#    0.000    1.000    3.333    3.500    9.333    0.000 
#    3.000    0.833    0.000    0.000    0.000    0.000 
#    0.000    0.000    0.000    0.000    0.000    0.000 
#
# Total GULP energy -297582.274039 kJ/mol
# GULP energy per Si atom -12399.261418 kJ/mol
# Density = 2.034413 g / cm^3
# Si number density = 20.390539 Si / 1000 Ang^3
#
#
#
# Elastic Constant Matrix: (Units=GPa)
#
#
# Indices 1 2 3 4 5 6 
#
# 1 110.3426 31.8061 22.5760 0.0000 -6.1928 0.0000
# 2 31.8061 89.4596 43.0313 0.0000 10.8202 0.0000
# 3 22.5760 43.0313 100.1100 -0.0001 3.0938 0.0000
# 4 0.0000 0.0000 -0.0001 31.1083 0.0000 -4.6696
# 5 -6.1928 10.8202 3.0938 0.0000 40.5485 0.0000
# 6 0.0000 0.0000 0.0000 -4.6696 0.0000 34.8301
#
#
#
# Elastic Compliance Matrix: (Units=1/GPa)
#
#
# Indices 1 2 3 4 5 6 
#
# 1 0.010428 -0.003598 -0.000886 0.000000 0.002620 0.000000
# 2 -0.003598 0.015790 -0.005842 0.000000 -0.004317 0.000000
# 3 -0.000886 -0.005842 0.012686 0.000000 0.000456 0.000000
# 4 0.000000 0.000000 0.000000 0.032806 0.000000 0.004398
# 5 0.002620 -0.004317 0.000456 0.000000 0.026179 0.000000
# 6 0.000000 0.000000 0.000000 0.004398 0.000000 0.029300
#
#
# Mechanical properties :
#
#
# Convention : Reuss Voigt Hill
#
# Bulk Modulus (GPa) = 54.79163 54.97100 54.88131
# Shear Modulus (GPa) = 32.48296 34.79729 33.64012
#
# Velocity S-wave (km/s) = 3.99562 4.13551 4.06617
# Velocity P-wave (km/s) = 6.94378 7.05839 7.00132
#
# Compressibility (1/GPa) = 0.01825096
#
# Stress axis : x y z
#
# Youngs Moduli (GPa) = 95.89332 63.33132 78.82732
#
# Poissons Ratio (x) = 0.22789 0.06984
# Poissons Ratio (y) = 0.34506 0.46053
# Poissons Ratio (z) = 0.08496 0.37000
#
# Static dielectric constant tensor:
#      x y z
#    x 3.767890 0.000000 -0.009260 
#    y 0.000000 3.493680 0.000000 
#    z -0.009260 0.000000 3.737730 
# 
# 
# High freq. dielectric constant tensor:
#      x y z
#    x 1.805370 0.000000 -0.008390 
#    y 0.000000 1.774620 0.000000 
#    z -0.008390 0.000000 1.812670 
# 
# From -- ./inp_files/143854.got.cif
#   From: 2010.06.25/outbox.cif.g09.slc.cpg/sg15_72_cif.got.tgz:143854.got - 2010.06.28 07:06:18.
