data_PCOD8143774
_publ_section_title
;
Structure prediction by ZEFSAII (Michael W. Deem and Ramdas Pophale) SiO2 
 PCOD8143774
Probable space group: C 2/C
;
_chemical_formula_sum "Si O2"
_cell_formula_units_Z 48
_cell_length_a 14.191330
_cell_length_b 11.483926
_cell_length_c 14.049381
_cell_angle_alpha 90.000000
_cell_angle_beta 82.309426
_cell_angle_gamma 90.000000
_cell_volume 2269.063347
_symmetry_space_group_name_H-M "C 2/C"
_symmetry_group_IT_number 15
_symmetry_cell_setting 'monoclinic'
loop_
_space_group_symop_operation_xyz
x,y,z
-x,y,1/2-z
-x,-y,-z
x,-y,1/2+z
1/2+x,1/2+y,z
1/2-x,1/2+y,1/2-z
1/2-x,1/2-y,-z
1/2+x,1/2-y,1/2+z
loop_
_atom_site_type_symbol
_atom_site_label
_atom_site_fract_x
_atom_site_fract_y
_atom_site_fract_z
Si Si1 0.014997 0.757851 0.518727
Si Si2 0.760005 0.767035 0.337421
Si Si3 0.305274 0.353974 0.944053
Si Si4 0.361816 0.146543 0.164180
Si Si5 0.576471 0.890150 0.317695
Si Si6 0.833964 0.898487 0.505829
O O1 0.087332 0.808932 0.589163
O O2 0.072868 0.714852 0.419195
O O3 0.958309 0.649620 0.572391
O O4 0.943798 0.860670 0.498000
O O5 0.847036 0.728411 0.258108
O O6 0.676471 0.824889 0.284739
O O7 0.795806 0.860411 0.408235
O O8 0.724696 0.653158 0.398392
O O9 0.244321 0.386948 0.859236
O O10 0.317324 0.463392 0.013826
O O11 0.250000 0.250000 0.000000
O O12 0.414161 0.028695 0.186527
O O13 0.500000 0.851009 0.250000
#
# Coordination Sequence:
#
# PCOD8143774 Si02
#       6
#     8   8   8   8   8   8
#     4  10  23  39  65  91 129 163 212 258 321 370
#     4  10  23  40  63  92 126 168 209 262 318 373
#     4  10  21  41  64  93 124 162 211 255 319 376
#     4  11  23  38  63  96 124 167 212 261 313 381
#     4  11  23  41  62  91 130 165 211 260 318 375
#     4  10  21  42  64  90 128 166 210 261 316 377
#
# _framework density 21.154104
#
# number of rings (size 3 to 8) (size 9 to 14) (size 15 to 20)
#    0.000    1.667    1.667    2.000    2.333    5.333 
#    0.000    0.000    7.333    0.000    0.000    0.000 
#    0.000    0.000    0.000    0.000    0.000    0.000 
#
# Total GULP energy -297544.424527 kJ/mol
# GULP energy per Si atom -12397.684355 kJ/mol
# Density = 2.110596 g / cm^3
# Si number density = 21.154104 Si / 1000 Ang^3
#
#
#
# Elastic Constant Matrix: (Units=GPa)
#
#
# Indices 1 2 3 4 5 6 
#
# 1 113.5792 40.8000 28.8855 0.0000 6.7705 0.0000
# 2 40.8000 127.4447 32.6745 0.0000 -8.3974 0.0000
# 3 28.8855 32.6745 86.2128 0.0000 -15.0343 0.0000
# 4 0.0000 0.0000 0.0000 17.9898 0.0000 2.3596
# 5 6.7705 -8.3974 -15.0343 0.0000 40.4262 0.0000
# 6 0.0000 0.0000 0.0000 2.3596 0.0000 34.5836
#
#
#
# Elastic Compliance Matrix: (Units=1/GPa)
#
#
# Indices 1 2 3 4 5 6 
#
# 1 0.010868 -0.002904 -0.003169 0.000000 -0.003602 0.000000
# 2 -0.002904 0.009482 -0.002344 0.000000 0.001584 0.000000
# 3 -0.003169 -0.002344 0.014497 0.000000 0.005435 0.000000
# 4 0.000000 0.000000 0.000000 0.056089 0.000000 -0.003827
# 5 -0.003602 0.001584 0.005435 0.000000 0.027690 0.000000
# 6 0.000000 0.000000 0.000000 -0.003827 0.000000 0.029177
#
#
# Mechanical properties :
#
#
# Convention : Reuss Voigt Hill
#
# Bulk Modulus (GPa) = 55.51682 59.10630 57.31156
# Shear Modulus (GPa) = 29.30119 33.59171 31.44645
#
# Velocity S-wave (km/s) = 3.72577 3.98924 3.85975
# Velocity P-wave (km/s) = 6.69399 7.01571 6.85673
#
# Compressibility (1/GPa) = 0.01801256
#
# Stress axis : x y z
#
# Youngs Moduli (GPa) = 92.01061 105.46625 68.97885
#
# Poissons Ratio (x) = 0.30630 0.21858
# Poissons Ratio (y) = 0.26722 0.16170
# Poissons Ratio (z) = 0.29157 0.24724
#
# Static dielectric constant tensor:
#      x y z
#    x 4.368560 0.000000 0.248500 
#    y 0.000000 3.742100 0.000000 
#    z 0.248500 0.000000 3.542100 
# 
# 
# High freq. dielectric constant tensor:
#      x y z
#    x 1.846550 0.000000 0.009830 
#    y 0.000000 1.832300 0.000000 
#    z 0.009830 0.000000 1.806650 
# 
# From -- ./inp_files/151948.got.cif
#   From: 2010.06.25/outbox.cif.g09.slc.cpg/sg15_76_cif.got.tgz:151948.got - 2010.06.28 07:06:18.
