data_PCOD8143938
_publ_section_title
;
Structure prediction by ZEFSAII (Michael W. Deem and Ramdas Pophale) SiO2 
 PCOD8143938
Probable space group: C 2/C
;
_chemical_formula_sum "Si O2"
_cell_formula_units_Z 56
_cell_length_a 23.474461
_cell_length_b 6.517952
_cell_length_c 26.310805
_cell_angle_alpha 90.000000
_cell_angle_beta 139.042169
_cell_angle_gamma 90.000000
_cell_volume 2638.857069
_symmetry_space_group_name_H-M "C 2/C"
_symmetry_group_IT_number 15
_symmetry_cell_setting 'monoclinic'
loop_
_space_group_symop_operation_xyz
x,y,z
-x,y,1/2-z
-x,-y,-z
x,-y,1/2+z
1/2+x,1/2+y,z
1/2-x,1/2+y,1/2-z
1/2-x,1/2-y,-z
1/2+x,1/2-y,1/2+z
loop_
_atom_site_type_symbol
_atom_site_label
_atom_site_fract_x
_atom_site_fract_y
_atom_site_fract_z
Si Si1 0.805875 0.438459 0.557311
Si Si2 0.392170 0.162686 0.447868
Si Si3 0.099774 0.855601 0.312816
Si Si4 0.751074 0.328642 0.929399
Si Si5 0.834307 0.009757 0.837998
Si Si6 0.838360 0.319190 0.752864
Si Si7 0.565020 0.883096 0.113351
O O1 0.750000 0.250000 0.500000
O O2 0.889557 0.335387 0.640547
O O3 0.819894 0.583781 0.517837
O O4 0.761072 0.585421 0.569337
O O5 0.295541 0.140943 0.405118
O O6 0.399288 0.371749 0.420029
O O7 0.462253 0.163280 0.540645
O O8 0.404296 0.966793 0.420483
O O9 0.126445 0.781600 0.274710
O O10 0.000000 0.927536 0.250000
O O11 0.159412 0.049807 0.368656
O O12 0.807078 0.152520 0.772801
O O13 0.748958 0.952153 0.813468
O O14 0.884147 0.826374 0.844091
O O15 0.915805 0.461065 0.827651
#
# Coordination Sequence:
#
# PCOD8143938 Si02
#       7
#     8   8   8   8   8   8   8
#     4   9  21  43  63  87 120 163 219 261 309 373
#     4  10  22  38  66  92 124 167 209 262 320 386
#     4  11  25  41  62  96 132 172 215 262 322 386
#     4  10  21  41  67  92 123 170 217 266 321 378
#     4  11  21  39  61  91 126 166 213 263 328 383
#     4  11  23  38  64  93 130 170 209 265 323 388
#     4  10  22  40  59  98 130 160 211 260 321 384
#
# _framework density 21.221308000000001
#
# number of rings (size 3 to 8) (size 9 to 14) (size 15 to 20)
#    0.000    1.714    1.429    2.143    4.000    2.857 
#    7.714    0.000    0.000    0.000    0.000    0.000 
#    0.000    0.000    0.000    0.000    0.000    0.000 
#
# Total GULP energy -347051.040201 kJ/mol
# GULP energy per Si atom -12394.680007 kJ/mol
# Density = 2.117301 g / cm^3
# Si number density = 21.221308 Si / 1000 Ang^3
#
#
#
# Elastic Constant Matrix: (Units=GPa)
#
#
# Indices 1 2 3 4 5 6 
#
# 1 87.7416 30.7909 25.0590 -0.0080 6.2899 0.0370
# 2 30.7909 108.8700 37.8779 -0.0106 7.4519 0.0426
# 3 25.0590 37.8779 91.3197 -0.0030 8.6868 0.0211
# 4 -0.0080 -0.0106 -0.0030 30.2869 0.0000 -0.2894
# 5 6.2899 7.4519 8.6868 0.0000 26.0491 -0.0107
# 6 0.0370 0.0426 0.0211 -0.2894 -0.0107 24.5887
#
#
#
# Elastic Compliance Matrix: (Units=1/GPa)
#
#
# Indices 1 2 3 4 5 6 
#
# 1 0.013154 -0.002814 -0.002290 0.000002 -0.001608 -0.000014
# 2 -0.002814 0.011404 -0.003834 0.000003 -0.001304 -0.000013
# 3 -0.002290 -0.003834 0.013439 -0.000001 -0.002832 -0.000003
# 4 0.000002 0.000003 -0.000001 0.033021 -0.000001 0.000389
# 5 -0.001608 -0.001304 -0.002832 -0.000001 0.040095 0.000024
# 6 -0.000014 -0.000013 -0.000003 0.000389 0.000024 0.040674
#
#
# Mechanical properties :
#
#
# Convention : Reuss Voigt Hill
#
# Bulk Modulus (GPa) = 49.69688 52.82077 51.25883
# Shear Modulus (GPa) = 28.34984 29.13185 28.74085
#
# Velocity S-wave (km/s) = 3.65898 3.70910 3.68413
# Velocity P-wave (km/s) = 6.42807 6.57934 6.50415
#
# Compressibility (1/GPa) = 0.02012199
#
# Stress axis : x y z
#
# Youngs Moduli (GPa) = 76.02491 87.68656 74.41293
#
# Poissons Ratio (x) = 0.24671 0.17037
# Poissons Ratio (y) = 0.21390 0.28531
# Poissons Ratio (z) = 0.17406 0.33620
#
# Static dielectric constant tensor:
#      x y z
#    x 3.496260 -0.000030 -0.089280 
#    y -0.000030 4.009350 0.000000 
#    z -0.089280 0.000000 4.076950 
# 
# 
# High freq. dielectric constant tensor:
#      x y z
#    x 1.804430 0.000000 -0.009450 
#    y 0.000000 1.843680 0.000000 
#    z -0.009450 0.000000 1.839540 
# 
# From -- ./inp_files/302928.got.cif
#   From: 2010.06.25/outbox.cif.g09.slc.cpg/sg15_152_cif.got.tgz:302928.got - 2010.06.28 07:06:18.
