data_PCOD8143797
_publ_section_title
;
Structure prediction by ZEFSAII (Michael W. Deem and Ramdas Pophale) SiO2 
 PCOD8143797
Probable space group: C 2/C
;
_chemical_formula_sum "Si O2"
_cell_formula_units_Z 48
_cell_length_a 11.761387
_cell_length_b 7.278688
_cell_length_c 20.146125
_cell_angle_alpha 90.000000
_cell_angle_beta 100.750747
_cell_angle_gamma 90.000000
_cell_volume 1694.387451
_symmetry_space_group_name_H-M "C 2/C"
_symmetry_group_IT_number 15
_symmetry_cell_setting 'monoclinic'
loop_
_space_group_symop_operation_xyz
x,y,z
-x,y,1/2-z
-x,-y,-z
x,-y,1/2+z
1/2+x,1/2+y,z
1/2-x,1/2+y,1/2-z
1/2-x,1/2-y,-z
1/2+x,1/2-y,1/2+z
loop_
_atom_site_type_symbol
_atom_site_label
_atom_site_fract_x
_atom_site_fract_y
_atom_site_fract_z
Si Si1 0.755687 0.697893 0.078146
Si Si2 0.353251 0.851707 0.793666
Si Si3 0.135939 0.065564 0.813444
Si Si4 0.027350 0.528079 0.902310
Si Si5 0.519199 0.710283 0.995075
Si Si6 0.581063 0.497499 0.633303
O O1 0.820992 0.885184 0.107084
O O2 0.837090 0.517851 0.088510
O O3 0.670432 0.667942 0.133349
O O4 0.663405 0.719901 0.004695
O O5 0.382985 0.763314 0.724930
O O6 0.451749 0.001530 0.826359
O O7 0.350319 0.684035 0.844900
O O8 0.223245 0.938812 0.780863
O O9 0.988606 0.967943 0.683771
O O10 0.970696 0.379089 0.946723
O O11 0.017179 0.736179 0.931555
O O12 0.467970 0.526754 0.949930
#
# Coordination Sequence:
#
# PCOD8143797 Si02
#       6
#     8   8   8   8   8   8
#     4  12  23  41  70 102 136 181 216 277 337 398
#     4  11  24  47  68  96 130 181 224 284 338 391
#     4  12  25  46  71  94 135 176 229 283 336 401
#     4  10  22  39  72  98 138 179 227 268 341 401
#     4  10  21  41  65 106 137 180 219 273 333 401
#     4  11  26  42  69 103 139 172 227 278 334 402
#
# _framework density 28.328824000000001
#
# number of rings (size 3 to 8) (size 9 to 14) (size 15 to 20)
#    0.000    1.000    5.000    2.500    0.000    2.000 
#    0.000    0.000    0.000    0.000    0.000    0.000 
#    0.000    0.000    0.000    0.000    0.000    0.000 
#
# Total GULP energy -297357.571296 kJ/mol
# GULP energy per Si atom -12389.898804 kJ/mol
# Density = 2.826435 g / cm^3
# Si number density = 28.328824 Si / 1000 Ang^3
#
#
#
# Elastic Constant Matrix: (Units=GPa)
#
#
# Indices 1 2 3 4 5 6 
#
# 1 153.8844 22.6743 11.8989 0.0000 3.7887 0.0000
# 2 22.6743 79.2038 22.4585 0.0000 5.9033 0.0000
# 3 11.8989 22.4585 92.7426 0.0000 -17.9943 0.0000
# 4 0.0000 0.0000 0.0000 52.9785 0.0000 -4.8356
# 5 3.7887 5.9033 -17.9943 0.0000 35.2023 0.0000
# 6 0.0000 0.0000 0.0000 -4.8356 0.0000 49.1367
#
#
#
# Elastic Compliance Matrix: (Units=1/GPa)
#
#
# Indices 1 2 3 4 5 6 
#
# 1 0.006818 -0.001725 -0.000603 0.000000 -0.000753 0.000000
# 2 -0.001725 0.014632 -0.004176 0.000000 -0.004403 0.000000
# 3 -0.000603 -0.004176 0.013343 0.000000 0.007586 0.000000
# 4 0.000000 0.000000 0.000000 0.019047 0.000000 0.001874
# 5 -0.000753 -0.004403 0.007586 0.000000 0.033104 0.000000
# 6 0.000000 0.000000 0.000000 0.001874 0.000000 0.020536
#
#
# Mechanical properties :
#
#
# Convention : Reuss Voigt Hill
#
# Bulk Modulus (GPa) = 45.90417 48.87715 47.39066
# Shear Modulus (GPa) = 39.13937 45.38345 42.26141
#
# Velocity S-wave (km/s) = 3.72103 4.00687 3.86659
# Velocity P-wave (km/s) = 5.89073 6.22074 6.05798
#
# Compressibility (1/GPa) = 0.02178452
#
# Stress axis : x y z
#
# Youngs Moduli (GPa) = 146.67761 68.34470 74.94530
#
# Poissons Ratio (x) = 0.11787 0.04520
# Poissons Ratio (y) = 0.25296 0.31299
# Poissons Ratio (z) = 0.08847 0.28542
#
# Static dielectric constant tensor:
#      x y z
#    x 5.174270 0.000000 0.228420 
#    y 0.000000 5.168950 0.000000 
#    z 0.228420 0.000000 5.964500 
# 
# 
# High freq. dielectric constant tensor:
#      x y z
#    x 2.152190 0.000000 0.008930 
#    y 0.000000 2.142270 0.000000 
#    z 0.008930 0.000000 2.195620 
# 
# From -- ./inp_files/268100.got.cif
#   From: 2010.06.25/outbox.cif.g09.slc.cpg/sg15_135_cif.got.tgz:268100.got - 2010.06.28 07:06:18.
