data_PCOD8143652
_publ_section_title
;
Structure prediction by ZEFSAII (Michael W. Deem and Ramdas Pophale) SiO2 
 PCOD8143652
Probable space group: C 2/C
;
_chemical_formula_sum "Si O2"
_cell_formula_units_Z 36
_cell_length_a 11.497196
_cell_length_b 27.280993
_cell_length_c 5.182716
_cell_angle_alpha 90.000000
_cell_angle_beta 99.595635
_cell_angle_gamma 90.000000
_cell_volume 1602.840416
_symmetry_space_group_name_H-M "C 2/C"
_symmetry_group_IT_number 15
_symmetry_cell_setting 'monoclinic'
loop_
_space_group_symop_operation_xyz
x,y,z
-x,y,1/2-z
-x,-y,-z
x,-y,1/2+z
1/2+x,1/2+y,z
1/2-x,1/2+y,1/2-z
1/2-x,1/2-y,-z
1/2+x,1/2-y,1/2+z
loop_
_atom_site_type_symbol
_atom_site_label
_atom_site_fract_x
_atom_site_fract_y
_atom_site_fract_z
Si Si1 0.133642 0.521071 0.033955
Si Si2 0.430179 0.239086 0.985572
Si Si3 0.716421 0.392749 0.902329
Si Si4 0.213548 0.171374 0.900364
Si Si5 0.500000 0.465992 0.750000
O O1 0.198911 0.505455 0.320634
O O2 0.156791 0.579161 0.006311
O O3 0.000000 0.500000 0.000000
O O4 0.500000 0.213967 0.250000
O O5 0.326154 0.203246 0.864021
O O6 0.500000 0.248643 0.750000
O O7 0.392496 0.291820 0.081903
O O8 0.738452 0.358627 0.667108
O O9 0.614793 0.431563 0.802645
O O10 0.681680 0.362679 0.145259
O O11 0.500000 0.500000 0.500000
#
# Coordination Sequence:
#
# PCOD8143652 Si02
#       5
#     8   8   8   8   4
#     4  10  21  41  62  90 130 184 214 271 345 402
#     4  11  24  47  72  98 148 182 223 286 363 412
#     4  12  24  43  69 102 138 176 244 286 336 426
#     4  11  26  44  69 109 136 181 234 288 339 422
#     4  12  26  44  70 100 140 184 234 298 354 402
#
# _framework density 22.460125999999999
#
# number of rings (size 3 to 8) (size 9 to 14) (size 15 to 20)
#    0.000    0.889    0.000    6.667    4.667    3.556 
#   24.000    0.000    0.000    0.000    0.000    0.000 
#    0.000    0.000    0.000    0.000    0.000    0.000 
#
# Total GULP energy -223076.914961 kJ/mol
# GULP energy per Si atom -12393.161942 kJ/mol
# Density = 2.240901 g / cm^3
# Si number density = 22.460126 Si / 1000 Ang^3
#
#
#
# Elastic Constant Matrix: (Units=GPa)
#
#
# Indices 1 2 3 4 5 6 
#
# 1 105.6764 42.5298 36.5033 0.0000 -4.2688 0.0000
# 2 42.5298 88.2053 34.4321 0.0000 -9.8054 0.0000
# 3 36.5033 34.4321 180.7579 0.0000 -34.3605 0.0000
# 4 0.0000 0.0000 0.0000 60.3105 0.0000 -4.7061
# 5 -4.2688 -9.8054 -34.3605 0.0000 31.2043 0.0000
# 6 0.0000 0.0000 0.0000 -4.7061 0.0000 24.8907
#
#
#
# Elastic Compliance Matrix: (Units=1/GPa)
#
#
# Indices 1 2 3 4 5 6 
#
# 1 0.012177 -0.005387 -0.001819 0.000000 -0.002030 0.000000
# 2 -0.005387 0.014696 -0.001232 0.000000 0.002525 0.000000
# 3 -0.001819 -0.001232 0.007605 0.000000 0.007739 0.000000
# 4 0.000000 0.000000 0.000000 0.016829 0.000000 0.003182
# 5 -0.002030 0.002525 0.007739 0.000000 0.041084 0.000000
# 6 0.000000 0.000000 0.000000 0.003182 0.000000 0.040777
#
#
# Mechanical properties :
#
#
# Convention : Reuss Voigt Hill
#
# Bulk Modulus (GPa) = 56.80652 66.84111 61.82382
# Shear Modulus (GPa) = 32.06948 40.69273 36.38110
#
# Velocity S-wave (km/s) = 3.78278 4.26111 4.02905
# Velocity P-wave (km/s) = 6.66530 7.35078 7.01642
#
# Compressibility (1/GPa) = 0.01760361
#
# Stress axis : x y z
#
# Youngs Moduli (GPa) = 82.12084 68.04520 131.48898
#
# Poissons Ratio (x) = 0.36657 0.23915
# Poissons Ratio (y) = 0.44239 0.16194
# Poissons Ratio (z) = 0.14936 0.08380
#
# Static dielectric constant tensor:
#      x y z
#    x 4.103490 0.000000 -0.119410 
#    y 0.000000 4.334610 0.000000 
#    z -0.119410 0.000000 7.801610 
# 
# 
# High freq. dielectric constant tensor:
#      x y z
#    x 1.883630 0.000000 -0.009800 
#    y 0.000000 1.891130 0.000000 
#    z -0.009800 0.000000 1.916640 
# 
# From -- ./inp_files/4416.got.cif
#   From: 2010.06.25/outbox.cif.g09.slc.cpg/sg15_3_cif.got.tgz:4416.got - 2010.06.28 07:06:18.
