data_PCOD8143454
_publ_section_title
;
Structure prediction by ZEFSAII (Michael W. Deem and Ramdas Pophale) SiO2 
 PCOD8143454
Probable space group: C 2/C
;
_chemical_formula_sum "Si O2"
_cell_formula_units_Z 60
_cell_length_a 14.307301
_cell_length_b 13.514465
_cell_length_c 15.581013
_cell_angle_alpha 90.000000
_cell_angle_beta 116.975675
_cell_angle_gamma 90.000000
_cell_volume 2684.893374
_symmetry_space_group_name_H-M "C 2/C"
_symmetry_group_IT_number 15
_symmetry_cell_setting 'monoclinic'
loop_
_space_group_symop_operation_xyz
x,y,z
-x,y,1/2-z
-x,-y,-z
x,-y,1/2+z
1/2+x,1/2+y,z
1/2-x,1/2+y,1/2-z
1/2-x,1/2-y,-z
1/2+x,1/2-y,1/2+z
loop_
_atom_site_type_symbol
_atom_site_label
_atom_site_fract_x
_atom_site_fract_y
_atom_site_fract_z
Si Si1 0.217350 0.050399 0.220610
Si Si2 0.728780 0.810207 0.076531
Si Si3 0.393287 0.789840 0.752415
Si Si4 0.000000 0.326403 0.250000
Si Si5 0.440646 0.294906 0.883985
Si Si6 0.219438 0.536326 0.063512
Si Si7 0.279198 0.111301 0.617464
Si Si8 0.121452 0.730312 0.065134
O O1 0.313465 0.118545 0.228429
O O2 0.106132 0.095271 0.144657
O O3 0.209423 0.042754 0.320875
O O4 0.233211 0.945641 0.181151
O O5 0.834099 0.799796 0.178311
O O6 0.628276 0.768732 0.081007
O O7 0.692217 0.921604 0.040727
O O8 0.750000 0.750000 0.000000
O O9 0.500000 0.822842 0.750000
O O10 0.426768 0.754165 0.860751
O O11 0.059368 0.258323 0.207051
O O12 0.093230 0.392753 0.330372
O O13 0.556467 0.297068 0.971561
O O14 0.123275 0.613725 0.039899
O O15 0.267637 0.567076 0.991231
O O16 0.239658 0.224881 0.610253
#
# Coordination Sequence:
#
# PCOD8143454 Si02
#       8
#     8   8   8   4   8   8   8   8
#     4  10  24  43  67 101 140 178 229 288 346 423
#     4  11  23  44  68  97 140 180 228 290 350 417
#     4  10  21  40  67  95 133 180 225 282 347 414
#     4  12  24  42  70  96 140 176 230 292 350 410
#     4  11  24  43  68 100 136 179 225 286 348 417
#     4  11  22  42  69  95 131 180 224 281 343 412
#     4  12  25  44  66  99 137 178 229 292 343 410
#     4  11  24  42  68  98 137 177 234 282 342 416
#
# _framework density 22.347256000000002
#
# number of rings (size 3 to 8) (size 9 to 14) (size 15 to 20)
#    0.000    1.067    1.333    6.800    2.800    1.067 
#    2.400    1.333    2.933    0.000    0.000    0.000 
#    0.000    0.000    0.000    0.000    0.000    0.000 
#
# Total GULP energy -371803.888302 kJ/mol
# GULP energy per Si atom -12393.462943 kJ/mol
# Density = 2.229639 g / cm^3
# Si number density = 22.347256 Si / 1000 Ang^3
#
#
#
# Elastic Constant Matrix: (Units=GPa)
#
#
# Indices 1 2 3 4 5 6 
#
# 1 70.6879 43.0032 49.5752 0.0000 -6.0487 0.0000
# 2 43.0032 115.6893 39.4436 0.0000 0.4179 0.0000
# 3 49.5752 39.4436 132.5888 0.0000 -15.4062 0.0000
# 4 0.0000 0.0000 0.0000 29.0159 0.0000 -7.6983
# 5 -6.0487 0.4179 -15.4062 0.0000 44.9019 0.0000
# 6 0.0000 0.0000 0.0000 -7.6983 0.0000 27.4914
#
#
#
# Elastic Compliance Matrix: (Units=1/GPa)
#
#
# Indices 1 2 3 4 5 6 
#
# 1 0.022518 -0.006162 -0.006486 0.000000 0.000865 0.000000
# 2 -0.006162 0.011360 -0.001233 0.000000 -0.001359 0.000000
# 3 -0.006486 -0.001233 0.010659 0.000000 0.002795 0.000000
# 4 0.000000 0.000000 0.000000 0.037230 0.000000 0.010425
# 5 0.000865 -0.001359 0.002795 0.000000 0.023359 0.000000
# 6 0.000000 0.000000 0.000000 0.010425 0.000000 0.039294
#
#
# Mechanical properties :
#
#
# Convention : Reuss Voigt Hill
#
# Bulk Modulus (GPa) = 59.61514 64.77890 62.19702
# Shear Modulus (GPa) = 28.12559 32.74475 30.43517
#
# Velocity S-wave (km/s) = 3.55148 3.83204 3.69442
# Velocity P-wave (km/s) = 6.59939 6.97350 6.78902
#
# Compressibility (1/GPa) = 0.01677426
#
# Stress axis : x y z
#
# Youngs Moduli (GPa) = 44.40855 88.03007 93.81876
#
# Poissons Ratio (x) = 0.54245 0.60850
# Poissons Ratio (y) = 0.27365 0.11571
# Poissons Ratio (z) = 0.28803 0.10857
#
# Static dielectric constant tensor:
#      x y z
#    x 3.817210 0.000000 -0.170330 
#    y 0.000000 3.948680 0.000000 
#    z -0.170330 0.000000 4.386790 
# 
# 
# High freq. dielectric constant tensor:
#      x y z
#    x 1.865430 0.000000 -0.020680 
#    y 0.000000 1.869110 0.000000 
#    z -0.020680 0.000000 1.902480 
# 
# From -- ./inp_files/154291.got.cif
#   From: 2010.06.25/outbox.cif.g09.slc.cpg/sg15_78_cif.got.tgz:154291.got - 2010.06.28 07:06:18.
