data_PCOD8143947
_publ_section_title
;
Structure prediction by ZEFSAII (Michael W. Deem and Ramdas Pophale) SiO2 
 PCOD8143947
Probable space group: C 2/C
;
_chemical_formula_sum "Si O2"
_cell_formula_units_Z 64
_cell_length_a 23.524739
_cell_length_b 8.768585
_cell_length_c 29.357935
_cell_angle_alpha 90.000000
_cell_angle_beta 30.263274
_cell_angle_gamma 90.000000
_cell_volume 3052.024715
_symmetry_space_group_name_H-M "C 2/C"
_symmetry_group_IT_number 15
_symmetry_cell_setting 'monoclinic'
loop_
_space_group_symop_operation_xyz
x,y,z
-x,y,1/2-z
-x,-y,-z
x,-y,1/2+z
1/2+x,1/2+y,z
1/2-x,1/2+y,1/2-z
1/2-x,1/2-y,-z
1/2+x,1/2-y,1/2+z
loop_
_atom_site_type_symbol
_atom_site_label
_atom_site_fract_x
_atom_site_fract_y
_atom_site_fract_z
Si Si1 0.155108 0.609825 0.806655
Si Si2 0.761882 0.072457 0.992633
Si Si3 0.234562 0.875516 0.595751
Si Si4 0.113470 0.264546 0.857623
Si Si5 0.453503 0.525138 0.933764
Si Si6 0.442188 0.757803 0.498669
Si Si7 0.090616 0.366650 0.151886
Si Si8 0.919016 0.180732 0.217439
O O1 0.137335 0.428619 0.819134
O O2 0.284150 0.653916 0.728299
O O3 0.134297 0.670376 0.769655
O O4 0.070793 0.687582 0.901919
O O5 0.849632 0.033758 0.971368
O O6 0.794264 0.009124 0.920256
O O7 0.750000 0.250000 0.000000
O O8 0.638577 0.003798 0.088838
O O9 0.366505 0.863020 0.517059
O O10 0.197257 0.711098 0.602412
O O11 0.163384 0.904491 0.690632
O O12 0.996710 0.191856 0.919544
O O13 0.099892 0.283151 0.921164
O O14 0.424637 0.420873 0.997910
O O15 0.557376 0.444193 0.836855
O O16 0.000000 0.434672 0.250000
O O17 0.034653 0.233469 0.160886
#
# Coordination Sequence:
#
# PCOD8143947 Si02
#       8
#     8   8   8   8   8   8   8   8
#     4  11  24  44  68  96 130 177 222 282 338 405
#     4  12  25  41  63 101 138 172 219 279 346 391
#     4  11  21  42  70  93 129 176 228 267 323 414
#     4  12  26  45  67  99 137 170 230 282 343 407
#     4  11  24  42  65  97 133 174 218 280 339 401
#     4  11  23  44  71  94 130 179 231 272 339 409
#     4  10  21  41  67  94 127 174 225 268 324 407
#     4  10  21  42  69  96 127 178 224 272 335 399
#
# _framework density 20.969687
#
# number of rings (size 3 to 8) (size 9 to 14) (size 15 to 20)
#    0.000    1.000    3.750    4.125    3.500    0.000 
#    2.250    1.250    0.000    0.000    0.000    0.000 
#    0.000    0.000    0.000    0.000    0.000    0.000 
#
# Total GULP energy -396756.516705 kJ/mol
# GULP energy per Si atom -12398.641147 kJ/mol
# Density = 2.092196 g / cm^3
# Si number density = 20.969687 Si / 1000 Ang^3
#
#
#
# Elastic Constant Matrix: (Units=GPa)
#
#
# Indices 1 2 3 4 5 6 
#
# 1 87.0155 27.3208 39.1825 -0.0087 6.8544 0.0139
# 2 27.3208 117.7864 39.6769 -0.0030 13.9203 0.0051
# 3 39.1825 39.6769 100.8174 -0.0093 7.8102 0.0148
# 4 -0.0087 -0.0030 -0.0093 14.8379 0.0009 -7.4629
# 5 6.8544 13.9203 7.8102 0.0009 34.3823 0.0001
# 6 0.0139 0.0051 0.0148 -7.4629 0.0001 28.5766
#
#
#
# Elastic Compliance Matrix: (Units=1/GPa)
#
#
# Indices 1 2 3 4 5 6 
#
# 1 0.014245 -0.001541 -0.004843 0.000003 -0.001116 -0.000003
# 2 -0.001541 0.010300 -0.003212 0.000000 -0.003133 0.000000
# 3 -0.004843 -0.003212 0.013121 0.000003 -0.000715 -0.000003
# 4 0.000003 0.000000 0.000003 0.077586 -0.000003 0.020262
# 5 -0.001116 -0.003133 -0.000715 -0.000003 0.030738 0.000001
# 6 -0.000003 0.000000 -0.000003 0.020262 0.000001 0.040285
#
#
# Mechanical properties :
#
#
# Convention : Reuss Voigt Hill
#
# Bulk Modulus (GPa) = 54.13306 57.55332 55.84319
# Shear Modulus (GPa) = 23.62685 28.85531 26.24108
#
# Velocity S-wave (km/s) = 3.36030 3.71354 3.54132
# Velocity P-wave (km/s) = 6.39738 6.77441 6.58859
#
# Compressibility (1/GPa) = 0.01847300
#
# Stress axis : x y z
#
# Youngs Moduli (GPa) = 70.20100 97.09166 76.21533
#
# Poissons Ratio (x) = 0.14959 0.36914
# Poissons Ratio (y) = 0.10816 0.24480
# Poissons Ratio (z) = 0.34001 0.31185
#
# Static dielectric constant tensor:
#      x y z
#    x 4.360820 -0.000130 0.047540 
#    y -0.000130 3.765000 -0.000190 
#    z 0.047540 -0.000190 3.917150 
# 
# 
# High freq. dielectric constant tensor:
#      x y z
#    x 1.827690 -0.000010 -0.002520 
#    y -0.000010 1.802090 0.000000 
#    z -0.002520 0.000000 1.830520 
# 
# From -- ./inp_files/318604.got.cif
#   From: 2010.06.25/outbox.cif.g09.slc.cpg/sg15_160_cif.got.tgz:318604.got - 2010.06.28 07:06:18.
