data_PCOD8143378
_publ_section_title
;
Structure prediction by ZEFSAII (Michael W. Deem and Ramdas Pophale) SiO2 
 PCOD8143378
Probable space group: C 2/C
;
_chemical_formula_sum "Si O2"
_cell_formula_units_Z 64
_cell_length_a 11.079938
_cell_length_b 16.130520
_cell_length_c 18.145208
_cell_angle_alpha 90.000000
_cell_angle_beta 101.770541
_cell_angle_gamma 90.000000
_cell_volume 3174.812621
_symmetry_space_group_name_H-M "C 2/C"
_symmetry_group_IT_number 15
_symmetry_cell_setting 'monoclinic'
loop_
_space_group_symop_operation_xyz
x,y,z
-x,y,1/2-z
-x,-y,-z
x,-y,1/2+z
1/2+x,1/2+y,z
1/2-x,1/2+y,1/2-z
1/2-x,1/2-y,-z
1/2+x,1/2-y,1/2+z
loop_
_atom_site_type_symbol
_atom_site_label
_atom_site_fract_x
_atom_site_fract_y
_atom_site_fract_z
Si Si1 0.021292 0.282023 0.581351
Si Si2 0.311148 0.122741 0.294965
Si Si3 0.680638 0.121577 0.376807
Si Si4 0.988669 0.480139 0.332295
Si Si5 0.062795 0.935952 0.590990
Si Si6 0.600934 0.838710 0.433461
Si Si7 0.563175 0.683769 0.327503
Si Si8 0.882742 0.107619 0.943269
O O1 0.093799 0.309845 0.662764
O O2 0.072398 0.330551 0.516079
O O3 0.037578 0.184282 0.575254
O O4 0.878900 0.304434 0.581738
O O5 0.304095 0.142298 0.207596
O O6 0.184804 0.135143 0.320968
O O7 0.359264 0.029826 0.320973
O O8 0.814672 0.105506 0.429409
O O9 0.597726 0.039769 0.372830
O O10 0.000000 0.449034 0.250000
O O11 0.998003 0.399673 0.385778
O O12 0.033832 0.887794 0.662484
O O13 0.941010 0.926194 0.526203
O O14 0.097975 0.032107 0.612249
O O15 0.588964 0.747927 0.396213
O O16 0.739626 0.870481 0.437024
O O17 0.500000 0.730397 0.250000
#
# Coordination Sequence:
#
# PCOD8143378 Si02
#       8
#     8   8   8   8   8   8   8   8
#     4  11  22  39  64  95 123 164 210 257 312 371
#     4  10  21  40  66  90 124 163 209 258 313 374
#     4  10  21  41  64  88 128 164 207 257 315 368
#     4   9  20  39  63  91 122 161 203 255 312 362
#     4  11  23  42  61  89 123 172 199 254 320 373
#     4  12  22  41  64  96 124 162 212 264 302 371
#     4  12  23  40  67  94 124 164 212 255 315 376
#     4  11  23  41  63  88 130 162 205 254 318 368
#
# _framework density 20.158670000000001
#
# number of rings (size 3 to 8) (size 9 to 14) (size 15 to 20)
#    0.000    1.250    5.000    2.625    0.000    2.500 
#    4.500    1.250    2.750    0.000    0.000    0.000 
#    0.000    0.000    0.000    0.000    0.000    0.000 
#
# Total GULP energy -396651.711374 kJ/mol
# GULP energy per Si atom -12395.365980 kJ/mol
# Density = 2.011279 g / cm^3
# Si number density = 20.158670 Si / 1000 Ang^3
#
#
#
# Elastic Constant Matrix: (Units=GPa)
#
#
# Indices 1 2 3 4 5 6 
#
# 1 95.2131 39.4501 12.0133 0.0000 -9.0227 0.0000
# 2 39.4501 121.5494 32.5697 0.0000 -18.1851 0.0000
# 3 12.0133 32.5697 59.2545 0.0000 -2.8772 0.0000
# 4 0.0000 0.0000 0.0000 23.5155 0.0000 2.8562
# 5 -9.0227 -18.1851 -2.8772 0.0000 31.1649 0.0000
# 6 0.0000 0.0000 0.0000 2.8562 0.0000 26.2545
#
#
#
# Elastic Compliance Matrix: (Units=1/GPa)
#
#
# Indices 1 2 3 4 5 6 
#
# 1 0.012193 -0.003645 -0.000402 0.000000 0.001366 0.000000
# 2 -0.003645 0.011643 -0.005406 0.000000 0.005239 0.000000
# 3 -0.000402 -0.005406 0.019860 0.000000 -0.001437 0.000000
# 4 0.000000 0.000000 0.000000 0.043095 0.000000 -0.004688
# 5 0.001366 0.005239 -0.001437 0.000000 0.035407 0.000000
# 6 0.000000 0.000000 0.000000 -0.004688 0.000000 0.038599
#
#
# Mechanical properties :
#
#
# Convention : Reuss Voigt Hill
#
# Bulk Modulus (GPa) = 40.34111 49.34257 44.84184
# Shear Modulus (GPa) = 26.60058 28.98590 27.79324
#
# Velocity S-wave (km/s) = 3.63652 3.79606 3.71715
# Velocity P-wave (km/s) = 6.13902 6.61390 6.38088
#
# Compressibility (1/GPa) = 0.02478861
#
# Stress axis : x y z
#
# Youngs Moduli (GPa) = 82.01208 85.89112 50.35372
#
# Poissons Ratio (x) = 0.31311 0.02024
# Poissons Ratio (y) = 0.29897 0.27221
# Poissons Ratio (z) = 0.03297 0.46433
#
# Static dielectric constant tensor:
#      x y z
#    x 3.844220 0.000000 0.092080 
#    y 0.000000 3.763530 0.000000 
#    z 0.092080 0.000000 3.665520 
# 
# 
# High freq. dielectric constant tensor:
#      x y z
#    x 1.794300 0.000000 0.010920 
#    y 0.000000 1.780760 0.000000 
#    z 0.010920 0.000000 1.781000 
# 
# From -- ./inp_files/198334.got.cif
#   From: 2010.06.25/outbox.cif.g09.slc.cpg/sg15_100_cif.got.tgz:198334.got - 2010.06.28 07:06:18.
