data_PCOD8143603
_publ_section_title
;
Structure prediction by ZEFSAII (Michael W. Deem and Ramdas Pophale) SiO2 
 PCOD8143603
Probable space group: C 2/C
;
_chemical_formula_sum "Si O2"
_cell_formula_units_Z 48
_cell_length_a 11.632873
_cell_length_b 23.794620
_cell_length_c 9.583787
_cell_angle_alpha 90.000000
_cell_angle_beta 110.147966
_cell_angle_gamma 90.000000
_cell_volume 2490.455999
_symmetry_space_group_name_H-M "C 2/C"
_symmetry_group_IT_number 15
_symmetry_cell_setting 'monoclinic'
loop_
_space_group_symop_operation_xyz
x,y,z
-x,y,1/2-z
-x,-y,-z
x,-y,1/2+z
1/2+x,1/2+y,z
1/2-x,1/2+y,1/2-z
1/2-x,1/2-y,-z
1/2+x,1/2-y,1/2+z
loop_
_atom_site_type_symbol
_atom_site_label
_atom_site_fract_x
_atom_site_fract_y
_atom_site_fract_z
Si Si1 0.155583 0.464871 0.201035
Si Si2 0.190360 0.196055 0.046689
Si Si3 0.721718 0.178336 0.120483
Si Si4 0.409390 0.705812 0.982811
Si Si5 0.897491 0.563862 0.511732
Si Si6 0.636658 0.381369 0.278576
O O1 0.142368 0.466863 0.362176
O O2 0.284449 0.435558 0.225131
O O3 0.045247 0.431576 0.077553
O O4 0.154235 0.528147 0.140309
O O5 0.268221 0.173525 0.209279
O O6 0.250000 0.250000 0.000000
O O7 0.192043 0.145196 0.940455
O O8 0.054931 0.210318 0.044415
O O9 0.639690 0.231881 0.055399
O O10 0.856420 0.182389 0.106726
O O11 0.653463 0.126029 0.022932
O O12 0.360314 0.665992 0.839203
O O13 0.500000 0.403268 0.250000
#
# Coordination Sequence:
#
# PCOD8143603 Si02
#       6
#     8   8   8   8   8   8
#     4  10  22  44  61  92 117 157 205 254 304 358
#     4  11  23  37  57  91 124 160 196 249 295 365
#     4  11  22  39  62  89 120 163 202 250 305 365
#     4  10  22  40  59  88 126 159 202 244 304 369
#     4  10  23  40  67  88 119 155 206 259 302 360
#     4  10  21  41  61  84 126 161 193 247 301 360
#
# _framework density 19.273579999999999
#
# number of rings (size 3 to 8) (size 9 to 14) (size 15 to 20)
#    0.000    1.667    3.333    0.500    4.667    0.000 
#    3.000    2.500    0.000    0.000    0.000    0.000 
#    0.000    0.000    0.000    0.000    0.000    0.000 
#
# Total GULP energy -297612.211824 kJ/mol
# GULP energy per Si atom -12400.508826 kJ/mol
# Density = 1.922971 g / cm^3
# Si number density = 19.273580 Si / 1000 Ang^3
#
#
#
# Elastic Constant Matrix: (Units=GPa)
#
#
# Indices 1 2 3 4 5 6 
#
# 1 87.2487 41.8748 10.7207 0.0000 -2.9363 0.0000
# 2 41.8748 71.9045 31.4648 0.0000 7.7503 0.0000
# 3 10.7207 31.4648 100.3316 0.0000 -10.9438 0.0000
# 4 0.0000 0.0000 0.0000 23.2585 0.0000 -8.1015
# 5 -2.9363 7.7503 -10.9438 0.0000 22.3556 0.0000
# 6 0.0000 0.0000 0.0000 -8.1015 0.0000 21.3037
#
#
#
# Elastic Compliance Matrix: (Units=1/GPa)
#
#
# Indices 1 2 3 4 5 6 
#
# 1 0.017172 -0.012069 0.002802 0.000000 0.007811 0.000000
# 2 -0.012069 0.026298 -0.008583 0.000000 -0.014904 0.000000
# 3 0.002802 -0.008583 0.013442 0.000000 0.009924 0.000000
# 4 0.000000 0.000000 0.000000 0.049560 0.000000 0.018847
# 5 0.007811 -0.014904 0.009924 0.000000 0.055783 0.000000
# 6 0.000000 0.000000 0.000000 0.018847 0.000000 0.054107
#
#
# Mechanical properties :
#
#
# Convention : Reuss Voigt Hill
#
# Bulk Modulus (GPa) = 47.14290 47.51171 47.32731
# Shear Modulus (GPa) = 19.29506 25.07853 22.18679
#
# Velocity S-wave (km/s) = 3.16747 3.61111 3.39654
# Velocity P-wave (km/s) = 6.15550 6.48780 6.32383
#
# Compressibility (1/GPa) = 0.02121210
#
# Stress axis : x y z
#
# Youngs Moduli (GPa) = 58.23289 38.02530 74.39438
#
# Poissons Ratio (x) = 0.45892 -0.20845
# Poissons Ratio (y) = 0.70280 0.63856
# Poissons Ratio (z) = -0.16316 0.32639
#
# Static dielectric constant tensor:
#      x y z
#    x 3.698690 0.000000 -0.198840 
#    y 0.000000 3.266070 0.000000 
#    z -0.198840 0.000000 3.621950 
# 
# 
# High freq. dielectric constant tensor:
#      x y z
#    x 1.758930 0.000000 -0.010010 
#    y 0.000000 1.737010 0.000000 
#    z -0.010010 0.000000 1.760200 
# 
# From -- ./inp_files/31885.got.cif
#   From: 2010.06.25/outbox.cif.g09.slc.cpg/sg15_16_cif.got.tgz:31885.got - 2010.06.28 07:06:18.
