data_PCOD8143123
_publ_section_title
;
Structure prediction by ZEFSAII (Michael W. Deem and Ramdas Pophale) SiO2 
 PCOD8143123
Probable space group: C 2/C
;
_chemical_formula_sum "Si O2"
_cell_formula_units_Z 48
_cell_length_a 7.277725
_cell_length_b 12.813075
_cell_length_c 23.762109
_cell_angle_alpha 90.000000
_cell_angle_beta 83.368726
_cell_angle_gamma 90.000000
_cell_volume 2200.993443
_symmetry_space_group_name_H-M "C 2/C"
_symmetry_group_IT_number 15
_symmetry_cell_setting 'monoclinic'
loop_
_space_group_symop_operation_xyz
x,y,z
-x,y,1/2-z
-x,-y,-z
x,-y,1/2+z
1/2+x,1/2+y,z
1/2-x,1/2+y,1/2-z
1/2-x,1/2-y,-z
1/2+x,1/2-y,1/2+z
loop_
_atom_site_type_symbol
_atom_site_label
_atom_site_fract_x
_atom_site_fract_y
_atom_site_fract_z
Si Si1 0.073479 0.369236 0.886914
Si Si2 0.349312 0.556477 0.182517
Si Si3 0.117366 0.238764 0.689653
Si Si4 0.258162 0.486968 0.300767
Si Si5 0.213832 0.951705 0.940800
Si Si6 0.166578 0.858605 0.523777
O O1 0.083817 0.458781 0.837809
O O2 0.263035 0.369726 0.914745
O O3 0.024952 0.260721 0.856963
O O4 0.908618 0.392322 0.936463
O O5 0.276726 0.674827 0.185698
O O6 0.236234 0.488413 0.233441
O O7 0.564456 0.557884 0.190582
O O8 0.323371 0.507175 0.121421
O O9 0.218333 0.129123 0.676133
O O10 0.000000 0.233954 0.750000
O O11 0.056318 0.868471 0.965929
O O12 0.235522 0.049264 0.981202
O O13 0.250000 0.750000 0.500000
#
# Coordination Sequence:
#
# PCOD8143123 Si02
#       6
#     8   8   8   8   8   8
#     4  11  24  43  66  95 136 170 222 274 329 401
#     4  10  21  40  62  95 133 169 218 268 323 402
#     4  11  22  37  63  97 130 177 219 262 336 399
#     4  11  22  40  67  93 137 176 209 279 334 387
#     4  10  24  43  64  93 132 167 223 279 324 398
#     4  11  25  42  67  95 125 175 224 275 334 389
#
# _framework density 21.808333000000001
#
# number of rings (size 3 to 8) (size 9 to 14) (size 15 to 20)
#    0.000    1.333    5.000    0.500    2.333    3.333 
#    0.000    5.000    0.000    0.000    0.000    0.000 
#    0.000    0.000    0.000    0.000    0.000    0.000 
#
# Total GULP energy -297514.082982 kJ/mol
# GULP energy per Si atom -12396.420124 kJ/mol
# Density = 2.175870 g / cm^3
# Si number density = 21.808333 Si / 1000 Ang^3
#
#
#
# Elastic Constant Matrix: (Units=GPa)
#
#
# Indices 1 2 3 4 5 6 
#
# 1 56.2536 34.0192 6.6289 0.0000 -9.4848 0.0000
# 2 34.0192 133.5358 40.5778 0.0000 -3.4549 0.0000
# 3 6.6289 40.5778 102.8111 0.0000 -0.9536 0.0000
# 4 0.0000 0.0000 0.0000 20.0289 0.0000 1.7756
# 5 -9.4848 -3.4549 -0.9536 0.0000 39.6252 0.0000
# 6 0.0000 0.0000 0.0000 1.7756 0.0000 30.4871
#
#
#
# Elastic Compliance Matrix: (Units=1/GPa)
#
#
# Indices 1 2 3 4 5 6 
#
# 1 0.021947 -0.005739 0.000894 0.000000 0.004774 0.000000
# 2 -0.005739 0.010027 -0.003593 0.000000 -0.000586 0.000000
# 3 0.000894 -0.003593 0.011089 0.000000 0.000168 0.000000
# 4 0.000000 0.000000 0.000000 0.050187 0.000000 -0.002923
# 5 0.004774 -0.000586 0.000168 0.000000 0.026332 0.000000
# 6 0.000000 0.000000 0.000000 -0.002923 0.000000 0.032971
#
#
# Mechanical properties :
#
#
# Convention : Reuss Voigt Hill
#
# Bulk Modulus (GPa) = 38.18670 50.56136 44.37403
# Shear Modulus (GPa) = 28.06492 32.11990 30.09241
#
# Velocity S-wave (km/s) = 3.59122 3.84191 3.71867
# Velocity P-wave (km/s) = 5.89440 6.55096 6.23133
#
# Compressibility (1/GPa) = 0.02618713
#
# Stress axis : x y z
#
# Youngs Moduli (GPa) = 45.56399 99.72606 90.18294
#
# Poissons Ratio (x) = 0.57238 -0.08067
# Poissons Ratio (y) = 0.26151 0.32403
# Poissons Ratio (z) = -0.04076 0.35832
#
# Static dielectric constant tensor:
#      x y z
#    x 3.947370 0.000000 -0.036320 
#    y 0.000000 3.776870 0.000000 
#    z -0.036320 0.000000 4.291740 
# 
# 
# High freq. dielectric constant tensor:
#      x y z
#    x 1.861200 0.000000 -0.005670 
#    y 0.000000 1.832630 0.000000 
#    z -0.005670 0.000000 1.874670 
# 
# From -- ./inp_files/263209.got.cif
#   From: 2010.06.25/outbox.cif.g09.slc.cpg/sg15_132_cif.got.tgz:263209.got - 2010.06.28 07:06:18.
