data_PCOD8143968
_publ_section_title
;
Structure prediction by ZEFSAII (Michael W. Deem and Ramdas Pophale) SiO2 
 PCOD8143968
Probable space group: C 2/C
;
_chemical_formula_sum "Si O2"
_cell_formula_units_Z 44
_cell_length_a 14.294364
_cell_length_b 27.755801
_cell_length_c 5.076547
_cell_angle_alpha 90.000000
_cell_angle_beta 75.606583
_cell_angle_gamma 90.000000
_cell_volume 1950.907762
_symmetry_space_group_name_H-M "C 2/C"
_symmetry_group_IT_number 15
_symmetry_cell_setting 'monoclinic'
loop_
_space_group_symop_operation_xyz
x,y,z
-x,y,1/2-z
-x,-y,-z
x,-y,1/2+z
1/2+x,1/2+y,z
1/2-x,1/2+y,1/2-z
1/2-x,1/2-y,-z
1/2+x,1/2-y,1/2+z
loop_
_atom_site_type_symbol
_atom_site_label
_atom_site_fract_x
_atom_site_fract_y
_atom_site_fract_z
Si Si1 0.437269 0.302992 0.540654
Si Si2 0.934913 0.695553 0.536027
Si Si3 0.176656 0.895664 0.757765
Si Si4 0.108363 0.521511 0.098280
Si Si5 0.000000 0.034618 0.250000
Si Si6 0.200010 0.390586 0.335121
O O1 0.500000 0.294430 0.750000
O O2 0.395968 0.249781 0.504728
O O3 0.356138 0.340610 0.678874
O O4 0.500000 0.323102 0.250000
O O5 0.837675 0.663758 0.611586
O O6 0.000000 0.689809 0.750000
O O7 0.000000 0.677499 0.250000
O O8 0.091955 0.930551 0.717416
O O9 0.218183 0.908749 0.015859
O O10 0.261272 0.896954 0.485220
O O11 0.160262 0.514639 0.347093
O O12 0.110177 0.574285 0.965038
O O13 0.000000 0.505359 0.250000
O O14 0.000000 0.000000 0.500000
#
# Coordination Sequence:
#
# PCOD8143968 Si02
#       6
#     8   8   8   8   4   8
#     4  10  21  41  68  90 128 176 221 260 320 406
#     4  10  22  41  66  97 134 179 211 261 324 387
#     4  12  26  42  67  95 127 172 213 278 337 381
#     4  10  22  40  62  87 122 170 207 247 314 387
#     4  12  28  48  70  94 126 172 228 276 336 394
#     4  12  25  39  65 101 133 163 218 277 323 390
#
# _framework density 22.553605000000001
#
# number of rings (size 3 to 8) (size 9 to 14) (size 15 to 20)
#    0.000    1.091    0.909    4.909    1.273    8.000 
#    0.000    0.000    0.000    0.000    0.000    0.000 
#    0.000    0.000    0.000    0.000    0.000    0.000 
#
# Total GULP energy -272609.224577 kJ/mol
# GULP energy per Si atom -12391.328390 kJ/mol
# Density = 2.250227 g / cm^3
# Si number density = 22.553605 Si / 1000 Ang^3
#
#
#
# Elastic Constant Matrix: (Units=GPa)
#
#
# Indices 1 2 3 4 5 6 
#
# 1 61.4310 25.9197 29.3361 0.0000 9.7744 0.0000
# 2 25.9197 115.1632 59.7728 0.0000 -9.2330 0.0000
# 3 29.3361 59.7728 152.8458 0.0000 13.2974 0.0000
# 4 0.0000 0.0000 0.0000 27.4588 0.0000 2.9228
# 5 9.7744 -9.2330 13.2974 0.0000 31.9398 0.0000
# 6 0.0000 0.0000 0.0000 2.9228 0.0000 25.6491
#
#
#
# Elastic Compliance Matrix: (Units=1/GPa)
#
#
# Indices 1 2 3 4 5 6 
#
# 1 0.019855 -0.004165 -0.001607 0.000000 -0.006611 0.000000
# 2 -0.004165 0.012635 -0.004742 0.000000 0.006901 0.000000
# 3 -0.001607 -0.004742 0.009112 0.000000 -0.004673 0.000000
# 4 0.000000 0.000000 0.000000 0.036865 0.000000 -0.004201
# 5 -0.006611 0.006901 -0.004673 0.000000 0.037272 0.000000
# 6 0.000000 0.000000 0.000000 -0.004201 0.000000 0.039466
#
#
# Mechanical properties :
#
#
# Convention : Reuss Voigt Hill
#
# Bulk Modulus (GPa) = 48.60426 62.16637 55.38531
# Shear Modulus (GPa) = 27.30856 31.30363 29.30609
#
# Velocity S-wave (km/s) = 3.48347 3.72958 3.60863
# Velocity P-wave (km/s) = 6.14628 6.79485 6.47869
#
# Compressibility (1/GPa) = 0.02057433
#
# Stress axis : x y z
#
# Youngs Moduli (GPa) = 50.36532 79.14280 109.74455
#
# Poissons Ratio (x) = 0.32960 0.17636
# Poissons Ratio (y) = 0.20976 0.52045
# Poissons Ratio (z) = 0.08094 0.37532
#
# Static dielectric constant tensor:
#      x y z
#    x 3.954970 0.000000 0.402240 
#    y 0.000000 4.440210 0.000000 
#    z 0.402240 0.000000 4.502710 
# 
# 
# High freq. dielectric constant tensor:
#      x y z
#    x 1.866290 0.000000 0.019010 
#    y 0.000000 1.901180 0.000000 
#    z 0.019010 0.000000 1.916120 
# 
# From -- ./inp_files/8198.got.cif
#   From: 2010.06.25/outbox.cif.g09.slc.cpg/sg15_5_cif.got.tgz:8198.got - 2010.06.28 07:06:18.
