data_PCOD8143214
_publ_section_title
;
Structure prediction by ZEFSAII (Michael W. Deem and Ramdas Pophale) SiO2 
 PCOD8143214
Probable space group: C 2/C
;
_chemical_formula_sum "Si O2"
_cell_formula_units_Z 56
_cell_length_a 15.340612
_cell_length_b 9.555629
_cell_length_c 22.729850
_cell_angle_alpha 90.000000
_cell_angle_beta 122.334104
_cell_angle_gamma 90.000000
_cell_volume 2815.310289
_symmetry_space_group_name_H-M "C 2/C"
_symmetry_group_IT_number 15
_symmetry_cell_setting 'monoclinic'
loop_
_space_group_symop_operation_xyz
x,y,z
-x,y,1/2-z
-x,-y,-z
x,-y,1/2+z
1/2+x,1/2+y,z
1/2-x,1/2+y,1/2-z
1/2-x,1/2-y,-z
1/2+x,1/2-y,1/2+z
loop_
_atom_site_type_symbol
_atom_site_label
_atom_site_fract_x
_atom_site_fract_y
_atom_site_fract_z
Si Si1 0.133820 0.790911 0.060588
Si Si2 0.753205 0.526358 0.046946
Si Si3 0.703952 0.980764 0.073240
Si Si4 0.384580 0.590486 0.719104
Si Si5 0.817575 0.011345 0.821895
Si Si6 0.401724 0.702342 0.441093
Si Si7 0.884433 0.584061 0.202357
O O1 0.156870 0.628425 0.073736
O O2 0.218298 0.868070 0.049976
O O3 0.136686 0.854408 0.127345
O O4 0.022763 0.817126 0.992124
O O5 0.657483 0.630074 0.025449
O O6 0.850100 0.572963 0.121940
O O7 0.789714 0.537885 0.994019
O O8 0.817830 0.964829 0.140596
O O9 0.627418 0.865348 0.072729
O O10 0.500000 0.537366 0.750000
O O11 0.342963 0.519184 0.763053
O O12 0.379832 0.756907 0.722839
O O13 0.866082 0.870441 0.867521
O O14 0.693304 0.006106 0.785148
O O15 0.000000 0.523492 0.250000
#
# Coordination Sequence:
#
# PCOD8143214 Si02
#       7
#     8   8   8   8   8   8   8
#     4  10  23  39  65  90 126 163 201 256 329 351
#     4  10  21  41  63  91 124 160 204 259 299 377
#     4  12  23  39  61  98 126 156 213 257 305 377
#     4  11  25  39  63  93 122 169 212 255 313 370
#     4  10  22  43  64  90 128 164 209 265 302 381
#     4  10  21  40  64  89 118 167 206 250 312 368
#     4   9  20  43  65  93 120 168 207 253 317 365
#
# _framework density 19.891235999999999
#
# number of rings (size 3 to 8) (size 9 to 14) (size 15 to 20)
#    0.000    2.000    2.857    3.000    6.000    1.143 
#    2.571    2.857    0.000    0.000    0.000    0.000 
#    0.000    0.000    0.000    0.000    0.000    0.000 
#
# Total GULP energy -347253.812290 kJ/mol
# GULP energy per Si atom -12401.921868 kJ/mol
# Density = 1.984596 g / cm^3
# Si number density = 19.891236 Si / 1000 Ang^3
#
#
#
# Elastic Constant Matrix: (Units=GPa)
#
#
# Indices 1 2 3 4 5 6 
#
# 1 101.1742 28.1897 70.2221 0.0000 11.0264 0.0000
# 2 28.1897 122.7848 24.3646 0.0000 -0.0974 0.0000
# 3 70.2221 24.3646 102.0912 0.0000 1.3080 0.0000
# 4 0.0000 0.0000 0.0000 15.1689 0.0000 3.6814
# 5 11.0264 -0.0974 1.3080 0.0000 46.5744 0.0000
# 6 0.0000 0.0000 0.0000 3.6814 0.0000 21.5952
#
#
#
# Elastic Compliance Matrix: (Units=1/GPa)
#
#
# Indices 1 2 3 4 5 6 
#
# 1 0.020188 -0.001988 -0.013355 0.000000 -0.004408 0.000000
# 2 -0.001988 0.008745 -0.000726 0.000000 0.000509 0.000000
# 3 -0.013355 -0.000726 0.019121 0.000000 0.002623 0.000000
# 4 0.000000 0.000000 0.000000 0.068769 0.000000 -0.011723
# 5 -0.004408 0.000509 0.002623 0.000000 0.022442 0.000000
# 6 0.000000 0.000000 0.000000 -0.011723 0.000000 0.048305
#
#
# Mechanical properties :
#
#
# Convention : Reuss Voigt Hill
#
# Bulk Modulus (GPa) = 62.83199 63.51143 63.17171
# Shear Modulus (GPa) = 22.22089 30.21928 26.22009
#
# Velocity S-wave (km/s) = 3.34596 3.90195 3.63460
# Velocity P-wave (km/s) = 6.82522 7.23180 7.03145
#
# Compressibility (1/GPa) = 0.01591546
#
# Stress axis : x y z
#
# Youngs Moduli (GPa) = 49.53554 114.34738 52.29926
#
# Poissons Ratio (x) = 0.22735 0.69844
# Poissons Ratio (y) = 0.09849 0.03797
# Poissons Ratio (z) = 0.66153 0.08302
#
# Static dielectric constant tensor:
#      x y z
#    x 3.569810 0.000000 0.232530 
#    y 0.000000 3.661900 0.000000 
#    z 0.232530 0.000000 3.677140 
# 
# 
# High freq. dielectric constant tensor:
#      x y z
#    x 1.767430 0.000000 0.012270 
#    y 0.000000 1.777090 0.000000 
#    z 0.012270 0.000000 1.779530 
# 
# From -- ./inp_files/273233.got.cif
#   From: 2010.06.25/outbox.cif.g09.slc.cpg/sg15_137_cif.got.tgz:273233.got - 2010.06.28 07:06:18.
