data_PCOD8143209
_publ_section_title
;
Structure prediction by ZEFSAII (Michael W. Deem and Ramdas Pophale) SiO2 
 PCOD8143209
Probable space group: C 2/C
;
_chemical_formula_sum "Si O2"
_cell_formula_units_Z 64
_cell_length_a 27.434019
_cell_length_b 11.531336
_cell_length_c 14.713814
_cell_angle_alpha 90.000000
_cell_angle_beta 42.868144
_cell_angle_gamma 90.000000
_cell_volume 3166.674298
_symmetry_space_group_name_H-M "C 2/C"
_symmetry_group_IT_number 15
_symmetry_cell_setting 'monoclinic'
loop_
_space_group_symop_operation_xyz
x,y,z
-x,y,1/2-z
-x,-y,-z
x,-y,1/2+z
1/2+x,1/2+y,z
1/2-x,1/2+y,1/2-z
1/2-x,1/2-y,-z
1/2+x,1/2-y,1/2+z
loop_
_atom_site_type_symbol
_atom_site_label
_atom_site_fract_x
_atom_site_fract_y
_atom_site_fract_z
Si Si1 0.922727 0.366527 0.143150
Si Si2 0.571794 0.134398 0.349745
Si Si3 0.289316 0.953968 0.579784
Si Si4 0.927027 0.810989 0.312644
Si Si5 0.341502 0.820738 0.070492
Si Si6 0.814700 0.005598 0.938424
Si Si7 0.226180 0.360242 0.709637
Si Si8 0.667838 0.746037 0.081714
O O1 0.923493 0.497749 0.179801
O O2 0.870216 0.358751 0.128917
O O3 0.890073 0.278562 0.261661
O O4 0.004130 0.333312 0.006147
O O5 0.561994 0.202838 0.269208
O O6 0.643765 0.171663 0.303231
O O7 0.221733 0.971489 0.606659
O O8 0.261571 0.942466 0.720587
O O9 0.338629 0.842774 0.488152
O O10 0.338743 0.067686 0.508541
O O11 0.891583 0.772900 0.455324
O O12 0.000000 0.866327 0.250000
O O13 0.880673 0.909715 0.326770
O O14 0.263035 0.762609 0.181798
O O15 0.846123 0.884462 0.936436
O O16 0.757768 0.069380 0.080786
O O17 0.750000 0.750000 0.000000
#
# Coordination Sequence:
#
# PCOD8143209 Si02
#       8
#     8   8   8   8   8   8   8   8
#     4  11  22  39  63  93 131 165 211 270 327 382
#     4  11  22  40  63  95 133 163 209 280 322 381
#     4  11  22  36  66  94 120 166 209 264 323 368
#     4  11  22  41  64  91 127 173 213 258 324 381
#     4  11  21  37  63  92 123 163 215 259 316 385
#     4  10  23  42  64  90 129 168 213 269 310 389
#     4  11  23  38  65  96 128 165 221 267 319 384
#     4  10  21  40  64  87 122 165 209 256 318 378
#
# _framework density 20.210477000000001
#
# number of rings (size 3 to 8) (size 9 to 14) (size 15 to 20)
#    0.000    1.250    2.500    5.250    1.750    2.000 
#    0.000    2.500    0.000    0.000    0.000    0.000 
#    0.000    0.000    0.000    0.000    0.000    0.000 
#
# Total GULP energy -396715.573521 kJ/mol
# GULP energy per Si atom -12397.361673 kJ/mol
# Density = 2.016448 g / cm^3
# Si number density = 20.210477 Si / 1000 Ang^3
#
#
#
# Elastic Constant Matrix: (Units=GPa)
#
#
# Indices 1 2 3 4 5 6 
#
# 1 105.9954 33.7671 43.9594 0.0000 -9.9008 0.0000
# 2 33.7671 112.9794 33.8876 0.0000 -12.6776 0.0000
# 3 43.9594 33.8876 101.1873 0.0000 -19.4806 0.0000
# 4 0.0000 0.0000 0.0000 29.1354 0.0000 0.7790
# 5 -9.9008 -12.6776 -19.4806 0.0000 28.6214 0.0000
# 6 0.0000 0.0000 0.0000 0.7790 0.0000 26.9388
#
#
#
# Elastic Compliance Matrix: (Units=1/GPa)
#
#
# Indices 1 2 3 4 5 6 
#
# 1 0.012001 -0.002241 -0.004437 0.000000 0.000139 0.000000
# 2 -0.002241 0.010408 -0.002041 0.000000 0.002445 0.000000
# 3 -0.004437 -0.002041 0.013837 0.000000 0.006979 0.000000
# 4 0.000000 0.000000 0.000000 0.034349 0.000000 -0.000993
# 5 0.000139 0.002445 0.006979 0.000000 0.040821 0.000000
# 6 0.000000 0.000000 0.000000 -0.000993 0.000000 0.037150
#
#
# Mechanical properties :
#
#
# Convention : Reuss Voigt Hill
#
# Bulk Modulus (GPa) = 53.16529 60.37669 56.77099
# Shear Modulus (GPa) = 29.02387 30.84232 29.93309
#
# Velocity S-wave (km/s) = 3.79368 3.91071 3.85264
# Velocity P-wave (km/s) = 6.74924 7.09439 6.92397
#
# Compressibility (1/GPa) = 0.01880926
#
# Stress axis : x y z
#
# Youngs Moduli (GPa) = 83.32565 96.08446 72.26824
#
# Poissons Ratio (x) = 0.21528 0.32062
# Poissons Ratio (y) = 0.18669 0.14752
# Poissons Ratio (z) = 0.36968 0.19614
#
# Static dielectric constant tensor:
#      x y z
#    x 3.556920 0.000000 -0.092030 
#    y 0.000000 4.166730 0.000000 
#    z -0.092030 0.000000 3.735710 
# 
# 
# High freq. dielectric constant tensor:
#      x y z
#    x 1.777400 0.000000 0.000460 
#    y 0.000000 1.797550 0.000000 
#    z 0.000460 0.000000 1.788070 
# 
# From -- ./inp_files/177811.got.cif
#   From: 2010.06.25/outbox.cif.g09.slc.cpg/sg15_89_cif.got.tgz:177811.got - 2010.06.28 07:06:18.
