data_PCOD8143259
_publ_section_title
;
Structure prediction by ZEFSAII (Michael W. Deem and Ramdas Pophale) SiO2 
 PCOD8143259
Probable space group: C 2/C
;
_chemical_formula_sum "Si O2"
_cell_formula_units_Z 52
_cell_length_a 18.444222
_cell_length_b 21.702826
_cell_length_c 8.254427
_cell_angle_alpha 90.000000
_cell_angle_beta 49.737499
_cell_angle_gamma 90.000000
_cell_volume 2521.390801
_symmetry_space_group_name_H-M "C 2/C"
_symmetry_group_IT_number 15
_symmetry_cell_setting 'monoclinic'
loop_
_space_group_symop_operation_xyz
x,y,z
-x,y,1/2-z
-x,-y,-z
x,-y,1/2+z
1/2+x,1/2+y,z
1/2-x,1/2+y,1/2-z
1/2-x,1/2-y,-z
1/2+x,1/2-y,1/2+z
loop_
_atom_site_type_symbol
_atom_site_label
_atom_site_fract_x
_atom_site_fract_y
_atom_site_fract_z
Si Si1 0.500000 0.823696 0.250000
Si Si2 0.848245 0.216029 0.904132
Si Si3 0.462045 0.274256 0.558652
Si Si4 0.692852 0.424231 0.022883
Si Si5 0.401453 0.483786 0.060322
Si Si6 0.401223 0.073614 0.086021
Si Si7 0.000000 0.120215 0.250000
Si Si8 0.500000 0.026405 0.250000
O O1 0.560432 0.781102 0.284966
O O2 0.424280 0.864051 0.457813
O O3 0.877406 0.226445 0.049413
O O4 0.934261 0.239462 0.667851
O O5 0.750000 0.250000 0.000000
O O6 0.838277 0.143970 0.886125
O O7 0.462752 0.338809 0.653794
O O8 0.621835 0.453036 0.995643
O O9 0.795638 0.425286 0.799348
O O10 0.684382 0.466632 0.194551
O O11 0.500000 0.500000 0.000000
O O12 0.413102 0.424380 0.926824
O O13 0.466484 0.069370 0.151721
O O14 0.415965 0.016684 0.941599
#
# Coordination Sequence:
#
# PCOD8143259 Si02
#       8
#     4   8   8   8   8   8   4   4
#     4  10  22  42  68  92 126 176 222 272 332 394
#     4  11  24  42  66  95 128 173 226 276 327 396
#     4  10  23  43  67  89 129 176 219 272 334 392
#     4  12  24  38  64  98 131 164 219 271 319 395
#     4  12  23  38  63  95 136 173 209 257 330 397
#     4  10  21  40  64  95 127 166 218 269 330 392
#     4  11  20  41  64  94 129 176 213 256 336 400
#     4   9  20  41  66  88 131 172 205 274 340 388
#
# _framework density 20.623539000000001
#
# number of rings (size 3 to 8) (size 9 to 14) (size 15 to 20)
#    0.000    1.231    3.077    2.769    2.154    2.462 
#    0.000   11.538    3.385    0.000    0.000    0.000 
#    0.000    0.000    0.000    0.000    0.000    0.000 
#
# Total GULP energy -322372.567919 kJ/mol
# GULP energy per Si atom -12398.944920 kJ/mol
# Density = 2.057660 g / cm^3
# Si number density = 20.623539 Si / 1000 Ang^3
#
#
#
# Elastic Constant Matrix: (Units=GPa)
#
#
# Indices 1 2 3 4 5 6 
#
# 1 104.8348 52.5119 34.6598 0.0000 4.9825 0.0000
# 2 52.5119 122.4937 39.6948 0.0000 5.9744 0.0000
# 3 34.6598 39.6948 123.3014 0.0000 0.0166 0.0000
# 4 0.0000 0.0000 0.0000 27.5356 0.0000 17.6003
# 5 4.9825 5.9744 0.0166 0.0000 34.7878 0.0000
# 6 0.0000 0.0000 0.0000 17.6003 0.0000 27.6566
#
#
#
# Elastic Compliance Matrix: (Units=1/GPa)
#
#
# Indices 1 2 3 4 5 6 
#
# 1 0.012612 -0.004699 -0.002032 0.000000 -0.000998 0.000000
# 2 -0.004699 0.010952 -0.002204 0.000000 -0.001207 0.000000
# 3 -0.002032 -0.002204 0.009391 0.000000 0.000665 0.000000
# 4 0.000000 0.000000 0.000000 0.061218 0.000000 -0.038959
# 5 -0.000998 -0.001207 0.000665 0.000000 0.029096 0.000000
# 6 0.000000 0.000000 0.000000 -0.038959 0.000000 0.060951
#
#
# Mechanical properties :
#
#
# Convention : Reuss Voigt Hill
#
# Bulk Modulus (GPa) = 66.30237 67.15144 66.72691
# Shear Modulus (GPa) = 24.14072 32.91355 28.52713
#
# Velocity S-wave (km/s) = 3.42503 3.99923 3.72322
# Velocity P-wave (km/s) = 6.91808 7.34550 7.13499
#
# Compressibility (1/GPa) = 0.01508242
#
# Stress axis : x y z
#
# Youngs Moduli (GPa) = 79.28893 91.31143 106.48423
#
# Poissons Ratio (x) = 0.42911 0.21640
# Poissons Ratio (y) = 0.37262 0.23474
# Poissons Ratio (z) = 0.16113 0.20130
#
# Static dielectric constant tensor:
#      x y z
#    x 3.674210 0.000000 0.260340 
#    y 0.000000 3.915730 0.000000 
#    z 0.260340 0.000000 4.144370 
# 
# 
# High freq. dielectric constant tensor:
#      x y z
#    x 1.790080 0.000000 0.020820 
#    y 0.000000 1.817290 0.000000 
#    z 0.020820 0.000000 1.823070 
# 
# From -- ./inp_files/50620.got.cif
#   From: 2010.06.25/outbox.cif.g09.slc.cpg/sg15_26_cif.got.tgz:50620.got - 2010.06.28 07:06:18.
