data_PCOD8143238
_publ_section_title
;
Structure prediction by ZEFSAII (Michael W. Deem and Ramdas Pophale) SiO2 
 PCOD8143238
Probable space group: C 2/C
;
_chemical_formula_sum "Si O2"
_cell_formula_units_Z 56
_cell_length_a 18.374105
_cell_length_b 9.451910
_cell_length_c 16.158856
_cell_angle_alpha 90.000000
_cell_angle_beta 108.015003
_cell_angle_gamma 90.000000
_cell_volume 2668.736781
_symmetry_space_group_name_H-M "C 2/C"
_symmetry_group_IT_number 15
_symmetry_cell_setting 'monoclinic'
loop_
_space_group_symop_operation_xyz
x,y,z
-x,y,1/2-z
-x,-y,-z
x,-y,1/2+z
1/2+x,1/2+y,z
1/2-x,1/2+y,1/2-z
1/2-x,1/2-y,-z
1/2+x,1/2-y,1/2+z
loop_
_atom_site_type_symbol
_atom_site_label
_atom_site_fract_x
_atom_site_fract_y
_atom_site_fract_z
Si Si1 0.579624 0.098701 0.411112
Si Si2 0.413828 0.600695 0.382656
Si Si3 0.345032 0.716738 0.695361
Si Si4 0.435407 0.777513 0.071065
Si Si5 0.571117 0.721413 0.609192
Si Si6 0.196780 0.728925 0.559746
Si Si7 0.089817 0.923518 0.797507
O O1 0.626773 0.147458 0.346733
O O2 0.503682 0.191750 0.391999
O O3 0.633095 0.112296 0.512154
O O4 0.557042 0.935842 0.391904
O O5 0.480215 0.716280 0.415082
O O6 0.450007 0.444818 0.406021
O O7 0.349328 0.629674 0.429361
O O8 0.372721 0.616979 0.277901
O O9 0.364018 0.741112 0.798249
O O10 0.253564 0.687862 0.654978
O O11 0.387107 0.581790 0.669351
O O12 0.387912 0.684831 0.121283
O O13 0.394453 0.774473 0.966601
O O14 0.250000 0.750000 0.500000
O O15 0.000000 0.917680 0.750000
#
# Coordination Sequence:
#
# PCOD8143238 Si02
#       7
#     8   8   8   8   8   8   8
#     4  11  22  40  61  95 125 159 202 257 317 364
#     4  10  21  40  64  92 120 164 212 253 306 364
#     4  10  22  42  63  86 124 171 210 242 306 377
#     4  11  22  37  64 100 124 152 201 269 315 353
#     4  11  22  38  66  96 116 160 214 258 302 364
#     4  10  23  40  63  84 123 168 204 246 305 373
#     4   9  20  39  65  92 120 159 213 260 305 361
#
# _framework density 20.983711
#
# number of rings (size 3 to 8) (size 9 to 14) (size 15 to 20)
#    0.000    1.714    1.429    3.857    4.000    3.429 
#    5.143    3.571    0.000    0.000    0.000    0.000 
#    0.000    0.000    0.000    0.000    0.000    0.000 
#
# Total GULP energy -347013.834979 kJ/mol
# GULP energy per Si atom -12393.351249 kJ/mol
# Density = 2.093595 g / cm^3
# Si number density = 20.983711 Si / 1000 Ang^3
#
#
#
# Elastic Constant Matrix: (Units=GPa)
#
#
# Indices 1 2 3 4 5 6 
#
# 1 49.6987 35.7405 28.7285 0.0000 -5.5256 0.0000
# 2 35.7405 140.9948 51.5652 0.0000 -9.0713 0.0000
# 3 28.7285 51.5652 125.0513 0.0000 5.7965 0.0000
# 4 0.0000 0.0000 0.0000 25.1742 0.0000 -5.4214
# 5 -5.5256 -9.0713 5.7965 0.0000 40.6904 0.0000
# 6 0.0000 0.0000 0.0000 -5.4214 0.0000 13.4867
#
#
#
# Elastic Compliance Matrix: (Units=1/GPa)
#
#
# Indices 1 2 3 4 5 6 
#
# 1 0.026456 -0.004985 -0.004165 0.000000 0.003074 0.000000
# 2 -0.004985 0.009524 -0.002868 0.000000 0.001855 0.000000
# 3 -0.004165 -0.002868 0.010260 0.000000 -0.002666 0.000000
# 4 0.000000 0.000000 0.000000 0.043488 0.000000 0.017481
# 5 0.003074 0.001855 -0.002666 0.000000 0.025787 0.000000
# 6 0.000000 0.000000 0.000000 0.017481 0.000000 0.081174
#
#
# Mechanical properties :
#
#
# Convention : Reuss Voigt Hill
#
# Bulk Modulus (GPa) = 45.03732 60.86814 52.95273
# Shear Modulus (GPa) = 21.91777 29.18431 25.55104
#
# Velocity S-wave (km/s) = 3.23540 3.73340 3.49329
# Velocity P-wave (km/s) = 5.95539 6.90324 6.44676
#
# Compressibility (1/GPa) = 0.02220381
#
# Stress axis : x y z
#
# Youngs Moduli (GPa) = 37.79927 104.99284 97.46847
#
# Poissons Ratio (x) = 0.52342 0.40591
# Poissons Ratio (y) = 0.18844 0.27955
# Poissons Ratio (z) = 0.15742 0.30113
#
# Static dielectric constant tensor:
#      x y z
#    x 3.744160 0.000000 -0.056190 
#    y 0.000000 3.653120 0.000000 
#    z -0.056190 0.000000 4.574450 
# 
# 
# High freq. dielectric constant tensor:
#      x y z
#    x 1.792840 0.000000 -0.008660 
#    y 0.000000 1.809680 0.000000 
#    z -0.008660 0.000000 1.840640 
# 
# From -- ./inp_files/209628.got.cif
#   From: 2010.06.25/outbox.cif.g09.slc.cpg/sg15_105_cif.got.tgz:209628.got - 2010.06.28 07:06:18.
