data_PCOD8143406
_publ_section_title
;
Structure prediction by ZEFSAII (Michael W. Deem and Ramdas Pophale) SiO2 
 PCOD8143406
Probable space group: C 2/C
;
_chemical_formula_sum "Si O2"
_cell_formula_units_Z 36
_cell_length_a 5.220639
_cell_length_b 23.316461
_cell_length_c 12.304577
_cell_angle_alpha 90.000000
_cell_angle_beta 100.626227
_cell_angle_gamma 90.000000
_cell_volume 1472.111441
_symmetry_space_group_name_H-M "C 2/C"
_symmetry_group_IT_number 15
_symmetry_cell_setting 'monoclinic'
loop_
_space_group_symop_operation_xyz
x,y,z
-x,y,1/2-z
-x,-y,-z
x,-y,1/2+z
1/2+x,1/2+y,z
1/2-x,1/2+y,1/2-z
1/2-x,1/2-y,-z
1/2+x,1/2-y,1/2+z
loop_
_atom_site_type_symbol
_atom_site_label
_atom_site_fract_x
_atom_site_fract_y
_atom_site_fract_z
Si Si1 0.000000 0.252432 0.250000
Si Si2 0.774352 0.175137 0.403926
Si Si3 0.368001 0.444293 0.852731
Si Si4 0.824975 0.456958 0.053349
Si Si5 0.353694 0.170474 0.545397
O O1 0.782069 0.214427 0.296172
O O2 0.845967 0.291834 0.152802
O O3 0.682230 0.110602 0.362055
O O4 0.567261 0.196939 0.477750
O O5 0.069960 0.174155 0.471121
O O6 0.500000 0.432367 0.750000
O O7 0.224664 0.506454 0.839276
O O8 0.562477 0.445183 0.968486
O O9 0.945557 0.394304 0.085935
O O10 0.000000 0.500000 0.000000
#
# Coordination Sequence:
#
# PCOD8143406 Si02
#       5
#     4   8   8   8   8
#     4  12  26  46  72 100 138 186 228 276 350 394
#     4  11  24  46  68  99 136 178 230 280 328 406
#     4  10  21  40  66  95 128 178 221 270 335 408
#     4  10  21  41  64  94 136 166 218 284 333 391
#     4  11  26  44  69 101 137 175 228 285 335 403
#
# _framework density 24.454668999999999
#
# number of rings (size 3 to 8) (size 9 to 14) (size 15 to 20)
#    0.000    1.333    3.333    1.333    0.000    6.222 
#    0.000    0.000    0.000    0.000    0.000    0.000 
#    0.000    0.000    0.000    0.000    0.000    0.000 
#
# Total GULP energy -223071.234173 kJ/mol
# GULP energy per Si atom -12392.846343 kJ/mol
# Density = 2.439901 g / cm^3
# Si number density = 24.454669 Si / 1000 Ang^3
#
#
#
# Elastic Constant Matrix: (Units=GPa)
#
#
# Indices 1 2 3 4 5 6 
#
# 1 93.7512 23.7584 24.5244 0.0000 -19.5299 0.0000
# 2 23.7584 183.0855 62.3952 0.0000 -10.6996 0.0000
# 3 24.5244 62.3952 117.1783 0.0000 -26.4799 0.0000
# 4 0.0000 0.0000 0.0000 37.7205 0.0000 -11.7188
# 5 -19.5299 -10.6996 -26.4799 0.0000 19.7608 0.0000
# 6 0.0000 0.0000 0.0000 -11.7188 0.0000 19.9055
#
#
#
# Elastic Compliance Matrix: (Units=1/GPa)
#
#
# Indices 1 2 3 4 5 6 
#
# 1 0.013685 -0.001300 0.001040 0.000000 0.014215 0.000000
# 2 -0.001300 0.006834 -0.004046 0.000000 -0.003006 0.000000
# 3 0.001040 -0.004046 0.014642 0.000000 0.018458 0.000000
# 4 0.000000 0.000000 0.000000 0.032445 0.000000 0.019101
# 5 0.014215 -0.003006 0.018458 0.000000 0.087761 0.000000
# 6 0.000000 0.000000 0.000000 0.019101 0.000000 0.061482
#
#
# Mechanical properties :
#
#
# Convention : Reuss Voigt Hill
#
# Bulk Modulus (GPa) = 37.66538 68.37456 53.01997
# Shear Modulus (GPa) = 21.33924 34.36648 27.85286
#
# Velocity S-wave (km/s) = 2.95719 3.75282 3.37851
# Velocity P-wave (km/s) = 5.20534 6.84095 6.07841
#
# Compressibility (1/GPa) = 0.02654958
#
# Stress axis : x y z
#
# Youngs Moduli (GPa) = 73.07237 146.33055 68.29704
#
# Poissons Ratio (x) = 0.19018 -0.07105
# Poissons Ratio (y) = 0.09497 0.27635
# Poissons Ratio (z) = -0.07601 0.59209
#
# Static dielectric constant tensor:
#      x y z
#    x 4.232840 0.000000 -0.296860 
#    y 0.000000 6.997710 0.000000 
#    z -0.296860 0.000000 4.414820 
# 
# 
# High freq. dielectric constant tensor:
#      x y z
#    x 1.955360 0.000000 -0.012740 
#    y 0.000000 2.006970 0.000000 
#    z -0.012740 0.000000 1.959740 
# 
# From -- ./inp_files/72464.got.cif
#   From: 2010.06.25/outbox.cif.g09.slc.cpg/sg15_37_cif.got.tgz:72464.got - 2010.06.28 07:06:18.
