data_PCOD8143442
_publ_section_title
;
Structure prediction by ZEFSAII (Michael W. Deem and Ramdas Pophale) SiO2 
 PCOD8143442
Probable space group: C 2/C
;
_chemical_formula_sum "Si O2"
_cell_formula_units_Z 64
_cell_length_a 26.892948
_cell_length_b 10.771665
_cell_length_c 20.586199
_cell_angle_alpha 90.000000
_cell_angle_beta 150.616889
_cell_angle_gamma 90.000000
_cell_volume 2925.947296
_symmetry_space_group_name_H-M "C 2/C"
_symmetry_group_IT_number 15
_symmetry_cell_setting 'monoclinic'
loop_
_space_group_symop_operation_xyz
x,y,z
-x,y,1/2-z
-x,-y,-z
x,-y,1/2+z
1/2+x,1/2+y,z
1/2-x,1/2+y,1/2-z
1/2-x,1/2-y,-z
1/2+x,1/2-y,1/2+z
loop_
_atom_site_type_symbol
_atom_site_label
_atom_site_fract_x
_atom_site_fract_y
_atom_site_fract_z
Si Si1 0.055713 0.516842 0.464192
Si Si2 0.159126 0.731629 0.651795
Si Si3 0.144518 0.262991 0.557674
Si Si4 0.646943 0.625949 0.007034
Si Si5 0.501644 0.580504 0.178811
Si Si6 0.166662 0.784864 0.800414
Si Si7 0.112982 0.629373 0.399116
Si Si8 0.837137 0.494259 0.171661
O O1 0.103554 0.602638 0.573967
O O2 0.077373 0.375494 0.508672
O O3 0.111503 0.540138 0.459457
O O4 0.936071 0.544654 0.321981
O O5 0.280783 0.710851 0.800514
O O6 0.141232 0.831157 0.574917
O O7 0.112901 0.778967 0.667717
O O8 0.069862 0.156904 0.450128
O O9 0.213733 0.308837 0.575006
O O10 0.538129 0.561205 0.868083
O O11 0.666155 0.741015 0.980090
O O12 0.737719 0.527538 0.100420
O O13 0.500000 0.631982 0.250000
O O14 0.616598 0.601193 0.283592
O O15 0.153423 0.654719 0.824440
O O16 0.172873 0.558634 0.410217
O O17 0.000000 0.662977 0.250000
#
# Coordination Sequence:
#
# PCOD8143442 Si02
#       8
#     8   8   8   8   8   8   8   8
#     4  10  21  40  67  93 124 175 216 278 324 394
#     4   9  24  43  64  94 130 171 228 268 335 392
#     4  10  23  41  62  93 133 166 221 273 332 387
#     4  11  22  44  65  97 135 177 216 279 331 392
#     4  12  26  41  67  96 136 176 216 276 330 400
#     4  10  24  41  61 101 124 181 213 267 343 378
#     4   9  21  39  64  94 130 167 221 271 330 390
#     4  11  21  37  68  98 128 168 227 273 321 393
#
# _framework density 21.873258
#
# number of rings (size 3 to 8) (size 9 to 14) (size 15 to 20)
#    0.750    1.000    2.500    0.750    5.250    3.500 
#    0.000    7.500    0.000    0.000    0.000    0.000 
#    0.000    0.000    0.000    0.000    0.000    0.000 
#
# Total GULP energy -396624.591401 kJ/mol
# GULP energy per Si atom -12394.518481 kJ/mol
# Density = 2.182347 g / cm^3
# Si number density = 21.873258 Si / 1000 Ang^3
#
#
#
# Elastic Constant Matrix: (Units=GPa)
#
#
# Indices 1 2 3 4 5 6 
#
# 1 83.4222 21.2180 -9.5780 0.0000 -6.4112 0.0000
# 2 21.2180 80.4581 10.6843 0.0000 -4.9968 0.0000
# 3 -9.5780 10.6843 34.7634 0.0000 -6.8091 0.0000
# 4 0.0000 0.0000 0.0000 32.1681 0.0000 3.7371
# 5 -6.4112 -4.9968 -6.8091 0.0000 33.6187 0.0000
# 6 0.0000 0.0000 0.0000 3.7371 0.0000 25.1458
#
#
#
# Elastic Compliance Matrix: (Units=1/GPa)
#
#
# Indices 1 2 3 4 5 6 
#
# 1 0.013981 -0.004256 0.005788 0.000000 0.003206 0.000000
# 2 -0.004256 0.014298 -0.005529 0.000000 0.000193 0.000000
# 3 0.005788 -0.005529 0.033442 0.000000 0.007055 0.000000
# 4 0.000000 0.000000 0.000000 0.031633 0.000000 -0.004701
# 5 0.003206 0.000193 0.007055 0.000000 0.031814 0.000000
# 6 0.000000 0.000000 0.000000 -0.004701 0.000000 0.040467
#
#
# Mechanical properties :
#
#
# Convention : Reuss Voigt Hill
#
# Bulk Modulus (GPa) = 18.61322 27.03248 22.82285
# Shear Modulus (GPa) = 26.10453 29.94114 28.02283
#
# Velocity S-wave (km/s) = 3.45838 3.70381 3.58319
# Velocity P-wave (km/s) = 4.94724 5.53863 5.25127
#
# Compressibility (1/GPa) = 0.05372526
#
# Stress axis : x y z
#
# Youngs Moduli (GPa) = 71.52683 69.94193 29.90263
#
# Poissons Ratio (x) = 0.29771 -0.17308
# Poissons Ratio (y) = 0.30445 0.16534
# Poissons Ratio (z) = -0.41400 0.38672
#
# Static dielectric constant tensor:
#      x y z
#    x 3.821400 0.000000 -0.016320 
#    y 0.000000 3.793680 0.000000 
#    z -0.016320 0.000000 3.958000 
# 
# 
# High freq. dielectric constant tensor:
#      x y z
#    x 1.850240 0.000000 -0.004440 
#    y 0.000000 1.849230 0.000000 
#    z -0.004440 0.000000 1.861860 
# 
# From -- ./inp_files/257534.got.cif
#   From: 2010.06.25/outbox.cif.g09.slc.cpg/sg15_129_cif.got.tgz:257534.got - 2010.06.28 07:06:18.
