data_PCOD8143970
_publ_section_title
;
Structure prediction by ZEFSAII (Michael W. Deem and Ramdas Pophale) SiO2 
 PCOD8143970
Probable space group: C 2/C
;
_chemical_formula_sum "Si O2"
_cell_formula_units_Z 64
_cell_length_a 8.600528
_cell_length_b 29.140422
_cell_length_c 22.239739
_cell_angle_alpha 90.000000
_cell_angle_beta 147.148980
_cell_angle_gamma 90.000000
_cell_volume 3023.538815
_symmetry_space_group_name_H-M "C 2/C"
_symmetry_group_IT_number 15
_symmetry_cell_setting 'monoclinic'
loop_
_space_group_symop_operation_xyz
x,y,z
-x,y,1/2-z
-x,-y,-z
x,-y,1/2+z
1/2+x,1/2+y,z
1/2-x,1/2+y,1/2-z
1/2-x,1/2-y,-z
1/2+x,1/2-y,1/2+z
loop_
_atom_site_type_symbol
_atom_site_label
_atom_site_fract_x
_atom_site_fract_y
_atom_site_fract_z
Si Si1 0.715588 0.795608 0.531695
Si Si2 0.690646 0.715904 0.682092
Si Si3 0.326794 0.070101 0.967402
Si Si4 0.117658 0.670766 0.470010
Si Si5 0.169923 0.436251 0.246740
Si Si6 0.642216 0.808135 0.730264
Si Si7 0.201671 0.649297 0.681778
Si Si8 0.331451 0.994594 0.359994
O O1 0.750000 0.750000 0.500000
O O2 0.551948 0.789908 0.543773
O O3 0.546241 0.836383 0.444491
O O4 0.024409 0.815120 0.649746
O O5 0.446176 0.688051 0.566108
O O6 0.573939 0.764965 0.664642
O O7 0.723971 0.694751 0.758484
O O8 0.000000 0.716852 0.750000
O O9 0.402057 0.049064 0.926335
O O10 0.996454 0.062546 0.872518
O O11 0.395858 0.124060 0.994919
O O12 0.501332 0.040957 0.072451
O O13 0.988210 0.656386 0.361613
O O14 0.078837 0.388762 0.186152
O O15 0.075427 0.478678 0.175250
O O16 0.000000 0.443580 0.250000
O O17 0.500000 0.807808 0.750000
O O18 0.500000 0.630022 0.750000
O O19 0.000000 0.007045 0.250000
#
# Coordination Sequence:
#
# PCOD8143970 Si02
#       8
#     8   8   8   8   8   8   8   8
#     4  12  24  41  64  88 126 167 215 271 320 380
#     4  12  24  41  66  95 126 167 215 273 324 376
#     4  10  21  41  68  92 125 163 211 262 317 385
#     4  12  25  44  66  94 130 172 217 270 324 387
#     4  11  22  38  63  98 130 161 204 260 325 382
#     4  12  28  44  60  89 130 179 223 267 324 380
#     4  12  22  41  68  95 127 163 221 267 319 379
#     4   9  20  40  66  96 123 161 209 256 316 390
#
# _framework density 21.167249000000002
#
# number of rings (size 3 to 8) (size 9 to 14) (size 15 to 20)
#    0.000    0.750    3.750    4.875    1.750    1.500 
#    0.000    1.875    0.000    0.000    0.000    0.000 
#    0.000    0.000    0.000    0.000    0.000    0.000 
#
# Total GULP energy -396459.314261 kJ/mol
# GULP energy per Si atom -12389.353571 kJ/mol
# Density = 2.111907 g / cm^3
# Si number density = 21.167249 Si / 1000 Ang^3
#
#
#
# Elastic Constant Matrix: (Units=GPa)
#
#
# Indices 1 2 3 4 5 6 
#
# 1 156.4386 33.9341 49.1465 0.0001 -6.9080 0.0001
# 2 33.9341 77.8966 37.8702 0.0000 1.6648 0.0000
# 3 49.1465 37.8702 157.0370 -0.0022 -10.3681 0.0015
# 4 0.0001 0.0000 -0.0022 22.1764 0.0000 -2.8643
# 5 -6.9080 1.6648 -10.3681 0.0000 29.2890 0.0002
# 6 0.0001 0.0000 0.0015 -2.8643 0.0002 15.6600
#
#
#
# Elastic Compliance Matrix: (Units=1/GPa)
#
#
# Indices 1 2 3 4 5 6 
#
# 1 0.007514 -0.002493 -0.001663 0.000000 0.001325 0.000000
# 2 -0.002493 0.015499 -0.003127 0.000000 -0.002576 0.000000
# 3 -0.001663 -0.003127 0.007811 0.000001 0.002551 -0.000001
# 4 0.000000 0.000000 0.000001 0.046184 0.000000 0.008447
# 5 0.001325 -0.002576 0.002551 0.000000 0.035504 -0.000001
# 6 0.000000 0.000000 -0.000001 0.008447 -0.000001 0.065402
#
#
# Mechanical properties :
#
#
# Convention : Reuss Voigt Hill
#
# Bulk Modulus (GPa) = 61.51204 70.36376 65.93790
# Shear Modulus (GPa) = 25.26517 31.45316 28.35917
#
# Velocity S-wave (km/s) = 3.45860 3.85896 3.66425
# Velocity P-wave (km/s) = 6.71359 7.29174 7.00863
#
# Compressibility (1/GPa) = 0.01625698
#
# Stress axis : x y z
#
# Youngs Moduli (GPa) = 133.08438 64.51953 128.02553
#
# Poissons Ratio (x) = 0.16086 0.21289
# Poissons Ratio (y) = 0.33181 0.40040
# Poissons Ratio (z) = 0.22130 0.20178
#
# Static dielectric constant tensor:
#      x y z
#    x 4.052860 0.000000 -0.153990 
#    y 0.000000 3.761660 0.000000 
#    z -0.153990 0.000000 4.031190 
# 
# 
# High freq. dielectric constant tensor:
#      x y z
#    x 1.830270 0.000000 -0.014980 
#    y 0.000000 1.811300 0.000000 
#    z -0.014980 0.000000 1.849580 
# 
# From -- ./inp_files/266764.got.cif
#   From: 2010.06.25/outbox.cif.g09.slc.cpg/sg15_134_cif.got.tgz:266764.got - 2010.06.28 07:06:18.
