data_PCOD8143895
_publ_section_title
;
Structure prediction by ZEFSAII (Michael W. Deem and Ramdas Pophale) SiO2 
 PCOD8143895
Probable space group: C 2/C
;
_chemical_formula_sum "Si O2"
_cell_formula_units_Z 64
_cell_length_a 15.912398
_cell_length_b 27.447257
_cell_length_c 8.956749
_cell_angle_alpha 90.000000
_cell_angle_beta 47.950775
_cell_angle_gamma 90.000000
_cell_volume 2904.839861
_symmetry_space_group_name_H-M "C 2/C"
_symmetry_group_IT_number 15
_symmetry_cell_setting 'monoclinic'
loop_
_space_group_symop_operation_xyz
x,y,z
-x,y,1/2-z
-x,-y,-z
x,-y,1/2+z
1/2+x,1/2+y,z
1/2-x,1/2+y,1/2-z
1/2-x,1/2-y,-z
1/2+x,1/2-y,1/2+z
loop_
_atom_site_type_symbol
_atom_site_label
_atom_site_fract_x
_atom_site_fract_y
_atom_site_fract_z
Si Si1 0.555914 0.704373 0.528274
Si Si2 0.584279 0.360589 0.512965
Si Si3 0.318985 0.124902 0.868478
Si Si4 0.070538 0.033038 0.020226
Si Si5 0.008559 0.293751 0.404720
Si Si6 0.879782 0.562826 0.329883
Si Si7 0.818285 0.523934 0.718436
Si Si8 0.293787 0.149628 0.234788
O O1 0.454658 0.678021 0.561390
O O2 0.579374 0.756068 0.420735
O O3 0.670191 0.673055 0.405694
O O4 0.500000 0.716816 0.750000
O O5 0.500000 0.358381 0.750000
O O6 0.710533 0.350027 0.420909
O O7 0.587668 0.413466 0.428870
O O8 0.426243 0.155723 0.691273
O O9 0.349624 0.071015 0.778053
O O10 0.298759 0.122353 0.069981
O O11 0.000000 0.041560 0.250000
O O12 0.190324 0.007747 0.911023
O O13 0.000000 0.000000 0.000000
O O14 0.000000 0.269593 0.250000
O O15 0.886953 0.306977 0.623357
O O16 0.818777 0.536142 0.541566
O O17 0.895069 0.522124 0.179947
O O18 0.815110 0.610359 0.342178
O O19 0.000000 0.580770 0.250000
#
# Coordination Sequence:
#
# PCOD8143895 Si02
#       8
#     8   8   8   8   8   8   8   8
#     4  12  28  43  68 100 135 177 224 280 338 412
#     4  10  21  41  66  94 132 178 223 274 333 400
#     4  10  22  44  73 101 137 175 227 280 338 404
#     4  10  22  37  60  91 128 169 212 271 323 388
#     4  10  25  46  71  99 131 176 225 283 346 403
#     4  12  26  44  68 100 141 180 227 278 331 398
#     4  11  24  41  69  99 134 184 222 271 331 399
#     4  11  26  46  70 100 137 177 226 284 338 404
#
# _framework density 22.032195000000002
#
# number of rings (size 3 to 8) (size 9 to 14) (size 15 to 20)
#    0.000    1.250    1.250    3.000    7.000    5.000 
#    0.000    0.000    0.000    0.000    0.000    0.000 
#    0.000    0.000    0.000    0.000    0.000    0.000 
#
# Total GULP energy -396746.875224 kJ/mol
# GULP energy per Si atom -12398.339851 kJ/mol
# Density = 2.198205 g / cm^3
# Si number density = 22.032195 Si / 1000 Ang^3
#
#
#
# Elastic Constant Matrix: (Units=GPa)
#
#
# Indices 1 2 3 4 5 6 
#
# 1 126.1549 62.4145 36.3827 0.0000 4.0329 0.0000
# 2 62.4145 102.8488 30.7721 0.0000 17.1551 0.0000
# 3 36.3827 30.7721 83.7064 0.0000 9.3854 0.0000
# 4 0.0000 0.0000 0.0000 32.6810 0.0000 5.0827
# 5 4.0329 17.1551 9.3854 0.0000 34.4876 0.0000
# 6 0.0000 0.0000 0.0000 5.0827 0.0000 56.2527
#
#
#
# Elastic Compliance Matrix: (Units=1/GPa)
#
#
# Indices 1 2 3 4 5 6 
#
# 1 0.012146 -0.006935 -0.003050 0.000000 0.002860 0.000000
# 2 -0.006935 0.015599 -0.002002 0.000000 -0.006403 0.000000
# 3 -0.003050 -0.002002 0.014293 0.000000 -0.002537 0.000000
# 4 0.000000 0.000000 0.000000 0.031035 0.000000 -0.002804
# 5 0.002860 -0.006403 -0.002537 0.000000 0.032537 0.000000
# 6 0.000000 0.000000 0.000000 -0.002804 0.000000 0.018030
#
#
# Mechanical properties :
#
#
# Convention : Reuss Voigt Hill
#
# Bulk Modulus (GPa) = 55.36371 63.53875 59.45123
# Shear Modulus (GPa) = 32.54425 36.89365 34.71895
#
# Velocity S-wave (km/s) = 3.84750 4.09655 3.97398
# Velocity P-wave (km/s) = 6.70230 7.16081 6.93535
#
# Compressibility (1/GPa) = 0.01806237
#
# Stress axis : x y z
#
# Youngs Moduli (GPa) = 82.32941 64.10703 69.96524
#
# Poissons Ratio (x) = 0.44461 0.21342
# Poissons Ratio (y) = 0.57099 0.14007
# Poissons Ratio (z) = 0.25114 0.12835
#
# Static dielectric constant tensor:
#      x y z
#    x 1.713330 0.000000 0.061270 
#    y 0.000000 3.644050 0.000000 
#    z 0.061270 0.000000 4.028730 
# 
# 
# High freq. dielectric constant tensor:
#      x y z
#    x 1.876040 0.000000 -0.004530 
#    y 0.000000 1.866130 0.000000 
#    z -0.004530 0.000000 1.868650 
# 
# From -- ./inp_files/44834.got.cif
#   From: 2010.06.25/outbox.cif.g09.slc.cpg/sg15_23_cif.got.tgz:44834.got - 2010.06.28 07:06:18.
