data_PCOD8143504
_publ_section_title
;
Structure prediction by ZEFSAII (Michael W. Deem and Ramdas Pophale) SiO2 
 PCOD8143504
Probable space group: C 2/C
;
_chemical_formula_sum "Si O2"
_cell_formula_units_Z 56
_cell_length_a 23.912626
_cell_length_b 9.136043
_cell_length_c 13.889449
_cell_angle_alpha 90.000000
_cell_angle_beta 122.421059
_cell_angle_gamma 90.000000
_cell_volume 2561.416692
_symmetry_space_group_name_H-M "C 2/C"
_symmetry_group_IT_number 15
_symmetry_cell_setting 'monoclinic'
loop_
_space_group_symop_operation_xyz
x,y,z
-x,y,1/2-z
-x,-y,-z
x,-y,1/2+z
1/2+x,1/2+y,z
1/2-x,1/2+y,1/2-z
1/2-x,1/2-y,-z
1/2+x,1/2-y,1/2+z
loop_
_atom_site_type_symbol
_atom_site_label
_atom_site_fract_x
_atom_site_fract_y
_atom_site_fract_z
Si Si1 0.791479 0.500388 0.692361
Si Si2 0.579610 0.180399 0.645284
Si Si3 0.436052 0.498781 0.372748
Si Si4 0.423432 0.141900 0.067346
Si Si5 0.000000 0.590675 0.750000
Si Si6 0.000000 0.882860 0.250000
Si Si7 0.306099 0.337589 0.268118
Si Si8 0.723590 0.893393 0.023108
O O1 0.861126 0.570714 0.781994
O O2 0.731383 0.602185 0.672628
O O3 0.792160 0.334921 0.736657
O O4 0.784698 0.509596 0.570183
O O5 0.603143 0.347963 0.653016
O O6 0.545740 0.131576 0.512113
O O7 0.528362 0.183677 0.687118
O O8 0.500000 0.500000 0.500000
O O9 0.458117 0.483060 0.282833
O O10 0.384763 0.368167 0.352390
O O11 0.448204 0.288534 0.140955
O O12 0.344446 0.142235 0.984311
O O13 0.442052 0.007027 0.151982
O O14 0.277138 0.437550 0.153604
O O15 0.750000 0.750000 0.000000
#
# Coordination Sequence:
#
# PCOD8143504 Si02
#       8
#     8   8   8   8   4   4   8   8
#     4  11  23  45  74 103 141 179 235 291 346 427
#     4  12  24  45  70 101 143 182 237 292 356 410
#     4  12  27  45  68 104 141 188 237 295 351 421
#     4  11  22  41  71 100 137 189 231 284 356 425
#     4  11  25  40  68 106 138 178 238 300 342 418
#     4  11  23  44  68 100 138 186 238 280 356 426
#     4  11  25  43  70 102 136 185 235 282 356 417
#     4  10  21  40  68  99 132 181 228 279 343 420
#
# _framework density 21.862901999999998
#
# number of rings (size 3 to 8) (size 9 to 14) (size 15 to 20)
#    0.000    0.857    4.286    3.429    4.000    2.286 
#    0.000    4.286    0.000    0.000    0.000    0.000 
#    0.000    0.000    0.000    0.000    0.000    0.000 
#
# Total GULP energy -347073.453807 kJ/mol
# GULP energy per Si atom -12395.480493 kJ/mol
# Density = 2.181314 g / cm^3
# Si number density = 21.862902 Si / 1000 Ang^3
#
#
#
# Elastic Constant Matrix: (Units=GPa)
#
#
# Indices 1 2 3 4 5 6 
#
# 1 122.8236 24.9396 44.4610 0.0000 -9.9849 0.0000
# 2 24.9396 88.3404 23.3762 0.0000 0.7390 0.0000
# 3 44.4610 23.3762 131.2888 0.0000 -9.8611 0.0000
# 4 0.0000 0.0000 0.0000 7.4824 0.0000 -13.2351
# 5 -9.9849 0.7390 -9.8611 0.0000 47.2104 0.0000
# 6 0.0000 0.0000 0.0000 -13.2351 0.0000 33.0943
#
#
#
# Elastic Compliance Matrix: (Units=1/GPa)
#
#
# Indices 1 2 3 4 5 6 
#
# 1 0.009688 -0.002003 -0.002812 0.000000 0.001493 0.000000
# 2 -0.002003 0.012313 -0.001585 0.000000 -0.000948 0.000000
# 3 -0.002812 -0.001585 0.008949 0.000000 0.001299 0.000000
# 4 0.000000 0.000000 0.000000 0.456738 0.000000 0.182659
# 5 0.001493 -0.000948 0.001299 0.000000 0.021784 0.000000
# 6 0.000000 0.000000 0.000000 0.182659 0.000000 0.103266
#
#
# Mechanical properties :
#
#
# Convention : Reuss Voigt Hill
#
# Bulk Modulus (GPa) = 55.10026 58.66736 56.88381
# Shear Modulus (GPa) = 7.91656 34.20249 21.05952
#
# Velocity S-wave (km/s) = 1.90496 3.95955 3.10700
# Velocity P-wave (km/s) = 5.48597 6.91350 6.24069
#
# Compressibility (1/GPa) = 0.01814874
#
# Stress axis : x y z
#
# Youngs Moduli (GPa) = 103.22246 81.21640 111.74599
#
# Poissons Ratio (x) = 0.16271 0.31422
# Poissons Ratio (y) = 0.20680 0.17712
# Poissons Ratio (z) = 0.29025 0.12873
#
# Static dielectric constant tensor:
#      x y z
#    x 4.174900 0.000000 -0.606780 
#    y 0.000000 3.847510 0.000000 
#    z -0.606780 0.000000 5.020220 
# 
# 
# High freq. dielectric constant tensor:
#      x y z
#    x 1.866380 0.000000 -0.012100 
#    y 0.000000 1.846270 0.000000 
#    z -0.012100 0.000000 1.871200 
# 
# From -- ./inp_files/172317.got.cif
#   From: 2010.06.25/outbox.cif.g09.slc.cpg/sg15_87_cif.got.tgz:172317.got - 2010.06.28 07:06:18.
