data_PCOD8143953
_publ_section_title
;
Structure prediction by ZEFSAII (Michael W. Deem and Ramdas Pophale) SiO2 
 PCOD8143953
Probable space group: C 2/C
;
_chemical_formula_sum "Si O2"
_cell_formula_units_Z 60
_cell_length_a 12.304774
_cell_length_b 8.356785
_cell_length_c 27.149787
_cell_angle_alpha 90.000000
_cell_angle_beta 105.324425
_cell_angle_gamma 90.000000
_cell_volume 2692.506077
_symmetry_space_group_name_H-M "C 2/C"
_symmetry_group_IT_number 15
_symmetry_cell_setting 'monoclinic'
loop_
_space_group_symop_operation_xyz
x,y,z
-x,y,1/2-z
-x,-y,-z
x,-y,1/2+z
1/2+x,1/2+y,z
1/2-x,1/2+y,1/2-z
1/2-x,1/2-y,-z
1/2+x,1/2-y,1/2+z
loop_
_atom_site_type_symbol
_atom_site_label
_atom_site_fract_x
_atom_site_fract_y
_atom_site_fract_z
Si Si1 0.456381 0.877592 0.325176
Si Si2 0.785931 0.055837 0.685592
Si Si3 0.424960 0.847059 0.980564
Si Si4 0.048145 0.298420 0.809541
Si Si5 0.000000 0.122414 0.250000
Si Si6 0.937378 0.789034 0.923256
Si Si7 0.755473 0.057858 0.574233
Si Si8 0.006308 0.133897 0.598668
O O1 0.483673 0.725123 0.296396
O O2 0.469408 0.830881 0.383154
O O3 0.330387 0.943958 0.297754
O O4 0.545537 0.015951 0.323301
O O5 0.886523 0.979186 0.729041
O O6 0.768079 0.975660 0.629985
O O7 0.821742 0.240406 0.676874
O O8 0.297235 0.916360 0.966173
O O9 0.445903 0.775504 0.928951
O O10 0.456857 0.715742 0.025811
O O11 0.500000 0.000000 0.000000
O O12 0.983051 0.188666 0.842732
O O13 0.000000 0.265340 0.750000
O O14 0.823099 0.718618 0.933960
O O15 0.922945 0.970596 0.902210
O O16 0.876349 0.106474 0.567425
#
# Coordination Sequence:
#
# PCOD8143953 Si02
#       8
#     8   8   8   8   4   8   8   8
#     4  11  24  43  62  90 127 162 206 263 306 372
#     4  10  23  40  62  88 125 161 207 256 310 367
#     4  10  21  41  67  95 129 165 207 258 313 374
#     4  11  22  41  62  90 123 165 210 250 315 370
#     4  12  24  38  64  90 118 164 212 252 310 368
#     4  10  22  41  65  96 125 163 212 254 313 373
#     4   9  21  42  62  92 126 163 210 250 315 376
#     4  11  22  41  66  89 133 165 203 269 303 366
#
# _framework density 22.284071999999998
#
# number of rings (size 3 to 8) (size 9 to 14) (size 15 to 20)
#    0.000    1.600    1.333    4.400    1.867    2.667 
#    0.000   16.000    0.000    0.000    0.000    0.000 
#    0.000    0.000    0.000    0.000    0.000    0.000 
#
# Total GULP energy -371803.598333 kJ/mol
# GULP energy per Si atom -12393.453278 kJ/mol
# Density = 2.223335 g / cm^3
# Si number density = 22.284072 Si / 1000 Ang^3
#
#
#
# Elastic Constant Matrix: (Units=GPa)
#
#
# Indices 1 2 3 4 5 6 
#
# 1 72.1914 24.2168 3.9466 0.0000 5.8781 0.0000
# 2 24.2168 112.6706 25.6073 0.0000 0.3319 0.0000
# 3 3.9466 25.6073 86.8229 0.0000 7.7236 0.0000
# 4 0.0000 0.0000 0.0000 33.9714 0.0000 -2.7371
# 5 5.8781 0.3319 7.7236 0.0000 23.4027 0.0000
# 6 0.0000 0.0000 0.0000 -2.7371 0.0000 28.9941
#
#
#
# Elastic Compliance Matrix: (Units=1/GPa)
#
#
# Indices 1 2 3 4 5 6 
#
# 1 0.015292 -0.003428 0.000673 0.000000 -0.004014 0.000000
# 2 -0.003428 0.010297 -0.003034 0.000000 0.001716 0.000000
# 3 0.000673 -0.003034 0.012768 0.000000 -0.004340 0.000000
# 4 0.000000 0.000000 0.000000 0.029662 0.000000 0.002800
# 5 -0.004014 0.001716 -0.004340 0.000000 0.045146 0.000000
# 6 0.000000 0.000000 0.000000 0.002800 0.000000 0.034754
#
#
# Mechanical properties :
#
#
# Convention : Reuss Voigt Hill
#
# Bulk Modulus (GPa) = 37.34213 42.13625 39.73919
# Shear Modulus (GPa) = 29.68718 31.80126 30.74422
#
# Velocity S-wave (km/s) = 3.65391 3.78178 3.71839
# Velocity P-wave (km/s) = 5.88176 6.16594 6.02553
#
# Compressibility (1/GPa) = 0.02677940
#
# Stress axis : x y z
#
# Youngs Moduli (GPa) = 65.39341 97.11900 78.32127
#
# Poissons Ratio (x) = 0.33292 -0.05271
# Poissons Ratio (y) = 0.22416 0.23760
# Poissons Ratio (z) = -0.04401 0.29463
#
# Static dielectric constant tensor:
#      x y z
#    x 4.056540 0.000000 0.230670 
#    y 0.000000 4.045670 0.000000 
#    z 0.230670 0.000000 4.386470 
# 
# 
# High freq. dielectric constant tensor:
#      x y z
#    x 1.857970 0.000000 0.005830 
#    y 0.000000 1.875350 0.000000 
#    z 0.005830 0.000000 1.886520 
# 
# From -- ./inp_files/310024.got.cif
#   From: 2010.06.25/outbox.cif.g09.slc.cpg/sg15_156_cif.got.tgz:310024.got - 2010.06.28 07:06:18.
