data_PCOD8143017
_publ_section_title
;
Structure prediction by ZEFSAII (Michael W. Deem and Ramdas Pophale) SiO2 
 PCOD8143017
Probable space group: C 2/C
;
_chemical_formula_sum "Si O2"
_cell_formula_units_Z 40
_cell_length_a 8.602479
_cell_length_b 25.255368
_cell_length_c 10.059607
_cell_angle_alpha 90.000000
_cell_angle_beta 89.999977
_cell_angle_gamma 90.000000
_cell_volume 2185.537872
_symmetry_space_group_name_H-M "C 2/C"
_symmetry_group_IT_number 15
_symmetry_cell_setting 'monoclinic'
loop_
_space_group_symop_operation_xyz
x,y,z
-x,y,1/2-z
-x,-y,-z
x,-y,1/2+z
1/2+x,1/2+y,z
1/2-x,1/2+y,1/2-z
1/2-x,1/2-y,-z
1/2+x,1/2-y,1/2+z
loop_
_atom_site_type_symbol
_atom_site_label
_atom_site_fract_x
_atom_site_fract_y
_atom_site_fract_z
Si Si1 0.179971 0.711693 0.250000
Si Si2 1.000000 0.048709 0.401119
Si Si3 0.172164 0.854151 0.978328
Si Si4 0.817875 0.673748 0.750000
Si Si5 0.172164 0.145849 0.021672
O O1 0.281789 0.764249 0.250000
O O2 0.217251 0.678268 0.380896
O O3 0.000000 0.727142 0.250000
O O4 0.217251 0.678268 0.119105
O O5 0.847048 0.085173 0.427542
O O6 0.000000 0.027805 0.250000
O O7 0.152952 0.085172 0.427542
O O8 0.000000 0.000000 0.500000
O O9 0.245927 0.855202 0.123160
O O10 0.000000 0.827052 0.982498
O O11 0.745926 0.644798 0.876840
O O12 0.000000 0.664716 0.750000
#
# Coordination Sequence:
#
# PCOD8143017 Si02
#       5
#     8   8   8   8   8
#     4  12  22  38  60  87 129 173 207 250 314 369
#     4  10  22  40  72  96 120 156 214 268 313 366
#     4  10  21  40  59  90 124 156 211 258 305 366
#     4  12  24  36  58  91 129 171 211 248 304 377
#     4  10  21  40  59  90 124 156 211 258 305 366
#
# _framework density 18.302132
#
# number of rings (size 3 to 8) (size 9 to 14) (size 15 to 20)
#    1.200    0.000    2.000    6.000    2.800    0.000 
#    0.000    0.000    0.000    7.200    0.000    0.000 
#    0.000    0.000    0.000    0.000    0.000    0.000 
#
# Total GULP energy -247966.870313 kJ/mol
# GULP energy per Si atom -12398.343516 kJ/mol
# Density = 1.826048 g / cm^3
# Si number density = 18.302132 Si / 1000 Ang^3
#
#
#
# Elastic Constant Matrix: (Units=GPa)
#
#
# Indices 1 2 3 4 5 6 
#
# 1 85.3060 5.8124 31.6168 0.0000 0.0003 0.0000
# 2 5.8124 86.2870 41.0660 0.0000 0.0000 0.0000
# 3 31.6168 41.0660 171.5010 0.0000 0.0002 0.0000
# 4 0.0000 0.0000 0.0000 27.0757 0.0000 0.0001
# 5 0.0003 0.0000 0.0002 0.0000 35.8300 0.0000
# 6 0.0000 0.0000 0.0000 0.0001 0.0000 16.1625
#
#
#
# Elastic Compliance Matrix: (Units=1/GPa)
#
#
# Indices 1 2 3 4 5 6 
#
# 1 0.012589 0.000290 -0.002390 0.000000 0.000000 0.000000
# 2 0.000290 0.013086 -0.003187 0.000000 0.000000 0.000000
# 3 -0.002390 -0.003187 0.007035 0.000000 0.000000 0.000000
# 4 0.000000 0.000000 0.000000 0.036933 0.000000 0.000000
# 5 0.000000 0.000000 0.000000 0.000000 0.027910 0.000000
# 6 0.000000 0.000000 0.000000 0.000000 0.000000 0.061872
#
#
# Mechanical properties :
#
#
# Convention : Reuss Voigt Hill
#
# Bulk Modulus (GPa) = 45.17801 55.56494 50.37148
# Shear Modulus (GPa) = 28.18847 33.45357 30.82102
#
# Velocity S-wave (km/s) = 3.92876 4.27998 4.10812
# Velocity P-wave (km/s) = 6.73189 7.40608 7.07702
#
# Compressibility (1/GPa) = 0.02213466
#
# Stress axis : x y z
#
# Youngs Moduli (GPa) = 79.43690 76.41482 142.15447
#
# Poissons Ratio (x) = -0.02212 0.33976
# Poissons Ratio (y) = -0.02300 0.45304
# Poissons Ratio (z) = 0.18986 0.24353
#
# Static dielectric constant tensor:
#      x y z
#    x 3.273550 0.000000 0.000000 
#    y 0.000000 3.119650 0.000000 
#    z 0.000000 0.000000 3.525570 
# 
# 
# High freq. dielectric constant tensor:
#      x y z
#    x 1.700410 0.000000 0.000000 
#    y 0.000000 1.687170 0.000000 
#    z 0.000000 0.000000 1.734730 
# 
# From -- ./inp_files/25088.got.cif
#   From: 2010.06.25/outbox.cif.g09.slc.cpg/sg15_13_cif.got.tgz:25088.got - 2010.06.28 07:06:18.
