data_PCOD8143364
_publ_section_title
;
Structure prediction by ZEFSAII (Michael W. Deem and Ramdas Pophale) SiO2 
 PCOD8143364
Probable space group: C 2/C
;
_chemical_formula_sum "Si O2"
_cell_formula_units_Z 56
_cell_length_a 20.232596
_cell_length_b 8.215384
_cell_length_c 16.726378
_cell_angle_alpha 90.000000
_cell_angle_beta 49.770165
_cell_angle_gamma 90.000000
_cell_volume 2122.597127
_symmetry_space_group_name_H-M "C 2/C"
_symmetry_group_IT_number 15
_symmetry_cell_setting 'monoclinic'
loop_
_space_group_symop_operation_xyz
x,y,z
-x,y,1/2-z
-x,-y,-z
x,-y,1/2+z
1/2+x,1/2+y,z
1/2-x,1/2+y,1/2-z
1/2-x,1/2-y,-z
1/2+x,1/2-y,1/2+z
loop_
_atom_site_type_symbol
_atom_site_label
_atom_site_fract_x
_atom_site_fract_y
_atom_site_fract_z
Si Si1 0.631874 0.674295 0.156909
Si Si2 0.164962 0.349192 0.981995
Si Si3 0.901565 0.173339 0.757556
Si Si4 0.654381 0.788919 0.541268
Si Si5 0.793901 0.674694 0.220571
Si Si6 0.625078 0.830399 0.315986
Si Si7 0.533782 0.337088 0.016865
O O1 0.734198 0.656782 0.077165
O O2 0.585682 0.507281 0.218038
O O3 0.595602 0.809036 0.247322
O O4 0.608166 0.735561 0.085977
O O5 0.150116 0.282480 0.903445
O O6 0.139793 0.538060 0.010696
O O7 0.907652 0.285254 0.831646
O O8 0.810586 0.200734 0.781368
O O9 0.968625 0.226360 0.636182
O O10 0.750000 0.750000 0.500000
O O11 0.624529 0.653332 0.497709
O O12 0.691630 0.680097 0.282343
O O13 0.820794 0.493969 0.223032
O O14 0.545203 0.803355 0.439557
O O15 0.500000 0.500000 0.000000
#
# Coordination Sequence:
#
# PCOD8143364 Si02
#       7
#     8   8   8   8   8   8   8
#     4  10  21  40  66 106 147 190 257 326 392 464
#     4  10  21  41  69 109 146 190 264 331 388 458
#     4  12  25  44  70 106 153 205 257 324 410 486
#     4  12  24  47  77 107 148 206 269 324 393 482
#     4  11  23  43  75 108 147 201 265 338 393 481
#     4  11  22  43  71 106 148 196 264 324 399 477
#     4  12  27  46  75 110 160 205 254 326 415 488
#
# _framework density 26.382774999999999
#
# number of rings (size 3 to 8) (size 9 to 14) (size 15 to 20)
#    0.000    0.857    4.286    3.857    0.000    1.714 
#    0.000    0.000    0.000    0.000    0.000    0.000 
#    0.000    0.000    0.000    0.000    0.000    0.000 
#
# Total GULP energy -346906.205162 kJ/mol
# GULP energy per Si atom -12389.507327 kJ/mol
# Density = 2.632273 g / cm^3
# Si number density = 26.382775 Si / 1000 Ang^3
#
#
#
# Elastic Constant Matrix: (Units=GPa)
#
#
# Indices 1 2 3 4 5 6 
#
# 1 72.9293 20.1858 16.4981 0.0001 32.6416 0.0000
# 2 20.1858 99.1445 35.7736 -0.0005 17.6788 -0.0003
# 3 16.4981 35.7736 154.3532 -0.0003 39.8704 0.0003
# 4 0.0001 -0.0005 -0.0003 46.5671 0.0001 11.4400
# 5 32.6416 17.6788 39.8704 0.0001 56.0733 0.0000
# 6 0.0000 -0.0003 0.0003 11.4400 0.0000 29.8520
#
#
#
# Elastic Compliance Matrix: (Units=1/GPa)
#
#
# Indices 1 2 3 4 5 6 
#
# 1 0.019163 -0.002389 0.001461 0.000000 -0.011441 0.000000
# 2 -0.002389 0.011496 -0.002244 0.000000 -0.000638 0.000000
# 3 0.001461 -0.002244 0.008427 0.000000 -0.006135 0.000000
# 4 0.000000 0.000000 0.000000 0.023706 0.000000 -0.009085
# 5 -0.011441 -0.000638 -0.006135 0.000000 0.029057 0.000000
# 6 0.000000 0.000000 0.000000 -0.009085 0.000000 0.036980
#
#
# Mechanical properties :
#
#
# Convention : Reuss Voigt Hill
#
# Bulk Modulus (GPa) = 30.54151 52.37133 41.45642
# Shear Modulus (GPa) = 34.22571 43.42978 38.82774
#
# Velocity S-wave (km/s) = 3.60568 4.06167 3.84045
# Velocity P-wave (km/s) = 5.37922 6.47224 5.95088
#
# Compressibility (1/GPa) = 0.03274232
#
# Stress axis : x y z
#
# Youngs Moduli (GPa) = 52.18309 86.98534 118.66141
#
# Poissons Ratio (x) = 0.20777 -0.17331
# Poissons Ratio (y) = 0.12464 0.26630
# Poissons Ratio (z) = -0.07622 0.19521
#
# Static dielectric constant tensor:
#      x y z
#    x 4.989400 0.000000 0.495500 
#    y 0.000000 4.371610 0.000000 
#    z 0.495500 0.000000 5.411960 
# 
# 
# High freq. dielectric constant tensor:
#      x y z
#    x 2.054710 0.000000 0.026040 
#    y 0.000000 2.029150 0.000000 
#    z 0.026040 0.000000 2.084950 
# 
# From -- ./inp_files/218538.got.cif
#   From: 2010.06.25/outbox.cif.g09.slc.cpg/sg15_110_cif.got.tgz:218538.got - 2010.06.28 07:06:18.
