data_PCOD8143135
_publ_section_title
;
Structure prediction by ZEFSAII (Michael W. Deem and Ramdas Pophale) SiO2 
 PCOD8143135
Probable space group: C 2/C
;
_chemical_formula_sum "Si O2"
_cell_formula_units_Z 56
_cell_length_a 21.395967
_cell_length_b 26.166426
_cell_length_c 8.791757
_cell_angle_alpha 90.000000
_cell_angle_beta 35.610363
_cell_angle_gamma 90.000000
_cell_volume 2866.001651
_symmetry_space_group_name_H-M "C 2/C"
_symmetry_group_IT_number 15
_symmetry_cell_setting 'monoclinic'
loop_
_space_group_symop_operation_xyz
x,y,z
-x,y,1/2-z
-x,-y,-z
x,-y,1/2+z
1/2+x,1/2+y,z
1/2-x,1/2+y,1/2-z
1/2-x,1/2-y,-z
1/2+x,1/2-y,1/2+z
loop_
_atom_site_type_symbol
_atom_site_label
_atom_site_fract_x
_atom_site_fract_y
_atom_site_fract_z
Si Si1 0.020840 0.053908 0.884943
Si Si2 0.486713 0.156290 0.597145
Si Si3 0.957345 0.449118 0.664006
Si Si4 0.218931 0.699546 0.644974
Si Si5 0.187025 0.702093 0.053530
Si Si6 0.774259 0.089718 0.872284
Si Si7 0.899444 0.877828 0.850901
O O1 0.000000 0.051222 0.750000
O O2 0.144199 0.070212 0.661574
O O3 0.938974 0.093491 0.122959
O O4 0.000000 0.000000 0.000000
O O5 0.500000 0.159356 0.750000
O O6 0.503457 0.098672 0.510439
O O7 0.366517 0.169728 0.787618
O O8 0.569217 0.196761 0.359619
O O9 0.000000 0.444884 0.750000
O O10 0.000000 0.500000 0.500000
O O11 0.828282 0.447444 0.922895
O O12 0.250000 0.750000 0.500000
O O13 0.329710 0.669287 0.434562
O O14 0.171083 0.711042 0.905890
O O15 0.250000 0.750000 0.000000
O O16 0.249511 0.649004 0.958587
O O17 0.828454 0.084709 0.598284
O O18 0.000000 0.857029 0.750000
#
# Coordination Sequence:
#
# PCOD8143135 Si02
#       7
#     8   8   8   8   8   8   8
#     4  11  23  38  60  87 116 152 194 239 291 348
#     4  11  23  40  60  87 121 157 201 247 293 354
#     4  11  23  40  62  89 119 156 198 245 301 359
#     4  11  23  38  61  90 120 158 196 242 301 356
#     4  10  21  40  63  86 118 157 197 247 299 353
#     4   9  21  40  60  85 117 153 194 241 290 344
#     4   9  20  40  60  82 117 155 195 243 291 346
#
# _framework density 19.539415999999999
#
# number of rings (size 3 to 8) (size 9 to 14) (size 15 to 20)
#    0.000    1.714    0.000    5.571    0.000   10.857 
#    0.000    0.000    0.000    0.000    0.000    0.000 
#    0.000    0.000    0.000    0.000    0.000    0.000 
#
# Total GULP energy -347253.882369 kJ/mol
# GULP energy per Si atom -12401.924370 kJ/mol
# Density = 1.949494 g / cm^3
# Si number density = 19.539416 Si / 1000 Ang^3
#
#
#
# Elastic Constant Matrix: (Units=GPa)
#
#
# Indices 1 2 3 4 5 6 
#
# 1 176.0276 72.2576 85.8774 0.0000 10.1046 0.0000
# 2 72.2576 108.2544 68.8470 0.0000 -4.2826 0.0000
# 3 85.8774 68.8470 144.4953 0.0000 -6.4745 0.0000
# 4 0.0000 0.0000 0.0000 31.3402 0.0000 1.6867
# 5 10.1046 -4.2826 -6.4745 0.0000 40.9755 0.0000
# 6 0.0000 0.0000 0.0000 1.6867 0.0000 34.7303
#
#
#
# Elastic Compliance Matrix: (Units=1/GPa)
#
#
# Indices 1 2 3 4 5 6 
#
# 1 0.009360 -0.003941 -0.003834 0.000000 -0.003326 0.000000
# 2 -0.003941 0.014919 -0.004686 0.000000 0.001791 0.000000
# 3 -0.003834 -0.004686 0.011534 0.000000 0.002278 0.000000
# 4 0.000000 0.000000 0.000000 0.031992 0.000000 -0.001554
# 5 -0.003326 0.001791 0.002278 0.000000 0.025772 0.000000
# 6 0.000000 0.000000 0.000000 -0.001554 0.000000 0.028869
#
#
# Mechanical properties :
#
#
# Convention : Reuss Voigt Hill
#
# Bulk Modulus (GPa) = 91.81814 98.08235 94.95025
# Shear Modulus (GPa) = 33.11294 34.86221 33.98757
#
# Velocity S-wave (km/s) = 4.12111 4.22856 4.17518
# Velocity P-wave (km/s) = 8.35093 8.61087 8.48189
#
# Compressibility (1/GPa) = 0.01089109
#
# Stress axis : x y z
#
# Youngs Moduli (GPa) = 106.83614 67.02929 86.69766
#
# Poissons Ratio (x) = 0.26414 0.33243
# Poissons Ratio (y) = 0.42101 0.40627
# Poissons Ratio (z) = 0.40965 0.31410
#
# Static dielectric constant tensor:
#      x y z
#    x 4.524500 0.000000 -0.674920 
#    y 0.000000 3.553290 0.000000 
#    z -0.674920 0.000000 4.162250 
# 
# 
# High freq. dielectric constant tensor:
#      x y z
#    x 1.771540 0.000000 -0.002010 
#    y 0.000000 1.758980 0.000000 
#    z -0.002010 0.000000 1.777210 
# 
# From -- ./inp_files/52297.got.cif
#   From: 2010.06.25/outbox.cif.g09.slc.cpg/sg15_27_cif.got.tgz:52297.got - 2010.06.28 07:06:18.
