data_PCOD8143754
_publ_section_title
;
Structure prediction by ZEFSAII (Michael W. Deem and Ramdas Pophale) SiO2 
 PCOD8143754
Probable space group: C 2/C
;
_chemical_formula_sum "Si O2"
_cell_formula_units_Z 52
_cell_length_a 26.253639
_cell_length_b 11.893970
_cell_length_c 11.317083
_cell_angle_alpha 90.000000
_cell_angle_beta 137.830382
_cell_angle_gamma 90.000000
_cell_volume 2372.386247
_symmetry_space_group_name_H-M "C 2/C"
_symmetry_group_IT_number 15
_symmetry_cell_setting 'monoclinic'
loop_
_space_group_symop_operation_xyz
x,y,z
-x,y,1/2-z
-x,-y,-z
x,-y,1/2+z
1/2+x,1/2+y,z
1/2-x,1/2+y,1/2-z
1/2-x,1/2-y,-z
1/2+x,1/2-y,1/2+z
loop_
_atom_site_type_symbol
_atom_site_label
_atom_site_fract_x
_atom_site_fract_y
_atom_site_fract_z
Si Si1 0.843021 0.134990 0.617654
Si Si2 0.096973 0.636813 0.986258
Si Si3 0.127463 0.710736 0.787025
Si Si4 0.234460 0.764744 0.289156
Si Si5 0.000000 0.563588 0.250000
Si Si6 0.732149 0.602135 0.548301
Si Si7 0.977574 0.268315 0.910907
O O1 0.802874 0.166992 0.669478
O O2 0.816822 0.220137 0.468814
O O3 0.934327 0.154078 0.791604
O O4 0.815945 0.011771 0.535467
O O5 0.185988 0.652238 0.170125
O O6 0.052198 0.699643 0.011733
O O7 0.082502 0.694158 0.833096
O O8 0.067652 0.509380 0.925838
O O9 0.180460 0.599679 0.850782
O O10 0.068256 0.742205 0.580972
O O11 0.183939 0.815454 0.882807
O O12 0.239024 0.853110 0.192510
O O13 0.039180 0.636014 0.214663
#
# Coordination Sequence:
#
# PCOD8143754 Si02
#       7
#     8   8   8   8   4   8   8
#     4  10  23  42  63  91 127 173 209 261 336 378
#     4  10  21  41  64  90 125 170 211 266 328 377
#     4  10  22  41  65  97 127 164 223 268 311 396
#     4   9  22  41  63  89 127 165 220 263 308 405
#     4  12  24  36  64  98 124 168 208 278 334 366
#     4  10  23  41  66  94 127 173 213 265 327 382
#     4  11  24  40  61  95 133 161 219 272 321 398
#
# _framework density 21.918858
#
# number of rings (size 3 to 8) (size 9 to 14) (size 15 to 20)
#    0.000    1.846    1.538    0.462    4.308    6.769 
#    0.000    0.000    3.385    0.000    0.000    0.000 
#    0.000    0.000    0.000    0.000    0.000    0.000 
#
# Total GULP energy -322119.740160 kJ/mol
# GULP energy per Si atom -12389.220775 kJ/mol
# Density = 2.186897 g / cm^3
# Si number density = 21.918858 Si / 1000 Ang^3
#
#
#
# Elastic Constant Matrix: (Units=GPa)
#
#
# Indices 1 2 3 4 5 6 
#
# 1 77.3492 52.5816 54.9472 0.0000 3.0308 0.0000
# 2 52.5816 109.9878 61.4413 0.0000 2.7989 0.0000
# 3 54.9472 61.4413 150.7207 0.0000 7.8510 0.0000
# 4 0.0000 0.0000 0.0000 34.6789 0.0000 -0.0373
# 5 3.0308 2.7989 7.8510 0.0000 27.9306 0.0000
# 6 0.0000 0.0000 0.0000 -0.0373 0.0000 26.5185
#
#
#
# Elastic Compliance Matrix: (Units=1/GPa)
#
#
# Indices 1 2 3 4 5 6 
#
# 1 0.021464 -0.007628 -0.004703 0.000000 -0.000243 0.000000
# 2 -0.007628 0.014485 -0.003137 0.000000 0.000258 0.000000
# 3 -0.004703 -0.003137 0.009728 0.000000 -0.001910 0.000000
# 4 0.000000 0.000000 0.000000 0.028836 0.000000 0.000041
# 5 -0.000243 0.000258 -0.001910 0.000000 0.036340 0.000000
# 6 0.000000 0.000000 0.000000 0.000041 0.000000 0.037710
#
#
# Mechanical properties :
#
#
# Convention : Reuss Voigt Hill
#
# Bulk Modulus (GPa) = 67.84143 75.11089 71.47616
# Shear Modulus (GPa) = 27.11324 29.09812 28.10568
#
# Velocity S-wave (km/s) = 3.52089 3.64749 3.58475
# Velocity P-wave (km/s) = 6.89545 7.21672 7.05791
#
# Compressibility (1/GPa) = 0.01474025
#
# Stress axis : x y z
#
# Youngs Moduli (GPa) = 46.58913 69.03901 102.80021
#
# Poissons Ratio (x) = 0.52663 0.48345
# Poissons Ratio (y) = 0.35539 0.32250
# Poissons Ratio (z) = 0.21910 0.21659
#
# Static dielectric constant tensor:
#      x y z
#    x 3.914030 0.000000 0.080900 
#    y 0.000000 3.655330 0.000000 
#    z 0.080900 0.000000 4.546260 
# 
# 
# High freq. dielectric constant tensor:
#      x y z
#    x 1.860350 0.000000 -0.006480 
#    y 0.000000 1.826360 0.000000 
#    z -0.006480 0.000000 1.889850 
# 
# From -- ./inp_files/126470.got.cif
#   From: 2010.06.25/outbox.cif.g09.slc.cpg/sg15_64_cif.got.tgz:126470.got - 2010.06.28 07:06:18.
