data_PCOD8143285
_publ_section_title
;
Structure prediction by ZEFSAII (Michael W. Deem and Ramdas Pophale) SiO2 
 PCOD8143285
Probable space group: C 2/C
;
_chemical_formula_sum "Si O2"
_cell_formula_units_Z 52
_cell_length_a 5.368208
_cell_length_b 19.215300
_cell_length_c 24.894373
_cell_angle_alpha 90.000000
_cell_angle_beta 60.878702
_cell_angle_gamma 90.000000
_cell_volume 2243.293189
_symmetry_space_group_name_H-M "C 2/C"
_symmetry_group_IT_number 15
_symmetry_cell_setting 'monoclinic'
loop_
_space_group_symop_operation_xyz
x,y,z
-x,y,1/2-z
-x,-y,-z
x,-y,1/2+z
1/2+x,1/2+y,z
1/2-x,1/2+y,1/2-z
1/2-x,1/2-y,-z
1/2+x,1/2-y,1/2+z
loop_
_atom_site_type_symbol
_atom_site_label
_atom_site_fract_x
_atom_site_fract_y
_atom_site_fract_z
Si Si1 0.319016 0.290956 0.382216
Si Si2 0.500000 0.969837 0.750000
Si Si3 0.500000 0.682557 0.250000
Si Si4 0.356713 0.640115 0.077172
Si Si5 0.526908 0.996612 0.130708
Si Si6 0.078213 0.910522 0.655089
Si Si7 0.000000 0.233828 0.750000
Si Si8 0.208978 0.144315 0.933496
O O1 0.332429 0.208280 0.391051
O O2 0.423564 0.311277 0.311091
O O3 0.541332 0.326794 0.399516
O O4 0.990139 0.314064 0.422100
O O5 0.528075 0.018172 0.800229
O O6 0.757918 0.918341 0.710423
O O7 0.290222 0.637252 0.311226
O O8 0.710093 0.725273 0.266648
O O9 0.174964 0.570004 0.101365
O O10 0.603627 0.630893 0.096220
O O11 0.488119 0.647061 0.004919
O O12 0.217060 0.011780 0.136347
O O13 0.698078 0.934969 0.085943
#
# Coordination Sequence:
#
# PCOD8143285 Si02
#       8
#     8   4   4   8   8   8   4   8
#     4  12  28  49  74 106 147 196 241 308 374 438
#     4  10  21  40  65 108 145 185 240 302 376 427
#     4  12  20  40  70 110 142 170 250 312 360 414
#     4  11  26  47  77 105 141 197 258 303 353 442
#     4  11  25  43  75 105 145 196 244 310 366 443
#     4  11  22  38  74 110 144 189 246 319 369 425
#     4  12  25  44  75 104 143 187 248 300 368 445
#     4  12  30  50  70 108 156 198 239 296 378 449
#
# _framework density 23.180205000000001
#
# number of rings (size 3 to 8) (size 9 to 14) (size 15 to 20)
#    0.000    0.615    3.077    3.692    8.615    1.846 
#    0.000    0.000    0.000    0.000    0.000    0.000 
#    0.000    0.000    0.000    0.000    0.000    0.000 
#
# Total GULP energy -322122.434688 kJ/mol
# GULP energy per Si atom -12389.324411 kJ/mol
# Density = 2.312745 g / cm^3
# Si number density = 23.180205 Si / 1000 Ang^3
#
#
#
# Elastic Constant Matrix: (Units=GPa)
#
#
# Indices 1 2 3 4 5 6 
#
# 1 132.4716 46.7275 31.3070 0.0000 7.8417 0.0000
# 2 46.7275 106.5952 27.5984 0.0000 2.4822 0.0000
# 3 31.3070 27.5984 131.1745 0.0000 15.5243 0.0000
# 4 0.0000 0.0000 0.0000 -7.2965 0.0000 30.9097
# 5 7.8417 2.4822 15.5243 0.0000 39.9367 0.0000
# 6 0.0000 0.0000 0.0000 30.9097 0.0000 1.7489
#
#
#
# Elastic Compliance Matrix: (Units=1/GPa)
#
#
# Indices 1 2 3 4 5 6 
#
# 1 0.009217 -0.003679 -0.001298 0.000000 -0.001076 0.000000
# 2 -0.003679 0.011392 -0.001594 0.000000 0.000634 0.000000
# 3 -0.001298 -0.001594 0.008623 0.000000 -0.002998 0.000000
# 4 0.000000 0.000000 0.000000 -0.001806 0.000000 0.031926
# 5 -0.001076 0.000634 -0.002998 0.000000 0.026377 0.000000
# 6 0.000000 0.000000 0.000000 0.031926 0.000000 0.007536
#
#
# Mechanical properties :
#
#
# Convention : Reuss Voigt Hill
#
# Bulk Modulus (GPa) = 62.15052 64.61191 63.38122
# Shear Modulus (GPa) = 62.62086 24.51837 43.56962
#
# Velocity S-wave (km/s) = 5.20322 3.25580 4.34014
# Velocity P-wave (km/s) = 7.93524 6.48598 7.24693
#
# Compressibility (1/GPa) = 0.01608997
#
# Stress axis : x y z
#
# Youngs Moduli (GPa) = 108.49343 87.78084 115.96306
#
# Poissons Ratio (x) = 0.32297 0.15056
# Poissons Ratio (y) = 0.39917 0.18481
# Poissons Ratio (z) = 0.14086 0.13990
#
# Static dielectric constant tensor:
#      x y z
#    x 4.866480 0.000000 0.222200 
#    y 0.000000 4.043120 0.000000 
#    z 0.222200 0.000000 4.403270 
# 
# 
# High freq. dielectric constant tensor:
#      x y z
#    x 1.934700 0.000000 0.005150 
#    y 0.000000 1.897390 0.000000 
#    z 0.005150 0.000000 1.929490 
# 
# From -- ./inp_files/286004.got.cif
#   From: 2010.06.25/outbox.cif.g09.slc.cpg/sg15_144_cif.got.tgz:286004.got - 2010.06.28 07:06:18.
