data_PCOD8143543
_publ_section_title
;
Structure prediction by ZEFSAII (Michael W. Deem and Ramdas Pophale) SiO2 
 PCOD8143543
Probable space group: C 2/C
;
_chemical_formula_sum "Si O2"
_cell_formula_units_Z 48
_cell_length_a 28.554027
_cell_length_b 9.983790
_cell_length_c 14.187224
_cell_angle_alpha 90.000000
_cell_angle_beta 34.039048
_cell_angle_gamma 90.000000
_cell_volume 2263.916290
_symmetry_space_group_name_H-M "C 2/C"
_symmetry_group_IT_number 15
_symmetry_cell_setting 'monoclinic'
loop_
_space_group_symop_operation_xyz
x,y,z
-x,y,1/2-z
-x,-y,-z
x,-y,1/2+z
1/2+x,1/2+y,z
1/2-x,1/2+y,1/2-z
1/2-x,1/2-y,-z
1/2+x,1/2-y,1/2+z
loop_
_atom_site_type_symbol
_atom_site_label
_atom_site_fract_x
_atom_site_fract_y
_atom_site_fract_z
Si Si1 0.582873 0.052861 0.909660
Si Si2 0.712806 0.893800 0.034989
Si Si3 0.038489 0.151404 0.496738
Si Si4 0.594398 0.855219 0.056633
Si Si5 0.879326 0.997893 0.292641
Si Si6 0.091131 0.942765 0.555640
O O1 0.656910 0.051381 0.712137
O O2 0.564018 0.200049 0.982365
O O3 0.500000 0.000000 0.000000
O O4 0.612434 0.960509 0.945227
O O5 0.659010 0.886982 0.031011
O O6 0.750000 0.750000 0.000000
O O7 0.789593 0.999090 0.889589
O O8 0.062346 0.120074 0.347335
O O9 0.095639 0.049452 0.463547
O O10 0.937653 0.133891 0.680069
O O11 0.500000 0.869601 0.250000
O O12 0.612718 0.706808 0.984492
O O13 0.853292 0.019073 0.445629
O O14 0.000000 0.947369 0.750000
#
# Coordination Sequence:
#
# PCOD8143543 Si02
#       6
#     8   8   8   8   8   8
#     4  12  26  44  70 101 137 184 230 282 354 414
#     4  12  23  47  70 100 140 183 234 283 345 422
#     4  10  22  40  69  99 130 180 229 273 336 416
#     4  11  23  42  72  99 136 186 228 283 354 418
#     4  10  21  40  70  93 130 176 229 274 331 401
#     4   9  19  37  64  98 126 173 228 266 332 415
#
# _framework density 21.202196000000001
#
# number of rings (size 3 to 8) (size 9 to 14) (size 15 to 20)
#    0.000    1.333    5.000    0.000    7.000    3.333 
#    0.000    0.833    0.000    0.000    0.000    0.000 
#    0.000    0.000    0.000    0.000    0.000    0.000 
#
# Total GULP energy -297469.193478 kJ/mol
# GULP energy per Si atom -12394.549728 kJ/mol
# Density = 2.115394 g / cm^3
# Si number density = 21.202196 Si / 1000 Ang^3
#
#
#
# Elastic Constant Matrix: (Units=GPa)
#
#
# Indices 1 2 3 4 5 6 
#
# 1 152.2693 62.9877 46.0749 0.0000 -9.3408 0.0000
# 2 62.9877 134.6929 41.9708 0.0000 11.3351 0.0000
# 3 46.0749 41.9708 112.0248 0.0000 -11.9311 0.0000
# 4 0.0000 0.0000 0.0000 23.0067 0.0000 6.5451
# 5 -9.3408 11.3351 -11.9311 0.0000 37.6735 0.0000
# 6 0.0000 0.0000 0.0000 6.5451 0.0000 28.9625
#
#
#
# Elastic Compliance Matrix: (Units=1/GPa)
#
#
# Indices 1 2 3 4 5 6 
#
# 1 0.008887 -0.003777 -0.001950 0.000000 0.002722 0.000000
# 2 -0.003777 0.010526 -0.002926 0.000000 -0.005030 0.000000
# 3 -0.001950 -0.002926 0.011246 0.000000 0.003958 0.000000
# 4 0.000000 0.000000 0.000000 0.046452 0.000000 -0.010497
# 5 0.002722 -0.005030 0.003958 0.000000 0.029986 0.000000
# 6 0.000000 0.000000 0.000000 -0.010497 0.000000 0.036900
#
#
# Mechanical properties :
#
#
# Convention : Reuss Voigt Hill
#
# Bulk Modulus (GPa) = 74.88963 77.89486 76.39225
# Shear Modulus (GPa) = 30.16534 34.45880 32.31207
#
# Velocity S-wave (km/s) = 3.77602 4.03581 3.90807
# Velocity P-wave (km/s) = 7.37628 7.65087 7.51483
#
# Compressibility (1/GPa) = 0.01335298
#
# Stress axis : x y z
#
# Youngs Moduli (GPa) = 112.52538 95.00575 88.91813
#
# Poissons Ratio (x) = 0.35887 0.17339
# Poissons Ratio (y) = 0.42505 0.26014
# Poissons Ratio (z) = 0.21942 0.27795
#
# Static dielectric constant tensor:
#      x y z
#    x 4.035860 0.000000 -0.542730 
#    y 0.000000 4.000540 0.000000 
#    z -0.542730 0.000000 3.561690 
# 
# 
# High freq. dielectric constant tensor:
#      x y z
#    x 1.845810 0.000000 -0.001780 
#    y 0.000000 1.812610 0.000000 
#    z -0.001780 0.000000 1.822170 
# 
# From -- ./inp_files/177758.got.cif
#   From: 2010.06.25/outbox.cif.g09.slc.cpg/sg15_89_cif.got.tgz:177758.got - 2010.06.28 07:06:18.
