data_PCOD8143443
_publ_section_title
;
Structure prediction by ZEFSAII (Michael W. Deem and Ramdas Pophale) SiO2 
 PCOD8143443
Probable space group: C 2/C
;
_chemical_formula_sum "Si O2"
_cell_formula_units_Z 56
_cell_length_a 19.115945
_cell_length_b 27.798202
_cell_length_c 5.006729
_cell_angle_alpha 90.000000
_cell_angle_beta 81.940340
_cell_angle_gamma 90.000000
_cell_volume 2634.241239
_symmetry_space_group_name_H-M "C 2/C"
_symmetry_group_IT_number 15
_symmetry_cell_setting 'monoclinic'
loop_
_space_group_symop_operation_xyz
x,y,z
-x,y,1/2-z
-x,-y,-z
x,-y,1/2+z
1/2+x,1/2+y,z
1/2-x,1/2+y,1/2-z
1/2-x,1/2-y,-z
1/2+x,1/2-y,1/2+z
loop_
_atom_site_type_symbol
_atom_site_label
_atom_site_fract_x
_atom_site_fract_y
_atom_site_fract_z
Si Si1 0.046551 0.576073 0.964954
Si Si2 0.196197 0.530979 0.940025
Si Si3 0.710290 0.327918 0.533666
Si Si4 0.917906 0.030310 0.802815
Si Si5 0.692566 0.390370 0.058077
Si Si6 0.452916 0.185460 0.533190
Si Si7 0.811611 0.735842 0.679644
O O1 0.114480 0.543166 0.959692
O O2 0.069656 0.630719 0.888722
O O3 0.000000 0.554559 0.750000
O O4 0.000000 0.573260 0.250000
O O5 0.216052 0.490073 0.717072
O O6 0.242278 0.578454 0.866235
O O7 0.716162 0.368124 0.761771
O O8 0.785612 0.304877 0.404816
O O9 0.664491 0.283491 0.671421
O O10 0.674987 0.349530 0.286307
O O11 0.000000 0.043536 0.750000
O O12 0.897387 0.012522 0.518421
O O13 0.877484 0.077595 0.923463
O O14 0.500000 0.206632 0.750000
O O15 0.382273 0.215700 0.507094
O O16 0.500000 0.188351 0.250000
O O17 0.750000 0.750000 0.500000
#
# Coordination Sequence:
#
# PCOD8143443 Si02
#       7
#     8   8   8   8   8   8   8
#     4  10  22  40  59  87 119 163 209 250 306 371
#     4  12  25  39  61  91 123 165 205 263 316 360
#     4  11  25  39  68  93 127 171 211 259 327 378
#     4  10  21  40  67  93 125 172 217 263 318 386
#     4  12  23  42  62  96 129 163 215 266 318 384
#     4  10  24  41  67  95 129 168 215 269 315 373
#     4  11  24  45  69  98 131 171 222 261 324 399
#
# _framework density 21.258492
#
# number of rings (size 3 to 8) (size 9 to 14) (size 15 to 20)
#    0.000    1.143    1.429    4.286    4.000    4.000 
#    0.000    2.143    0.000    0.000    0.000    0.000 
#    0.000    0.000    0.000    0.000    0.000    0.000 
#
# Total GULP energy -347200.535381 kJ/mol
# GULP energy per Si atom -12400.019121 kJ/mol
# Density = 2.121011 g / cm^3
# Si number density = 21.258492 Si / 1000 Ang^3
#
#
#
# Elastic Constant Matrix: (Units=GPa)
#
#
# Indices 1 2 3 4 5 6 
#
# 1 79.9312 36.8571 37.9010 0.0000 -2.1228 0.0000
# 2 36.8571 93.8763 39.6105 0.0000 -8.4112 0.0000
# 3 37.9010 39.6105 114.6394 0.0000 8.5281 0.0000
# 4 0.0000 0.0000 0.0000 49.7901 0.0000 -4.1348
# 5 -2.1228 -8.4112 8.5281 0.0000 27.5998 0.0000
# 6 0.0000 0.0000 0.0000 -4.1348 0.0000 26.8580
#
#
#
# Elastic Compliance Matrix: (Units=1/GPa)
#
#
# Indices 1 2 3 4 5 6 
#
# 1 0.016594 -0.004771 -0.003915 0.000000 0.001032 0.000000
# 2 -0.004771 0.014633 -0.003872 0.000000 0.005289 0.000000
# 3 -0.003915 -0.003872 0.011735 0.000000 -0.005107 0.000000
# 4 0.000000 0.000000 0.000000 0.020344 0.000000 0.003132
# 5 0.001032 0.005289 -0.005107 0.000000 0.039502 0.000000
# 6 0.000000 0.000000 0.000000 0.003132 0.000000 0.037715
#
#
# Mechanical properties :
#
#
# Convention : Reuss Voigt Hill
#
# Bulk Modulus (GPa) = 56.03154 57.46490 56.74822
# Shear Modulus (GPa) = 29.13957 32.45479 30.79718
#
# Velocity S-wave (km/s) = 3.70635 3.91151 3.81031
# Velocity P-wave (km/s) = 6.68809 6.89130 6.79045
#
# Compressibility (1/GPa) = 0.01784709
#
# Stress axis : x y z
#
# Youngs Moduli (GPa) = 60.26182 68.33766 85.21468
#
# Poissons Ratio (x) = 0.32604 0.33358
# Poissons Ratio (y) = 0.28751 0.32997
# Poissons Ratio (z) = 0.23590 0.26462
#
# Static dielectric constant tensor:
#      x y z
#    x 3.504670 0.000000 -0.033080 
#    y 0.000000 3.996900 0.000000 
#    z -0.033080 0.000000 4.029170 
# 
# 
# High freq. dielectric constant tensor:
#      x y z
#    x 1.813720 0.000000 0.000220 
#    y 0.000000 1.837970 0.000000 
#    z 0.000220 0.000000 1.855050 
# 
# From -- ./inp_files/11492.got.cif
#   From: 2010.06.25/outbox.cif.g09.slc.cpg/sg15_6_cif.got.tgz:11492.got - 2010.06.28 07:06:18.
