data_PCOD8143415
_publ_section_title
;
Structure prediction by ZEFSAII (Michael W. Deem and Ramdas Pophale) SiO2 
 PCOD8143415
Probable space group: C 2/C
;
_chemical_formula_sum "Si O2"
_cell_formula_units_Z 44
_cell_length_a 7.899539
_cell_length_b 17.063650
_cell_length_c 16.695392
_cell_angle_alpha 90.000000
_cell_angle_beta 103.918005
_cell_angle_gamma 90.000000
_cell_volume 2184.383609
_symmetry_space_group_name_H-M "C 2/C"
_symmetry_group_IT_number 15
_symmetry_cell_setting 'monoclinic'
loop_
_space_group_symop_operation_xyz
x,y,z
-x,y,1/2-z
-x,-y,-z
x,-y,1/2+z
1/2+x,1/2+y,z
1/2-x,1/2+y,1/2-z
1/2-x,1/2-y,-z
1/2+x,1/2-y,1/2+z
loop_
_atom_site_type_symbol
_atom_site_label
_atom_site_fract_x
_atom_site_fract_y
_atom_site_fract_z
Si Si1 0.895102 0.163186 0.480206
Si Si2 0.241059 0.201594 0.872493
Si Si3 0.503676 0.079417 0.656399
Si Si4 0.726703 0.842301 0.487628
Si Si5 0.500000 0.193492 0.250000
Si Si6 0.978937 0.406111 0.596615
O O1 0.902658 0.181143 0.576299
O O2 0.890648 0.246706 0.433129
O O3 0.726949 0.111357 0.438321
O O4 0.077939 0.120995 0.478463
O O5 0.316305 0.122170 0.844810
O O6 0.161739 0.251503 0.790937
O O7 0.500000 0.064383 0.750000
O O8 0.342281 0.133479 0.608627
O O9 0.501410 0.998077 0.608979
O O10 0.750000 0.750000 0.500000
O O11 0.589511 0.878702 0.533588
O O12 0.445044 0.138951 0.317875
#
# Coordination Sequence:
#
# PCOD8143415 Si02
#       6
#     8   8   8   8   4   8
#     4  10  21  42  68  98 122 173 226 262 326 393
#     4  10  21  40  66  96 134 169 220 273 323 387
#     4  12  26  43  65 100 137 171 217 278 335 388
#     4  12  23  42  73  99 127 178 228 268 322 398
#     4  10  22  40  70  90 138 178 212 274 326 390
#     4  11  24  47  65  96 138 175 215 272 340 383
#
# _framework density 20.142982
#
# number of rings (size 3 to 8) (size 9 to 14) (size 15 to 20)
#    0.000    1.091    4.545    2.727    5.091    0.727 
#    0.000    2.727    0.000    0.000    0.000    0.000 
#    0.000    0.000    0.000    0.000    0.000    0.000 
#
# Total GULP energy -272777.982987 kJ/mol
# GULP energy per Si atom -12398.999227 kJ/mol
# Density = 2.009714 g / cm^3
# Si number density = 20.142982 Si / 1000 Ang^3
#
#
#
# Elastic Constant Matrix: (Units=GPa)
#
#
# Indices 1 2 3 4 5 6 
#
# 1 120.7239 41.3498 37.2146 0.0000 9.8089 0.0000
# 2 41.3498 129.3318 32.3077 0.0000 5.8629 0.0000
# 3 37.2146 32.3077 98.0984 0.0000 4.7338 0.0000
# 4 0.0000 0.0000 0.0000 34.9544 0.0000 -0.5401
# 5 9.8089 5.8629 4.7338 0.0000 20.2048 0.0000
# 6 0.0000 0.0000 0.0000 -0.5401 0.0000 23.2103
#
#
#
# Elastic Compliance Matrix: (Units=1/GPa)
#
#
# Indices 1 2 3 4 5 6 
#
# 1 0.010306 -0.002395 -0.002946 0.000000 -0.003618 0.000000
# 2 -0.002395 0.009048 -0.002024 0.000000 -0.000989 0.000000
# 3 -0.002946 -0.002024 0.012017 0.000000 -0.000798 0.000000
# 4 0.000000 0.000000 0.000000 0.028619 0.000000 0.000666
# 5 -0.003618 -0.000989 -0.000798 0.000000 0.051723 0.000000
# 6 0.000000 0.000000 0.000000 0.000666 0.000000 0.043100
#
#
# Mechanical properties :
#
#
# Convention : Reuss Voigt Hill
#
# Bulk Modulus (GPa) = 60.09359 63.32203 61.70781
# Shear Modulus (GPa) = 28.55684 31.49270 30.02477
#
# Velocity S-wave (km/s) = 3.76933 3.95835 3.86499
# Velocity P-wave (km/s) = 6.98871 7.23850 7.11470
#
# Compressibility (1/GPa) = 0.01664071
#
# Stress axis : x y z
#
# Youngs Moduli (GPa) = 97.03206 110.52046 83.21881
#
# Poissons Ratio (x) = 0.26469 0.24519
# Poissons Ratio (y) = 0.23239 0.16840
# Poissons Ratio (z) = 0.28588 0.22365
#
# Static dielectric constant tensor:
#      x y z
#    x 3.691690 0.000000 0.116220 
#    y 0.000000 3.634870 0.000000 
#    z 0.116220 0.000000 3.872980 
# 
# 
# High freq. dielectric constant tensor:
#      x y z
#    x 1.778200 0.000000 0.004030 
#    y 0.000000 1.786030 0.000000 
#    z 0.004030 0.000000 1.795890 
# 
# From -- ./inp_files/188992.got.cif
#   From: 2010.06.25/outbox.cif.g09.slc.cpg/sg15_95_cif.got.tgz:188992.got - 2010.06.28 07:06:18.
