data_PCOD8143240
_publ_section_title
;
Structure prediction by ZEFSAII (Michael W. Deem and Ramdas Pophale) SiO2 
 PCOD8143240
Probable space group: C 2/C
;
_chemical_formula_sum "Si O2"
_cell_formula_units_Z 36
_cell_length_a 8.171505
_cell_length_b 18.024600
_cell_length_c 17.614753
_cell_angle_alpha 90.000000
_cell_angle_beta 31.149792
_cell_angle_gamma 90.000000
_cell_volume 1342.046706
_symmetry_space_group_name_H-M "C 2/C"
_symmetry_group_IT_number 15
_symmetry_cell_setting 'monoclinic'
loop_
_space_group_symop_operation_xyz
x,y,z
-x,y,1/2-z
-x,-y,-z
x,-y,1/2+z
1/2+x,1/2+y,z
1/2-x,1/2+y,1/2-z
1/2-x,1/2-y,-z
1/2+x,1/2-y,1/2+z
loop_
_atom_site_type_symbol
_atom_site_label
_atom_site_fract_x
_atom_site_fract_y
_atom_site_fract_z
Si Si1 0.766263 0.846325 0.773434
Si Si2 0.197943 0.132235 0.965065
Si Si3 0.500000 0.397426 0.250000
Si Si4 0.498057 0.001506 0.409528
Si Si5 0.599743 0.685564 0.843530
O O1 0.535589 0.917624 0.857844
O O2 0.546831 0.774081 0.875381
O O3 0.000000 0.861771 0.750000
O O4 0.964710 0.830752 0.618627
O O5 0.040605 0.141069 0.944809
O O6 0.536747 0.174193 0.830542
O O7 0.214508 0.044259 0.981821
O O8 0.296374 0.448851 0.274703
O O9 0.643499 0.344580 0.125852
O O10 0.500000 0.000000 0.500000
#
# Coordination Sequence:
#
# PCOD8143240 Si02
#       5
#     8   8   4   8   8
#     4  12  21  38  69  94 120 166 210 252 309 377
#     4  10  21  40  64  92 124 162 211 250 309 378
#     4  10  22  42  60  90 126 166 204 260 316 356
#     4  11  21  39  64  90 124 167 207 251 311 368
#     4  10  23  40  65  92 125 165 205 260 309 367
#
# _framework density 26.824701999999998
#
# number of rings (size 3 to 8) (size 9 to 14) (size 15 to 20)
#    0.000    1.333    5.556    0.667    0.000    0.000 
#    0.000   28.889    0.000    0.000    0.000    0.000 
#    0.000    0.000    0.000    0.000    0.000    0.000 
#
# Total GULP energy -222991.283228 kJ/mol
# GULP energy per Si atom -12388.404624 kJ/mol
# Density = 2.676365 g / cm^3
# Si number density = 26.824702 Si / 1000 Ang^3
#
#
#
# Elastic Constant Matrix: (Units=GPa)
#
#
# Indices 1 2 3 4 5 6 
#
# 1 107.4855 64.6133 20.7030 -0.1202 45.1711 0.2221
# 2 64.6133 209.9389 36.1257 -0.0136 22.6379 0.0857
# 3 20.7030 36.1257 93.2746 0.0000 47.3330 -0.2068
# 4 -0.1202 -0.0136 0.0000 40.1605 -0.0886 7.5196
# 5 45.1711 22.6379 47.3330 -0.0886 49.6465 -0.0817
# 6 0.2221 0.0857 -0.2068 7.5196 -0.0817 29.0194
#
#
#
# Elastic Compliance Matrix: (Units=1/GPa)
#
#
# Indices 1 2 3 4 5 6 
#
# 1 0.023368 -0.006077 0.012689 0.000031 -0.030588 -0.000165
# 2 -0.006077 0.006703 -0.004847 -0.000003 0.007094 0.000013
# 3 0.012689 -0.004847 0.028127 -0.000049 -0.036151 0.000028
# 4 0.000031 -0.000003 -0.000049 0.026170 0.000055 -0.006782
# 5 -0.030588 0.007094 -0.036151 0.000055 0.079205 0.000164
# 6 -0.000165 0.000013 0.000028 -0.006782 0.000164 0.036219
#
#
# Mechanical properties :
#
#
# Convention : Reuss Voigt Hill
#
# Bulk Modulus (GPa) = 16.20039 72.62033 44.41036
# Shear Modulus (GPa) = 23.05869 43.04908 33.05388
#
# Velocity S-wave (km/s) = 2.93509 4.01038 3.51410
# Velocity P-wave (km/s) = 4.18793 6.96959 5.74952
#
# Compressibility (1/GPa) = 0.06172690
#
# Stress axis : x y z
#
# Youngs Moduli (GPa) = 42.79427 149.19332 35.55263
#
# Poissons Ratio (x) = 0.90664 -0.45111
# Poissons Ratio (y) = 0.26006 0.17233
# Poissons Ratio (z) = -0.54300 0.72315
#
# Static dielectric constant tensor:
#      x y z
#    x 5.217950 0.001380 0.004670 
#    y 0.001380 5.582080 -0.000490 
#    z 0.004670 -0.000490 4.937600 
# 
# 
# High freq. dielectric constant tensor:
#      x y z
#    x 2.058550 -0.000050 0.016670 
#    y -0.000050 2.096560 0.000060 
#    z 0.016670 0.000060 2.076600 
# 
# From -- ./inp_files/77309.got.cif
#   From: 2010.06.25/outbox.cif.g09.slc.cpg/sg15_39_cif.got.tgz:77309.got - 2010.06.28 07:06:18.
