data_PCOD8143775
_publ_section_title
;
Structure prediction by ZEFSAII (Michael W. Deem and Ramdas Pophale) SiO2 
 PCOD8143775
Probable space group: C 2/C
;
_chemical_formula_sum "Si O2"
_cell_formula_units_Z 56
_cell_length_a 28.316322
_cell_length_b 7.448060
_cell_length_c 27.649784
_cell_angle_alpha 90.000000
_cell_angle_beta 27.641165
_cell_angle_gamma 90.000000
_cell_volume 2705.369957
_symmetry_space_group_name_H-M "C 2/C"
_symmetry_group_IT_number 15
_symmetry_cell_setting 'monoclinic'
loop_
_space_group_symop_operation_xyz
x,y,z
-x,y,1/2-z
-x,-y,-z
x,-y,1/2+z
1/2+x,1/2+y,z
1/2-x,1/2+y,1/2-z
1/2-x,1/2-y,-z
1/2+x,1/2-y,1/2+z
loop_
_atom_site_type_symbol
_atom_site_label
_atom_site_fract_x
_atom_site_fract_y
_atom_site_fract_z
Si Si1 0.165499 0.496229 0.280135
Si Si2 0.363102 0.628455 0.652660
Si Si3 0.573668 0.653805 0.726396
Si Si4 0.424734 0.424636 0.911216
Si Si5 0.855209 0.202239 0.379868
Si Si6 0.005543 0.201328 0.435199
Si Si7 0.804430 0.499293 0.357779
O O1 0.252547 0.441828 0.238699
O O2 0.144989 0.708130 0.302537
O O3 0.065045 0.387422 0.386130
O O4 0.197980 0.448341 0.196351
O O5 0.420748 0.697308 0.553048
O O6 0.420375 0.468469 0.627743
O O7 0.500000 0.720483 0.750000
O O8 0.502965 0.590722 0.835590
O O9 0.648054 0.492382 0.642378
O O10 0.647339 0.807640 0.677886
O O11 0.438096 0.308080 0.848801
O O12 0.450404 0.300785 0.933375
O O13 0.310839 0.502035 0.018178
O O14 0.750000 0.250000 0.500000
O O15 0.875066 0.354115 0.321473
#
# Coordination Sequence:
#
# PCOD8143775 Si02
#       7
#     8   8   8   8   8   8   8
#     4  12  23  42  67  93 125 167 219 262 332 388
#     4  11  24  42  64  95 124 169 210 277 324 391
#     4  10  22  39  61  93 130 166 213 265 312 378
#     4  10  21  41  64  93 128 167 212 262 320 384
#     4   9  21  40  62  90 128 167 211 257 314 378
#     4  11  23  43  66  90 133 163 214 272 328 386
#     4  11  23  41  65  92 127 171 214 259 325 381
#
# _framework density 20.699570999999999
#
# number of rings (size 3 to 8) (size 9 to 14) (size 15 to 20)
#    0.000    1.429    2.857    2.143    0.000    8.000 
#    0.000    5.714    0.000    0.000    0.000    0.000 
#    0.000    0.000    0.000    0.000    0.000    0.000 
#
# Total GULP energy -347236.932482 kJ/mol
# GULP energy per Si atom -12401.319017 kJ/mol
# Density = 2.065246 g / cm^3
# Si number density = 20.699571 Si / 1000 Ang^3
#
#
#
# Elastic Constant Matrix: (Units=GPa)
#
#
# Indices 1 2 3 4 5 6 
#
# 1 99.7854 36.1775 24.1109 -0.0041 7.2268 -0.0052
# 2 36.1775 104.1830 22.3170 -0.0278 -7.1848 0.0029
# 3 24.1109 22.3170 50.0162 0.0108 -12.1847 -0.0006
# 4 -0.0041 -0.0278 0.0108 35.3989 0.0072 -2.7966
# 5 7.2268 -7.1848 -12.1847 0.0072 33.6257 0.0038
# 6 -0.0052 0.0029 -0.0006 -2.7966 0.0038 33.8633
#
#
#
# Elastic Compliance Matrix: (Units=1/GPa)
#
#
# Indices 1 2 3 4 5 6 
#
# 1 0.013282 -0.003692 -0.006189 0.000002 -0.005886 0.000003
# 2 -0.003692 0.011651 -0.002872 0.000009 0.002242 -0.000001
# 3 -0.006189 -0.002872 0.026799 -0.000014 0.010427 -0.000002
# 4 0.000002 0.000009 -0.000014 0.028435 -0.000010 0.002348
# 5 -0.005886 0.002242 0.010427 -0.000010 0.035262 -0.000006
# 6 0.000003 -0.000001 -0.000002 0.002348 -0.000006 0.029724
#
#
# Mechanical properties :
#
#
# Convention : Reuss Voigt Hill
#
# Bulk Modulus (GPa) = 38.13319 46.57727 42.35523
# Shear Modulus (GPa) = 27.87044 32.00287 29.93666
#
# Velocity S-wave (km/s) = 3.67335 3.93627 3.80708
# Velocity P-wave (km/s) = 6.03768 6.57338 6.31122
#
# Compressibility (1/GPa) = 0.02622387
#
# Stress axis : x y z
#
# Youngs Moduli (GPa) = 75.29018 85.83293 37.31487
#
# Poissons Ratio (x) = 0.31692 0.23095
# Poissons Ratio (y) = 0.27799 0.10718
# Poissons Ratio (z) = 0.46599 0.24654
#
# Static dielectric constant tensor:
#      x y z
#    x 3.918440 -0.000090 0.018720 
#    y -0.000090 3.690210 0.000220 
#    z 0.018720 0.000220 3.888470 
# 
# 
# High freq. dielectric constant tensor:
#      x y z
#    x 1.819540 -0.000010 0.003320 
#    y -0.000010 1.800810 0.000020 
#    z 0.003320 0.000020 1.821240 
# 
# From -- ./inp_files/320046.got.cif
#   From: 2010.06.25/outbox.cif.g09.slc.cpg/sg15_161_cif.got.tgz:320046.got - 2010.06.28 07:06:18.
