data_PCOD8143528
_publ_section_title
;
Structure prediction by ZEFSAII (Michael W. Deem and Ramdas Pophale) SiO2 
 PCOD8143528
Probable space group: C 2/C
;
_chemical_formula_sum "Si O2"
_cell_formula_units_Z 64
_cell_length_a 5.662354
_cell_length_b 22.272009
_cell_length_c 22.955849
_cell_angle_alpha 90.000000
_cell_angle_beta 109.317567
_cell_angle_gamma 90.000000
_cell_volume 2732.017818
_symmetry_space_group_name_H-M "C 2/C"
_symmetry_group_IT_number 15
_symmetry_cell_setting 'monoclinic'
loop_
_space_group_symop_operation_xyz
x,y,z
-x,y,1/2-z
-x,-y,-z
x,-y,1/2+z
1/2+x,1/2+y,z
1/2-x,1/2+y,1/2-z
1/2-x,1/2-y,-z
1/2+x,1/2-y,1/2+z
loop_
_atom_site_type_symbol
_atom_site_label
_atom_site_fract_x
_atom_site_fract_y
_atom_site_fract_z
Si Si1 0.947208 0.302686 0.009382
Si Si2 0.403251 0.962829 0.379392
Si Si3 0.398910 0.159760 0.382361
Si Si4 0.920300 0.943325 0.594900
Si Si5 0.298048 0.265526 0.287375
Si Si6 0.633655 0.652096 0.888253
Si Si7 0.135928 0.089646 0.531466
Si Si8 0.578350 0.940771 0.818629
O O1 0.032326 0.306382 0.948091
O O2 0.321359 0.205337 0.925926
O O3 0.750000 0.250000 0.000000
O O4 0.832323 0.365739 0.017829
O O5 0.697143 0.956648 0.418010
O O6 0.268522 0.898383 0.358940
O O7 0.391909 0.004206 0.320125
O O8 0.280039 0.002601 0.420414
O O9 0.297556 0.206273 0.326354
O O10 0.584243 0.114092 0.365219
O O11 0.168629 0.121533 0.388889
O O12 0.138793 0.964127 0.656650
O O13 0.008648 0.940761 0.534508
O O14 0.500000 0.259359 0.250000
O O15 0.398998 0.321172 0.334250
O O16 0.000000 0.278204 0.250000
O O17 0.558637 0.621575 0.942642
O O18 0.500000 0.915364 0.750000
#
# Coordination Sequence:
#
# PCOD8143528 Si02
#       8
#     8   8   8   8   8   8   8   8
#     4  10  22  40  71 105 140 180 237 307 372 439
#     4  10  23  42  65 100 135 181 233 299 360 443
#     4  10  24  42  72 104 140 179 241 300 375 436
#     4  10  22  41  68 104 137 177 228 296 376 431
#     4  12  31  51  75 105 147 204 250 303 362 442
#     4  11  25  46  69 100 142 190 244 299 364 437
#     4  10  21  40  69  98 138 178 230 299 370 436
#     4  11  24  42  65  99 137 187 238 295 364 436
#
# _framework density 23.425908
#
# number of rings (size 3 to 8) (size 9 to 14) (size 15 to 20)
#    0.000    1.500    0.000    3.000    8.750    8.500 
#    4.500    0.000    0.000    0.000    0.000    0.000 
#    0.000    0.000    0.000    0.000    0.000    0.000 
#
# Total GULP energy -396523.718424 kJ/mol
# GULP energy per Si atom -12391.366201 kJ/mol
# Density = 2.337259 g / cm^3
# Si number density = 23.425908 Si / 1000 Ang^3
#
#
#
# Elastic Constant Matrix: (Units=GPa)
#
#
# Indices 1 2 3 4 5 6 
#
# 1 84.3114 26.9913 38.2790 0.0000 8.3246 0.0000
# 2 26.9913 104.0808 42.8404 0.0000 6.4661 0.0000
# 3 38.2790 42.8404 116.4551 0.0000 7.1369 0.0000
# 4 0.0000 0.0000 0.0000 31.5774 0.0000 0.7041
# 5 8.3246 6.4661 7.1369 0.0000 42.9419 0.0000
# 6 0.0000 0.0000 0.0000 0.7041 0.0000 35.2806
#
#
#
# Elastic Compliance Matrix: (Units=1/GPa)
#
#
# Indices 1 2 3 4 5 6 
#
# 1 0.014462 -0.002033 -0.003892 0.000000 -0.001850 0.000000
# 2 -0.002033 0.011653 -0.003571 0.000000 -0.000767 0.000000
# 3 -0.003892 -0.003571 0.011215 0.000000 -0.000572 0.000000
# 4 0.000000 0.000000 0.000000 0.031682 0.000000 -0.000632
# 5 -0.001850 -0.000767 -0.000572 0.000000 0.023857 0.000000
# 6 0.000000 0.000000 0.000000 -0.000632 0.000000 0.028357
#
#
# Mechanical properties :
#
#
# Convention : Reuss Voigt Hill
#
# Bulk Modulus (GPa) = 54.53777 57.89653 56.21715
# Shear Modulus (GPa) = 34.16912 35.07574 34.62243
#
# Velocity S-wave (km/s) = 3.82331 3.87370 3.84859
# Velocity P-wave (km/s) = 6.54383 6.69147 6.61807
#
# Compressibility (1/GPa) = 0.01833592
#
# Stress axis : x y z
#
# Youngs Moduli (GPa) = 69.14887 85.81567 89.16477
#
# Poissons Ratio (x) = 0.17449 0.34704
# Poissons Ratio (y) = 0.14060 0.31844
# Poissons Ratio (z) = 0.26914 0.30648
#
# Static dielectric constant tensor:
#      x y z
#    x 4.181550 0.000000 -0.101340 
#    y 0.000000 4.213950 0.000000 
#    z -0.101340 0.000000 4.273710 
# 
# 
# High freq. dielectric constant tensor:
#      x y z
#    x 1.928000 0.000000 -0.004030 
#    y 0.000000 1.934920 0.000000 
#    z -0.004030 0.000000 1.918160 
# 
# From -- ./inp_files/261827.got.cif
#   From: 2010.06.25/outbox.cif.g09.slc.cpg/sg15_131_cif.got.tgz:261827.got - 2010.06.28 07:06:18.
