data_PCOD8143883
_publ_section_title
;
Structure prediction by ZEFSAII (Michael W. Deem and Ramdas Pophale) SiO2 
 PCOD8143883
Probable space group: C 2/C
;
_chemical_formula_sum "Si O2"
_cell_formula_units_Z 40
_cell_length_a 22.626537
_cell_length_b 7.306997
_cell_length_c 12.853653
_cell_angle_alpha 90.000000
_cell_angle_beta 144.667909
_cell_angle_gamma 90.000000
_cell_volume 1228.988397
_symmetry_space_group_name_H-M "C 2/C"
_symmetry_group_IT_number 15
_symmetry_cell_setting 'monoclinic'
loop_
_space_group_symop_operation_xyz
x,y,z
-x,y,1/2-z
-x,-y,-z
x,-y,1/2+z
1/2+x,1/2+y,z
1/2-x,1/2+y,1/2-z
1/2-x,1/2-y,-z
1/2+x,1/2-y,1/2+z
loop_
_atom_site_type_symbol
_atom_site_label
_atom_site_fract_x
_atom_site_fract_y
_atom_site_fract_z
Si Si1 0.960004 0.230134 0.504067
Si Si2 0.754916 0.871986 0.622568
Si Si3 0.264105 0.277631 0.898888
Si Si4 0.909577 0.045795 0.180039
Si Si5 0.420842 0.122646 0.500402
O O1 0.837396 0.194375 0.326384
O O2 0.972527 0.421129 0.585881
O O3 0.037869 0.073832 0.652286
O O4 0.988398 0.251151 0.418496
O O5 0.639495 0.787841 0.481677
O O6 0.727032 0.071600 0.629445
O O7 0.803944 0.860616 0.575772
O O8 0.166285 0.385346 0.713827
O O9 0.250000 0.250000 0.000000
O O10 0.369514 0.396501 0.036523
O O11 0.000000 0.163887 0.250000
#
# Coordination Sequence:
#
# PCOD8143883 Si02
#       5
#     8   8   8   8   8
#     4  11  24  39  69  98 125 170 220 266 317 387
#     4  11  22  40  66  97 125 173 215 267 316 387
#     4  10  21  41  66  92 129 170 212 261 325 380
#     4  11  22  40  67  99 129 171 220 263 318 390
#     4  11  22  41  65  96 131 167 214 269 327 383
#
# _framework density 32.547091000000002
#
# number of rings (size 3 to 8) (size 9 to 14) (size 15 to 20)
#    0.000    1.200    4.000    4.200    0.000    0.000 
#    0.000    4.000    0.000    0.000    0.000    0.000 
#    0.000    0.000    0.000    0.000    0.000    0.000 
#
# Total GULP energy -247841.852564 kJ/mol
# GULP energy per Si atom -12392.092628 kJ/mol
# Density = 3.247301 g / cm^3
# Si number density = 32.547091 Si / 1000 Ang^3
#
#
#
# Elastic Constant Matrix: (Units=GPa)
#
#
# Indices 1 2 3 4 5 6 
#
# 1 250.0637 56.7951 53.3649 0.0000 42.1196 0.0000
# 2 56.7951 154.8069 77.1989 0.0000 46.4822 0.0000
# 3 53.3649 77.1989 129.2073 0.0000 48.3533 0.0000
# 4 0.0000 0.0000 0.0000 39.4660 0.0000 24.8421
# 5 42.1196 46.4822 48.3533 0.0000 72.5592 0.0000
# 6 0.0000 0.0000 0.0000 24.8421 0.0000 42.2826
#
#
#
# Elastic Compliance Matrix: (Units=1/GPa)
#
#
# Indices 1 2 3 4 5 6 
#
# 1 0.004631 -0.000798 -0.000827 0.000000 -0.001625 0.000000
# 2 -0.000798 0.009846 -0.004485 0.000000 -0.002856 0.000000
# 3 -0.000827 -0.004485 0.012664 0.000000 -0.005086 0.000000
# 4 0.000000 0.000000 0.000000 0.040208 0.000000 -0.023623
# 5 -0.001625 -0.002856 -0.005086 0.000000 0.019944 0.000000
# 6 0.000000 0.000000 0.000000 -0.023623 0.000000 0.037530
#
#
# Mechanical properties :
#
#
# Convention : Reuss Voigt Hill
#
# Bulk Modulus (GPa) = 67.02136 100.97731 83.99933
# Shear Modulus (GPa) = 35.20707 53.97615 44.59161
#
# Velocity S-wave (km/s) = 3.29253 4.07677 3.70545
# Velocity P-wave (km/s) = 5.92378 7.29742 6.64618
#
# Compressibility (1/GPa) = 0.01492062
#
# Stress axis : x y z
#
# Youngs Moduli (GPa) = 215.95466 101.56010 78.96356
#
# Poissons Ratio (x) = 0.08107 0.06533
# Poissons Ratio (y) = 0.17239 0.35412
# Poissons Ratio (z) = 0.17867 0.45546
#
# Static dielectric constant tensor:
#      x y z
#    x 6.967550 0.000000 0.375240 
#    y 0.000000 8.148680 0.000000 
#    z 0.375240 0.000000 6.523100 
# 
# 
# High freq. dielectric constant tensor:
#      x y z
#    x 2.418300 0.000000 0.017050 
#    y 0.000000 2.372570 0.000000 
#    z 0.017050 0.000000 2.366410 
# 
# From -- ./inp_files/221962.got.cif
#   From: 2010.06.25/outbox.cif.g09.slc.cpg/sg15_111_cif.got.tgz:221962.got - 2010.06.28 07:06:18.
