data_PCOD8143296
_publ_section_title
;
Structure prediction by ZEFSAII (Michael W. Deem and Ramdas Pophale) SiO2 
 PCOD8143296
Probable space group: C 2/C
;
_chemical_formula_sum "Si O2"
_cell_formula_units_Z 52
_cell_length_a 8.447757
_cell_length_b 27.982679
_cell_length_c 12.351280
_cell_angle_alpha 90.000000
_cell_angle_beta 62.838325
_cell_angle_gamma 90.000000
_cell_volume 2597.747669
_symmetry_space_group_name_H-M "C 2/C"
_symmetry_group_IT_number 15
_symmetry_cell_setting 'monoclinic'
loop_
_space_group_symop_operation_xyz
x,y,z
-x,y,1/2-z
-x,-y,-z
x,-y,1/2+z
1/2+x,1/2+y,z
1/2-x,1/2+y,1/2-z
1/2-x,1/2-y,-z
1/2+x,1/2-y,1/2+z
loop_
_atom_site_type_symbol
_atom_site_label
_atom_site_fract_x
_atom_site_fract_y
_atom_site_fract_z
Si Si1 0.214823 0.368461 0.040989
Si Si2 0.159567 0.644200 0.908248
Si Si3 0.798011 0.289401 0.284590
Si Si4 0.792972 0.815145 0.799570
Si Si5 0.178585 0.620427 0.140832
Si Si6 0.500000 0.584324 0.750000
Si Si7 0.492701 0.555502 0.521851
O O1 0.219634 0.345389 0.921314
O O2 0.332190 0.416585 0.010511
O O3 0.283824 0.331038 0.111532
O O4 0.002261 0.379236 0.113109
O O5 0.210357 0.695270 0.839130
O O6 0.332892 0.613461 0.841086
O O7 0.120197 0.647936 0.048812
O O8 0.701789 0.237974 0.329097
O O9 0.000000 0.281526 0.250000
O O10 0.759706 0.840321 0.695372
O O11 0.000000 0.809603 0.750000
O O12 0.319858 0.578647 0.072683
O O13 0.000000 0.597779 0.250000
O O14 0.446779 0.553926 0.662886
O O15 0.500000 0.500000 0.500000
#
# Coordination Sequence:
#
# PCOD8143296 Si02
#       7
#     8   8   8   8   8   4   8
#     4  11  20  40  65  88 128 166 216 264 317 380
#     4  10  21  40  65  88 129 175 204 265 321 377
#     4   9  20  36  60  94 123 168 221 253 315 391
#     4  11  21  37  62  91 129 172 211 261 319 387
#     4  11  23  43  59  91 135 166 206 269 326 381
#     4  10  22  44  62  94 132 156 214 272 320 380
#     4  11  25  44  70  94 122 170 218 273 326 378
#
# _framework density 20.017340999999998
#
# number of rings (size 3 to 8) (size 9 to 14) (size 15 to 20)
#    0.000    1.538    4.615    0.462    0.000    1.846 
#    4.154    1.538    0.000    0.000    0.000    0.000 
#    0.000    0.000    0.000    0.000    0.000    0.000 
#
# Total GULP energy -322137.714150 kJ/mol
# GULP energy per Si atom -12389.912083 kJ/mol
# Density = 1.997178 g / cm^3
# Si number density = 20.017341 Si / 1000 Ang^3
#
#
#
# Elastic Constant Matrix: (Units=GPa)
#
#
# Indices 1 2 3 4 5 6 
#
# 1 83.5580 42.0649 35.5221 0.0000 10.2734 0.0000
# 2 42.0649 136.4106 43.7378 0.0000 17.0408 0.0000
# 3 35.5221 43.7378 120.1338 0.0000 26.6193 0.0000
# 4 0.0000 0.0000 0.0000 1197.2115 0.0000 813.9619
# 5 10.2734 17.0408 26.6193 0.0000 35.6958 0.0000
# 6 0.0000 0.0000 0.0000 813.9619 0.0000 577.6447
#
#
#
# Elastic Compliance Matrix: (Units=1/GPa)
#
#
# Indices 1 2 3 4 5 6 
#
# 1 0.015152 -0.003644 -0.003082 0.000000 -0.000323 0.000000
# 2 -0.003644 0.009303 -0.001866 0.000000 -0.002001 0.000000
# 3 -0.003082 -0.001866 0.011405 0.000000 -0.006727 0.000000
# 4 0.000000 0.000000 0.000000 0.019899 0.000000 -0.028040
# 5 -0.000323 -0.002001 -0.006727 0.000000 0.034079 0.000000
# 6 0.000000 0.000000 0.000000 -0.028040 0.000000 0.041242
#
#
# Mechanical properties :
#
#
# Convention : Reuss Voigt Hill
#
# Bulk Modulus (GPa) = 53.54440 64.75022 59.14731
# Shear Modulus (GPa) = 32.36451 376.69558 204.53005
#
# Velocity S-wave (km/s) = 4.02534 13.73292 10.11920
# Velocity P-wave (km/s) = 6.95784 16.84859 12.88965
#
# Compressibility (1/GPa) = 0.01867609
#
# Stress axis : x y z
#
# Youngs Moduli (GPa) = 65.99748 107.49506 87.67714
#
# Poissons Ratio (x) = 0.39170 0.27023
# Poissons Ratio (y) = 0.24049 0.16362
# Poissons Ratio (z) = 0.20341 0.20060
#
# Static dielectric constant tensor:
#      x y z
#    x 4.075990 0.000000 0.027100 
#    y 0.000000 3.478840 0.000000 
#    z 0.027100 0.000000 4.714480 
# 
# 
# High freq. dielectric constant tensor:
#      x y z
#    x 1.788720 0.000000 0.003960 
#    y 0.000000 1.749000 0.000000 
#    z 0.003960 0.000000 1.800650 
# 
# From -- ./inp_files/81159.got.cif
#   From: 2010.06.25/outbox.cif.g09.slc.cpg/sg15_41_cif.got.tgz:81159.got - 2010.06.28 07:06:18.
