data_PCOD8143045
_publ_section_title
;
Structure prediction by ZEFSAII (Michael W. Deem and Ramdas Pophale) SiO2 
 PCOD8143045
Probable space group: C 2/C
;
_chemical_formula_sum "Si O2"
_cell_formula_units_Z 56
_cell_length_a 8.319311
_cell_length_b 26.889236
_cell_length_c 14.574047
_cell_angle_alpha 90.000000
_cell_angle_beta 121.792593
_cell_angle_gamma 90.000000
_cell_volume 2771.053365
_symmetry_space_group_name_H-M "C 2/C"
_symmetry_group_IT_number 15
_symmetry_cell_setting 'monoclinic'
loop_
_space_group_symop_operation_xyz
x,y,z
-x,y,1/2-z
-x,-y,-z
x,-y,1/2+z
1/2+x,1/2+y,z
1/2-x,1/2+y,1/2-z
1/2-x,1/2-y,-z
1/2+x,1/2-y,1/2+z
loop_
_atom_site_type_symbol
_atom_site_label
_atom_site_fract_x
_atom_site_fract_y
_atom_site_fract_z
Si Si1 0.500000 0.242293 0.250000
Si Si2 0.500000 0.246606 0.750000
Si Si3 0.348889 0.456955 0.466655
Si Si4 0.346544 0.187534 0.379368
Si Si5 0.535884 0.992469 0.658526
Si Si6 0.836338 0.312324 0.366907
Si Si7 0.308950 0.907412 0.245874
Si Si8 0.308077 0.580453 0.146221
O O1 0.430974 0.205918 0.308844
O O2 0.659933 0.277942 0.343021
O O3 0.330816 0.277223 0.650553
O O4 0.571462 0.211521 0.692924
O O5 0.500000 0.500000 0.500000
O O6 0.348369 0.418552 0.380110
O O7 0.368284 0.420025 0.558094
O O8 0.163355 0.488211 0.436212
O O9 0.510870 0.184924 0.505520
O O10 0.252555 0.134326 0.337960
O O11 0.500000 0.970169 0.750000
O O12 0.627854 0.953190 0.617814
O O13 0.674858 0.039679 0.699916
O O14 0.760153 0.366416 0.308902
O O15 0.500000 0.892344 0.250000
O O16 0.500000 0.561577 0.250000
#
# Coordination Sequence:
#
# PCOD8143045 Si02
#       8
#     4   4   8   8   8   8   8   8
#     4  10  26  44  60  94 130 162 218 276 330 396
#     4  10  22  40  68  94 118 158 218 274 320 400
#     4  10  21  40  60  95 131 169 210 266 322 383
#     4  11  23  43  64  93 125 169 216 267 332 390
#     4   9  20  38  61  87 126 164 207 259 315 381
#     4  11  21  42  67  90 124 164 210 274 332 386
#     4   9  18  38  63  89 120 160 212 253 313 394
#     4  12  23  38  62  91 126 171 216 257 321 396
#
# _framework density 20.208922000000001
#
# number of rings (size 3 to 8) (size 9 to 14) (size 15 to 20)
#    0.000    2.000    1.429    4.714    1.000    0.000 
#    6.429    0.000    0.000    0.000    0.000    0.000 
#    0.000    0.000    0.000    0.000    0.000    0.000 
#
# Total GULP energy -346878.677072 kJ/mol
# GULP energy per Si atom -12388.524181 kJ/mol
# Density = 2.016293 g / cm^3
# Si number density = 20.208922 Si / 1000 Ang^3
#
#
#
# Elastic Constant Matrix: (Units=GPa)
#
#
# Indices 1 2 3 4 5 6 
#
# 1 49.9354 22.4981 20.7752 0.0000 4.3710 0.0000
# 2 22.4981 89.2189 27.8765 0.0000 -11.1586 0.0000
# 3 20.7752 27.8765 116.2895 0.0000 12.2710 0.0000
# 4 0.0000 0.0000 0.0000 24.6242 0.0000 6.3741
# 5 4.3710 -11.1586 12.2710 0.0000 21.7147 0.0000
# 6 0.0000 0.0000 0.0000 6.3741 0.0000 -13.5268
#
#
#
# Elastic Compliance Matrix: (Units=1/GPa)
#
#
# Indices 1 2 3 4 5 6 
#
# 1 0.024378 -0.006370 -0.002090 0.000000 -0.007000 0.000000
# 2 -0.006370 0.015401 -0.003748 0.000000 0.011314 0.000000
# 3 -0.002090 -0.003748 0.010666 0.000000 -0.007532 0.000000
# 4 0.000000 0.000000 0.000000 0.036195 0.000000 0.017056
# 5 -0.007000 0.011314 -0.007532 0.000000 0.057531 0.000000
# 6 0.000000 0.000000 0.000000 0.017056 0.000000 -0.065890
#
#
# Mechanical properties :
#
#
# Convention : Reuss Voigt Hill
#
# Bulk Modulus (GPa) = 38.41715 44.19372 41.30543
# Shear Modulus (GPa) = 44.89475 18.84870 31.87172
#
# Velocity S-wave (km/s) = 4.71843 3.05731 3.97559
# Velocity P-wave (km/s) = 6.98112 5.86334 6.44650
#
# Compressibility (1/GPa) = 0.02603004
#
# Stress axis : x y z
#
# Youngs Moduli (GPa) = 41.02092 64.93227 93.75820
#
# Poissons Ratio (x) = 0.41361 0.19591
# Poissons Ratio (y) = 0.26130 0.35138
# Poissons Ratio (z) = 0.08572 0.24334
#
# Static dielectric constant tensor:
#      x y z
#    x 2.127160 0.000000 -0.556870 
#    y 0.000000 3.735920 0.000000 
#    z -0.556870 0.000000 3.538070 
# 
# 
# High freq. dielectric constant tensor:
#      x y z
#    x 1.781220 0.000000 0.003860 
#    y 0.000000 1.791870 0.000000 
#    z 0.003860 0.000000 1.796300 
# 
# From -- ./inp_files/138725.got.cif
#   From: 2010.06.25/outbox.cif.g09.slc.cpg/sg15_70_cif.got.tgz:138725.got - 2010.06.28 07:06:18.
