data_PCOD8143907
_publ_section_title
;
Structure prediction by ZEFSAII (Michael W. Deem and Ramdas Pophale) SiO2 
 PCOD8143907
Probable space group: C 2/C
;
_chemical_formula_sum "Si O2"
_cell_formula_units_Z 60
_cell_length_a 9.386771
_cell_length_b 29.214027
_cell_length_c 10.323656
_cell_angle_alpha 90.000000
_cell_angle_beta 101.087431
_cell_angle_gamma 90.000000
_cell_volume 2778.167374
_symmetry_space_group_name_H-M "C 2/C"
_symmetry_group_IT_number 15
_symmetry_cell_setting 'monoclinic'
loop_
_space_group_symop_operation_xyz
x,y,z
-x,y,1/2-z
-x,-y,-z
x,-y,1/2+z
1/2+x,1/2+y,z
1/2-x,1/2+y,1/2-z
1/2-x,1/2-y,-z
1/2+x,1/2-y,1/2+z
loop_
_atom_site_type_symbol
_atom_site_label
_atom_site_fract_x
_atom_site_fract_y
_atom_site_fract_z
Si Si1 0.161703 0.156248 0.726338
Si Si2 0.329584 0.232506 0.636342
Si Si3 0.495453 0.920387 0.603315
Si Si4 0.444602 0.612093 0.039492
Si Si5 0.182867 0.040234 0.048498
Si Si6 0.210958 0.035236 0.348078
Si Si7 0.038585 0.647915 0.621073
Si Si8 0.000000 0.186970 0.250000
O O1 0.207028 0.207052 0.696173
O O2 0.164374 0.124632 0.597304
O O3 0.284502 0.143476 0.855006
O O4 0.000000 0.155295 0.750000
O O5 0.250000 0.250000 0.500000
O O6 0.468774 0.199437 0.621658
O O7 0.365589 0.277981 0.724573
O O8 0.500000 0.900551 0.750000
O O9 0.344076 0.943728 0.544113
O O10 0.615759 0.960116 0.608343
O O11 0.528158 0.878109 0.513230
O O12 0.575930 0.582376 0.004157
O O13 0.357064 0.584836 0.134697
O O14 0.508144 0.657233 0.120065
O O15 0.167861 0.021454 0.193597
O O16 0.143971 0.000129 0.940117
O O17 0.000000 0.622357 0.750000
#
# Coordination Sequence:
#
# PCOD8143907 Si02
#       8
#     8   8   8   8   8   8   8   4
#     4  11  23  40  63  99 135 166 223 280 330 387
#     4  11  22  41  68  94 127 179 225 269 326 397
#     4  10  23  41  65  96 135 174 214 266 333 397
#     4  12  24  41  69  92 128 175 217 266 330 397
#     4  11  24  42  63  99 130 168 219 273 330 394
#     4  11  23  42  66  96 129 172 220 269 330 399
#     4  10  21  41  66  97 131 174 232 267 324 398
#     4  12  22  42  72  90 128 174 226 260 326 394
#
# _framework density 21.596971
#
# number of rings (size 3 to 8) (size 9 to 14) (size 15 to 20)
#    0.000    1.067    4.667    3.200    0.000    3.200 
#    0.000    4.667    0.000    0.000    0.000    0.000 
#    0.000    0.000    0.000    0.000    0.000    0.000 
#
# Total GULP energy -371779.179944 kJ/mol
# GULP energy per Si atom -12392.639331 kJ/mol
# Density = 2.154781 g / cm^3
# Si number density = 21.596971 Si / 1000 Ang^3
#
#
#
# Elastic Constant Matrix: (Units=GPa)
#
#
# Indices 1 2 3 4 5 6 
#
# 1 87.4940 16.0749 22.0415 0.0000 -1.0332 0.0000
# 2 16.0749 110.6496 64.7405 0.0000 -0.3799 0.0000
# 3 22.0415 64.7405 121.2016 0.0000 4.7971 0.0000
# 4 0.0000 0.0000 0.0000 36.2687 0.0000 7.4048
# 5 -1.0332 -0.3799 4.7971 0.0000 37.1713 0.0000
# 6 0.0000 0.0000 0.0000 7.4048 0.0000 29.7441
#
#
#
# Elastic Compliance Matrix: (Units=1/GPa)
#
#
# Indices 1 2 3 4 5 6 
#
# 1 0.012025 -0.000658 -0.001858 0.000000 0.000567 0.000000
# 2 -0.000658 0.013223 -0.006984 0.000000 0.001018 0.000000
# 3 -0.001858 -0.006984 0.012387 0.000000 -0.001722 0.000000
# 4 0.000000 0.000000 0.000000 0.029048 0.000000 -0.007232
# 5 0.000567 0.001018 -0.001722 0.000000 0.027151 0.000000
# 6 0.000000 0.000000 0.000000 -0.007232 0.000000 0.035420
#
#
# Mechanical properties :
#
#
# Convention : Reuss Voigt Hill
#
# Bulk Modulus (GPa) = 53.66002 58.33990 55.99996
# Shear Modulus (GPa) = 32.36973 35.06936 33.71955
#
# Velocity S-wave (km/s) = 3.87565 4.03402 3.95563
# Velocity P-wave (km/s) = 6.70280 6.98351 6.84460
#
# Compressibility (1/GPa) = 0.01863585
#
# Stress axis : x y z
#
# Youngs Moduli (GPa) = 83.16026 75.62754 80.72953
#
# Poissons Ratio (x) = 0.04976 0.14998
# Poissons Ratio (y) = 0.05472 0.56378
# Poissons Ratio (z) = 0.15450 0.52815
#
# Static dielectric constant tensor:
#      x y z
#    x 4.095950 0.000000 0.276180 
#    y 0.000000 3.770860 0.000000 
#    z 0.276180 0.000000 4.022620 
# 
# 
# High freq. dielectric constant tensor:
#      x y z
#    x 1.860430 0.000000 0.020420 
#    y 0.000000 1.835020 0.000000 
#    z 0.020420 0.000000 1.853920 
# 
# From -- ./inp_files/81382.got.cif
#   From: 2010.06.25/outbox.cif.g09.slc.cpg/sg15_41_cif.got.tgz:81382.got - 2010.06.28 07:06:18.
