data_PCOD8143322
_publ_section_title
;
Structure prediction by ZEFSAII (Michael W. Deem and Ramdas Pophale) SiO2 
 PCOD8143322
Probable space group: C 2/C
;
_chemical_formula_sum "Si O2"
_cell_formula_units_Z 44
_cell_length_a 12.964326
_cell_length_b 18.591448
_cell_length_c 9.274296
_cell_angle_alpha 90.000000
_cell_angle_beta 60.896584
_cell_angle_gamma 90.000000
_cell_volume 1953.115533
_symmetry_space_group_name_H-M "C 2/C"
_symmetry_group_IT_number 15
_symmetry_cell_setting 'monoclinic'
loop_
_space_group_symop_operation_xyz
x,y,z
-x,y,1/2-z
-x,-y,-z
x,-y,1/2+z
1/2+x,1/2+y,z
1/2-x,1/2+y,1/2-z
1/2-x,1/2-y,-z
1/2+x,1/2-y,1/2+z
loop_
_atom_site_type_symbol
_atom_site_label
_atom_site_fract_x
_atom_site_fract_y
_atom_site_fract_z
Si Si1 0.933841 0.403253 0.545798
Si Si2 0.258011 0.194993 0.303355
Si Si3 0.045874 0.105351 0.367616
Si Si4 0.689680 0.154333 0.917775
Si Si5 0.394629 0.448022 0.214156
Si Si6 0.500000 0.995998 0.250000
O O1 0.835684 0.340663 0.623060
O O2 0.922018 0.454790 0.694921
O O3 0.062283 0.367380 0.446390
O O4 0.914239 0.447740 0.410334
O O5 0.126593 0.162235 0.396191
O O6 0.324140 0.180783 0.408836
O O7 0.245242 0.280492 0.285822
O O8 0.000000 0.139674 0.250000
O O9 0.929411 0.085143 0.536608
O O10 0.123574 0.033658 0.284652
O O11 0.772529 0.084714 0.852227
O O12 0.500000 0.428245 0.250000
#
# Coordination Sequence:
#
# PCOD8143322 Si02
#       6
#     8   8   8   8   8   4
#     4  11  24  45  67 105 129 176 221 272 337 389
#     4  11  24  41  68  95 135 172 218 270 322 403
#     4  10  23  41  64  96 127 167 216 273 320 373
#     4  11  24  40  70  95 132 178 213 271 323 398
#     4  10  21  40  65  92 127 169 219 261 316 387
#     4  10  24  42  70  96 140 166 216 284 318 402
#
# _framework density 22.528110000000002
#
# number of rings (size 3 to 8) (size 9 to 14) (size 15 to 20)
#    0.000    1.455    3.636    0.000    7.636    1.455 
#    1.636    1.818    0.000    0.000    0.000    0.000 
#    0.000    0.000    0.000    0.000    0.000    0.000 
#
# Total GULP energy -272867.630713 kJ/mol
# GULP energy per Si atom -12403.074123 kJ/mol
# Density = 2.247683 g / cm^3
# Si number density = 22.528110 Si / 1000 Ang^3
#
#
#
# Elastic Constant Matrix: (Units=GPa)
#
#
# Indices 1 2 3 4 5 6 
#
# 1 53.8878 19.1888 11.0058 0.0000 -3.5021 0.0000
# 2 19.1888 104.3542 30.7285 0.0000 -9.3931 0.0000
# 3 11.0058 30.7285 82.8440 0.0000 9.4910 0.0000
# 4 0.0000 0.0000 0.0000 45.1288 0.0000 -8.9593
# 5 -3.5021 -9.3931 9.4910 0.0000 37.9935 0.0000
# 6 0.0000 0.0000 0.0000 -8.9593 0.0000 19.3510
#
#
#
# Elastic Compliance Matrix: (Units=1/GPa)
#
#
# Indices 1 2 3 4 5 6 
#
# 1 0.020093 -0.003054 -0.001711 0.000000 0.001525 0.000000
# 2 -0.003054 0.011771 -0.004387 0.000000 0.003725 0.000000
# 3 -0.001711 -0.004387 0.014482 0.000000 -0.004860 0.000000
# 4 0.000000 0.000000 0.000000 0.024402 0.000000 0.011298
# 5 0.001525 0.003725 -0.004860 0.000000 0.028596 0.000000
# 6 0.000000 0.000000 0.000000 0.011298 0.000000 0.056908
#
#
# Mechanical properties :
#
#
# Convention : Reuss Voigt Hill
#
# Bulk Modulus (GPa) = 35.66042 40.32579 37.99310
# Shear Modulus (GPa) = 27.18812 32.50553 29.84682
#
# Velocity S-wave (km/s) = 3.47775 3.80266 3.64383
# Velocity P-wave (km/s) = 5.65597 6.10077 5.88257
#
# Compressibility (1/GPa) = 0.02804230
#
# Stress axis : x y z
#
# Youngs Moduli (GPa) = 49.76857 84.95153 69.04936
#
# Poissons Ratio (x) = 0.25940 0.11817
# Poissons Ratio (y) = 0.15197 0.30294
# Poissons Ratio (z) = 0.08517 0.37271
#
# Static dielectric constant tensor:
#      x y z
#    x 3.690110 0.000000 0.098540 
#    y 0.000000 4.215510 0.000000 
#    z 0.098540 0.000000 4.055140 
# 
# 
# High freq. dielectric constant tensor:
#      x y z
#    x 1.867520 0.000000 0.000930 
#    y 0.000000 1.888420 0.000000 
#    z 0.000930 0.000000 1.883510 
# 
# From -- ./inp_files/39560.got.cif
#   From: 2010.06.25/outbox.cif.g09.slc.cpg/sg15_20_cif.got.tgz:39560.got - 2010.06.28 07:06:18.
