data_PCOD8143921
_publ_section_title
;
Structure prediction by ZEFSAII (Michael W. Deem and Ramdas Pophale) SiO2 
 PCOD8143921
Probable space group: C 2/C
;
_chemical_formula_sum "Si O2"
_cell_formula_units_Z 60
_cell_length_a 17.816213
_cell_length_b 11.761410
_cell_length_c 26.720006
_cell_angle_alpha 90.000000
_cell_angle_beta 27.005308
_cell_angle_gamma 90.000000
_cell_volume 2542.360056
_symmetry_space_group_name_H-M "C 2/C"
_symmetry_group_IT_number 15
_symmetry_cell_setting 'monoclinic'
loop_
_space_group_symop_operation_xyz
x,y,z
-x,y,1/2-z
-x,-y,-z
x,-y,1/2+z
1/2+x,1/2+y,z
1/2-x,1/2+y,1/2-z
1/2-x,1/2-y,-z
1/2+x,1/2-y,1/2+z
loop_
_atom_site_type_symbol
_atom_site_label
_atom_site_fract_x
_atom_site_fract_y
_atom_site_fract_z
Si Si1 0.666610 0.293342 0.676131
Si Si2 0.938836 0.334233 0.696678
Si Si3 0.354501 0.838218 0.470654
Si Si4 0.000000 0.179856 0.750000
Si Si5 0.776655 0.914135 0.465334
Si Si6 0.651686 0.308146 0.794254
Si Si7 0.735794 0.951709 0.163452
Si Si8 0.522387 0.474006 0.062569
O O1 0.500000 0.341428 0.750000
O O2 0.819779 0.324246 0.550189
O O3 0.694492 0.353848 0.713146
O O4 0.647123 0.157849 0.693722
O O5 0.909427 0.257799 0.762949
O O6 0.819307 0.286834 0.724612
O O7 0.900364 0.465272 0.732032
O O8 0.129673 0.323919 0.564669
O O9 0.250000 0.750000 0.500000
O O10 0.549884 0.810906 0.348186
O O11 0.309122 0.963466 0.480191
O O12 0.859511 0.104893 0.861622
O O13 0.921117 0.905543 0.421509
O O14 0.533056 0.397441 0.892150
O O15 0.868380 0.911185 0.127104
O O16 0.825481 0.021306 0.066030
#
# Coordination Sequence:
#
# PCOD8143921 Si02
#       8
#     8   8   8   4   8   8   8   8
#     4  12  23  36  70 105 140 177 230 291 367 420
#     4  11  27  49  70 100 141 192 252 288 354 425
#     4  12  23  43  71 107 143 180 230 294 363 430
#     4  12  30  48  74  98 146 196 240 298 358 430
#     4  12  26  47  75 104 142 191 241 296 362 428
#     4  11  24  43  67 103 144 182 232 302 352 422
#     4  10  22  39  71 104 133 188 235 298 337 423
#     4  10  21  41  67 100 141 177 238 283 348 411
#
# _framework density 23.60012
#
# number of rings (size 3 to 8) (size 9 to 14) (size 15 to 20)
#    0.000    0.800    4.000    2.000    7.467    1.067 
#    0.000    1.333    0.000    0.000    0.000    0.000 
#    0.000    0.000    0.000    0.000    0.000    0.000 
#
# Total GULP energy -372136.375870 kJ/mol
# GULP energy per Si atom -12404.545862 kJ/mol
# Density = 2.354641 g / cm^3
# Si number density = 23.600120 Si / 1000 Ang^3
#
#
#
# Elastic Constant Matrix: (Units=GPa)
#
#
# Indices 1 2 3 4 5 6 
#
# 1 177.2280 23.3209 59.5998 -0.0044 1.2032 -0.0004
# 2 23.3209 36.1546 1.7024 0.0007 -8.5770 0.0003
# 3 59.5998 1.7024 127.9697 -0.0056 4.9954 0.0006
# 4 -0.0044 0.0007 -0.0056 17.3377 0.0082 4.0322
# 5 1.2032 -8.5770 4.9954 0.0082 43.6986 -0.0001
# 6 -0.0004 0.0003 0.0006 4.0322 -0.0001 32.7166
#
#
#
# Elastic Compliance Matrix: (Units=1/GPa)
#
#
# Indices 1 2 3 4 5 6 
#
# 1 0.007408 -0.004801 -0.003357 0.000001 -0.000763 0.000000
# 2 -0.004801 0.032169 0.001564 -0.000005 0.006268 0.000000
# 3 -0.003357 0.001564 0.009383 0.000003 -0.000673 -0.000001
# 4 0.000001 -0.000005 0.000003 0.059380 -0.000012 -0.007318
# 5 -0.000763 0.006268 -0.000673 -0.000012 0.024212 0.000002
# 6 0.000000 0.000000 -0.000001 -0.007318 0.000002 0.031467
#
#
# Mechanical properties :
#
#
# Convention : Reuss Voigt Hill
#
# Bulk Modulus (GPa) = 27.95506 56.73316 42.34411
# Shear Modulus (GPa) = 26.43645 35.86586 31.15116
#
# Velocity S-wave (km/s) = 3.35054 3.90260 3.63706
# Velocity P-wave (km/s) = 5.18066 6.66323 5.96816
#
# Compressibility (1/GPa) = 0.03577170
#
# Stress axis : x y z
#
# Youngs Moduli (GPa) = 134.98512 31.08557 106.57429
#
# Poissons Ratio (x) = 0.14925 0.35773
# Poissons Ratio (y) = 0.64812 -0.16664
# Poissons Ratio (z) = 0.45309 -0.04860
#
# Static dielectric constant tensor:
#      x y z
#    x 4.410660 0.000000 0.160940 
#    y 0.000000 3.993390 0.000010 
#    z 0.160940 0.000010 4.383250 
# 
# 
# High freq. dielectric constant tensor:
#      x y z
#    x 1.939450 0.000000 0.010780 
#    y 0.000000 1.924570 0.000000 
#    z 0.010780 0.000000 1.945280 
# 
# From -- ./inp_files/298947.got.cif
#   From: 2010.06.25/outbox.cif.g09.slc.cpg/sg15_150_cif.got.tgz:298947.got - 2010.06.28 07:06:18.
