data_PCOD8143933
_publ_section_title
;
Structure prediction by ZEFSAII (Michael W. Deem and Ramdas Pophale) SiO2 
 PCOD8143933
Probable space group: C 2/C
;
_chemical_formula_sum "Si O2"
_cell_formula_units_Z 44
_cell_length_a 10.549118
_cell_length_b 8.699247
_cell_length_c 26.619200
_cell_angle_alpha 90.000000
_cell_angle_beta 122.442371
_cell_angle_gamma 90.000000
_cell_volume 2061.578992
_symmetry_space_group_name_H-M "C 2/C"
_symmetry_group_IT_number 15
_symmetry_cell_setting 'monoclinic'
loop_
_space_group_symop_operation_xyz
x,y,z
-x,y,1/2-z
-x,-y,-z
x,-y,1/2+z
1/2+x,1/2+y,z
1/2-x,1/2+y,1/2-z
1/2-x,1/2-y,-z
1/2+x,1/2-y,1/2+z
loop_
_atom_site_type_symbol
_atom_site_label
_atom_site_fract_x
_atom_site_fract_y
_atom_site_fract_z
Si Si1 0.024763 0.427371 0.837777
Si Si2 0.595190 0.159561 0.465352
Si Si3 0.587265 0.722086 0.339880
Si Si4 0.319303 0.425250 0.742989
Si Si5 0.500000 0.707350 0.750000
Si Si6 0.681114 0.841617 0.530956
O O1 0.854187 0.434974 0.781342
O O2 0.091729 0.308562 0.811156
O O3 0.039843 0.359683 0.896568
O O4 0.100502 0.594519 0.850766
O O5 0.750000 0.250000 0.500000
O O6 0.460303 0.239062 0.469436
O O7 0.623216 0.998207 0.496417
O O8 0.655666 0.676413 0.301187
O O9 0.415373 0.660328 0.307279
O O10 0.683320 0.632054 0.401704
O O11 0.375658 0.600273 0.749830
O O12 0.750000 0.750000 0.500000
#
# Coordination Sequence:
#
# PCOD8143933 Si02
#       6
#     8   8   8   8   4   8
#     4  12  22  43  63  96 131 169 216 271 327 393
#     4  11  27  42  69  97 136 173 226 280 327 394
#     4  10  21  41  67  91 127 171 220 267 331 393
#     4  10  23  42  64  91 128 172 211 274 331 382
#     4  10  24  36  64  96 124 164 218 260 330 388
#     4  11  23  48  68  95 131 181 223 274 331 393
#
# _framework density 21.342863999999999
#
# number of rings (size 3 to 8) (size 9 to 14) (size 15 to 20)
#    0.000    1.455    3.636    2.182    5.091    0.727 
#    3.273    0.000    0.000    0.000    0.000    0.000 
#    0.000    0.000    0.000    0.000    0.000    0.000 
#
# Total GULP energy -272660.655371 kJ/mol
# GULP energy per Si atom -12393.666153 kJ/mol
# Density = 2.129429 g / cm^3
# Si number density = 21.342864 Si / 1000 Ang^3
#
#
#
# Elastic Constant Matrix: (Units=GPa)
#
#
# Indices 1 2 3 4 5 6 
#
# 1 84.3745 25.1822 52.4776 0.0000 -0.8203 0.0000
# 2 25.1822 79.3815 26.9100 0.0000 -15.0728 0.0000
# 3 52.4776 26.9100 144.4297 0.0000 0.2617 0.0000
# 4 0.0000 0.0000 0.0000 27.8410 0.0000 1.5039
# 5 -0.8203 -15.0728 0.2617 0.0000 35.0868 0.0000
# 6 0.0000 0.0000 0.0000 1.5039 0.0000 25.1201
#
#
#
# Elastic Compliance Matrix: (Units=1/GPa)
#
#
# Indices 1 2 3 4 5 6 
#
# 1 0.016139 -0.003570 -0.005197 0.000000 -0.001118 0.000000
# 2 -0.003570 0.015528 -0.001608 0.000000 0.006599 0.000000
# 3 -0.005197 -0.001608 0.009113 0.000000 -0.000880 0.000000
# 4 0.000000 0.000000 0.000000 0.036035 0.000000 -0.002157
# 5 -0.001118 0.006599 -0.000880 0.000000 0.031316 0.000000
# 6 0.000000 0.000000 0.000000 -0.002157 0.000000 0.039938
#
#
# Mechanical properties :
#
#
# Convention : Reuss Voigt Hill
#
# Bulk Modulus (GPa) = 49.92435 57.48059 53.70247
# Shear Modulus (GPa) = 28.49078 31.18397 29.83738
#
# Velocity S-wave (km/s) = 3.65760 3.82658 3.74304
# Velocity P-wave (km/s) = 6.42494 6.82012 6.62547
#
# Compressibility (1/GPa) = 0.02003031
#
# Stress axis : x y z
#
# Youngs Moduli (GPa) = 61.96263 64.39928 109.73171
#
# Poissons Ratio (x) = 0.22992 0.57024
# Poissons Ratio (y) = 0.22122 0.17644
# Poissons Ratio (z) = 0.32200 0.10355
#
# Static dielectric constant tensor:
#      x y z
#    x 5.032100 0.000000 0.808230 
#    y 0.000000 3.834640 0.000000 
#    z 0.808230 0.000000 4.886610 
# 
# 
# High freq. dielectric constant tensor:
#      x y z
#    x 1.836680 0.000000 0.002430 
#    y 0.000000 1.833330 0.000000 
#    z 0.002430 0.000000 1.849190 
# 
# From -- ./inp_files/268151.got.cif
#   From: 2010.06.25/outbox.cif.g09.slc.cpg/sg15_135_cif.got.tgz:268151.got - 2010.06.28 07:06:18.
