data_PCOD8143881
_publ_section_title
;
Structure prediction by ZEFSAII (Michael W. Deem and Ramdas Pophale) SiO2 
 PCOD8143881
Probable space group: C 2/C
;
_chemical_formula_sum "Si O2"
_cell_formula_units_Z 40
_cell_length_a 30.234885
_cell_length_b 8.825903
_cell_length_c 21.027222
_cell_angle_alpha 90.000000
_cell_angle_beta 161.108247
_cell_angle_gamma 90.000000
_cell_volume 1816.774603
_symmetry_space_group_name_H-M "C 2/C"
_symmetry_group_IT_number 15
_symmetry_cell_setting 'monoclinic'
loop_
_space_group_symop_operation_xyz
x,y,z
-x,y,1/2-z
-x,-y,-z
x,-y,1/2+z
1/2+x,1/2+y,z
1/2-x,1/2+y,1/2-z
1/2-x,1/2-y,-z
1/2+x,1/2-y,1/2+z
loop_
_atom_site_type_symbol
_atom_site_label
_atom_site_fract_x
_atom_site_fract_y
_atom_site_fract_z
Si Si1 0.280551 0.624269 0.490894
Si Si2 0.816665 0.886223 0.629510
Si Si3 0.523054 0.942581 0.946150
Si Si4 0.529362 0.250852 0.014989
Si Si5 0.798946 0.384605 0.431041
O O1 0.250000 0.750000 0.500000
O O2 0.376375 0.498224 0.655147
O O3 0.345267 0.718296 0.520529
O O4 0.140579 0.539148 0.280614
O O5 0.750000 0.750000 0.500000
O O6 0.937308 0.833925 0.838467
O O7 0.708199 0.982467 0.525099
O O8 0.586875 0.094359 0.063498
O O9 0.553677 0.796693 0.033516
O O10 0.585714 0.925059 0.962097
O O11 0.650651 0.366838 0.196542
#
# Coordination Sequence:
#
# PCOD8143881 Si02
#       5
#     8   8   8   8   8
#     4   9  20  40  64  91 127 167 198 263 308 365
#     4  11  21  40  65  90 130 161 206 260 317 362
#     4  10  21  41  66  92 126 163 213 252 317 365
#     4  10  22  41  65  92 127 163 203 271 302 366
#     4  10  23  40  69  90 123 172 210 250 313 381
#
# _framework density 22.017040999999999
#
# number of rings (size 3 to 8) (size 9 to 14) (size 15 to 20)
#    0.000    2.000    2.000    0.600    2.800    3.200 
#    0.000    0.000   17.600    0.000    0.000    0.000 
#    0.000    0.000    0.000    0.000    0.000    0.000 
#
# Total GULP energy -247764.688355 kJ/mol
# GULP energy per Si atom -12388.234418 kJ/mol
# Density = 2.196693 g / cm^3
# Si number density = 22.017041 Si / 1000 Ang^3
#
#
#
# Elastic Constant Matrix: (Units=GPa)
#
#
# Indices 1 2 3 4 5 6 
#
# 1 130.4720 48.6185 25.7503 0.0000 -7.3818 0.0000
# 2 48.6185 110.9139 31.7641 0.0000 -15.0140 0.0000
# 3 25.7503 31.7641 57.5483 0.0000 -28.5443 0.0000
# 4 0.0000 0.0000 0.0000 39.0473 0.0000 -28.2521
# 5 -7.3818 -15.0140 -28.5443 0.0000 38.0646 0.0000
# 6 0.0000 0.0000 0.0000 -28.2521 0.0000 45.3453
#
#
#
# Elastic Compliance Matrix: (Units=1/GPa)
#
#
# Indices 1 2 3 4 5 6 
#
# 1 0.009508 -0.003487 -0.003339 0.000000 -0.002036 0.000000
# 2 -0.003487 0.011990 -0.004852 0.000000 0.000414 0.000000
# 3 -0.003339 -0.004852 0.032288 0.000000 0.021651 0.000000
# 4 0.000000 0.000000 0.000000 0.046631 0.000000 0.029053
# 5 -0.002036 0.000414 0.021651 0.000000 0.042276 0.000000
# 6 0.000000 0.000000 0.000000 0.029053 0.000000 0.040155
#
#
# Mechanical properties :
#
#
# Convention : Reuss Voigt Hill
#
# Bulk Modulus (GPa) = 32.86329 56.80001 44.83165
# Shear Modulus (GPa) = 23.11097 37.34486 30.22792
#
# Velocity S-wave (km/s) = 3.24340 4.12294 3.70933
# Velocity P-wave (km/s) = 5.38376 6.96556 6.22511
#
# Compressibility (1/GPa) = 0.03042909
#
# Stress axis : x y z
#
# Youngs Moduli (GPa) = 105.17784 83.40169 30.97106
#
# Poissons Ratio (x) = 0.29081 0.10342
# Poissons Ratio (y) = 0.36674 0.15028
# Poissons Ratio (z) = 0.35123 0.40469
#
# Static dielectric constant tensor:
#      x y z
#    x 3.724630 0.000000 -0.132100 
#    y 0.000000 4.563070 0.000000 
#    z -0.132100 0.000000 3.316270 
# 
# 
# High freq. dielectric constant tensor:
#      x y z
#    x 1.864330 0.000000 -0.050080 
#    y 0.000000 1.880840 0.000000 
#    z -0.050080 0.000000 1.841370 
# 
# From -- ./inp_files/102765.got.cif
#   From: 2010.06.25/outbox.cif.g09.slc.cpg/sg15_52_cif.got.tgz:102765.got - 2010.06.28 07:06:18.
