data_PCOD8143198
_publ_section_title
;
Structure prediction by ZEFSAII (Michael W. Deem and Ramdas Pophale) SiO2 
 PCOD8143198
Probable space group: C 2/C
;
_chemical_formula_sum "Si O2"
_cell_formula_units_Z 52
_cell_length_a 23.069123
_cell_length_b 8.848009
_cell_length_c 20.337569
_cell_angle_alpha 90.000000
_cell_angle_beta 37.077081
_cell_angle_gamma 90.000000
_cell_volume 2502.724039
_symmetry_space_group_name_H-M "C 2/C"
_symmetry_group_IT_number 15
_symmetry_cell_setting 'monoclinic'
loop_
_space_group_symop_operation_xyz
x,y,z
-x,y,1/2-z
-x,-y,-z
x,-y,1/2+z
1/2+x,1/2+y,z
1/2-x,1/2+y,1/2-z
1/2-x,1/2-y,-z
1/2+x,1/2-y,1/2+z
loop_
_atom_site_type_symbol
_atom_site_label
_atom_site_fract_x
_atom_site_fract_y
_atom_site_fract_z
Si Si1 0.500000 0.452980 0.750000
Si Si2 0.818404 0.617032 0.458695
Si Si3 0.171428 0.111037 0.377731
Si Si4 0.142033 0.390700 0.721418
Si Si5 0.705922 0.837749 0.230314
Si Si6 0.203259 0.161519 0.101467
Si Si7 0.967372 0.812519 0.391593
O O1 0.412210 0.350519 0.803157
O O2 0.540354 0.556334 0.655090
O O3 0.750000 0.750000 0.500000
O O4 0.865252 0.555656 0.347946
O O5 0.753482 0.500773 0.557565
O O6 0.904516 0.668354 0.427604
O O7 0.249564 0.168540 0.360999
O O8 0.168276 0.224206 0.319249
O O9 0.067655 0.117944 0.507143
O O10 0.200308 0.937711 0.331258
O O11 0.123067 0.539623 0.784501
O O12 0.074641 0.250775 0.801640
O O13 0.732907 0.741433 0.142027
O O14 0.250000 0.250000 0.000000
#
# Coordination Sequence:
#
# PCOD8143198 Si02
#       7
#     4   8   8   8   8   8   8
#     4  12  24  38  70 104 134 172 218 276 338 398
#     4  12  19  38  69  98 131 172 213 273 333 396
#     4  10  24  44  66  91 135 178 225 272 335 391
#     4  10  21  40  63  96 135 162 228 268 326 401
#     4  10  24  45  65  96 133 179 221 280 328 400
#     4  12  24  43  68 100 139 170 218 280 343 391
#     4  12  22  40  69 103 130 176 220 275 333 406
#
# _framework density 20.777360999999999
#
# number of rings (size 3 to 8) (size 9 to 14) (size 15 to 20)
#    0.923    0.000    6.154    0.923    2.154    1.846 
#    0.000    4.615    0.000    0.000    0.000    0.000 
#    0.000    0.000    0.000    0.000    0.000    0.000 
#
# Total GULP energy -322252.059098 kJ/mol
# GULP energy per Si atom -12394.309965 kJ/mol
# Density = 2.073007 g / cm^3
# Si number density = 20.777361 Si / 1000 Ang^3
#
#
#
# Elastic Constant Matrix: (Units=GPa)
#
#
# Indices 1 2 3 4 5 6 
#
# 1 37.4826 21.9169 20.0229 0.0000 12.3768 -0.0003
# 2 21.9169 90.4208 31.2687 0.0016 12.5285 -0.0017
# 3 20.0229 31.2687 111.3293 0.0000 20.1375 -0.0002
# 4 0.0000 0.0016 0.0000 30.5901 0.0001 7.0728
# 5 12.3768 12.5285 20.1375 0.0001 44.3564 0.0000
# 6 -0.0003 -0.0017 -0.0002 7.0728 0.0000 42.7888
#
#
#
# Elastic Compliance Matrix: (Units=1/GPa)
#
#
# Indices 1 2 3 4 5 6 
#
# 1 0.034163 -0.006289 -0.003241 0.000000 -0.006285 0.000000
# 2 -0.006289 0.013583 -0.002514 -0.000001 -0.000941 0.000001
# 3 -0.003241 -0.002514 0.010872 0.000000 -0.003321 0.000000
# 4 0.000000 -0.000001 0.000000 0.033989 0.000000 -0.005618
# 5 -0.006285 -0.000941 -0.003321 0.000000 0.026072 0.000000
# 6 0.000000 0.000001 0.000000 -0.005618 0.000000 0.024299
#
#
# Mechanical properties :
#
#
# Convention : Reuss Voigt Hill
#
# Bulk Modulus (GPa) = 28.95999 42.84996 35.90498
# Shear Modulus (GPa) = 27.99907 34.61536 31.30721
#
# Velocity S-wave (km/s) = 3.67492 4.08611 3.88596
# Velocity P-wave (km/s) = 5.65466 6.55209 6.11985
#
# Compressibility (1/GPa) = 0.03453039
#
# Stress axis : x y z
#
# Youngs Moduli (GPa) = 29.27141 73.61900 91.97814
#
# Poissons Ratio (x) = 0.46300 0.29811
# Poissons Ratio (y) = 0.18409 0.23122
# Poissons Ratio (z) = 0.09487 0.18507
#
# Static dielectric constant tensor:
#      x y z
#    x 3.651980 0.000010 0.283830 
#    y 0.000010 3.381970 -0.000020 
#    z 0.283830 -0.000020 3.436380 
# 
# 
# High freq. dielectric constant tensor:
#      x y z
#    x 1.795830 0.000000 0.008430 
#    y 0.000000 1.815850 0.000000 
#    z 0.008430 0.000000 1.809020 
# 
# From -- ./inp_files/254991.got.cif
#   From: 2010.06.25/outbox.cif.g09.slc.cpg/sg15_128_cif.got.tgz:254991.got - 2010.06.28 07:06:18.
