data_PCOD8143519
_publ_section_title
;
Structure prediction by ZEFSAII (Michael W. Deem and Ramdas Pophale) SiO2 
 PCOD8143519
Probable space group: C 2/C
;
_chemical_formula_sum "Si O2"
_cell_formula_units_Z 44
_cell_length_a 7.972170
_cell_length_b 17.170672
_cell_length_c 19.648485
_cell_angle_alpha 90.000000
_cell_angle_beta 127.228667
_cell_angle_gamma 90.000000
_cell_volume 2141.558717
_symmetry_space_group_name_H-M "C 2/C"
_symmetry_group_IT_number 15
_symmetry_cell_setting 'monoclinic'
loop_
_space_group_symop_operation_xyz
x,y,z
-x,y,1/2-z
-x,-y,-z
x,-y,1/2+z
1/2+x,1/2+y,z
1/2-x,1/2+y,1/2-z
1/2-x,1/2-y,-z
1/2+x,1/2-y,1/2+z
loop_
_atom_site_type_symbol
_atom_site_label
_atom_site_fract_x
_atom_site_fract_y
_atom_site_fract_z
Si Si1 0.500000 0.184095 0.750000
Si Si2 0.993387 0.634977 0.601969
Si Si3 0.441216 0.559526 0.044881
Si Si4 0.597853 0.442119 0.346438
Si Si5 0.456307 0.714037 0.877055
Si Si6 0.140161 0.788055 0.571948
O O1 0.514705 0.127059 0.688486
O O2 0.710672 0.238285 0.807694
O O3 0.766519 0.607337 0.523680
O O4 0.159693 0.581845 0.603010
O O5 0.029450 0.725878 0.593876
O O6 0.412920 0.518155 0.109850
O O7 0.623566 0.624684 0.097434
O O8 0.500000 0.500000 0.000000
O O9 0.500000 0.462835 0.250000
O O10 0.471348 0.373316 0.352022
O O11 0.609631 0.771007 0.872555
O O12 0.521442 0.716789 0.971070
#
# Coordination Sequence:
#
# PCOD8143519 Si02
#       6
#     4   8   8   8   8   8
#     4  12  20  38  68 100 126 174 230 270 330 384
#     4  11  24  40  70  94 131 175 228 267 324 400
#     4  12  23  42  67  98 130 175 214 275 335 394
#     4  11  22  42  67  98 132 174 222 272 334 397
#     4  10  21  40  69  94 125 173 222 271 317 406
#     4  10  22  42  65  96 127 169 226 267 325 395
#
# _framework density 20.545781999999999
#
# number of rings (size 3 to 8) (size 9 to 14) (size 15 to 20)
#    0.000    1.091    5.455    1.091    0.000    0.000 
#    1.636    0.000    4.000    0.000    0.000    0.000 
#    0.000    0.000    0.000    0.000    0.000    0.000 
#
# Total GULP energy -272823.757041 kJ/mol
# GULP energy per Si atom -12401.079866 kJ/mol
# Density = 2.049902 g / cm^3
# Si number density = 20.545782 Si / 1000 Ang^3
#
#
#
# Elastic Constant Matrix: (Units=GPa)
#
#
# Indices 1 2 3 4 5 6 
#
# 1 127.4011 62.4251 38.0511 -0.0004 13.0893 -0.0002
# 2 62.4251 132.8959 31.2004 -0.0001 -5.9013 0.0000
# 3 38.0511 31.2004 86.8848 -0.0005 -4.2663 -0.0003
# 4 -0.0004 -0.0001 -0.0005 -17.4971 -0.0004 -34.0821
# 5 13.0893 -5.9013 -4.2663 -0.0004 51.9887 -0.0002
# 6 -0.0002 0.0000 -0.0003 -34.0821 -0.0002 5.7077
#
#
#
# Elastic Compliance Matrix: (Units=1/GPa)
#
#
# Indices 1 2 3 4 5 6 
#
# 1 0.011656 -0.004806 -0.003564 0.000000 -0.003773 0.000000
# 2 -0.004806 0.010224 -0.001456 0.000000 0.002251 0.000000
# 3 -0.003564 -0.001456 0.013684 0.000000 0.001855 0.000000
# 4 0.000000 0.000000 0.000000 -0.004525 0.000000 -0.027018
# 5 -0.003773 0.002251 0.001855 0.000000 0.020593 0.000000
# 6 0.000000 0.000000 0.000000 -0.027018 0.000000 0.013871
#
#
# Mechanical properties :
#
#
# Convention : Reuss Voigt Hill
#
# Bulk Modulus (GPa) = 62.84596 67.83723 65.34159
# Shear Modulus (GPa) = 55.27304 22.40688 38.83996
#
# Velocity S-wave (km/s) = 5.19238 3.30598 4.35260
# Velocity P-wave (km/s) = 8.16103 6.90376 7.55858
#
# Compressibility (1/GPa) = 0.01591192
#
# Stress axis : x y z
#
# Youngs Moduli (GPa) = 85.79056 97.80861 73.07565
#
# Poissons Ratio (x) = 0.47007 0.26046
# Poissons Ratio (y) = 0.41231 0.10641
# Poissons Ratio (z) = 0.30578 0.14242
#
# Static dielectric constant tensor:
#      x y z
#    x 4.245700 0.000000 -0.030000 
#    y 0.000000 3.667960 0.000000 
#    z -0.030000 0.000000 3.812430 
# 
# 
# High freq. dielectric constant tensor:
#      x y z
#    x 1.831800 0.000000 -0.004830 
#    y 0.000000 1.776960 0.000000 
#    z -0.004830 0.000000 1.801530 
# 
# From -- ./inp_files/134364.got.cif
#   From: 2010.06.25/outbox.cif.g09.slc.cpg/sg15_68_cif.got.tgz:134364.got - 2010.06.28 07:06:18.
