data_PCOD8143847
_publ_section_title
;
Structure prediction by ZEFSAII (Michael W. Deem and Ramdas Pophale) SiO2 
 PCOD8143847
Probable space group: C 2/C
;
_chemical_formula_sum "Si O2"
_cell_formula_units_Z 48
_cell_length_a 18.266392
_cell_length_b 25.504584
_cell_length_c 5.128121
_cell_angle_alpha 90.000000
_cell_angle_beta 65.547398
_cell_angle_gamma 90.000000
_cell_volume 2174.782050
_symmetry_space_group_name_H-M "C 2/C"
_symmetry_group_IT_number 15
_symmetry_cell_setting 'monoclinic'
loop_
_space_group_symop_operation_xyz
x,y,z
-x,y,1/2-z
-x,-y,-z
x,-y,1/2+z
1/2+x,1/2+y,z
1/2-x,1/2+y,1/2-z
1/2-x,1/2-y,-z
1/2+x,1/2-y,1/2+z
loop_
_atom_site_type_symbol
_atom_site_label
_atom_site_fract_x
_atom_site_fract_y
_atom_site_fract_z
Si Si1 0.947144 0.597677 0.076298
Si Si2 0.324203 0.176077 0.486254
Si Si3 0.788822 0.118724 0.461344
Si Si4 0.201916 0.533942 0.294181
Si Si5 0.408061 0.466807 0.878113
Si Si6 0.195920 0.778880 0.786529
O O1 0.892689 0.648083 0.220164
O O2 0.892771 0.547697 0.078620
O O3 0.000000 0.582574 0.250000
O O4 0.000000 0.613593 0.750000
O O5 0.247831 0.195753 0.439637
O O6 0.363490 0.231616 0.534328
O O7 0.289725 0.135730 0.754947
O O8 0.752075 0.087546 0.264696
O O9 0.850740 0.082224 0.526329
O O10 0.842066 0.169444 0.293640
O O11 0.225171 0.493609 0.489676
O O12 0.500000 0.447714 0.750000
O O13 0.389445 0.488501 0.616960
O O14 0.250000 0.750000 0.500000
#
# Coordination Sequence:
#
# PCOD8143847 Si02
#       6
#     8   8   8   8   8   8
#     4  12  26  43  67  91 134 182 218 268 334 392
#     4  10  21  41  65  98 125 166 222 268 324 388
#     4  11  21  38  69  96 128 172 217 274 321 391
#     4  12  25  40  62  95 129 168 227 273 312 378
#     4  10  23  41  64  95 135 175 211 261 331 395
#     4   9  20  37  69  93 124 158 212 273 328 377
#
# _framework density 22.071178
#
# number of rings (size 3 to 8) (size 9 to 14) (size 15 to 20)
#    0.000    1.333    1.667    4.000    4.667    2.000 
#    0.000    0.000   11.000    0.000    0.000    0.000 
#    0.000    0.000    0.000    0.000    0.000    0.000 
#
# Total GULP energy -297375.179327 kJ/mol
# GULP energy per Si atom -12390.632472 kJ/mol
# Density = 2.202094 g / cm^3
# Si number density = 22.071178 Si / 1000 Ang^3
#
#
#
# Elastic Constant Matrix: (Units=GPa)
#
#
# Indices 1 2 3 4 5 6 
#
# 1 67.8576 46.5855 29.0481 0.0000 10.7074 0.0000
# 2 46.5855 144.1845 41.6898 0.0000 -7.3241 0.0000
# 3 29.0481 41.6898 90.0342 0.0000 1.6560 0.0000
# 4 0.0000 0.0000 0.0000 31.2108 0.0000 7.8699
# 5 10.7074 -7.3241 1.6560 0.0000 33.5213 0.0000
# 6 0.0000 0.0000 0.0000 7.8699 0.0000 18.8444
#
#
#
# Elastic Compliance Matrix: (Units=1/GPa)
#
#
# Indices 1 2 3 4 5 6 
#
# 1 0.022178 -0.006422 -0.004029 0.000000 -0.008288 0.000000
# 2 -0.006422 0.009994 -0.002636 0.000000 0.004365 0.000000
# 3 -0.004029 -0.002636 0.013627 0.000000 0.000038 0.000000
# 4 0.000000 0.000000 0.000000 0.035811 0.000000 -0.014956
# 5 -0.008288 0.004365 0.000038 0.000000 0.033431 0.000000
# 6 0.000000 0.000000 0.000000 -0.014956 0.000000 0.059312
#
#
# Mechanical properties :
#
#
# Convention : Reuss Voigt Hill
#
# Bulk Modulus (GPa) = 50.95633 59.63590 55.29611
# Shear Modulus (GPa) = 24.14647 29.03217 26.58932
#
# Velocity S-wave (km/s) = 3.31120 3.63076 3.47466
# Velocity P-wave (km/s) = 6.14460 6.68244 6.41916
#
# Compressibility (1/GPa) = 0.01962465
#
# Stress axis : x y z
#
# Youngs Moduli (GPa) = 45.08979 100.05666 73.38395
#
# Poissons Ratio (x) = 0.64252 0.29570
# Poissons Ratio (y) = 0.28955 0.19346
# Poissons Ratio (z) = 0.18169 0.26378
#
# Static dielectric constant tensor:
#      x y z
#    x 4.001690 0.000000 0.198860 
#    y 0.000000 4.824690 0.000000 
#    z 0.198860 0.000000 3.987040 
# 
# 
# High freq. dielectric constant tensor:
#      x y z
#    x 1.843550 0.000000 0.027320 
#    y 0.000000 1.890300 0.000000 
#    z 0.027320 0.000000 1.867670 
# 
# From -- ./inp_files/11182.got.cif
#   From: 2010.06.25/outbox.cif.g09.slc.cpg/sg15_6_cif.got.tgz:11182.got - 2010.06.28 07:06:18.
