data_PCOD8143166
_publ_section_title
;
Structure prediction by ZEFSAII (Michael W. Deem and Ramdas Pophale) SiO2 
 PCOD8143166
Probable space group: C 2/C
;
_chemical_formula_sum "Si O2"
_cell_formula_units_Z 52
_cell_length_a 14.909034
_cell_length_b 19.371140
_cell_length_c 14.804597
_cell_angle_alpha 90.000000
_cell_angle_beta 144.287346
_cell_angle_gamma 90.000000
_cell_volume 2495.779753
_symmetry_space_group_name_H-M "C 2/C"
_symmetry_group_IT_number 15
_symmetry_cell_setting 'monoclinic'
loop_
_space_group_symop_operation_xyz
x,y,z
-x,y,1/2-z
-x,-y,-z
x,-y,1/2+z
1/2+x,1/2+y,z
1/2-x,1/2+y,1/2-z
1/2-x,1/2-y,-z
1/2+x,1/2-y,1/2+z
loop_
_atom_site_type_symbol
_atom_site_label
_atom_site_fract_x
_atom_site_fract_y
_atom_site_fract_z
Si Si1 0.865045 0.670822 0.008350
Si Si2 0.480259 0.018705 0.087922
Si Si3 0.588936 0.291085 0.154295
Si Si4 0.500000 0.245245 0.750000
Si Si5 0.733996 0.978384 0.432165
Si Si6 0.797062 0.176288 0.943093
Si Si7 0.381477 0.616554 0.574901
O O1 0.747103 0.694628 0.835086
O O2 0.776385 0.658975 0.031774
O O3 0.933878 0.597360 0.041171
O O4 0.007595 0.723260 0.129743
O O5 0.637425 0.010263 0.270707
O O6 0.356904 0.973371 0.045783
O O7 0.500000 0.000000 0.000000
O O8 0.627453 0.287078 0.080938
O O9 0.462816 0.352758 0.053092
O O10 0.616283 0.195147 0.791951
O O11 0.392316 0.294306 0.603738
O O12 0.806843 0.906504 0.459541
O O13 0.867826 0.034380 0.555267
O O14 0.500000 0.635360 0.750000
#
# Coordination Sequence:
#
# PCOD8143166 Si02
#       7
#     8   8   8   4   8   8   8
#     4  10  22  38  62  91 127 165 204 259 314 367
#     4  10  21  40  63  91 122 170 212 256 310 387
#     4  11  22  38  62  91 124 162 210 256 311 383
#     4  10  24  42  60  88 122 158 204 254 316 366
#     4  10  22  39  64  90 127 161 210 263 316 371
#     4  11  23  42  64  90 122 165 205 261 314 371
#     4   9  21  40  58  90 128 163 203 258 315 369
#
# _framework density 20.835172
#
# number of rings (size 3 to 8) (size 9 to 14) (size 15 to 20)
#    0.000    1.846    0.000    3.231    3.231    3.077 
#    8.308    0.000    0.000    0.000    0.000    0.000 
#    0.000    0.000    0.000    0.000    0.000    0.000 
#
# Total GULP energy -322169.430716 kJ/mol
# GULP energy per Si atom -12391.131951 kJ/mol
# Density = 2.078775 g / cm^3
# Si number density = 20.835172 Si / 1000 Ang^3
#
#
#
# Elastic Constant Matrix: (Units=GPa)
#
#
# Indices 1 2 3 4 5 6 
#
# 1 104.5828 32.8155 39.3314 0.0003 3.6088 0.0002
# 2 32.8155 113.3753 37.7333 0.0001 17.9874 0.0001
# 3 39.3314 37.7333 65.7154 0.0003 -0.1651 0.0002
# 4 0.0003 0.0001 0.0003 32.9447 0.0003 6.8407
# 5 3.6088 17.9874 -0.1651 0.0003 28.2841 0.0002
# 6 0.0002 0.0001 0.0002 6.8407 0.0002 25.1945
#
#
#
# Elastic Compliance Matrix: (Units=1/GPa)
#
#
# Indices 1 2 3 4 5 6 
#
# 1 0.012534 -0.001229 -0.006798 0.000000 -0.000857 0.000000
# 2 -0.001229 0.012597 -0.006517 0.000000 -0.007893 0.000000
# 3 -0.006798 -0.006517 0.023041 0.000000 0.005147 0.000000
# 4 0.000000 0.000000 0.000000 0.032167 0.000000 -0.008734
# 5 -0.000857 -0.007893 0.005147 0.000000 0.040514 0.000000
# 6 0.000000 0.000000 0.000000 -0.008734 0.000000 0.042063
#
#
# Mechanical properties :
#
#
# Convention : Reuss Voigt Hill
#
# Bulk Modulus (GPa) = 52.40314 55.93712 54.17013
# Shear Modulus (GPa) = 25.20593 28.87087 27.03840
#
# Velocity S-wave (km/s) = 3.48196 3.72651 3.60631
# Velocity P-wave (km/s) = 6.43205 6.73955 6.58760
#
# Compressibility (1/GPa) = 0.01908283
#
# Stress axis : x y z
#
# Youngs Moduli (GPa) = 79.78540 79.38171 43.40121
#
# Poissons Ratio (x) = 0.09759 0.29503
# Poissons Ratio (y) = 0.09808 0.28286
# Poissons Ratio (z) = 0.54236 0.51736
#
# Static dielectric constant tensor:
#      x y z
#    x 4.032380 0.000000 0.210960 
#    y 0.000000 3.803260 0.000000 
#    z 0.210960 0.000000 3.739990 
# 
# 
# High freq. dielectric constant tensor:
#      x y z
#    x 1.816740 0.000000 0.008900 
#    y 0.000000 1.821260 0.000000 
#    z 0.008900 0.000000 1.813880 
# 
# From -- ./inp_files/155552.got.cif
#   From: 2010.06.25/outbox.cif.g09.slc.cpg/sg15_78_cif.got.tgz:155552.got - 2010.06.28 07:06:18.
