data_PCOD8143759
_publ_section_title
;
Structure prediction by ZEFSAII (Michael W. Deem and Ramdas Pophale) SiO2 
 PCOD8143759
Probable space group: C 2/C
;
_chemical_formula_sum "Si O2"
_cell_formula_units_Z 44
_cell_length_a 15.168848
_cell_length_b 23.611734
_cell_length_c 8.482755
_cell_angle_alpha 90.000000
_cell_angle_beta 136.937677
_cell_angle_gamma 90.000000
_cell_volume 2074.468148
_symmetry_space_group_name_H-M "C 2/C"
_symmetry_group_IT_number 15
_symmetry_cell_setting 'monoclinic'
loop_
_space_group_symop_operation_xyz
x,y,z
-x,y,1/2-z
-x,-y,-z
x,-y,1/2+z
1/2+x,1/2+y,z
1/2-x,1/2+y,1/2-z
1/2-x,1/2-y,-z
1/2+x,1/2-y,1/2+z
loop_
_atom_site_type_symbol
_atom_site_label
_atom_site_fract_x
_atom_site_fract_y
_atom_site_fract_z
Si Si1 0.500000 0.545982 0.250000
Si Si2 0.727818 0.459726 0.581629
Si Si3 0.900675 0.631631 0.757172
Si Si4 0.882604 0.538325 0.987399
Si Si5 0.395838 0.743398 0.246659
Si Si6 0.145853 0.124744 0.221604
O O1 0.618178 0.506798 0.455147
O O2 0.532415 0.585405 0.142382
O O3 0.761101 0.447994 0.443128
O O4 0.688553 0.400277 0.609367
O O5 0.851910 0.484771 0.836301
O O6 0.932071 0.695077 0.864228
O O7 0.757942 0.624467 0.499892
O O8 0.000000 0.614947 0.750000
O O9 0.918316 0.592968 0.932332
O O10 0.000000 0.519433 0.250000
O O11 0.500000 0.727828 0.250000
O O12 0.400907 0.689517 0.372056
O O13 0.250000 0.750000 0.000000
#
# Coordination Sequence:
#
# PCOD8143759 Si02
#       6
#     4   8   8   8   8   8
#     4  12  22  40  62  86 126 154 206 240 308 358
#     4  12  25  39  60  91 125 161 201 251 304 368
#     4  10  21  41  64  91 119 156 207 256 300 360
#     4  12  24  40  61  88 124 165 201 250 308 363
#     4   9  19  36  64  91 116 157 208 254 301 363
#     4  11  21  39  65  91 119 159 202 256 300 364
#
# _framework density 21.210256000000001
#
# number of rings (size 3 to 8) (size 9 to 14) (size 15 to 20)
#    0.000    1.091    4.545    2.182    0.000    1.455 
#    0.000    0.909    2.000    0.000    0.000    0.000 
#    0.000    0.000    0.000    0.000    0.000    0.000 
#
# Total GULP energy -272743.925858 kJ/mol
# GULP energy per Si atom -12397.451175 kJ/mol
# Density = 2.116198 g / cm^3
# Si number density = 21.210256 Si / 1000 Ang^3
#
#
#
# Elastic Constant Matrix: (Units=GPa)
#
#
# Indices 1 2 3 4 5 6 
#
# 1 129.2584 79.4631 31.2415 0.0000 -8.4420 0.0000
# 2 79.4631 165.4148 20.4536 0.0000 -19.1216 0.0000
# 3 31.2415 20.4536 51.6232 0.0000 -0.0574 0.0000
# 4 0.0000 0.0000 0.0000 18.6947 0.0000 -2.8516
# 5 -8.4420 -19.1216 -0.0574 0.0000 34.4869 0.0000
# 6 0.0000 0.0000 0.0000 -2.8516 0.0000 44.1048
#
#
#
# Elastic Compliance Matrix: (Units=1/GPa)
#
#
# Indices 1 2 3 4 5 6 
#
# 1 0.012234 -0.005205 -0.005341 0.000000 0.000100 0.000000
# 2 -0.005205 0.009030 -0.000423 0.000000 0.003732 0.000000
# 3 -0.005341 -0.000423 0.022770 0.000000 -0.001504 0.000000
# 4 0.000000 0.000000 0.000000 0.054024 0.000000 0.003493
# 5 0.000100 0.003732 -0.001504 0.000000 0.031088 0.000000
# 6 0.000000 0.000000 0.000000 0.003493 0.000000 0.022899
#
#
# Mechanical properties :
#
#
# Convention : Reuss Voigt Hill
#
# Bulk Modulus (GPa) = 45.26211 67.62365 56.44288
# Shear Modulus (GPa) = 27.57137 33.79983 30.68560
#
# Velocity S-wave (km/s) = 3.60933 3.99627 3.80772
# Velocity P-wave (km/s) = 6.22541 7.29694 6.78237
#
# Compressibility (1/GPa) = 0.02209353
#
# Stress axis : x y z
#
# Youngs Moduli (GPa) = 81.74109 110.74767 43.91798
#
# Poissons Ratio (x) = 0.57643 0.23458
# Poissons Ratio (y) = 0.42546 0.01860
# Poissons Ratio (z) = 0.43660 0.04690
#
# Static dielectric constant tensor:
#      x y z
#    x 4.166610 0.000000 0.232030 
#    y 0.000000 4.337240 0.000000 
#    z 0.232030 0.000000 3.533240 
# 
# 
# High freq. dielectric constant tensor:
#      x y z
#    x 1.851430 0.000000 0.024660 
#    y 0.000000 1.843660 0.000000 
#    z 0.024660 0.000000 1.794370 
# 
# From -- ./inp_files/42374.got.cif
#   From: 2010.06.25/outbox.cif.g09.slc.cpg/sg15_22_cif.got.tgz:42374.got - 2010.06.28 07:06:18.
