data_PCOD8143619
_publ_section_title
;
Structure prediction by ZEFSAII (Michael W. Deem and Ramdas Pophale) SiO2 
 PCOD8143619
Probable space group: C 2/C
;
_chemical_formula_sum "Si O2"
_cell_formula_units_Z 36
_cell_length_a 7.987533
_cell_length_b 21.408251
_cell_length_c 14.191687
_cell_angle_alpha 90.000000
_cell_angle_beta 139.340903
_cell_angle_gamma 90.000000
_cell_volume 1581.176315
_symmetry_space_group_name_H-M "C 2/C"
_symmetry_group_IT_number 15
_symmetry_cell_setting 'monoclinic'
loop_
_space_group_symop_operation_xyz
x,y,z
-x,y,1/2-z
-x,-y,-z
x,-y,1/2+z
1/2+x,1/2+y,z
1/2-x,1/2+y,1/2-z
1/2-x,1/2-y,-z
1/2+x,1/2-y,1/2+z
loop_
_atom_site_type_symbol
_atom_site_label
_atom_site_fract_x
_atom_site_fract_y
_atom_site_fract_z
Si Si1 0.296663 0.388216 0.298444
Si Si2 0.000000 0.498203 0.250000
Si Si3 0.073303 0.327496 0.502700
Si Si4 0.492791 0.314291 0.541331
Si Si5 0.846305 0.611636 0.071547
O O1 0.236899 0.455147 0.320176
O O2 0.103069 0.374619 0.131875
O O3 0.276163 0.335050 0.371905
O O4 0.596604 0.390607 0.395244
O O5 0.071073 0.541647 0.369235
O O6 0.068170 0.350946 0.609246
O O7 0.367696 0.328070 0.590661
O O8 0.949092 0.258839 0.444271
O O9 0.757400 0.353182 0.632402
#
# Coordination Sequence:
#
# PCOD8143619 Si02
#       5
#     8   4   8   8   8
#     4  10  21  41  61  91 128 162 205 265 308 357
#     4  12  22  44  62  86 138 170 212 264 298 364
#     4  11  19  41  67  94 122 162 206 260 321 380
#     4   9  22  38  64  95 125 155 202 265 321 364
#     4  10  24  39  65  91 123 171 208 253 313 376
#
# _framework density 22.767859999999999
#
# number of rings (size 3 to 8) (size 9 to 14) (size 15 to 20)
#    1.333    0.444    2.222    2.000    0.000    2.667 
#    0.000    5.556    0.000    0.000    0.000    0.000 
#    0.000    0.000    0.000    0.000    0.000    0.000 
#
# Total GULP energy -223044.381463 kJ/mol
# GULP energy per Si atom -12391.354526 kJ/mol
# Density = 2.271604 g / cm^3
# Si number density = 22.767860 Si / 1000 Ang^3
#
#
#
# Elastic Constant Matrix: (Units=GPa)
#
#
# Indices 1 2 3 4 5 6 
#
# 1 152.9270 57.1447 16.6360 -0.0002 -14.6222 0.0004
# 2 57.1447 135.4126 13.5220 -0.0001 -6.2254 0.0002
# 3 16.6360 13.5220 18.6682 -0.0004 -10.0638 0.0013
# 4 -0.0002 -0.0001 -0.0004 36.6316 -0.0003 -5.7267
# 5 -14.6222 -6.2254 -10.0638 -0.0003 24.8800 0.0007
# 6 0.0004 0.0002 0.0013 -5.7267 0.0007 23.8994
#
#
#
# Elastic Compliance Matrix: (Units=1/GPa)
#
#
# Indices 1 2 3 4 5 6 
#
# 1 0.008331 -0.003012 -0.003848 0.000000 0.002586 0.000000
# 2 -0.003012 0.009054 -0.004612 0.000000 -0.001371 0.000000
# 3 -0.003848 -0.004612 0.074808 0.000000 0.026844 -0.000005
# 4 0.000000 0.000000 0.000000 0.028361 0.000000 0.006796
# 5 0.002586 -0.001371 0.026844 0.000000 0.052228 -0.000003
# 6 0.000000 0.000000 -0.000005 0.006796 -0.000003 0.043470
#
#
# Mechanical properties :
#
#
# Convention : Reuss Voigt Hill
#
# Bulk Modulus (GPa) = 14.44098 53.51256 33.97677
# Shear Modulus (GPa) = 19.06367 31.72920 25.39643
#
# Velocity S-wave (km/s) = 2.89676 3.73714 3.34346
# Velocity P-wave (km/s) = 4.18865 6.49432 5.46448
#
# Compressibility (1/GPa) = 0.06924738
#
# Stress axis : x y z
#
# Youngs Moduli (GPa) = 120.04015 110.45274 13.36754
#
# Poissons Ratio (x) = 0.33273 0.05143
# Poissons Ratio (y) = 0.36161 0.06165
# Poissons Ratio (z) = 0.46188 0.50944
#
# Static dielectric constant tensor:
#      x y z
#    x 4.193050 0.000000 -0.064080 
#    y 0.000000 3.848090 0.000000 
#    z -0.064080 0.000000 3.739130 
# 
# 
# High freq. dielectric constant tensor:
#      x y z
#    x 1.908700 0.000000 0.002320 
#    y 0.000000 1.889920 0.000000 
#    z 0.002320 0.000000 1.878180 
# 
# From -- ./inp_files/135667.got.cif
#   From: 2010.06.25/outbox.cif.g09.slc.cpg/sg15_68_cif.got.tgz:135667.got - 2010.06.28 07:06:18.
