data_PCOD8143703
_publ_section_title
;
Structure prediction by ZEFSAII (Michael W. Deem and Ramdas Pophale) SiO2 
 PCOD8143703
Probable space group: C 2/C
;
_chemical_formula_sum "Si O2"
_cell_formula_units_Z 56
_cell_length_a 17.929644
_cell_length_b 17.428907
_cell_length_c 9.852684
_cell_angle_alpha 90.000000
_cell_angle_beta 60.622106
_cell_angle_gamma 90.000000
_cell_volume 2682.968030
_symmetry_space_group_name_H-M "C 2/C"
_symmetry_group_IT_number 15
_symmetry_cell_setting 'monoclinic'
loop_
_space_group_symop_operation_xyz
x,y,z
-x,y,1/2-z
-x,-y,-z
x,-y,1/2+z
1/2+x,1/2+y,z
1/2-x,1/2+y,1/2-z
1/2-x,1/2-y,-z
1/2+x,1/2-y,1/2+z
loop_
_atom_site_type_symbol
_atom_site_label
_atom_site_fract_x
_atom_site_fract_y
_atom_site_fract_z
Si Si1 0.288457 0.923553 0.557850
Si Si2 0.404206 0.787490 0.518629
Si Si3 0.954405 0.941619 0.434424
Si Si4 0.429938 0.735305 0.011390
Si Si5 0.170936 0.208276 0.141474
Si Si6 0.249782 0.041944 0.379873
Si Si7 0.825453 0.294722 0.867464
O O1 0.372027 0.868811 0.487063
O O2 0.197040 0.879698 0.632661
O O3 0.278882 0.974976 0.700511
O O4 0.295834 0.974631 0.419555
O O5 0.499642 0.792366 0.488862
O O6 0.405090 0.722581 0.399017
O O7 0.341849 0.765611 0.699710
O O8 0.965730 0.851969 0.466472
O O9 0.852854 0.957595 0.510599
O O10 0.000000 0.955521 0.250000
O O11 0.000000 0.000000 0.500000
O O12 0.350560 0.737545 0.187718
O O13 0.407223 0.774411 0.888078
O O14 0.250000 0.250000 0.000000
O O15 0.296340 0.117716 0.393019
O O16 0.750000 0.250000 0.000000
#
# Coordination Sequence:
#
# PCOD8143703 Si02
#       7
#     8   8   8   8   8   8   8
#     4  10  22  42  60  94 123 168 214 252 313 379
#     4  10  23  38  63  92 126 163 209 267 315 367
#     4  12  26  40  60  95 136 171 207 258 329 384
#     4  12  23  42  65  96 128 164 212 267 321 375
#     4  10  21  41  63  91 125 164 213 257 310 383
#     4  11  23  41  64  87 130 169 212 259 308 380
#     4  11  21  41  63  90 123 166 222 256 304 380
#
# _framework density 20.872406999999999
#
# number of rings (size 3 to 8) (size 9 to 14) (size 15 to 20)
#    0.000    1.143    2.857    4.286    2.000    3.429 
#    0.000    0.714    0.000    5.143    0.000    0.000 
#    0.000    0.000    0.000    0.000    0.000    0.000 
#
# Total GULP energy -346980.793106 kJ/mol
# GULP energy per Si atom -12392.171182 kJ/mol
# Density = 2.082490 g / cm^3
# Si number density = 20.872407 Si / 1000 Ang^3
#
#
#
# Elastic Constant Matrix: (Units=GPa)
#
#
# Indices 1 2 3 4 5 6 
#
# 1 96.0503 55.0323 14.2885 0.0000 19.9509 0.0000
# 2 55.0323 86.1748 49.4006 0.0000 18.3894 0.0000
# 3 14.2885 49.4006 112.6076 0.0000 21.3062 0.0000
# 4 0.0000 0.0000 0.0000 36.9999 0.0000 12.3746
# 5 19.9509 18.3894 21.3062 0.0000 38.1002 0.0000
# 6 0.0000 0.0000 0.0000 12.3746 0.0000 37.6898
#
#
#
# Elastic Compliance Matrix: (Units=1/GPa)
#
#
# Indices 1 2 3 4 5 6 
#
# 1 0.018496 -0.013160 0.004537 0.000000 -0.005871 0.000000
# 2 -0.013160 0.025465 -0.009483 0.000000 -0.000097 0.000000
# 3 0.004537 -0.009483 0.013474 0.000000 -0.005333 0.000000
# 4 0.000000 0.000000 0.000000 0.030361 0.000000 -0.009968
# 5 -0.005871 -0.000097 -0.005333 0.000000 0.032350 0.000000
# 6 0.000000 0.000000 0.000000 -0.009968 0.000000 0.029805
#
#
# Mechanical properties :
#
#
# Convention : Reuss Voigt Hill
#
# Bulk Modulus (GPa) = 47.11880 59.14174 53.13027
# Shear Modulus (GPa) = 25.87486 34.29873 30.08679
#
# Velocity S-wave (km/s) = 3.52471 4.05811 3.80078
# Velocity P-wave (km/s) = 6.26007 7.09606 6.69113
#
# Compressibility (1/GPa) = 0.02122295
#
# Stress axis : x y z
#
# Youngs Moduli (GPa) = 54.06718 39.26903 74.21586
#
# Poissons Ratio (x) = 0.51676 -0.33672
# Poissons Ratio (y) = 0.71150 0.70382
# Poissons Ratio (z) = -0.24530 0.37241
#
# Static dielectric constant tensor:
#      x y z
#    x 4.589270 0.000000 0.612460 
#    y 0.000000 3.725040 0.000000 
#    z 0.612460 0.000000 4.352150 
# 
# 
# High freq. dielectric constant tensor:
#      x y z
#    x 1.823080 0.000000 0.013120 
#    y 0.000000 1.795380 0.000000 
#    z 0.013120 0.000000 1.837990 
# 
# From -- ./inp_files/49011.got.cif
#   From: 2010.06.25/outbox.cif.g09.slc.cpg/sg15_25_cif.got.tgz:49011.got - 2010.06.28 07:06:18.
