data_PCOD8143820
_publ_section_title
;
Structure prediction by ZEFSAII (Michael W. Deem and Ramdas Pophale) SiO2 
 PCOD8143820
Probable space group: C 2/C
;
_chemical_formula_sum "Si O2"
_cell_formula_units_Z 44
_cell_length_a 15.174527
_cell_length_b 8.887001
_cell_length_c 17.107974
_cell_angle_alpha 90.000000
_cell_angle_beta 135.269118
_cell_angle_gamma 90.000000
_cell_volume 1623.695118
_symmetry_space_group_name_H-M "C 2/C"
_symmetry_group_IT_number 15
_symmetry_cell_setting 'monoclinic'
loop_
_space_group_symop_operation_xyz
x,y,z
-x,y,1/2-z
-x,-y,-z
x,-y,1/2+z
1/2+x,1/2+y,z
1/2-x,1/2+y,1/2-z
1/2-x,1/2-y,-z
1/2+x,1/2-y,1/2+z
loop_
_atom_site_type_symbol
_atom_site_label
_atom_site_fract_x
_atom_site_fract_y
_atom_site_fract_z
Si Si1 0.161505 0.504417 0.087697
Si Si2 0.842088 0.469869 0.584214
Si Si3 0.500000 0.722715 0.750000
Si Si4 0.423098 0.507685 0.835118
Si Si5 0.188336 0.158242 0.595696
Si Si6 0.451419 0.171810 0.847095
O O1 0.285256 0.518133 0.215716
O O2 0.132482 0.676667 0.037447
O O3 0.055884 0.428295 0.076727
O O4 0.183900 0.411505 0.021288
O O5 0.877653 0.328754 0.662145
O O6 0.718530 0.552334 0.540043
O O7 0.958507 0.586650 0.656387
O O8 0.494743 0.621598 0.823684
O O9 0.415154 0.578159 0.915951
O O10 0.495587 0.346823 0.888532
O O11 0.315006 0.180927 0.724076
#
# Coordination Sequence:
#
# PCOD8143820 Si02
#       6
#     8   8   4   8   8   8
#     4  10  23  41  69  94 129 165 216 264 318 381
#     4  12  23  41  68  98 126 167 215 267 321 374
#     4  12  26  42  66  90 132 172 220 262 320 384
#     4  10  25  43  65  91 130 174 213 258 318 388
#     4  10  21  41  65  92 128 165 210 257 326 382
#     4  10  21  41  66  91 127 171 210 258 322 381
#
# _framework density 27.098686000000001
#
# number of rings (size 3 to 8) (size 9 to 14) (size 15 to 20)
#    0.000    1.455    1.818    2.182   12.727    0.727 
#    0.000    1.818    0.000    0.000    0.000    0.000 
#    0.000    0.000    0.000    0.000    0.000    0.000 
#
# Total GULP energy -272899.314999 kJ/mol
# GULP energy per Si atom -12404.514318 kJ/mol
# Density = 2.703701 g / cm^3
# Si number density = 27.098686 Si / 1000 Ang^3
#
#
#
# Elastic Constant Matrix: (Units=GPa)
#
#
# Indices 1 2 3 4 5 6 
#
# 1 148.7572 55.6147 21.7168 0.0000 -33.1978 0.0000
# 2 55.6147 164.8532 45.0686 0.0000 -3.0966 0.0000
# 3 21.7168 45.0686 70.2712 0.0000 -20.0709 0.0000
# 4 0.0000 0.0000 0.0000 62.3139 0.0000 -7.2045
# 5 -33.1978 -3.0966 -20.0709 0.0000 44.8098 0.0000
# 6 0.0000 0.0000 0.0000 -7.2045 0.0000 26.4691
#
#
#
# Elastic Compliance Matrix: (Units=1/GPa)
#
#
# Indices 1 2 3 4 5 6 
#
# 1 0.009450 -0.003429 0.001388 0.000000 0.007386 0.000000
# 2 -0.003429 0.008735 -0.005843 0.000000 -0.004554 0.000000
# 3 0.001388 -0.005843 0.020328 0.000000 0.009730 0.000000
# 4 0.000000 0.000000 0.000000 0.016569 0.000000 0.004510
# 5 0.007386 -0.004554 0.009730 0.000000 0.031832 0.000000
# 6 0.000000 0.000000 0.000000 0.004510 0.000000 0.039007
#
#
# Mechanical properties :
#
#
# Convention : Reuss Voigt Hill
#
# Bulk Modulus (GPa) = 43.96484 69.85351 56.90918
# Shear Modulus (GPa) = 33.49633 44.15064 38.82348
#
# Velocity S-wave (km/s) = 3.51962 4.04078 3.78917
# Velocity P-wave (km/s) = 5.72504 6.89956 6.33956
#
# Compressibility (1/GPa) = 0.02274545
#
# Stress axis : x y z
#
# Youngs Moduli (GPa) = 105.82128 114.48751 49.19313
#
# Poissons Ratio (x) = 0.39255 -0.06829
# Poissons Ratio (y) = 0.36284 0.28743
# Poissons Ratio (z) = -0.14690 0.66895
#
# Static dielectric constant tensor:
#      x y z
#    x 4.740220 0.000000 0.090190 
#    y 0.000000 5.217470 0.000000 
#    z 0.090190 0.000000 5.110340 
# 
# 
# High freq. dielectric constant tensor:
#      x y z
#    x 2.084140 0.000000 0.017660 
#    y 0.000000 2.095850 0.000000 
#    z 0.017660 0.000000 2.146670 
# 
# From -- ./inp_files/202552.got.cif
#   From: 2010.06.25/outbox.cif.g09.slc.cpg/sg15_102_cif.got.tgz:202552.got - 2010.06.28 07:06:18.
