data_PCOD8143831
_publ_section_title
;
Structure prediction by ZEFSAII (Michael W. Deem and Ramdas Pophale) SiO2 
 PCOD8143831
Probable space group: C 2/C
;
_chemical_formula_sum "Si O2"
_cell_formula_units_Z 40
_cell_length_a 11.315529
_cell_length_b 20.442480
_cell_length_c 10.702025
_cell_angle_alpha 90.000000
_cell_angle_beta 132.933046
_cell_angle_gamma 90.000000
_cell_volume 1812.485614
_symmetry_space_group_name_H-M "C 2/C"
_symmetry_group_IT_number 15
_symmetry_cell_setting 'monoclinic'
loop_
_space_group_symop_operation_xyz
x,y,z
-x,y,1/2-z
-x,-y,-z
x,-y,1/2+z
1/2+x,1/2+y,z
1/2-x,1/2+y,1/2-z
1/2-x,1/2-y,-z
1/2+x,1/2-y,1/2+z
loop_
_atom_site_type_symbol
_atom_site_label
_atom_site_fract_x
_atom_site_fract_y
_atom_site_fract_z
Si Si1 0.110431 0.344590 0.226651
Si Si2 0.382858 0.252763 0.415376
Si Si3 0.197450 0.804609 0.558329
Si Si4 0.299098 0.459203 0.245989
Si Si5 0.675922 0.550470 0.012600
O O1 0.256471 0.301816 0.393801
O O2 0.184366 0.396313 0.182966
O O3 0.000000 0.381401 0.250000
O O4 0.987107 0.293590 0.077227
O O5 0.282483 0.207015 0.251039
O O6 0.504053 0.300702 0.428627
O O7 0.250000 0.750000 0.500000
O O8 0.249121 0.876938 0.552607
O O9 0.247079 0.512748 0.313091
O O10 0.485645 0.441915 0.399909
O O11 0.280002 0.484942 0.088416
#
# Coordination Sequence:
#
# PCOD8143831 Si02
#       5
#     8   8   8   8   8
#     4  11  22  41  62  92 131 175 219 271 333 395
#     4  10  22  37  59  93 129 168 216 270 335 391
#     4  11  21  36  64  96 128 166 214 281 333 394
#     4  10  22  40  65  92 125 175 218 274 322 405
#     4  10  21  41  65  94 128 168 225 268 334 396
#
# _framework density 22.069140000000001
#
# number of rings (size 3 to 8) (size 9 to 14) (size 15 to 20)
#    0.000    1.600    2.000    3.600    2.800    1.600 
#    0.000    6.000    0.000    0.000    0.000    0.000 
#    0.000    0.000    0.000    0.000    0.000    0.000 
#
# Total GULP energy -247810.153826 kJ/mol
# GULP energy per Si atom -12390.507691 kJ/mol
# Density = 2.201891 g / cm^3
# Si number density = 22.069140 Si / 1000 Ang^3
#
#
#
# Elastic Constant Matrix: (Units=GPa)
#
#
# Indices 1 2 3 4 5 6 
#
# 1 141.0771 52.3159 47.6225 0.0000 -7.2996 0.0000
# 2 52.3159 115.6532 33.9359 0.0000 -12.4697 0.0000
# 3 47.6225 33.9359 61.9702 0.0000 3.4079 0.0000
# 4 0.0000 0.0000 0.0000 24.0239 0.0000 -3.8103
# 5 -7.2996 -12.4697 3.4079 0.0000 32.4672 0.0000
# 6 0.0000 0.0000 0.0000 -3.8103 0.0000 37.2057
#
#
#
# Elastic Compliance Matrix: (Units=1/GPa)
#
#
# Indices 1 2 3 4 5 6 
#
# 1 0.010397 -0.002503 -0.006734 0.000000 0.002083 0.000000
# 2 -0.002503 0.011627 -0.004686 0.000000 0.004395 0.000000
# 3 -0.006734 -0.004686 0.024200 0.000000 -0.005854 0.000000
# 4 0.000000 0.000000 0.000000 0.042312 0.000000 0.004333
# 5 0.002083 0.004395 -0.005854 0.000000 0.033571 0.000000
# 6 0.000000 0.000000 0.000000 0.004333 0.000000 0.027321
#
#
# Mechanical properties :
#
#
# Convention : Reuss Voigt Hill
#
# Bulk Modulus (GPa) = 54.40915 65.16100 59.78508
# Shear Modulus (GPa) = 27.26259 31.06111 29.16185
#
# Velocity S-wave (km/s) = 3.51853 3.75566 3.63903
# Velocity P-wave (km/s) = 6.41983 6.95677 6.69369
#
# Compressibility (1/GPa) = 0.01837926
#
# Stress axis : x y z
#
# Youngs Moduli (GPa) = 96.17786 86.00348 41.32261
#
# Poissons Ratio (x) = 0.21524 0.27828
# Poissons Ratio (y) = 0.24070 0.19363
# Poissons Ratio (z) = 0.64768 0.40300
#
# Static dielectric constant tensor:
#      x y z
#    x 4.716760 0.000000 0.788780 
#    y 0.000000 3.819790 0.000000 
#    z 0.788780 0.000000 5.403330 
# 
# 
# High freq. dielectric constant tensor:
#      x y z
#    x 1.878140 0.000000 0.005120 
#    y 0.000000 1.854890 0.000000 
#    z 0.005120 0.000000 1.856260 
# 
# From -- ./inp_files/89307.got.cif
#   From: 2010.06.25/outbox.cif.g09.slc.cpg/sg15_45_cif.got.tgz:89307.got - 2010.06.28 07:06:18.
