data_PCOD8143234
_publ_section_title
;
Structure prediction by ZEFSAII (Michael W. Deem and Ramdas Pophale) SiO2 
 PCOD8143234
Probable space group: C 2/C
;
_chemical_formula_sum "Si O2"
_cell_formula_units_Z 56
_cell_length_a 7.989404
_cell_length_b 14.366966
_cell_length_c 29.647299
_cell_angle_alpha 90.000000
_cell_angle_beta 132.522091
_cell_angle_gamma 90.000000
_cell_volume 2508.083367
_symmetry_space_group_name_H-M "C 2/C"
_symmetry_group_IT_number 15
_symmetry_cell_setting 'monoclinic'
loop_
_space_group_symop_operation_xyz
x,y,z
-x,y,1/2-z
-x,-y,-z
x,-y,1/2+z
1/2+x,1/2+y,z
1/2-x,1/2+y,1/2-z
1/2-x,1/2-y,-z
1/2+x,1/2-y,1/2+z
loop_
_atom_site_type_symbol
_atom_site_label
_atom_site_fract_x
_atom_site_fract_y
_atom_site_fract_z
Si Si1 0.942828 0.606550 0.692670
Si Si2 0.134533 0.738059 0.898136
Si Si3 0.630018 0.584695 0.344870
Si Si4 0.781795 0.713652 0.115974
Si Si5 0.836792 0.584805 0.285470
Si Si6 0.076168 0.087786 0.896898
Si Si7 0.622417 0.337094 0.496261
O O1 0.001569 0.674591 0.662356
O O2 0.687980 0.572012 0.646078
O O3 0.000000 0.660164 0.750000
O O4 0.095684 0.515756 0.719429
O O5 0.354412 0.683223 0.956296
O O6 0.959293 0.766951 0.904749
O O7 0.231860 0.829673 0.891311
O O8 0.769947 0.573138 0.325078
O O9 0.369894 0.610961 0.285287
O O10 0.674302 0.493027 0.383257
O O11 0.962460 0.662136 0.181704
O O12 0.880430 0.811696 0.117321
O O13 0.732025 0.642034 0.065173
O O14 0.164122 0.083186 0.965418
O O15 0.750000 0.250000 0.500000
#
# Coordination Sequence:
#
# PCOD8143234 Si02
#       7
#     8   8   8   8   8   8   8
#     4  11  22  40  60  88 124 161 206 256 315 372
#     4  11  24  39  65  92 126 166 207 258 317 370
#     4  11  23  40  61  93 126 164 212 255 318 373
#     4  11  23  42  64  94 125 168 213 251 315 369
#     4  11  24  39  62  89 129 164 209 262 307 382
#     4  10  21  40  64  91 126 164 204 259 311 364
#     4   9  20  42  66  90 125 163 211 261 306 370
#
# _framework density 22.327805999999999
#
# number of rings (size 3 to 8) (size 9 to 14) (size 15 to 20)
#    0.000    1.429    1.429    4.714    4.000    0.000 
#    0.000   14.286    0.000    0.000    0.000    0.000 
#    0.000    0.000    0.000    0.000    0.000    0.000 
#
# Total GULP energy -347040.754245 kJ/mol
# GULP energy per Si atom -12394.312652 kJ/mol
# Density = 2.227699 g / cm^3
# Si number density = 22.327806 Si / 1000 Ang^3
#
#
#
# Elastic Constant Matrix: (Units=GPa)
#
#
# Indices 1 2 3 4 5 6 
#
# 1 82.4314 -1.6538 2.7609 0.0000 -0.8898 0.0000
# 2 -1.6538 72.8267 15.5060 0.0000 -5.6664 0.0000
# 3 2.7609 15.5060 77.6300 0.0000 -1.3653 0.0000
# 4 0.0000 0.0000 0.0000 30.8132 0.0000 -3.3479
# 5 -0.8898 -5.6664 -1.3653 0.0000 29.5609 0.0000
# 6 0.0000 0.0000 0.0000 -3.3479 0.0000 27.2292
#
#
#
# Elastic Compliance Matrix: (Units=1/GPa)
#
#
# Indices 1 2 3 4 5 6 
#
# 1 0.012161 0.000417 -0.000508 0.000000 0.000423 0.000000
# 2 0.000417 0.014561 -0.002876 0.000000 0.002671 0.000000
# 3 -0.000508 -0.002876 0.013475 0.000000 0.000056 0.000000
# 4 0.000000 0.000000 0.000000 0.032893 0.000000 0.004044
# 5 0.000423 0.002671 0.000056 0.000000 0.034356 0.000000
# 6 0.000000 0.000000 0.000000 0.004044 0.000000 0.037222
#
#
# Mechanical properties :
#
#
# Convention : Reuss Voigt Hill
#
# Bulk Modulus (GPa) = 29.18642 29.56826 29.37734
# Shear Modulus (GPa) = 30.85956 31.93901 31.39928
#
# Velocity S-wave (km/s) = 3.72171 3.78624 3.75412
# Velocity P-wave (km/s) = 5.61857 5.69085 5.65482
#
# Compressibility (1/GPa) = 0.03426251
#
# Stress axis : x y z
#
# Youngs Moduli (GPa) = 82.22834 68.67696 74.21038
#
# Poissons Ratio (x) = -0.02866 0.03773
# Poissons Ratio (y) = -0.03431 0.21345
# Poissons Ratio (z) = 0.04181 0.19754
#
# Static dielectric constant tensor:
#      x y z
#    x 3.181830 0.000000 0.337190 
#    y 0.000000 3.968930 0.000000 
#    z 0.337190 0.000000 4.243910 
# 
# 
# High freq. dielectric constant tensor:
#      x y z
#    x 1.889720 0.000000 -0.006580 
#    y 0.000000 1.860910 0.000000 
#    z -0.006580 0.000000 1.888610 
# 
# From -- ./inp_files/288660.got.cif
#   From: 2010.06.25/outbox.cif.g09.slc.cpg/sg15_145_cif.got.tgz:288660.got - 2010.06.28 07:06:18.
