data_PCOD8143219
_publ_section_title
;
Structure prediction by ZEFSAII (Michael W. Deem and Ramdas Pophale) SiO2 
 PCOD8143219
Probable space group: C 2/C
;
_chemical_formula_sum "Si O2"
_cell_formula_units_Z 40
_cell_length_a 11.315978
_cell_length_b 15.473743
_cell_length_c 22.906875
_cell_angle_alpha 90.000000
_cell_angle_beta 30.101243
_cell_angle_gamma 90.000000
_cell_volume 2011.637896
_symmetry_space_group_name_H-M "C 2/C"
_symmetry_group_IT_number 15
_symmetry_cell_setting 'monoclinic'
loop_
_space_group_symop_operation_xyz
x,y,z
-x,y,1/2-z
-x,-y,-z
x,-y,1/2+z
1/2+x,1/2+y,z
1/2-x,1/2+y,1/2-z
1/2-x,1/2-y,-z
1/2+x,1/2-y,1/2+z
loop_
_atom_site_type_symbol
_atom_site_label
_atom_site_fract_x
_atom_site_fract_y
_atom_site_fract_z
Si Si1 0.095664 0.665594 0.767147
Si Si2 0.853234 0.951543 0.011678
Si Si3 0.382993 0.377152 0.448233
Si Si4 0.506546 0.723168 0.407841
Si Si5 0.802920 0.756384 0.381923
O O1 0.344730 0.620968 0.647113
O O2 0.160936 0.737186 0.788895
O O3 0.000000 0.714161 0.750000
O O4 0.896815 0.593004 0.865650
O O5 0.025479 0.880206 0.908194
O O6 0.790892 0.024615 0.990460
O O7 0.000000 0.000000 0.000000
O O8 0.224541 0.319924 0.559514
O O9 0.356507 0.345225 0.392850
O O10 0.567605 0.768227 0.443679
O O11 0.250000 0.750000 0.500000
O O12 0.000000 0.730462 0.250000
#
# Coordination Sequence:
#
# PCOD8143219 Si02
#       5
#     8   8   8   8   8
#     4  11  21  39  64  88 132 167 213 270 321 383
#     4  11  21  38  63  95 126 164 226 266 319 375
#     4  11  23  39  62 102 124 166 216 270 321 381
#     4  10  21  40  64  89 127 172 210 265 325 387
#     4  11  22  40  66  91 132 168 214 259 329 389
#
# _framework density 19.884295000000002
#
# number of rings (size 3 to 8) (size 9 to 14) (size 15 to 20)
#    0.000    1.200    6.000    1.200    0.000    2.400 
#    0.000    5.000    0.000    0.000    0.000    0.000 
#    0.000    0.000    0.000    0.000    0.000    0.000 
#
# Total GULP energy -247784.066986 kJ/mol
# GULP energy per Si atom -12389.203349 kJ/mol
# Density = 1.983904 g / cm^3
# Si number density = 19.884295 Si / 1000 Ang^3
#
#
#
# Elastic Constant Matrix: (Units=GPa)
#
#
# Indices 1 2 3 4 5 6 
#
# 1 126.7336 60.9646 20.4853 -0.0089 9.3326 0.0011
# 2 60.9646 139.3611 42.4600 -0.0178 12.4683 0.0017
# 3 20.4853 42.4600 92.0292 -0.0174 9.2804 -0.0129
# 4 -0.0089 -0.0178 -0.0174 25.7313 -0.0121 0.9085
# 5 9.3326 12.4683 9.2804 -0.0121 30.1861 -0.0030
# 6 0.0011 0.0017 -0.0129 0.9085 -0.0030 33.0729
#
#
#
# Elastic Compliance Matrix: (Units=1/GPa)
#
#
# Indices 1 2 3 4 5 6 
#
# 1 0.010047 -0.004232 -0.000152 0.000000 -0.001312 0.000000
# 2 -0.004232 0.010294 -0.003623 0.000002 -0.001830 -0.000002
# 3 -0.000152 -0.003623 0.012813 0.000005 -0.002396 0.000005
# 4 0.000000 0.000002 0.000005 0.038901 0.000013 -0.001069
# 5 -0.001312 -0.001830 -0.002396 0.000013 0.035026 0.000002
# 6 0.000000 -0.000002 0.000005 -0.001069 0.000002 0.030266
#
#
# Mechanical properties :
#
#
# Convention : Reuss Voigt Hill
#
# Bulk Modulus (GPa) = 58.33743 67.32708 62.83226
# Shear Modulus (GPa) = 31.43190 33.41234 32.42212
#
# Velocity S-wave (km/s) = 3.98017 4.10364 4.04237
# Velocity P-wave (km/s) = 7.10805 7.50907 7.31131
#
# Compressibility (1/GPa) = 0.01714165
#
# Stress axis : x y z
#
# Youngs Moduli (GPa) = 99.52901 97.14068 78.04505
#
# Poissons Ratio (x) = 0.41107 0.01185
# Poissons Ratio (y) = 0.42117 0.28276
# Poissons Ratio (z) = 0.01511 0.35195
#
# Static dielectric constant tensor:
#      x y z
#    x -25.731870 -0.009280 -29.867390 
#    y -0.009280 6.483270 -0.008500 
#    z -29.867390 -0.008500 -26.384920 
# 
# 
# High freq. dielectric constant tensor:
#      x y z
#    x 1.787770 0.000000 -0.003170 
#    y 0.000000 1.755300 0.000000 
#    z -0.003170 0.000000 1.779930 
# 
# From -- ./inp_files/142812.got.cif
#   From: 2010.06.25/outbox.cif.g09.slc.cpg/sg15_72_cif.got.tgz:142812.got - 2010.06.28 07:06:18.
