data_PCOD8143191
_publ_section_title
;
Structure prediction by ZEFSAII (Michael W. Deem and Ramdas Pophale) SiO2 
 PCOD8143191
Probable space group: C 2/C
;
_chemical_formula_sum "Si O2"
_cell_formula_units_Z 48
_cell_length_a 14.311970
_cell_length_b 11.198521
_cell_length_c 14.962977
_cell_angle_alpha 90.000000
_cell_angle_beta 91.225009
_cell_angle_gamma 90.000000
_cell_volume 2397.611559
_symmetry_space_group_name_H-M "C 2/C"
_symmetry_group_IT_number 15
_symmetry_cell_setting 'monoclinic'
loop_
_space_group_symop_operation_xyz
x,y,z
-x,y,1/2-z
-x,-y,-z
x,-y,1/2+z
1/2+x,1/2+y,z
1/2-x,1/2+y,1/2-z
1/2-x,1/2-y,-z
1/2+x,1/2-y,1/2+z
loop_
_atom_site_type_symbol
_atom_site_label
_atom_site_fract_x
_atom_site_fract_y
_atom_site_fract_z
Si Si1 0.051331 0.878512 0.009107
Si Si2 0.081193 0.219818 0.313457
Si Si3 0.977482 0.296659 0.843665
Si Si4 0.249625 0.606196 0.992118
Si Si5 0.277103 0.893598 0.814931
Si Si6 0.381739 0.018244 0.662356
O O1 0.995558 0.789595 0.074226
O O2 0.150977 0.920055 0.051327
O O3 0.063137 0.813927 0.915039
O O4 0.000000 0.000000 0.000000
O O5 0.185291 0.181391 0.283676
O O6 0.070936 0.361802 0.301593
O O7 0.000000 0.161269 0.250000
O O8 0.866388 0.313725 0.843102
O O9 0.000000 0.232453 0.750000
O O10 0.037585 0.419372 0.850820
O O11 0.167731 0.548360 0.932420
O O12 0.250000 0.750000 0.000000
O O13 0.245808 0.543025 0.090420
O O14 0.304398 0.979664 0.734035
#
# Coordination Sequence:
#
# PCOD8143191 Si02
#       6
#     8   8   8   8   8   8
#     4  11  24  42  61  89 129 171 209 254 321 388
#     4  11  23  41  61  93 125 164 209 262 319 371
#     4  10  21  40  66  95 122 165 212 262 316 372
#     4  11  20  44  66  88 125 174 205 254 327 379
#     4  10  21  40  63  95 122 168 207 260 320 372
#     4  11  22  39  70  96 122 163 218 265 310 378
#
# _framework density 20.019922999999999
#
# number of rings (size 3 to 8) (size 9 to 14) (size 15 to 20)
#    0.000    1.333    5.000    1.500    2.333    4.667 
#   15.000    0.833    0.000    0.000    0.000    0.000 
#    0.000    0.000    0.000    0.000    0.000    0.000 
#
# Total GULP energy -297339.350847 kJ/mol
# GULP energy per Si atom -12389.139619 kJ/mol
# Density = 1.997436 g / cm^3
# Si number density = 20.019923 Si / 1000 Ang^3
#
#
#
# Elastic Constant Matrix: (Units=GPa)
#
#
# Indices 1 2 3 4 5 6 
#
# 1 140.2296 58.4056 54.1952 0.0000 9.2523 0.0000
# 2 58.4056 104.7360 48.7089 0.0000 -10.0605 0.0000
# 3 54.1952 48.7089 112.8216 0.0000 -1.6966 0.0000
# 4 0.0000 0.0000 0.0000 27.2291 0.0000 -4.2555
# 5 9.2523 -10.0605 -1.6966 0.0000 39.4847 0.0000
# 6 0.0000 0.0000 0.0000 -4.2555 0.0000 27.3002
#
#
#
# Elastic Compliance Matrix: (Units=1/GPa)
#
#
# Indices 1 2 3 4 5 6 
#
# 1 0.010585 -0.004856 -0.003046 0.000000 -0.003848 0.000000
# 2 -0.004856 0.014497 -0.003856 0.000000 0.004666 0.000000
# 3 -0.003046 -0.003856 0.011995 0.000000 0.000247 0.000000
# 4 0.000000 0.000000 0.000000 0.037642 0.000000 0.005868
# 5 -0.003848 0.004666 0.000247 0.000000 0.027427 0.000000
# 6 0.000000 0.000000 0.000000 0.005868 0.000000 0.037544
#
#
# Mechanical properties :
#
#
# Convention : Reuss Voigt Hill
#
# Bulk Modulus (GPa) = 73.73902 75.60074 74.66988
# Shear Modulus (GPa) = 29.81027 31.90130 30.85579
#
# Velocity S-wave (km/s) = 3.86298 3.99617 3.93014
# Velocity P-wave (km/s) = 7.53722 7.69007 7.61403
#
# Compressibility (1/GPa) = 0.01356134
#
# Stress axis : x y z
#
# Youngs Moduli (GPa) = 94.47678 68.97939 83.36558
#
# Poissons Ratio (x) = 0.33493 0.25393
# Poissons Ratio (y) = 0.45873 0.32148
# Poissons Ratio (z) = 0.28778 0.26601
#
# Static dielectric constant tensor:
#      x y z
#    x 3.087690 0.000000 0.103880 
#    y 0.000000 3.424460 0.000000 
#    z 0.103880 0.000000 3.941070 
# 
# 
# High freq. dielectric constant tensor:
#      x y z
#    x 1.798290 0.000000 -0.000030 
#    y 0.000000 1.752830 0.000000 
#    z -0.000030 0.000000 1.793450 
# 
# From -- ./inp_files/152008.got.cif
#   From: 2010.06.25/outbox.cif.g09.slc.cpg/sg15_77_cif.got.tgz:152008.got - 2010.06.28 07:06:18.
