data_PCOD8143203
_publ_section_title
;
Structure prediction by ZEFSAII (Michael W. Deem and Ramdas Pophale) SiO2 
 PCOD8143203
Probable space group: C 2/C
;
_chemical_formula_sum "Si O2"
_cell_formula_units_Z 44
_cell_length_a 9.773450
_cell_length_b 23.803233
_cell_length_c 11.594424
_cell_angle_alpha 90.000000
_cell_angle_beta 48.325647
_cell_angle_gamma 90.000000
_cell_volume 2014.727636
_symmetry_space_group_name_H-M "C 2/C"
_symmetry_group_IT_number 15
_symmetry_cell_setting 'monoclinic'
loop_
_space_group_symop_operation_xyz
x,y,z
-x,y,1/2-z
-x,-y,-z
x,-y,1/2+z
1/2+x,1/2+y,z
1/2-x,1/2+y,1/2-z
1/2-x,1/2-y,-z
1/2+x,1/2-y,1/2+z
loop_
_atom_site_type_symbol
_atom_site_label
_atom_site_fract_x
_atom_site_fract_y
_atom_site_fract_z
Si Si1 0.631096 0.422846 0.985696
Si Si2 0.000000 0.628703 0.250000
Si Si3 0.935804 0.699918 0.510605
Si Si4 0.590709 0.317063 0.370588
Si Si5 0.336682 0.855941 0.428838
Si Si6 0.877867 0.960632 0.924032
O O1 0.823091 0.408397 0.815299
O O2 0.485570 0.447367 0.979363
O O3 0.537006 0.368815 0.099355
O O4 0.674505 0.473116 0.052647
O O5 0.932348 0.663473 0.397587
O O6 0.958146 0.763760 0.457017
O O7 0.110542 0.681054 0.489405
O O8 0.747930 0.693062 0.687506
O O9 0.665171 0.328178 0.458549
O O10 0.500000 0.857564 0.250000
O O11 0.299639 0.920575 0.484924
O O12 0.000000 0.942508 0.750000
#
# Coordination Sequence:
#
# PCOD8143203 Si02
#       6
#     8   4   8   8   8   8
#     4  10  24  41  58  90 122 160 205 245 303 365
#     4  12  26  40  58  90 124 164 202 242 302 372
#     4  11  23  39  63  92 124 162 200 253 304 364
#     4  10  22  41  64  89 123 159 205 252 304 359
#     4   9  20  40  65  94 120 154 205 256 304 355
#     4  10  21  40  64  86 119 161 201 254 301 354
#
# _framework density 21.839179999999999
#
# number of rings (size 3 to 8) (size 9 to 14) (size 15 to 20)
#    0.000    1.818    0.000    2.727    3.818    4.364 
#    0.000    2.727    0.000    0.000    0.000    0.000 
#    0.000    0.000    0.000    0.000    0.000    0.000 
#
# Total GULP energy -272741.743663 kJ/mol
# GULP energy per Si atom -12397.351985 kJ/mol
# Density = 2.178947 g / cm^3
# Si number density = 21.839180 Si / 1000 Ang^3
#
#
#
# Elastic Constant Matrix: (Units=GPa)
#
#
# Indices 1 2 3 4 5 6 
#
# 1 24.0011 17.2905 24.3200 0.0000 -8.2609 0.0000
# 2 17.2905 142.7091 32.9762 0.0000 -10.6915 0.0000
# 3 24.3200 32.9762 72.0325 0.0000 2.7177 0.0000
# 4 0.0000 0.0000 0.0000 34.3866 0.0000 -15.0234
# 5 -8.2609 -10.6915 2.7177 0.0000 36.4658 0.0000
# 6 0.0000 0.0000 0.0000 -15.0234 0.0000 15.0771
#
#
#
# Elastic Compliance Matrix: (Units=1/GPa)
#
#
# Indices 1 2 3 4 5 6 
#
# 1 0.074663 -0.001898 -0.025027 0.000000 0.018223 0.000000
# 2 -0.001898 0.008133 -0.003165 0.000000 0.002190 0.000000
# 3 -0.025027 -0.003165 0.024098 0.000000 -0.008393 0.000000
# 4 0.000000 0.000000 0.000000 0.051502 0.000000 0.051319
# 5 0.018223 0.002190 -0.008393 0.000000 0.032819 0.000000
# 6 0.000000 0.000000 0.000000 0.051319 0.000000 0.117461
#
#
# Mechanical properties :
#
#
# Convention : Reuss Voigt Hill
#
# Bulk Modulus (GPa) = 21.40667 43.10180 32.25423
# Shear Modulus (GPa) = 13.00636 28.12965 20.56800
#
# Velocity S-wave (km/s) = 2.44304 3.59282 3.07220
# Velocity P-wave (km/s) = 4.21677 6.08194 5.23312
#
# Compressibility (1/GPa) = 0.04671442
#
# Stress axis : x y z
#
# Youngs Moduli (GPa) = 13.39344 122.96132 41.49734
#
# Poissons Ratio (x) = 0.23337 1.03855
# Poissons Ratio (y) = 0.02542 0.13134
# Poissons Ratio (z) = 0.33520 0.38917
#
# Static dielectric constant tensor:
#      x y z
#    x 0.000000 0.000000 0.000000 
#    y 0.000000 0.000000 0.000000 
#    z 0.000000 0.000000 0.000000 
# 
# 
# High freq. dielectric constant tensor:
#      x y z
#    x 1.854620 0.000000 -0.002990 
#    y 0.000000 1.871470 0.000000 
#    z -0.002990 0.000000 1.857260 
# 
# From -- ./inp_files/30687.got.cif
#   From: 2010.06.25/outbox.cif.g09.slc.cpg/sg15_16_cif.got.tgz:30687.got - 2010.06.28 07:06:18.
