data_PCOD8143187
_publ_section_title
;
Structure prediction by ZEFSAII (Michael W. Deem and Ramdas Pophale) SiO2 
 PCOD8143187
Probable space group: C 2/C
;
_chemical_formula_sum "Si O2"
_cell_formula_units_Z 60
_cell_length_a 32.172435
_cell_length_b 17.180337
_cell_length_c 11.831233
_cell_angle_alpha 90.000000
_cell_angle_beta 25.709851
_cell_angle_gamma 90.000000
_cell_volume 2836.933683
_symmetry_space_group_name_H-M "C 2/C"
_symmetry_group_IT_number 15
_symmetry_cell_setting 'monoclinic'
loop_
_space_group_symop_operation_xyz
x,y,z
-x,y,1/2-z
-x,-y,-z
x,-y,1/2+z
1/2+x,1/2+y,z
1/2-x,1/2+y,1/2-z
1/2-x,1/2-y,-z
1/2+x,1/2-y,1/2+z
loop_
_atom_site_type_symbol
_atom_site_label
_atom_site_fract_x
_atom_site_fract_y
_atom_site_fract_z
Si Si1 0.571601 0.026784 0.678040
Si Si2 0.638606 0.760927 0.789025
Si Si3 0.964921 0.625358 0.115366
Si Si4 0.718420 0.860278 0.771555
Si Si5 0.000000 0.287060 0.750000
Si Si6 0.690760 0.698058 0.233039
Si Si7 0.588310 0.395396 0.333655
Si Si8 0.437334 0.563076 0.016348
O O1 0.500000 0.009800 0.750000
O O2 0.675602 0.052671 0.380478
O O3 0.591677 0.950468 0.702797
O O4 0.538176 0.098214 0.839519
O O5 0.750000 0.750000 0.500000
O O6 0.606665 0.811941 0.760425
O O7 0.634644 0.808690 0.915875
O O8 0.577404 0.679899 0.943785
O O9 0.016918 0.662142 0.096369
O O10 0.734060 0.820536 0.853438
O O11 0.818324 0.872406 0.464930
O O12 0.096757 0.236819 0.519906
O O13 0.656436 0.617276 0.260232
O O14 0.750000 0.750000 0.000000
O O15 0.599607 0.474732 0.376632
O O16 0.497900 0.404565 0.473214
O O17 0.500000 0.566779 0.750000
#
# Coordination Sequence:
#
# PCOD8143187 Si02
#       8
#     8   8   8   8   4   8   8   8
#     4  11  23  43  61  94 133 175 225 280 340 406
#     4  10  21  40  63  94 128 172 224 277 336 400
#     4  11  23  40  67  91 130 184 218 271 357 401
#     4  11  22  42  66  94 135 173 222 285 327 408
#     4  12  22  42  68  96 140 174 220 288 334 402
#     4  12  25  43  70 103 135 177 229 278 346 411
#     4  10  23  43  71  94 130 183 218 276 355 400
#     4  11  22  47  68  97 138 176 225 287 342 408
#
# _framework density 21.149595000000001
#
# number of rings (size 3 to 8) (size 9 to 14) (size 15 to 20)
#    0.000    1.067    4.000    3.200    0.000    3.200 
#    7.200    0.000    0.000    0.000    0.000    0.000 
#    0.000    0.000    0.000    0.000    0.000    0.000 
#
# Total GULP energy -371857.827363 kJ/mol
# GULP energy per Si atom -12395.260912 kJ/mol
# Density = 2.110146 g / cm^3
# Si number density = 21.149595 Si / 1000 Ang^3
#
#
#
# Elastic Constant Matrix: (Units=GPa)
#
#
# Indices 1 2 3 4 5 6 
#
# 1 130.1850 66.1572 23.4073 0.0000 -8.5000 0.0000
# 2 66.1572 160.9676 40.7646 0.0000 -7.6137 0.0000
# 3 23.4073 40.7646 46.5385 0.0000 -1.2263 0.0000
# 4 0.0000 0.0000 0.0000 36.4836 0.0000 0.7374
# 5 -8.5000 -7.6137 -1.2263 0.0000 24.1454 0.0000
# 6 0.0000 0.0000 0.0000 0.7374 0.0000 32.6926
#
#
#
# Elastic Compliance Matrix: (Units=1/GPa)
#
#
# Indices 1 2 3 4 5 6 
#
# 1 0.009950 -0.003506 -0.001873 0.000000 0.002302 0.000000
# 2 -0.003506 0.009334 -0.006376 0.000000 0.001385 0.000000
# 3 -0.001873 -0.006376 0.027981 0.000000 -0.001248 0.000000
# 4 0.000000 0.000000 0.000000 0.027422 0.000000 -0.000619
# 5 0.002302 0.001385 -0.001248 0.000000 0.042599 0.000000
# 6 0.000000 0.000000 0.000000 -0.000619 0.000000 0.030602
#
#
# Mechanical properties :
#
#
# Convention : Reuss Voigt Hill
#
# Bulk Modulus (GPa) = 42.09482 66.48325 54.28904
# Shear Modulus (GPa) = 27.88371 32.48846 30.18609
#
# Velocity S-wave (km/s) = 3.63492 3.92360 3.78202
# Velocity P-wave (km/s) = 6.12890 7.21312 6.69300
#
# Compressibility (1/GPa) = 0.02375589
#
# Stress axis : x y z
#
# Youngs Moduli (GPa) = 100.49992 107.13919 35.73841
#
# Poissons Ratio (x) = 0.37567 0.06692
# Poissons Ratio (y) = 0.35239 0.22785
# Poissons Ratio (z) = 0.18820 0.68307
#
# Static dielectric constant tensor:
#      x y z
#    x 5.841930 0.000000 0.010940 
#    y 0.000000 3.711560 0.000000 
#    z 0.010940 0.000000 3.572880 
# 
# 
# High freq. dielectric constant tensor:
#      x y z
#    x 1.843170 0.000000 -0.001350 
#    y 0.000000 1.847220 0.000000 
#    z -0.001350 0.000000 1.808580 
# 
# From -- ./inp_files/127220.got.cif
#   From: 2010.06.25/outbox.cif.g09.slc.cpg/sg15_64_cif.got.tgz:127220.got - 2010.06.28 07:06:18.
