data_PCOD8143453
_publ_section_title
;
Structure prediction by ZEFSAII (Michael W. Deem and Ramdas Pophale) SiO2 
 PCOD8143453
Probable space group: C 2/C
;
_chemical_formula_sum "Si O2"
_cell_formula_units_Z 48
_cell_length_a 11.657598
_cell_length_b 7.984237
_cell_length_c 23.349500
_cell_angle_alpha 90.000000
_cell_angle_beta 96.392752
_cell_angle_gamma 90.000000
_cell_volume 2159.788436
_symmetry_space_group_name_H-M "C 2/C"
_symmetry_group_IT_number 15
_symmetry_cell_setting 'monoclinic'
loop_
_space_group_symop_operation_xyz
x,y,z
-x,y,1/2-z
-x,-y,-z
x,-y,1/2+z
1/2+x,1/2+y,z
1/2-x,1/2+y,1/2-z
1/2-x,1/2-y,-z
1/2+x,1/2-y,1/2+z
loop_
_atom_site_type_symbol
_atom_site_label
_atom_site_fract_x
_atom_site_fract_y
_atom_site_fract_z
Si Si1 0.856983 0.684640 0.970673
Si Si2 0.379349 0.761718 0.734889
Si Si3 0.949770 0.443219 0.160985
Si Si4 0.055286 0.352220 0.563864
Si Si5 0.161005 0.776426 0.658576
Si Si6 0.297914 0.346631 0.344952
O O1 0.855502 0.483782 0.960186
O O2 0.852921 0.777745 0.910127
O O3 0.750000 0.750000 0.000000
O O4 0.974082 0.730465 0.011181
O O5 0.500000 0.654763 0.750000
O O6 0.282064 0.688002 0.685952
O O7 0.321284 0.784037 0.794359
O O8 0.423144 0.940014 0.713502
O O9 0.834709 0.335282 0.142471
O O10 0.976896 0.551289 0.106029
O O11 0.054622 0.318275 0.182470
O O12 0.125594 0.202163 0.596289
O O13 0.166532 0.970495 0.677430
#
# Coordination Sequence:
#
# PCOD8143453 Si02
#       6
#     8   8   8   8   8   8
#     4  10  21  40  67  95 129 173 212 260 316 382
#     4  11  23  41  66  89 130 168 206 265 322 382
#     4  10  23  46  63  91 131 165 214 266 314 390
#     4  10  22  42  67  92 130 173 208 260 327 370
#     4  10  25  42  66  97 126 168 218 262 321 374
#     4  11  24  41  66  98 124 170 215 261 323 377
#
# _framework density 22.224398000000001
#
# number of rings (size 3 to 8) (size 9 to 14) (size 15 to 20)
#    0.000    1.667    1.667    2.000    4.667    2.000 
#    9.000   11.667    0.000    0.000    0.000    0.000 
#    0.000    0.000    0.000    0.000    0.000    0.000 
#
# Total GULP energy -297445.960317 kJ/mol
# GULP energy per Si atom -12393.581680 kJ/mol
# Density = 2.217381 g / cm^3
# Si number density = 22.224398 Si / 1000 Ang^3
#
#
#
# Elastic Constant Matrix: (Units=GPa)
#
#
# Indices 1 2 3 4 5 6 
#
# 1 200.2623 60.3686 72.3735 0.0000 15.2666 0.0000
# 2 60.3686 60.3666 32.3445 0.0000 -1.2691 0.0000
# 3 72.3735 32.3445 119.3552 0.0000 25.5614 0.0000
# 4 0.0000 0.0000 0.0000 28.3551 0.0000 -2.7397
# 5 15.2666 -1.2691 25.5614 0.0000 45.5793 0.0000
# 6 0.0000 0.0000 0.0000 -2.7397 0.0000 35.4310
#
#
#
# Elastic Compliance Matrix: (Units=1/GPa)
#
#
# Indices 1 2 3 4 5 6 
#
# 1 0.008118 -0.006619 -0.002849 0.000000 -0.001306 0.000000
# 2 -0.006619 0.025426 -0.003981 0.000000 0.005158 0.000000
# 3 -0.002849 -0.003981 0.012506 0.000000 -0.006170 0.000000
# 4 0.000000 0.000000 0.000000 0.035532 0.000000 0.002747
# 5 -0.001306 0.005158 -0.006170 0.000000 0.025981 0.000000
# 6 0.000000 0.000000 0.000000 0.002747 0.000000 0.028436
#
#
# Mechanical properties :
#
#
# Convention : Reuss Voigt Hill
#
# Bulk Modulus (GPa) = 52.21530 78.90636 65.56083
# Shear Modulus (GPa) = 29.53621 36.19958 32.86790
#
# Velocity S-wave (km/s) = 3.64950 4.04024 3.84983
# Velocity P-wave (km/s) = 6.42682 7.57273 7.02319
#
# Compressibility (1/GPa) = 0.01915148
#
# Stress axis : x y z
#
# Youngs Moduli (GPa) = 123.18372 39.32916 79.95921
#
# Poissons Ratio (x) = 0.26032 0.22782
# Poissons Ratio (y) = 0.81536 0.31835
# Poissons Ratio (z) = 0.35097 0.15658
#
# Static dielectric constant tensor:
#      x y z
#    x 4.607730 0.000000 0.217980 
#    y 0.000000 3.748290 0.000000 
#    z 0.217980 0.000000 4.167820 
# 
# 
# High freq. dielectric constant tensor:
#      x y z
#    x 1.891000 0.000000 0.016710 
#    y 0.000000 1.840260 0.000000 
#    z 0.016710 0.000000 1.888060 
# 
# From -- ./inp_files/267746.got.cif
#   From: 2010.06.25/outbox.cif.g09.slc.cpg/sg15_134_cif.got.tgz:267746.got - 2010.06.28 07:06:18.
