data_PCOD8143332
_publ_section_title
;
Structure prediction by ZEFSAII (Michael W. Deem and Ramdas Pophale) SiO2 
 PCOD8143332
Probable space group: C 2/C
;
_chemical_formula_sum "Si O2"
_cell_formula_units_Z 56
_cell_length_a 8.883401
_cell_length_b 11.880858
_cell_length_c 27.261728
_cell_angle_alpha 90.000000
_cell_angle_beta 54.083223
_cell_angle_gamma 90.000000
_cell_volume 2330.213503
_symmetry_space_group_name_H-M "C 2/C"
_symmetry_group_IT_number 15
_symmetry_cell_setting 'monoclinic'
loop_
_space_group_symop_operation_xyz
x,y,z
-x,y,1/2-z
-x,-y,-z
x,-y,1/2+z
1/2+x,1/2+y,z
1/2-x,1/2+y,1/2-z
1/2-x,1/2-y,-z
1/2+x,1/2-y,1/2+z
loop_
_atom_site_type_symbol
_atom_site_label
_atom_site_fract_x
_atom_site_fract_y
_atom_site_fract_z
Si Si1 0.207521 0.950377 0.076440
Si Si2 0.060065 0.728319 0.010177
Si Si3 0.308101 0.372437 0.005078
Si Si4 0.308159 0.409100 0.315988
Si Si5 0.444063 0.822916 0.815107
Si Si6 0.364740 0.283814 0.135835
Si Si7 0.091570 0.440655 0.140761
O O1 0.816959 0.945528 0.954870
O O2 0.203155 0.990763 0.134323
O O3 0.030081 0.873222 0.100850
O O4 0.404504 0.882901 0.030010
O O5 0.009367 0.845332 0.991100
O O6 0.900431 0.701876 0.081758
O O7 0.250000 0.750000 0.000000
O O8 0.166660 0.422988 0.071751
O O9 0.250000 0.250000 0.000000
O O10 0.500000 0.429189 0.250000
O O11 0.300227 0.281187 0.339164
O O12 0.132795 0.429685 0.314207
O O13 0.500000 0.857404 0.750000
O O14 0.622141 0.784189 0.815092
O O15 0.348391 0.932631 0.856294
O O16 0.171264 0.350544 0.165128
#
# Coordination Sequence:
#
# PCOD8143332 Si02
#       7
#     8   8   8   8   8   8   8
#     4  10  21  40  65  93 139 181 216 277 345 403
#     4   9  19  36  59  91 127 164 210 268 337 404
#     4  11  24  39  64 104 137 174 225 281 348 416
#     4  10  24  47  68  95 137 183 231 282 335 402
#     4  10  23  44  67  94 130 177 228 277 333 397
#     4   9  21  39  65  99 131 170 222 275 334 406
#     4  11  24  43  70 100 137 178 226 283 343 406
#
# _framework density 24.032133000000002
#
# number of rings (size 3 to 8) (size 9 to 14) (size 15 to 20)
#    0.000    2.000    0.000    1.714    0.000   18.857 
#    0.000    7.143    0.000    0.857    0.000    0.000 
#    0.000    0.000    0.000    0.000    0.000    0.000 
#
# Total GULP energy -346932.736418 kJ/mol
# GULP energy per Si atom -12390.454872 kJ/mol
# Density = 2.397744 g / cm^3
# Si number density = 24.032133 Si / 1000 Ang^3
#
#
#
# Elastic Constant Matrix: (Units=GPa)
#
#
# Indices 1 2 3 4 5 6 
#
# 1 118.8110 34.5593 66.3110 0.0000 8.1869 0.0000
# 2 34.5593 102.1904 69.4273 0.0000 14.6945 0.0000
# 3 66.3110 69.4273 120.3200 0.0001 23.7893 0.0000
# 4 0.0000 0.0000 0.0001 30.1919 0.0000 9.3190
# 5 8.1869 14.6945 23.7893 0.0000 44.7915 0.0000
# 6 0.0000 0.0000 0.0000 9.3190 0.0000 39.5351
#
#
#
# Elastic Compliance Matrix: (Units=1/GPa)
#
#
# Indices 1 2 3 4 5 6 
#
# 1 0.012277 0.000709 -0.007470 0.000000 0.001491 0.000000
# 2 0.000709 0.016142 -0.009645 0.000000 -0.000303 0.000000
# 3 -0.007470 -0.009645 0.019104 0.000000 -0.005617 0.000000
# 4 0.000000 0.000000 0.000000 0.035720 0.000000 -0.008420
# 5 0.001491 -0.000303 -0.005617 0.000000 0.025136 0.000000
# 6 0.000000 0.000000 0.000000 -0.008420 0.000000 0.027279
#
#
# Mechanical properties :
#
#
# Convention : Reuss Voigt Hill
#
# Bulk Modulus (GPa) = 67.97832 75.76849 71.87340
# Shear Modulus (GPa) = 28.83940 34.30528 31.57234
#
# Velocity S-wave (km/s) = 3.46791 3.78229 3.62851
# Velocity P-wave (km/s) = 6.66206 7.11834 6.89398
#
# Compressibility (1/GPa) = 0.01471057
#
# Stress axis : x y z
#
# Youngs Moduli (GPa) = 81.45384 61.94866 52.34527
#
# Poissons Ratio (x) = -0.04390 0.39100
# Poissons Ratio (y) = -0.05772 0.50488
# Poissons Ratio (z) = 0.60844 0.59751
#
# Static dielectric constant tensor:
#      x y z
#    x 4.282570 0.000000 0.436840 
#    y 0.000000 3.735430 0.000000 
#    z 0.436840 0.000000 4.577050 
# 
# 
# High freq. dielectric constant tensor:
#      x y z
#    x 1.968860 0.000000 0.022370 
#    y 0.000000 1.944160 0.000000 
#    z 0.022370 0.000000 1.936810 
# 
# From -- ./inp_files/307964.got.cif
#   From: 2010.06.25/outbox.cif.g09.slc.cpg/sg15_154_cif.got.tgz:307964.got - 2010.06.28 07:06:18.
