data_PCOD8143065
_publ_section_title
;
Structure prediction by ZEFSAII (Michael W. Deem and Ramdas Pophale) SiO2 
 PCOD8143065
Probable space group: C 2/C
;
_chemical_formula_sum "Si O2"
_cell_formula_units_Z 56
_cell_length_a 30.020071
_cell_length_b 9.298206
_cell_length_c 19.149612
_cell_angle_alpha 90.000000
_cell_angle_beta 151.290988
_cell_angle_gamma 90.000000
_cell_volume 2567.668842
_symmetry_space_group_name_H-M "C 2/C"
_symmetry_group_IT_number 15
_symmetry_cell_setting 'monoclinic'
loop_
_space_group_symop_operation_xyz
x,y,z
-x,y,1/2-z
-x,-y,-z
x,-y,1/2+z
1/2+x,1/2+y,z
1/2-x,1/2+y,1/2-z
1/2-x,1/2-y,-z
1/2+x,1/2-y,1/2+z
loop_
_atom_site_type_symbol
_atom_site_label
_atom_site_fract_x
_atom_site_fract_y
_atom_site_fract_z
Si Si1 0.508151 0.859153 0.650488
Si Si2 0.809859 0.273358 0.650466
Si Si3 0.500000 0.096470 0.750000
Si Si4 0.815328 0.029416 0.436954
Si Si5 0.000000 0.132616 0.750000
Si Si6 0.595243 0.481279 0.710318
Si Si7 0.166122 0.804074 0.932816
Si Si8 0.097231 0.871691 0.570098
O O1 0.603084 0.885398 0.738054
O O2 0.544542 0.733738 0.752003
O O3 0.425054 0.791313 0.488635
O O4 0.474032 0.998835 0.646439
O O5 0.750000 0.250000 0.500000
O O6 0.747200 0.339649 0.624285
O O7 0.842964 0.119222 0.722679
O O8 0.592123 0.185016 0.856504
O O9 0.921105 0.036822 0.608295
O O10 0.818873 0.050471 0.357844
O O11 0.786705 0.876804 0.432805
O O12 0.612769 0.421232 0.811967
O O13 0.621199 0.364553 0.685474
O O14 0.488369 0.521142 0.558902
O O15 0.250000 0.750000 0.000000
#
# Coordination Sequence:
#
# PCOD8143065 Si02
#       8
#     8   8   4   8   4   8   8   8
#     4   9  18  33  55  87 115 149 203 254 308 363
#     4  11  18  32  62  90 118 147 198 272 308 374
#     4  11  23  36  58  90 127 171 214 264 316 365
#     4  11  19  34  58  86 114 156 206 252 308 367
#     4   9  15  28  56  84 103 135 200 256 284 347
#     4  10  21  40  61  89 119 156 204 252 327 373
#     4  12  24  37  58  85 131 167 205 259 316 381
#     4   9  20  39  65  85 112 156 203 259 305 387
#
# _framework density 21.809664000000001
#
# number of rings (size 3 to 8) (size 9 to 14) (size 15 to 20)
#    0.000    1.714    2.857    3.857    0.000    0.000 
#    2.571    0.714    0.000    0.000    0.000    0.000 
#    0.000    0.000    0.000    0.000    0.000    0.000 
#
# Total GULP energy -346881.603551 kJ/mol
# GULP energy per Si atom -12388.628698 kJ/mol
# Density = 2.176002 g / cm^3
# Si number density = 21.809664 Si / 1000 Ang^3
#
#
#
# Elastic Constant Matrix: (Units=GPa)
#
#
# Indices 1 2 3 4 5 6 
#
# 1 140.1553 46.3902 26.8754 0.0000 9.3238 0.0000
# 2 46.3902 99.9959 16.1332 0.0000 7.7755 0.0000
# 3 26.8754 16.1332 28.7623 0.0000 13.8508 0.0000
# 4 0.0000 0.0000 0.0000 23.6446 0.0000 1.2362
# 5 9.3238 7.7755 13.8508 0.0000 34.2411 0.0000
# 6 0.0000 0.0000 0.0000 1.2362 0.0000 36.6557
#
#
#
# Elastic Compliance Matrix: (Units=1/GPa)
#
#
# Indices 1 2 3 4 5 6 
#
# 1 0.009635 -0.003318 -0.007752 0.000000 0.001265 0.000000
# 2 -0.003318 0.012138 -0.003497 0.000000 -0.000438 0.000000
# 3 -0.007752 -0.003497 0.052873 0.000000 -0.018483 0.000000
# 4 0.000000 0.000000 0.000000 0.042368 0.000000 -0.001429
# 5 0.001265 -0.000438 -0.018483 0.000000 0.036436 0.000000
# 6 0.000000 0.000000 0.000000 -0.001429 0.000000 0.027329
#
#
# Mechanical properties :
#
#
# Convention : Reuss Voigt Hill
#
# Bulk Modulus (GPa) = 21.97161 49.74567 35.85864
# Shear Modulus (GPa) = 22.21401 30.87592 26.54497
#
# Velocity S-wave (km/s) = 3.19492 3.76666 3.49251
# Velocity P-wave (km/s) = 4.86889 6.46340 5.72196
#
# Compressibility (1/GPa) = 0.04551328
#
# Stress axis : x y z
#
# Youngs Moduli (GPa) = 103.78479 82.38658 18.91323
#
# Poissons Ratio (x) = 0.27334 0.14661
# Poissons Ratio (y) = 0.34434 0.06614
# Poissons Ratio (z) = 0.80449 0.28812
#
# Static dielectric constant tensor:
#      x y z
#    x 5.798940 0.000000 2.590120 
#    y 0.000000 4.075940 0.000000 
#    z 2.590120 0.000000 10.051950 
# 
# 
# High freq. dielectric constant tensor:
#      x y z
#    x 1.883840 0.000000 0.017430 
#    y 0.000000 1.837880 0.000000 
#    z 0.017430 0.000000 1.824270 
# 
# From -- ./inp_files/259040.got.cif
#   From: 2010.06.25/outbox.cif.g09.slc.cpg/sg15_130_cif.got.tgz:259040.got - 2010.06.28 07:06:18.
