data_PCOD8143491
_publ_section_title
;
Structure prediction by ZEFSAII (Michael W. Deem and Ramdas Pophale) SiO2 
 PCOD8143491
Probable space group: C 2/C
;
_chemical_formula_sum "Si O2"
_cell_formula_units_Z 56
_cell_length_a 11.359308
_cell_length_b 18.178514
_cell_length_c 16.247337
_cell_angle_alpha 90.000000
_cell_angle_beta 50.989376
_cell_angle_gamma 90.000000
_cell_volume 2606.932668
_symmetry_space_group_name_H-M "C 2/C"
_symmetry_group_IT_number 15
_symmetry_cell_setting 'monoclinic'
loop_
_space_group_symop_operation_xyz
x,y,z
-x,y,1/2-z
-x,-y,-z
x,-y,1/2+z
1/2+x,1/2+y,z
1/2-x,1/2+y,1/2-z
1/2-x,1/2-y,-z
1/2+x,1/2-y,1/2+z
loop_
_atom_site_type_symbol
_atom_site_label
_atom_site_fract_x
_atom_site_fract_y
_atom_site_fract_z
Si Si1 0.366057 0.958466 0.199035
Si Si2 0.204766 0.666421 0.015118
Si Si3 0.648399 0.825294 0.869571
Si Si4 0.196256 0.416042 0.011938
Si Si5 0.162440 0.960157 0.138820
Si Si6 0.666551 0.897197 0.698108
Si Si7 0.323477 0.821981 0.322094
O O1 0.542738 0.959450 0.099916
O O2 0.281816 0.985477 0.155077
O O3 0.311191 0.878470 0.251691
O O4 0.333995 0.014856 0.288025
O O5 0.257623 0.626714 0.076921
O O6 0.029723 0.664066 0.066507
O O7 0.250000 0.750000 0.000000
O O8 0.301361 0.623134 0.904207
O O9 0.731173 0.858248 0.752152
O O10 0.706224 0.742268 0.853803
O O11 0.692048 0.867407 0.932304
O O12 0.236196 0.361250 0.068800
O O13 0.321564 0.480335 0.942544
O O14 0.000000 0.962908 0.250000
O O15 0.500000 0.867136 0.750000
O O16 0.500000 0.795470 0.250000
#
# Coordination Sequence:
#
# PCOD8143491 Si02
#       7
#     8   8   8   8   8   8   8
#     4  11  21  43  71  93 128 174 220 273 327 392
#     4  11  26  43  65  96 134 178 218 267 331 402
#     4  11  22  41  68  97 132 175 211 269 331 397
#     4  11  21  45  68  95 129 173 219 267 335 394
#     4  12  26  42  67  98 132 168 226 279 324 384
#     4  10  21  40  68  95 122 167 225 262 318 395
#     4  10  24  39  68 100 133 168 220 273 328 395
#
# _framework density 21.481183999999999
#
# number of rings (size 3 to 8) (size 9 to 14) (size 15 to 20)
#    0.000    1.143    2.857    4.714    4.000    1.143 
#    2.571    1.429    0.000    0.000    0.000    0.000 
#    0.000    0.000    0.000    0.000    0.000    0.000 
#
# Total GULP energy -347130.462794 kJ/mol
# GULP energy per Si atom -12397.516528 kJ/mol
# Density = 2.143229 g / cm^3
# Si number density = 21.481184 Si / 1000 Ang^3
#
#
#
# Elastic Constant Matrix: (Units=GPa)
#
#
# Indices 1 2 3 4 5 6 
#
# 1 39.1558 30.4174 34.7518 -0.0001 3.6771 0.0002
# 2 30.4174 142.2107 65.1906 0.0000 -12.3612 0.0000
# 3 34.7518 65.1906 120.0341 -0.0001 -2.0084 0.0001
# 4 -0.0001 0.0000 -0.0001 44.4168 0.0001 1.9996
# 5 3.6771 -12.3612 -2.0084 0.0001 29.4142 -0.0002
# 6 0.0002 0.0000 0.0001 1.9996 -0.0002 39.6386
#
#
#
# Elastic Compliance Matrix: (Units=1/GPa)
#
#
# Indices 1 2 3 4 5 6 
#
# 1 0.037337 -0.004801 -0.008324 0.000000 -0.007253 0.000000
# 2 -0.004801 0.010375 -0.004167 0.000000 0.004676 0.000000
# 3 -0.008324 -0.004167 0.013007 0.000000 0.000178 0.000000
# 4 0.000000 0.000000 0.000000 0.022565 0.000000 -0.001138
# 5 -0.007253 0.004676 0.000178 0.000000 0.036881 0.000000
# 6 0.000000 0.000000 0.000000 -0.001138 0.000000 0.025285
#
#
# Mechanical properties :
#
#
# Convention : Reuss Voigt Hill
#
# Bulk Modulus (GPa) = 38.26052 62.45781 50.35917
# Shear Modulus (GPa) = 26.49076 34.09664 30.29370
#
# Velocity S-wave (km/s) = 3.51552 3.98839 3.75940
# Velocity P-wave (km/s) = 5.85904 7.09566 6.50679
#
# Compressibility (1/GPa) = 0.02613660
#
# Stress axis : x y z
#
# Youngs Moduli (GPa) = 26.78300 96.38473 76.88373
#
# Poissons Ratio (x) = 0.46273 0.63996
# Poissons Ratio (y) = 0.12858 0.32034
# Poissons Ratio (z) = 0.22293 0.40159
#
# Static dielectric constant tensor:
#      x y z
#    x 3.736490 0.000000 0.446560 
#    y 0.000000 3.904540 0.000000 
#    z 0.446560 0.000000 3.217940 
# 
# 
# High freq. dielectric constant tensor:
#      x y z
#    x 1.817440 0.000000 0.025690 
#    y 0.000000 1.854610 0.000000 
#    z 0.025690 0.000000 1.854240 
# 
# From -- ./inp_files/145990.got.cif
#   From: 2010.06.25/outbox.cif.g09.slc.cpg/sg15_73_cif.got.tgz:145990.got - 2010.06.28 07:06:18.
