data_PCOD8143525
_publ_section_title
;
Structure prediction by ZEFSAII (Michael W. Deem and Ramdas Pophale) SiO2 
 PCOD8143525
Probable space group: C 2/C
;
_chemical_formula_sum "Si O2"
_cell_formula_units_Z 60
_cell_length_a 10.977728
_cell_length_b 8.765685
_cell_length_c 28.312228
_cell_angle_alpha 90.000000
_cell_angle_beta 69.024510
_cell_angle_gamma 90.000000
_cell_volume 2543.872733
_symmetry_space_group_name_H-M "C 2/C"
_symmetry_group_IT_number 15
_symmetry_cell_setting 'monoclinic'
loop_
_space_group_symop_operation_xyz
x,y,z
-x,y,1/2-z
-x,-y,-z
x,-y,1/2+z
1/2+x,1/2+y,z
1/2-x,1/2+y,1/2-z
1/2-x,1/2-y,-z
1/2+x,1/2-y,1/2+z
loop_
_atom_site_type_symbol
_atom_site_label
_atom_site_fract_x
_atom_site_fract_y
_atom_site_fract_z
Si Si1 0.954997 0.894139 0.168576
Si Si2 0.630286 0.296331 0.483227
Si Si3 0.439203 0.443513 0.581481
Si Si4 0.347075 0.994989 0.575422
Si Si5 0.309899 0.772891 0.896776
Si Si6 0.889092 0.422751 0.419821
Si Si7 0.500000 0.586326 0.250000
Si Si8 0.705009 0.253960 0.657771
O O1 0.007665 0.012138 0.121153
O O2 0.932162 0.976295 0.221221
O O3 0.070398 0.767068 0.155459
O O4 0.817128 0.834294 0.169998
O O5 0.541216 0.336889 0.540172
O O6 0.595678 0.404097 0.443369
O O7 0.601698 0.120884 0.471921
O O8 0.787681 0.332951 0.469697
O O9 0.308183 0.354269 0.614592
O O10 0.462827 0.092770 0.583799
O O11 0.267567 0.903072 0.625928
O O12 0.248375 0.123616 0.568230
O O13 0.359952 0.895977 0.927921
O O14 0.867555 0.355039 0.370267
O O15 0.395575 0.695052 0.288608
#
# Coordination Sequence:
#
# PCOD8143525 Si02
#       8
#     8   8   8   8   8   8   4   8
#     4  12  24  47  67  97 134 169 221 283 332 396
#     4   9  20  40  63 106 137 181 225 265 324 398
#     4  10  21  40  69  95 142 181 222 269 330 392
#     4  11  21  39  70  98 138 171 222 267 327 398
#     4  11  22  38  69  97 131 179 212 271 330 386
#     4  10  21  41  70  96 135 182 217 265 331 391
#     4  12  30  44  72 102 126 168 226 286 346 390
#     4  11  24  47  68  97 127 173 217 277 338 400
#
# _framework density 23.586086000000002
#
# number of rings (size 3 to 8) (size 9 to 14) (size 15 to 20)
#    0.000    1.333    6.667    0.000    1.867    3.733 
#    0.000    5.333    0.000    0.000    0.000    0.000 
#    0.000    0.000    0.000    0.000    0.000    0.000 
#
# Total GULP energy -371971.116931 kJ/mol
# GULP energy per Si atom -12399.037231 kJ/mol
# Density = 2.353240 g / cm^3
# Si number density = 23.586086 Si / 1000 Ang^3
#
#
#
# Elastic Constant Matrix: (Units=GPa)
#
#
# Indices 1 2 3 4 5 6 
#
# 1 129.9910 52.3573 59.6095 0.0000 -4.5872 0.0000
# 2 52.3573 144.4810 64.1003 0.0000 -4.6173 0.0000
# 3 59.6095 64.1003 152.2727 0.0000 -0.0558 0.0000
# 4 0.0000 0.0000 0.0000 40.5087 0.0000 -6.6283
# 5 -4.5872 -4.6173 -0.0558 0.0000 33.1037 0.0000
# 6 0.0000 0.0000 0.0000 -6.6283 0.0000 43.9091
#
#
#
# Elastic Compliance Matrix: (Units=1/GPa)
#
#
# Indices 1 2 3 4 5 6 
#
# 1 0.010004 -0.002280 -0.002956 0.000000 0.001063 0.000000
# 2 -0.002280 0.009077 -0.002928 0.000000 0.000945 0.000000
# 3 -0.002956 -0.002928 0.008957 0.000000 -0.000803 0.000000
# 4 0.000000 0.000000 0.000000 0.025311 0.000000 0.003821
# 5 0.001063 0.000945 -0.000803 0.000000 0.030486 0.000000
# 6 0.000000 0.000000 0.000000 0.003821 0.000000 0.023351
#
#
# Mechanical properties :
#
#
# Convention : Reuss Voigt Hill
#
# Bulk Modulus (GPa) = 85.40108 86.54207 85.97158
# Shear Modulus (GPa) = 39.24106 40.21613 39.72860
#
# Velocity S-wave (km/s) = 4.08332 4.13374 4.10861
# Velocity P-wave (km/s) = 7.64972 7.71721 7.68354
#
# Compressibility (1/GPa) = 0.01170945
#
# Stress axis : x y z
#
# Youngs Moduli (GPa) = 99.95755 110.17120 111.64774
#
# Poissons Ratio (x) = 0.25117 0.33006
# Poissons Ratio (y) = 0.22789 0.32692
# Poissons Ratio (z) = 0.29550 0.32259
#
# Static dielectric constant tensor:
#      x y z
#    x 4.543140 0.000000 -0.056870 
#    y 0.000000 4.695100 0.000000 
#    z -0.056870 0.000000 4.009880 
# 
# 
# High freq. dielectric constant tensor:
#      x y z
#    x 1.963050 0.000000 -0.007190 
#    y 0.000000 1.966990 0.000000 
#    z -0.007190 0.000000 1.901020 
# 
# From -- ./inp_files/309999.got.cif
#   From: 2010.06.25/outbox.cif.g09.slc.cpg/sg15_155_cif.got.tgz:309999.got - 2010.06.28 07:06:18.
