data_PCOD8143700
_publ_section_title
;
Structure prediction by ZEFSAII (Michael W. Deem and Ramdas Pophale) SiO2 
 PCOD8143700
Probable space group: C 2/C
;
_chemical_formula_sum "Si O2"
_cell_formula_units_Z 44
_cell_length_a 25.715510
_cell_length_b 19.451822
_cell_length_c 5.072294
_cell_angle_alpha 90.000000
_cell_angle_beta 129.376547
_cell_angle_gamma 90.000000
_cell_volume 1961.261893
_symmetry_space_group_name_H-M "C 2/C"
_symmetry_group_IT_number 15
_symmetry_cell_setting 'monoclinic'
loop_
_space_group_symop_operation_xyz
x,y,z
-x,y,1/2-z
-x,-y,-z
x,-y,1/2+z
1/2+x,1/2+y,z
1/2-x,1/2+y,1/2-z
1/2-x,1/2-y,-z
1/2+x,1/2-y,1/2+z
loop_
_atom_site_type_symbol
_atom_site_label
_atom_site_fract_x
_atom_site_fract_y
_atom_site_fract_z
Si Si1 0.500000 0.289692 0.750000
Si Si2 0.327313 0.745987 0.320112
Si Si3 0.861664 0.832160 0.436198
Si Si4 0.944221 0.664758 0.265102
Si Si5 0.114874 0.545284 0.123852
Si Si6 0.731988 0.542511 0.841418
O O1 0.441354 0.341279 0.651110
O O2 0.473366 0.238758 0.438907
O O3 0.334383 0.727011 0.651365
O O4 0.370284 0.816750 0.401581
O O5 0.250000 0.750000 0.000000
O O6 0.354834 0.686748 0.219461
O O7 0.821434 0.900860 0.245291
O O8 0.000000 0.631594 0.250000
O O9 0.932623 0.610987 0.468226
O O10 0.099613 0.515713 0.784989
O O11 0.192022 0.570678 0.386381
O O12 0.720456 0.520846 0.502599
#
# Coordination Sequence:
#
# PCOD8143700 Si02
#       6
#     4   8   8   8   8   8
#     4  10  24  42  60  94 128 166 206 254 318 382
#     4  11  23  38  63  95 121 162 216 262 314 366
#     4  11  22  40  64  90 127 164 201 262 319 370
#     4  11  23  41  62  87 131 166 206 255 310 372
#     4  10  24  40  61  88 121 163 211 255 302 362
#     4  10  21  41  63  91 122 160 207 260 311 363
#
# _framework density 22.434533999999999
#
# number of rings (size 3 to 8) (size 9 to 14) (size 15 to 20)
#    0.000    1.455    1.818    2.727    2.545    5.091 
#    0.000    0.909    0.000    0.000    0.000    0.000 
#    0.000    0.000    0.000    0.000    0.000    0.000 
#
# Total GULP energy -272716.775455 kJ/mol
# GULP energy per Si atom -12396.217066 kJ/mol
# Density = 2.238347 g / cm^3
# Si number density = 22.434534 Si / 1000 Ang^3
#
#
#
# Elastic Constant Matrix: (Units=GPa)
#
#
# Indices 1 2 3 4 5 6 
#
# 1 140.8931 37.2522 28.9074 0.0000 25.4293 0.0000
# 2 37.2522 53.9089 -0.8693 0.0000 17.1587 0.0000
# 3 28.9074 -0.8693 59.5945 0.0000 7.7766 0.0000
# 4 0.0000 0.0000 0.0000 12.7923 0.0000 1.5889
# 5 25.4293 17.1587 7.7766 0.0000 44.1697 0.0000
# 6 0.0000 0.0000 0.0000 1.5889 0.0000 43.8517
#
#
#
# Elastic Compliance Matrix: (Units=1/GPa)
#
#
# Indices 1 2 3 4 5 6 
#
# 1 0.010194 -0.006294 -0.004698 0.000000 -0.002597 0.000000
# 2 -0.006294 0.025170 0.004322 0.000000 -0.006915 0.000000
# 3 -0.004698 0.004322 0.019435 0.000000 -0.002396 0.000000
# 4 0.000000 0.000000 0.000000 0.078525 0.000000 -0.002845
# 5 -0.002597 -0.006915 -0.002396 0.000000 0.027243 0.000000
# 6 0.000000 0.000000 0.000000 -0.002845 0.000000 0.022907
#
#
# Mechanical properties :
#
#
# Convention : Reuss Voigt Hill
#
# Bulk Modulus (GPa) = 24.11944 42.77522 33.44733
# Shear Modulus (GPa) = 23.73805 32.76984 28.25395
#
# Velocity S-wave (km/s) = 3.25638 3.82604 3.55265
# Velocity P-wave (km/s) = 4.99130 6.21500 5.63645
#
# Compressibility (1/GPa) = 0.04146033
#
# Stress axis : x y z
#
# Youngs Moduli (GPa) = 98.09517 39.73048 51.45478
#
# Poissons Ratio (x) = 0.25005 0.24172
# Poissons Ratio (y) = 0.61737 -0.22241
# Poissons Ratio (z) = 0.46083 -0.17173
#
# Static dielectric constant tensor:
#      x y z
#    x 3.590140 0.000000 0.433290 
#    y 0.000000 3.645650 0.000000 
#    z 0.433290 0.000000 4.063410 
# 
# 
# High freq. dielectric constant tensor:
#      x y z
#    x 1.907020 0.000000 0.004080 
#    y 0.000000 1.847150 0.000000 
#    z 0.004080 0.000000 1.887260 
# 
# From -- ./inp_files/10278.got.cif
#   From: 2010.06.25/outbox.cif.g09.slc.cpg/sg15_6_cif.got.tgz:10278.got - 2010.06.28 07:06:18.
