data_PCOD8143625
_publ_section_title
;
Structure prediction by ZEFSAII (Michael W. Deem and Ramdas Pophale) SiO2 
 PCOD8143625
Probable space group: C 2/C
;
_chemical_formula_sum "Si O2"
_cell_formula_units_Z 60
_cell_length_a 8.929338
_cell_length_b 20.528159
_cell_length_c 18.376148
_cell_angle_alpha 90.000000
_cell_angle_beta 120.391184
_cell_angle_gamma 90.000000
_cell_volume 2905.553861
_symmetry_space_group_name_H-M "C 2/C"
_symmetry_group_IT_number 15
_symmetry_cell_setting 'monoclinic'
loop_
_space_group_symop_operation_xyz
x,y,z
-x,y,1/2-z
-x,-y,-z
x,-y,1/2+z
1/2+x,1/2+y,z
1/2-x,1/2+y,1/2-z
1/2-x,1/2-y,-z
1/2+x,1/2-y,1/2+z
loop_
_atom_site_type_symbol
_atom_site_label
_atom_site_fract_x
_atom_site_fract_y
_atom_site_fract_z
Si Si1 0.871083 0.187443 0.543645
Si Si2 0.155393 0.583314 0.566728
Si Si3 0.759985 0.719729 0.671748
Si Si4 0.870606 0.859367 0.664587
Si Si5 0.916808 0.545206 0.383630
Si Si6 0.049537 0.311306 0.142079
Si Si7 0.648049 0.326273 0.620188
Si Si8 0.000000 0.602155 0.250000
O O1 0.750000 0.250000 0.500000
O O2 0.814697 0.132160 0.588222
O O3 0.875308 0.149781 0.468047
O O4 0.054974 0.214230 0.615127
O O5 0.188428 0.522446 0.629621
O O6 0.026406 0.628328 0.582124
O O7 0.088628 0.551485 0.475127
O O8 0.817419 0.794659 0.697868
O O9 0.831342 0.676668 0.756656
O O10 0.851029 0.700153 0.618133
O O11 0.696960 0.898163 0.608696
O O12 0.000000 0.898811 0.750000
O O13 0.972542 0.850461 0.615081
O O14 0.964480 0.555625 0.310763
O O15 0.143578 0.252288 0.122234
O O16 0.830010 0.352986 0.697067
#
# Coordination Sequence:
#
# PCOD8143625 Si02
#       8
#     8   8   8   8   8   8   8   4
#     4  12  24  39  63 102 133 164 212 273 339 380
#     4  11  25  44  62  97 131 168 217 266 327 381
#     4  10  22  39  64  97 132 165 213 270 330 395
#     4  11  20  41  64  94 128 170 220 260 316 394
#     4  11  25  44  67  89 130 176 218 267 309 392
#     4  10  21  41  61  93 130 171 208 268 333 384
#     4  11  23  36  66  98 123 163 220 269 328 384
#     4  12  22  42  70  92 126 172 218 270 322 384
#
# _framework density 20.650107999999999
#
# number of rings (size 3 to 8) (size 9 to 14) (size 15 to 20)
#    0.000    1.067    6.667    0.800    3.733    2.667 
#    2.400    2.000    0.000    0.000    0.000    0.000 
#    0.000    0.000    0.000    0.000    0.000    0.000 
#
# Total GULP energy -371671.427737 kJ/mol
# GULP energy per Si atom -12389.047591 kJ/mol
# Density = 2.060311 g / cm^3
# Si number density = 20.650108 Si / 1000 Ang^3
#
#
#
# Elastic Constant Matrix: (Units=GPa)
#
#
# Indices 1 2 3 4 5 6 
#
# 1 113.3277 45.7071 40.3217 0.0000 -0.8426 0.0000
# 2 45.7071 94.4908 28.1033 0.0000 -16.3653 0.0000
# 3 40.3217 28.1033 69.2267 0.0000 -8.8984 0.0000
# 4 0.0000 0.0000 0.0000 26.9933 0.0000 -6.6768
# 5 -0.8426 -16.3653 -8.8984 0.0000 40.5139 0.0000
# 6 0.0000 0.0000 0.0000 -6.6768 0.0000 27.7667
#
#
#
# Elastic Compliance Matrix: (Units=1/GPa)
#
#
# Indices 1 2 3 4 5 6 
#
# 1 0.012921 -0.005032 -0.005876 0.000000 -0.003054 0.000000
# 2 -0.005032 0.014625 -0.002326 0.000000 0.005292 0.000000
# 3 -0.005876 -0.002326 0.019218 0.000000 0.003159 0.000000
# 4 0.000000 0.000000 0.000000 0.039389 0.000000 0.009471
# 5 -0.003054 0.005292 0.003159 0.000000 0.027451 0.000000
# 6 0.000000 0.000000 0.000000 0.009471 0.000000 0.038292
#
#
# Mechanical properties :
#
#
# Convention : Reuss Voigt Hill
#
# Bulk Modulus (GPa) = 49.26856 56.14549 52.70703
# Shear Modulus (GPa) = 27.00793 29.91564 28.46179
#
# Velocity S-wave (km/s) = 3.62039 3.81030 3.71656
# Velocity P-wave (km/s) = 6.43326 6.82684 6.63297
#
# Compressibility (1/GPa) = 0.02029692
#
# Stress axis : x y z
#
# Youngs Moduli (GPa) = 77.39144 68.37402 52.03358
#
# Poissons Ratio (x) = 0.34403 0.30575
# Poissons Ratio (y) = 0.38941 0.12105
# Poissons Ratio (z) = 0.45476 0.15906
#
# Static dielectric constant tensor:
#      x y z
#    x 3.898210 0.000000 -0.261300 
#    y 0.000000 3.601310 0.000000 
#    z -0.261300 0.000000 3.680340 
# 
# 
# High freq. dielectric constant tensor:
#      x y z
#    x 1.819550 0.000000 -0.019150 
#    y 0.000000 1.780710 0.000000 
#    z -0.019150 0.000000 1.808160 
# 
# From -- ./inp_files/192565.got.cif
#   From: 2010.06.25/outbox.cif.g09.slc.cpg/sg15_97_cif.got.tgz:192565.got - 2010.06.28 07:06:18.
