data_PCOD8143868
_publ_section_title
;
Structure prediction by ZEFSAII (Michael W. Deem and Ramdas Pophale) SiO2 
 PCOD8143868
Probable space group: C 2/C
;
_chemical_formula_sum "Si O2"
_cell_formula_units_Z 48
_cell_length_a 17.236818
_cell_length_b 16.384875
_cell_length_c 15.280422
_cell_angle_alpha 90.000000
_cell_angle_beta 33.571789
_cell_angle_gamma 90.000000
_cell_volume 2386.415599
_symmetry_space_group_name_H-M "C 2/C"
_symmetry_group_IT_number 15
_symmetry_cell_setting 'monoclinic'
loop_
_space_group_symop_operation_xyz
x,y,z
-x,y,1/2-z
-x,-y,-z
x,-y,1/2+z
1/2+x,1/2+y,z
1/2-x,1/2+y,1/2-z
1/2-x,1/2-y,-z
1/2+x,1/2-y,1/2+z
loop_
_atom_site_type_symbol
_atom_site_label
_atom_site_fract_x
_atom_site_fract_y
_atom_site_fract_z
Si Si1 0.314871 0.700804 0.020133
Si Si2 0.919329 0.683390 0.742380
Si Si3 0.124469 0.186005 0.784675
Si Si4 0.000000 0.080149 0.250000
Si Si5 0.272739 0.555464 0.948319
Si Si6 0.000000 0.472952 0.250000
Si Si7 0.397526 0.693156 0.498194
O O1 0.228935 0.735062 0.184504
O O2 0.250000 0.750000 0.000000
O O3 0.479450 0.715881 0.878075
O O4 0.295726 0.604719 0.018012
O O5 0.758762 0.711683 0.889789
O O6 0.000000 0.724121 0.750000
O O7 0.928717 0.584778 0.741830
O O8 0.011864 0.722494 0.576901
O O9 0.189719 0.110384 0.670379
O O10 0.108953 0.155137 0.898565
O O11 0.979567 0.131905 0.357384
O O12 0.863696 0.025733 0.362543
O O13 0.110900 0.529556 0.096173
#
# Coordination Sequence:
#
# PCOD8143868 Si02
#       7
#     8   8   8   4   8   4   8
#     4  10  21  41  66  89 125 168 208 247 312 376
#     4  10  22  41  63  90 114 168 215 243 307 378
#     4  11  24  41  62  99 124 161 213 265 303 367
#     4  12  21  42  65  84 128 172 204 252 315 388
#     4  11  22  41  64  90 124 165 208 250 317 380
#     4  10  23  38  65  88 116 160 218 246 303 382
#     4  12  24  40  66  92 126 163 213 261 309 366
#
# _framework density 20.113848000000001
#
# number of rings (size 3 to 8) (size 9 to 14) (size 15 to 20)
#    0.500    0.667    4.167    3.000    7.000    0.667 
#    0.000    0.833    0.000    0.000    0.000    0.000 
#    0.000    0.000    0.000    0.000    0.000    0.000 
#
# Total GULP energy -297446.655024 kJ/mol
# GULP energy per Si atom -12393.610626 kJ/mol
# Density = 2.006807 g / cm^3
# Si number density = 20.113848 Si / 1000 Ang^3
#
#
#
# Elastic Constant Matrix: (Units=GPa)
#
#
# Indices 1 2 3 4 5 6 
#
# 1 78.0778 38.9757 62.3299 0.0002 -1.9124 0.0006
# 2 38.9757 92.3685 73.6916 0.0007 2.0893 -0.0002
# 3 62.3299 73.6916 160.9853 0.0020 -13.4680 -0.0009
# 4 0.0002 0.0007 0.0020 48.9721 -0.0011 -6.3074
# 5 -1.9124 2.0893 -13.4680 -0.0011 50.0813 0.0001
# 6 0.0006 -0.0002 -0.0009 -6.3074 0.0001 17.8427
#
#
#
# Elastic Compliance Matrix: (Units=1/GPa)
#
#
# Indices 1 2 3 4 5 6 
#
# 1 0.019225 -0.003321 -0.005985 0.000000 -0.000737 -0.000001
# 2 -0.003321 0.018043 -0.007209 0.000000 -0.002818 0.000000
# 3 -0.005985 -0.007209 0.012108 0.000000 0.003328 0.000001
# 4 0.000000 0.000000 0.000000 0.021394 0.000000 0.007563
# 5 -0.000737 -0.002818 0.003328 0.000000 0.020952 0.000000
# 6 -0.000001 0.000000 0.000001 0.007563 0.000000 0.058719
#
#
# Mechanical properties :
#
#
# Convention : Reuss Voigt Hill
#
# Bulk Modulus (GPa) = 61.17910 75.71402 68.44656
# Shear Modulus (GPa) = 26.46641 33.80818 30.13729
#
# Velocity S-wave (km/s) = 3.63137 4.10425 3.87503
# Velocity P-wave (km/s) = 6.93289 7.75785 7.35694
#
# Compressibility (1/GPa) = 0.01634545
#
# Stress axis : x y z
#
# Youngs Moduli (GPa) = 52.01462 55.42436 82.59285
#
# Poissons Ratio (x) = 0.18404 0.49434
# Poissons Ratio (y) = 0.17272 0.59543
# Poissons Ratio (z) = 0.31132 0.39956
#
# Static dielectric constant tensor:
#      x y z
#    x 3.433470 0.000000 -0.013030 
#    y 0.000000 3.798550 0.000000 
#    z -0.013030 0.000000 4.047190 
# 
# 
# High freq. dielectric constant tensor:
#      x y z
#    x 1.764090 0.000000 -0.017460 
#    y 0.000000 1.780850 0.000000 
#    z -0.017460 0.000000 1.802420 
# 
# From -- ./inp_files/163222.got.cif
#   From: 2010.06.25/outbox.cif.g09.slc.cpg/sg15_82_cif.got.tgz:163222.got - 2010.06.28 07:06:18.
