data_PCOD8143799
_publ_section_title
;
Structure prediction by ZEFSAII (Michael W. Deem and Ramdas Pophale) SiO2 
 PCOD8143799
Probable space group: C 2/C
;
_chemical_formula_sum "Si O2"
_cell_formula_units_Z 48
_cell_length_a 23.792798
_cell_length_b 6.603413
_cell_length_c 19.064470
_cell_angle_alpha 90.000000
_cell_angle_beta 131.659689
_cell_angle_gamma 90.000000
_cell_volume 2237.798373
_symmetry_space_group_name_H-M "C 2/C"
_symmetry_group_IT_number 15
_symmetry_cell_setting 'monoclinic'
loop_
_space_group_symop_operation_xyz
x,y,z
-x,y,1/2-z
-x,-y,-z
x,-y,1/2+z
1/2+x,1/2+y,z
1/2-x,1/2+y,1/2-z
1/2-x,1/2-y,-z
1/2+x,1/2-y,1/2+z
loop_
_atom_site_type_symbol
_atom_site_label
_atom_site_fract_x
_atom_site_fract_y
_atom_site_fract_z
Si Si1 0.624107 0.961196 0.903997
Si Si2 0.113229 0.162524 0.487536
Si Si3 0.805161 0.771041 0.923606
Si Si4 0.089706 0.504748 0.077501
Si Si5 0.358454 0.154189 0.237422
Si Si6 0.997513 0.874719 0.170666
O O1 0.638601 0.967556 0.833272
O O2 0.548288 0.838005 0.861816
O O3 0.619593 0.191960 0.925575
O O4 0.693244 0.851364 0.001544
O O5 0.112927 0.286874 0.559121
O O6 0.183158 0.008912 0.550596
O O7 0.038155 0.029199 0.414405
O O8 0.871739 0.686053 0.928817
O O9 0.723711 0.746217 0.820194
O O10 0.120945 0.502726 0.182479
O O11 0.000000 0.500000 0.000000
O O12 0.418669 0.335346 0.287279
O O13 0.000000 0.974866 0.250000
#
# Coordination Sequence:
#
# PCOD8143799 Si02
#       6
#     8   8   8   8   8   8
#     4   9  20  42  64  91 124 159 212 269 314 376
#     4  10  21  41  65  86 122 169 209 253 318 385
#     4  10  23  41  62  91 130 160 212 267 317 377
#     4  11  25  43  60  89 131 172 213 263 310 381
#     4  11  22  39  66  92 128 169 206 269 328 366
#     4   9  20  38  63  95 123 159 213 263 308 373
#
# _framework density 21.449653999999999
#
# number of rings (size 3 to 8) (size 9 to 14) (size 15 to 20)
#    0.000    2.000    0.000    3.500    2.333    6.667 
#    0.000   10.000    0.000    0.000    0.000    0.000 
#    0.000    0.000    0.000    0.000    0.000    0.000 
#
# Total GULP energy -297565.250264 kJ/mol
# GULP energy per Si atom -12398.552094 kJ/mol
# Density = 2.140083 g / cm^3
# Si number density = 21.449654 Si / 1000 Ang^3
#
#
#
# Elastic Constant Matrix: (Units=GPa)
#
#
# Indices 1 2 3 4 5 6 
#
# 1 99.9748 41.7380 57.4435 0.0000 2.2279 0.0000
# 2 41.7380 115.7347 40.7743 0.0001 -2.0830 0.0001
# 3 57.4435 40.7743 152.1882 0.0000 -0.3153 0.0000
# 4 0.0000 0.0001 0.0000 29.2657 0.0000 -5.6933
# 5 2.2279 -2.0830 -0.3153 0.0000 56.2660 0.0000
# 6 0.0000 0.0001 0.0000 -5.6933 0.0000 16.3013
#
#
#
# Elastic Compliance Matrix: (Units=1/GPa)
#
#
# Indices 1 2 3 4 5 6 
#
# 1 0.013981 -0.003528 -0.004333 0.000000 -0.000708 0.000000
# 2 -0.003528 0.010438 -0.001464 0.000000 0.000518 0.000000
# 3 -0.004333 -0.001464 0.008599 0.000000 0.000166 0.000000
# 4 0.000000 0.000000 0.000000 0.036660 0.000000 0.012804
# 5 -0.000708 0.000518 0.000166 0.000000 0.017821 0.000000
# 6 0.000000 0.000000 0.000000 0.012804 0.000000 0.065817
#
#
# Mechanical properties :
#
#
# Convention : Reuss Voigt Hill
#
# Bulk Modulus (GPa) = 69.60209 71.97880 70.79045
# Shear Modulus (GPa) = 28.28765 35.56273 31.92519
#
# Velocity S-wave (km/s) = 3.63546 4.07623 3.86214
# Velocity P-wave (km/s) = 7.08107 7.46888 7.27756
#
# Compressibility (1/GPa) = 0.01436738
#
# Stress axis : x y z
#
# Youngs Moduli (GPa) = 71.52492 95.80530 116.29312
#
# Poissons Ratio (x) = 0.33802 0.50394
# Poissons Ratio (y) = 0.25235 0.17022
# Poissons Ratio (z) = 0.30995 0.14023
#
# Static dielectric constant tensor:
#      x y z
#    x 3.760060 0.000000 -0.069520 
#    y 0.000000 3.676120 0.000000 
#    z -0.069520 0.000000 4.254440 
# 
# 
# High freq. dielectric constant tensor:
#      x y z
#    x 1.829160 0.000000 -0.002910 
#    y 0.000000 1.823600 0.000000 
#    z -0.002910 0.000000 1.862410 
# 
# From -- ./inp_files/254449.got.cif
#   From: 2010.06.25/outbox.cif.g09.slc.cpg/sg15_128_cif.got.tgz:254449.got - 2010.06.28 07:06:18.
