data_PCOD8143830
_publ_section_title
;
Structure prediction by ZEFSAII (Michael W. Deem and Ramdas Pophale) SiO2 
 PCOD8143830
Probable space group: C 2/C
;
_chemical_formula_sum "Si O2"
_cell_formula_units_Z 52
_cell_length_a 15.542738
_cell_length_b 15.331099
_cell_length_c 10.966709
_cell_angle_alpha 90.000000
_cell_angle_beta 70.190263
_cell_angle_gamma 90.000000
_cell_volume 2458.584546
_symmetry_space_group_name_H-M "C 2/C"
_symmetry_group_IT_number 15
_symmetry_cell_setting 'monoclinic'
loop_
_space_group_symop_operation_xyz
x,y,z
-x,y,1/2-z
-x,-y,-z
x,-y,1/2+z
1/2+x,1/2+y,z
1/2-x,1/2+y,1/2-z
1/2-x,1/2-y,-z
1/2+x,1/2-y,1/2+z
loop_
_atom_site_type_symbol
_atom_site_label
_atom_site_fract_x
_atom_site_fract_y
_atom_site_fract_z
Si Si1 0.195759 0.406369 0.171959
Si Si2 0.358087 0.626664 0.952634
Si Si3 0.264307 0.094128 0.279916
Si Si4 0.166282 0.222805 0.775978
Si Si5 0.983182 0.183685 0.456265
Si Si6 0.500000 0.174926 0.750000
Si Si7 0.654084 0.436003 0.606320
O O1 0.189174 0.498416 0.247585
O O2 0.241493 0.330233 0.232409
O O3 0.091690 0.382294 0.190207
O O4 0.257656 0.417335 0.021399
O O5 0.356587 0.703331 0.854275
O O6 0.378610 0.535781 0.876371
O O7 0.261826 0.617699 0.068607
O O8 0.427284 0.643191 0.028988
O O9 0.327659 0.173391 0.205628
O O10 0.177057 0.091030 0.232611
O O11 0.082820 0.196140 0.898397
O O12 0.008897 0.270415 0.370121
O O13 0.934653 0.118678 0.386107
#
# Coordination Sequence:
#
# PCOD8143830 Si02
#       7
#     8   8   8   8   8   4   8
#     4  10  23  42  64  91 126 166 215 262 303 372
#     4  11  22  39  63  97 131 160 208 262 312 379
#     4  11  22  40  67  91 121 178 209 252 320 366
#     4  11  22  42  64  91 131 164 208 260 313 379
#     4  11  23  39  64  97 127 165 204 262 320 366
#     4  12  24  44  62  92 126 166 220 258 300 378
#     4  10  21  41  65  94 126 163 209 260 320 373
#
# _framework density 21.150379000000001
#
# number of rings (size 3 to 8) (size 9 to 14) (size 15 to 20)
#    0.000    1.231    1.538    5.077    0.000    2.462 
#    8.308    1.538    0.000    0.000    0.000    0.000 
#    0.000    0.000    0.000    0.000    0.000    0.000 
#
# Total GULP energy -322362.247468 kJ/mol
# GULP energy per Si atom -12398.547980 kJ/mol
# Density = 2.110224 g / cm^3
# Si number density = 21.150379 Si / 1000 Ang^3
#
#
#
# Elastic Constant Matrix: (Units=GPa)
#
#
# Indices 1 2 3 4 5 6 
#
# 1 89.4648 37.0555 26.1673 0.0000 5.3323 0.0000
# 2 37.0555 128.7248 20.6504 0.0000 6.3391 0.0000
# 3 26.1673 20.6504 67.7413 0.0000 21.0272 0.0000
# 4 0.0000 0.0000 0.0000 28.9053 0.0000 7.6116
# 5 5.3323 6.3391 21.0272 0.0000 30.4063 0.0000
# 6 0.0000 0.0000 0.0000 7.6116 0.0000 29.7034
#
#
#
# Elastic Compliance Matrix: (Units=1/GPa)
#
#
# Indices 1 2 3 4 5 6 
#
# 1 0.013864 -0.003292 -0.004852 0.000000 0.001610 0.000000
# 2 -0.003292 0.008950 -0.001345 0.000000 -0.000358 0.000000
# 3 -0.004852 -0.001345 0.021258 0.000000 -0.013570 0.000000
# 4 0.000000 0.000000 0.000000 0.037099 0.000000 -0.009507
# 5 0.001610 -0.000358 -0.013570 0.000000 0.042064 0.000000
# 6 0.000000 0.000000 0.000000 -0.009507 0.000000 0.036102
#
#
# Mechanical properties :
#
#
# Convention : Reuss Voigt Hill
#
# Bulk Modulus (GPa) = 39.85028 50.40858 45.12943
# Shear Modulus (GPa) = 26.78365 31.27350 29.02857
#
# Velocity S-wave (km/s) = 3.56243 3.84946 3.70873
# Velocity P-wave (km/s) = 5.98361 6.60628 6.30264
#
# Compressibility (1/GPa) = 0.02509393
#
# Stress axis : x y z
#
# Youngs Moduli (GPa) = 72.12820 111.73631 47.04007
#
# Poissons Ratio (x) = 0.36784 0.22823
# Poissons Ratio (y) = 0.23745 0.06329
# Poissons Ratio (z) = 0.34995 0.15033
#
# Static dielectric constant tensor:
#      x y z
#    x 3.668130 0.000000 0.098970 
#    y 0.000000 3.966340 0.000000 
#    z 0.098970 0.000000 3.775140 
# 
# 
# High freq. dielectric constant tensor:
#      x y z
#    x 1.815530 0.000000 0.008320 
#    y 0.000000 1.834310 0.000000 
#    z 0.008320 0.000000 1.841050 
# 
# From -- ./inp_files/96932.got.cif
#   From: 2010.06.25/outbox.cif.g09.slc.cpg/sg15_49_cif.got.tgz:96932.got - 2010.06.28 07:06:18.
