data_PCOD8143447
_publ_section_title
;
Structure prediction by ZEFSAII (Michael W. Deem and Ramdas Pophale) SiO2 
 PCOD8143447
Probable space group: C 2/C
;
_chemical_formula_sum "Si O2"
_cell_formula_units_Z 44
_cell_length_a 8.650459
_cell_length_b 31.465347
_cell_length_c 9.660706
_cell_angle_alpha 90.000000
_cell_angle_beta 51.728053
_cell_angle_gamma 90.000000
_cell_volume 2064.402176
_symmetry_space_group_name_H-M "C 2/C"
_symmetry_group_IT_number 15
_symmetry_cell_setting 'monoclinic'
loop_
_space_group_symop_operation_xyz
x,y,z
-x,y,1/2-z
-x,-y,-z
x,-y,1/2+z
1/2+x,1/2+y,z
1/2-x,1/2+y,1/2-z
1/2-x,1/2-y,-z
1/2+x,1/2-y,1/2+z
loop_
_atom_site_type_symbol
_atom_site_label
_atom_site_fract_x
_atom_site_fract_y
_atom_site_fract_z
Si Si1 0.614096 0.118704 0.477258
Si Si2 0.342601 0.193922 0.229957
Si Si3 0.565598 0.961149 0.557168
Si Si4 0.522110 0.718353 0.900334
Si Si5 0.000000 0.925404 0.250000
Si Si6 0.787545 0.132862 0.663012
O O1 0.727579 0.154689 0.325367
O O2 0.577971 0.076954 0.408049
O O3 0.743337 0.109326 0.542028
O O4 0.402298 0.136715 0.635590
O O5 0.500000 0.174992 0.250000
O O6 0.410209 0.233930 0.098792
O O7 0.185654 0.214680 0.415359
O O8 0.500000 0.971849 0.750000
O O9 0.802252 0.952513 0.401454
O O10 0.500000 0.000000 0.500000
O O11 0.500000 0.710727 0.750000
O O12 0.655018 0.681631 0.894504
O O13 0.044540 0.895277 0.356637
#
# Coordination Sequence:
#
# PCOD8143447 Si02
#       6
#     8   8   8   8   4   8
#     4  10  23  42  65  94 133 173 222 277 334 398
#     4  11  22  36  60  89 131 175 225 271 330 389
#     4  11  27  48  75 105 140 177 225 282 347 415
#     4  11  21  36  59  92 128 176 225 270 325 390
#     4  10  24  46  74 102 140 180 222 276 350 404
#     4  10  21  40  67  93 133 173 221 273 333 392
#
# _framework density 21.313675
#
# number of rings (size 3 to 8) (size 9 to 14) (size 15 to 20)
#    0.000    1.455    0.909    4.909   10.182    2.182 
#    0.000    0.000    0.000    0.000    0.000    0.000 
#    0.000    0.000    0.000    0.000    0.000    0.000 
#
# Total GULP energy -272667.853631 kJ/mol
# GULP energy per Si atom -12393.993347 kJ/mol
# Density = 2.126516 g / cm^3
# Si number density = 21.313675 Si / 1000 Ang^3
#
#
#
# Elastic Constant Matrix: (Units=GPa)
#
#
# Indices 1 2 3 4 5 6 
#
# 1 108.6022 56.2898 38.3142 0.0000 13.5414 0.0000
# 2 56.2898 136.5265 56.7913 0.0000 11.0303 0.0000
# 3 38.3142 56.7913 115.6034 0.0000 12.5529 0.0000
# 4 0.0000 0.0000 0.0000 33.8211 0.0000 2.6617
# 5 13.5414 11.0303 12.5529 0.0000 27.4320 0.0000
# 6 0.0000 0.0000 0.0000 2.6617 0.0000 36.2976
#
#
#
# Elastic Compliance Matrix: (Units=1/GPa)
#
#
# Indices 1 2 3 4 5 6 
#
# 1 0.012394 -0.004110 -0.001688 0.000000 -0.003693 0.000000
# 2 -0.004110 0.010646 -0.003813 0.000000 -0.000507 0.000000
# 3 -0.001688 -0.003813 0.011392 0.000000 -0.002847 0.000000
# 4 0.000000 0.000000 0.000000 0.029739 0.000000 -0.002181
# 5 -0.003693 -0.000507 -0.002847 0.000000 0.039783 0.000000
# 6 0.000000 0.000000 0.000000 -0.002181 0.000000 0.027710
#
#
# Mechanical properties :
#
#
# Convention : Reuss Voigt Hill
#
# Bulk Modulus (GPa) = 65.74023 73.72474 69.73249
# Shear Modulus (GPa) = 32.06055 33.46593 32.76324
#
# Velocity S-wave (km/s) = 3.88264 3.96683 3.92496
# Velocity P-wave (km/s) = 7.14220 7.45965 7.30265
#
# Compressibility (1/GPa) = 0.01521139
#
# Stress axis : x y z
#
# Youngs Moduli (GPa) = 80.68490 93.93228 87.78214
#
# Poissons Ratio (x) = 0.38602 0.14816
# Poissons Ratio (y) = 0.33158 0.33470
# Poissons Ratio (z) = 0.13618 0.35815
#
# Static dielectric constant tensor:
#      x y z
#    x 3.880230 0.000000 -0.067670 
#    y 0.000000 3.936030 0.000000 
#    z -0.067670 0.000000 4.025660 
# 
# 
# High freq. dielectric constant tensor:
#      x y z
#    x 1.831210 0.000000 -0.000670 
#    y 0.000000 1.835290 0.000000 
#    z -0.000670 0.000000 1.842950 
# 
# From -- ./inp_files/25967.got.cif
#   From: 2010.06.25/outbox.cif.g09.slc.cpg/sg15_13_cif.got.tgz:25967.got - 2010.06.28 07:06:18.
