data_PCOD8143987
_publ_section_title
;
Structure prediction by ZEFSAII (Michael W. Deem and Ramdas Pophale) SiO2 
 PCOD8143987
Probable space group: C 2/C
;
_chemical_formula_sum "Si O2"
_cell_formula_units_Z 56
_cell_length_a 24.401256
_cell_length_b 14.645333
_cell_length_c 14.036350
_cell_angle_alpha 90.000000
_cell_angle_beta 29.206400
_cell_angle_gamma 90.000000
_cell_volume 2447.638739
_symmetry_space_group_name_H-M "C 2/C"
_symmetry_group_IT_number 15
_symmetry_cell_setting 'monoclinic'
loop_
_space_group_symop_operation_xyz
x,y,z
-x,y,1/2-z
-x,-y,-z
x,-y,1/2+z
1/2+x,1/2+y,z
1/2-x,1/2+y,1/2-z
1/2-x,1/2-y,-z
1/2+x,1/2-y,1/2+z
loop_
_atom_site_type_symbol
_atom_site_label
_atom_site_fract_x
_atom_site_fract_y
_atom_site_fract_z
Si Si1 0.873634 0.976739 0.791209
Si Si2 0.691513 0.862124 0.760196
Si Si3 0.516805 0.062068 0.828493
Si Si4 0.618516 0.522613 0.433107
Si Si5 0.331583 0.893214 0.914096
Si Si6 0.719640 0.835488 0.109663
Si Si7 0.243234 0.169392 0.736042
O O1 0.886171 0.932905 0.666141
O O2 0.824074 0.904861 0.941673
O O3 0.988902 0.014348 0.662260
O O4 0.786635 0.056900 0.908270
O O5 0.811623 0.910614 0.602034
O O6 0.670278 0.837766 0.681596
O O7 0.672960 0.763638 0.835986
O O8 0.600738 0.935791 0.936431
O O9 0.500000 0.105098 0.750000
O O10 0.604995 0.123439 0.747535
O O11 0.560127 0.958748 0.751069
O O12 0.666593 0.419989 0.355946
O O13 0.331561 0.834266 0.012527
O O14 0.693538 0.817210 0.259753
O O15 0.750000 0.750000 0.000000
#
# Coordination Sequence:
#
# PCOD8143987 Si02
#       7
#     8   8   8   8   8   8   8
#     4   9  20  39  67  95 126 176 217 280 341 405
#     4  12  24  42  68  98 139 185 230 284 345 416
#     4  11  23  41  69 100 133 180 226 284 350 417
#     4  10  21  41  68  95 137 171 224 277 344 404
#     4  10  23  43  66  93 136 180 230 281 349 412
#     4  11  23  40  65 100 138 170 229 282 344 409
#     4  11  24  42  65  99 134 180 232 285 338 410
#
# _framework density 22.879193000000001
#
# number of rings (size 3 to 8) (size 9 to 14) (size 15 to 20)
#    0.000    1.429    0.000    6.857    2.000    3.429 
#    2.571    0.000   12.571    0.000    0.000    0.000 
#    0.000    0.000    0.000    0.000    0.000    0.000 
#
# Total GULP energy -347006.511076 kJ/mol
# GULP energy per Si atom -12393.089681 kJ/mol
# Density = 2.282712 g / cm^3
# Si number density = 22.879193 Si / 1000 Ang^3
#
#
#
# Elastic Constant Matrix: (Units=GPa)
#
#
# Indices 1 2 3 4 5 6 
#
# 1 164.8184 37.6209 63.6638 0.0000 32.5352 0.0000
# 2 37.6209 89.3314 19.7607 0.0000 -0.6323 0.0000
# 3 63.6638 19.7607 92.4826 0.0000 1.7146 0.0000
# 4 0.0000 0.0000 0.0000 16.2097 0.0000 10.5353
# 5 32.5352 -0.6323 1.7146 0.0000 42.2271 0.0000
# 6 0.0000 0.0000 0.0000 10.5353 0.0000 30.2203
#
#
#
# Elastic Compliance Matrix: (Units=1/GPa)
#
#
# Indices 1 2 3 4 5 6 
#
# 1 0.011051 -0.003216 -0.006767 0.000000 -0.008288 0.000000
# 2 -0.003216 0.012689 -0.000547 0.000000 0.002690 0.000000
# 3 -0.006767 -0.000547 0.015503 0.000000 0.004576 0.000000
# 4 0.000000 0.000000 0.000000 0.079765 0.000000 -0.027807
# 5 -0.008288 0.002690 0.004576 0.000000 0.029922 0.000000
# 6 0.000000 0.000000 0.000000 -0.027807 0.000000 0.042785
#
#
# Mechanical properties :
#
#
# Convention : Reuss Voigt Hill
#
# Bulk Modulus (GPa) = 54.99579 65.41368 60.20474
# Shear Modulus (GPa) = 22.84831 32.77055 27.80943
#
# Velocity S-wave (km/s) = 3.16357 3.78872 3.49017
# Velocity P-wave (km/s) = 6.11832 6.91319 6.52787
#
# Compressibility (1/GPa) = 0.01818321
#
# Stress axis : x y z
#
# Youngs Moduli (GPa) = 90.48839 78.81021 64.50347
#
# Poissons Ratio (x) = 0.25345 0.43647
# Poissons Ratio (y) = 0.29100 0.03530
# Poissons Ratio (z) = 0.61231 0.04313
#
# Static dielectric constant tensor:
#      x y z
#    x 4.620440 0.000000 0.459380 
#    y 0.000000 3.951330 0.000000 
#    z 0.459380 0.000000 4.348860 
# 
# 
# High freq. dielectric constant tensor:
#      x y z
#    x 1.926080 0.000000 0.016300 
#    y 0.000000 1.878920 0.000000 
#    z 0.016300 0.000000 1.900480 
# 
# From -- ./inp_files/178329.got.cif
#   From: 2010.06.25/outbox.cif.g09.slc.cpg/sg15_90_cif.got.tgz:178329.got - 2010.06.28 07:06:18.
