data_PCOD8143523
_publ_section_title
;
Structure prediction by ZEFSAII (Michael W. Deem and Ramdas Pophale) SiO2 
 PCOD8143523
Probable space group: C 2/C
;
_chemical_formula_sum "Si O2"
_cell_formula_units_Z 52
_cell_length_a 10.968314
_cell_length_b 28.731151
_cell_length_c 16.662548
_cell_angle_alpha 90.000000
_cell_angle_beta 151.022141
_cell_angle_gamma 90.000000
_cell_volume 2543.915247
_symmetry_space_group_name_H-M "C 2/C"
_symmetry_group_IT_number 15
_symmetry_cell_setting 'monoclinic'
loop_
_space_group_symop_operation_xyz
x,y,z
-x,y,1/2-z
-x,-y,-z
x,-y,1/2+z
1/2+x,1/2+y,z
1/2-x,1/2+y,1/2-z
1/2-x,1/2-y,-z
1/2+x,1/2-y,1/2+z
loop_
_atom_site_type_symbol
_atom_site_label
_atom_site_fract_x
_atom_site_fract_y
_atom_site_fract_z
Si Si1 0.165839 0.918162 0.423529
Si Si2 0.628613 0.966257 0.745447
Si Si3 0.000000 0.637938 0.750000
Si Si4 0.489162 0.758893 0.951363
Si Si5 0.638634 0.439680 0.096679
Si Si6 0.013276 0.281771 0.373943
Si Si7 0.336258 0.822149 0.583948
O O1 0.435585 0.946030 0.566415
O O2 0.195153 0.863210 0.456656
O O3 0.000000 0.925777 0.250000
O O4 0.002982 0.939309 0.400833
O O5 0.500000 0.943603 0.750000
O O6 0.638769 0.022276 0.762980
O O7 0.922291 0.951007 0.905020
O O8 0.759212 0.608183 0.637445
O O9 0.073266 0.667735 0.871103
O O10 0.209240 0.740735 0.806369
O O11 0.489948 0.796774 0.881385
O O12 0.577920 0.783594 0.085333
O O13 0.654935 0.714780 0.022084
O O14 0.250000 0.250000 0.500000
O O15 0.500000 0.844365 0.750000
#
# Coordination Sequence:
#
# PCOD8143523 Si02
#       7
#     8   8   4   8   8   8   8
#     4  11  25  38  63  99 130 164 211 268 325 379
#     4   9  19  42  68  94 126 164 212 265 322 382
#     4  12  24  38  72  92 126 172 224 258 320 388
#     4  11  24  41  63  87 127 167 213 267 325 367
#     4  10  21  40  69  95 123 167 217 261 318 396
#     4  12  24  41  59  89 127 171 208 259 312 386
#     4  11  23  40  66  91 122 165 216 272 319 377
#
# _framework density 20.440933000000001
#
# number of rings (size 3 to 8) (size 9 to 14) (size 15 to 20)
#    0.000    1.231    3.846    2.308    4.308    1.846 
#    0.000    0.000    0.000    0.000    0.000    0.000 
#    0.000    0.000    0.000    0.000    0.000    0.000 
#
# Total GULP energy -322230.649833 kJ/mol
# GULP energy per Si atom -12393.486532 kJ/mol
# Density = 2.039441 g / cm^3
# Si number density = 20.440933 Si / 1000 Ang^3
#
#
#
# Elastic Constant Matrix: (Units=GPa)
#
#
# Indices 1 2 3 4 5 6 
#
# 1 78.2181 47.1265 45.5724 -0.0002 0.7760 -0.0002
# 2 47.1265 124.2305 56.0489 -0.0001 -3.5111 0.0000
# 3 45.5724 56.0489 128.3583 -0.0011 -13.5245 0.0001
# 4 -0.0002 -0.0001 -0.0011 35.0535 -0.0005 8.9534
# 5 0.7760 -3.5111 -13.5245 -0.0005 25.8701 0.0000
# 6 -0.0002 0.0000 0.0001 8.9534 0.0000 27.8331
#
#
#
# Elastic Compliance Matrix: (Units=1/GPa)
#
#
# Indices 1 2 3 4 5 6 
#
# 1 0.018652 -0.005000 -0.004836 0.000000 -0.003766 0.000000
# 2 -0.005000 0.011389 -0.003195 0.000000 0.000025 0.000000
# 3 -0.004836 -0.003195 0.011506 0.000000 0.005727 0.000000
# 4 0.000000 0.000000 0.000000 0.031082 0.000001 -0.009998
# 5 -0.003766 0.000025 0.005727 0.000001 0.041765 0.000000
# 6 0.000000 0.000000 0.000000 -0.009998 0.000000 0.039145
#
#
# Mechanical properties :
#
#
# Convention : Reuss Voigt Hill
#
# Bulk Modulus (GPa) = 64.57895 69.81139 67.19517
# Shear Modulus (GPa) = 27.06184 29.88860 28.47522
#
# Velocity S-wave (km/s) = 3.64250 3.82801 3.73641
# Velocity P-wave (km/s) = 7.02509 7.33247 7.18043
#
# Compressibility (1/GPa) = 0.01548492
#
# Stress axis : x y z
#
# Youngs Moduli (GPa) = 53.61263 87.80689 86.91101
#
# Poissons Ratio (x) = 0.43907 0.42027
# Poissons Ratio (y) = 0.26809 0.27767
# Poissons Ratio (z) = 0.25925 0.28054
#
# Static dielectric constant tensor:
#      x y z
#    x 3.745490 -0.000040 0.010590 
#    y -0.000040 3.486170 -0.000060 
#    z 0.010590 -0.000060 4.016720 
# 
# 
# High freq. dielectric constant tensor:
#      x y z
#    x 1.793720 0.000000 0.011400 
#    y 0.000000 1.799460 0.000000 
#    z 0.011400 0.000000 1.801950 
# 
# From -- ./inp_files/201200.got.cif
#   From: 2010.06.25/outbox.cif.g09.slc.cpg/sg15_101_cif.got.tgz:201200.got - 2010.06.28 07:06:18.
