data_PCOD8143273
_publ_section_title
;
Structure prediction by ZEFSAII (Michael W. Deem and Ramdas Pophale) SiO2 
 PCOD8143273
Probable space group: C 2/C
;
_chemical_formula_sum "Si O2"
_cell_formula_units_Z 60
_cell_length_a 19.897345
_cell_length_b 6.603416
_cell_length_c 23.158015
_cell_angle_alpha 90.000000
_cell_angle_beta 117.870080
_cell_angle_gamma 90.000000
_cell_volume 2689.813876
_symmetry_space_group_name_H-M "C 2/C"
_symmetry_group_IT_number 15
_symmetry_cell_setting 'monoclinic'
loop_
_space_group_symop_operation_xyz
x,y,z
-x,y,1/2-z
-x,-y,-z
x,-y,1/2+z
1/2+x,1/2+y,z
1/2-x,1/2+y,1/2-z
1/2-x,1/2-y,-z
1/2+x,1/2-y,1/2+z
loop_
_atom_site_type_symbol
_atom_site_label
_atom_site_fract_x
_atom_site_fract_y
_atom_site_fract_z
Si Si1 0.096374 0.173562 0.057318
Si Si2 0.350696 0.987875 0.510427
Si Si3 0.053077 0.128699 0.445883
Si Si4 0.340397 0.898665 0.224086
Si Si5 0.000000 0.543616 0.250000
Si Si6 0.096173 0.802670 0.374894
Si Si7 0.279470 0.437129 0.627508
Si Si8 0.774065 0.754914 0.812481
O O1 0.101289 0.373642 0.019718
O O2 0.173039 0.122666 0.122080
O O3 0.030598 0.217469 0.077443
O O4 0.082328 0.968054 0.017029
O O5 0.346804 0.838893 0.564131
O O6 0.268797 0.052278 0.451516
O O7 0.391848 0.189186 0.549501
O O8 0.049800 0.960407 0.395178
O O9 0.303944 0.792324 0.152438
O O10 0.318029 0.758630 0.269448
O O11 0.431637 0.911140 0.250957
O O12 0.305029 0.121124 0.220984
O O13 0.966165 0.675331 0.184459
O O14 0.146615 0.923998 0.349996
O O15 0.236246 0.529589 0.665779
#
# Coordination Sequence:
#
# PCOD8143273 Si02
#       8
#     8   8   8   8   4   8   8   8
#     4   9  21  38  63  98 137 171 230 290 339 421
#     4  10  22  42  68 100 134 180 235 288 351 418
#     4  10  21  40  64  98 134 184 221 285 358 410
#     4  12  26  46  72 102 139 190 238 291 358 421
#     4  12  30  50  68 104 150 184 240 298 354 428
#     4  11  26  44  66  99 142 182 232 289 354 422
#     4  11  24  45  71 100 139 181 236 295 349 416
#     4  11  23  44  69 100 134 183 237 287 347 427
#
# _framework density 22.306374999999999
#
# number of rings (size 3 to 8) (size 9 to 14) (size 15 to 20)
#    0.000    1.333    2.667    1.600    3.733    3.200 
#    4.800    0.000    0.000    0.000    0.000    0.000 
#    0.000    0.000    0.000    0.000    0.000    0.000 
#
# Total GULP energy -371961.505364 kJ/mol
# GULP energy per Si atom -12398.716845 kJ/mol
# Density = 2.225560 g / cm^3
# Si number density = 22.306375 Si / 1000 Ang^3
#
#
#
# Elastic Constant Matrix: (Units=GPa)
#
#
# Indices 1 2 3 4 5 6 
#
# 1 111.1383 26.9938 35.7920 0.0000 6.9952 0.0001
# 2 26.9938 83.1399 30.0025 -0.0002 -0.2144 0.0006
# 3 35.7920 30.0025 97.8836 0.0000 -0.0657 0.0001
# 4 0.0000 -0.0002 0.0000 35.2193 0.0000 2.3979
# 5 6.9952 -0.2144 -0.0657 0.0000 31.3491 0.0000
# 6 0.0001 0.0006 0.0001 2.3979 0.0000 37.0461
#
#
#
# Elastic Compliance Matrix: (Units=1/GPa)
#
#
# Indices 1 2 3 4 5 6 
#
# 1 0.010754 -0.002337 -0.003218 0.000000 -0.002422 0.000000
# 2 -0.002337 0.014032 -0.003446 0.000000 0.000610 0.000000
# 3 -0.003218 -0.003446 0.012450 0.000000 0.000721 0.000000
# 4 0.000000 0.000000 0.000000 0.028519 0.000000 -0.001846
# 5 -0.002422 0.000610 0.000721 0.000000 0.032445 0.000000
# 6 0.000000 0.000000 0.000000 -0.001846 0.000000 0.027113
#
#
# Mechanical properties :
#
#
# Convention : Reuss Voigt Hill
#
# Bulk Modulus (GPa) = 51.99016 53.08204 52.53610
# Shear Modulus (GPa) = 33.39458 34.01447 33.70452
#
# Velocity S-wave (km/s) = 3.87342 3.90920 3.89135
# Velocity P-wave (km/s) = 6.58501 6.65013 6.61765
#
# Compressibility (1/GPa) = 0.01923441
#
# Stress axis : x y z
#
# Youngs Moduli (GPa) = 92.98795 71.26699 80.32430
#
# Poissons Ratio (x) = 0.16653 0.25846
# Poissons Ratio (y) = 0.21729 0.27680
# Poissons Ratio (z) = 0.29921 0.24559
#
# Static dielectric constant tensor:
#      x y z
#    x 4.034080 0.000000 -0.015930 
#    y 0.000000 3.883810 0.000000 
#    z -0.015930 0.000000 4.021640 
# 
# 
# High freq. dielectric constant tensor:
#      x y z
#    x 1.879140 0.000000 -0.006570 
#    y 0.000000 1.875970 0.000000 
#    z -0.006570 0.000000 1.878370 
# 
# From -- ./inp_files/300121.got.cif
#   From: 2010.06.25/outbox.cif.g09.slc.cpg/sg15_151_cif.got.tgz:300121.got - 2010.06.28 07:06:18.
