data_PCOD8143608
_publ_section_title
;
Structure prediction by ZEFSAII (Michael W. Deem and Ramdas Pophale) SiO2 
 PCOD8143608
Probable space group: C 2/C
;
_chemical_formula_sum "Si O2"
_cell_formula_units_Z 48
_cell_length_a 18.732971
_cell_length_b 14.295905
_cell_length_c 18.750383
_cell_angle_alpha 90.000000
_cell_angle_beta 27.757777
_cell_angle_gamma 90.000000
_cell_volume 2338.659514
_symmetry_space_group_name_H-M "C 2/C"
_symmetry_group_IT_number 15
_symmetry_cell_setting 'monoclinic'
loop_
_space_group_symop_operation_xyz
x,y,z
-x,y,1/2-z
-x,-y,-z
x,-y,1/2+z
1/2+x,1/2+y,z
1/2-x,1/2+y,1/2-z
1/2-x,1/2-y,-z
1/2+x,1/2-y,1/2+z
loop_
_atom_site_type_symbol
_atom_site_label
_atom_site_fract_x
_atom_site_fract_y
_atom_site_fract_z
Si Si1 0.505014 0.638087 0.534603
Si Si2 0.940521 0.482858 0.724909
Si Si3 0.893951 0.953601 0.992624
Si Si4 0.349839 0.825732 0.698046
Si Si5 0.566311 0.702099 0.265128
Si Si6 0.095502 0.645899 0.510804
O O1 0.531241 0.556721 0.569433
O O2 0.402566 0.597951 0.561110
O O3 0.412063 0.721034 0.654654
O O4 0.666219 0.674912 0.361582
O O5 0.918608 0.388188 0.700126
O O6 0.000000 0.454437 0.750000
O O7 0.064334 0.546643 0.574932
O O8 0.783413 0.540640 0.871757
O O9 0.984799 0.896901 0.852491
O O10 0.402672 0.868072 0.575720
O O11 0.500000 0.743004 0.250000
O O12 0.534035 0.777837 0.355426
O O13 0.746668 0.688031 0.099309
#
# Coordination Sequence:
#
# PCOD8143608 Si02
#       6
#     8   8   8   8   8   8
#     4  10  22  39  64  91 120 157 206 261 295 353
#     4  11  25  42  61  90 128 163 203 256 307 361
#     4  10  21  41  61  87 126 159 202 252 305 356
#     4  11  22  41  64  93 120 161 209 251 304 365
#     4  12  23  37  59  89 127 162 199 250 313 368
#     4  12  22  38  59  92 119 163 204 249 306 368
#
# _framework density 20.524578000000002
#
# number of rings (size 3 to 8) (size 9 to 14) (size 15 to 20)
#    0.000    1.000    3.333    3.500    2.333    1.333 
#    0.000    4.167    0.000    0.000    0.000    0.000 
#    0.000    0.000    0.000    0.000    0.000    0.000 
#
# Total GULP energy -297764.214313 kJ/mol
# GULP energy per Si atom -12406.842263 kJ/mol
# Density = 2.047786 g / cm^3
# Si number density = 20.524578 Si / 1000 Ang^3
#
#
#
# Elastic Constant Matrix: (Units=GPa)
#
#
# Indices 1 2 3 4 5 6 
#
# 1 123.6024 31.5616 29.7737 0.0009 -6.0213 -0.0005
# 2 31.5616 111.9657 34.6477 0.0022 0.7234 -0.0009
# 3 29.7737 34.6477 54.3073 0.0034 -7.8551 -0.0009
# 4 0.0009 0.0022 0.0034 40.8319 -0.0004 -0.5886
# 5 -6.0213 0.7234 -7.8551 -0.0004 31.0981 0.0000
# 6 -0.0005 -0.0009 -0.0009 -0.5886 0.0000 27.2133
#
#
#
# Elastic Compliance Matrix: (Units=1/GPa)
#
#
# Indices 1 2 3 4 5 6 
#
# 1 0.009496 -0.001379 -0.004209 0.000000 0.000808 0.000000
# 2 -0.001379 0.011466 -0.006888 0.000000 -0.002274 0.000000
# 3 -0.004209 -0.006888 0.025970 -0.000002 0.005905 0.000001
# 4 0.000000 0.000000 -0.000002 0.024498 0.000000 0.000530
# 5 0.000808 -0.002274 0.005905 0.000000 0.033857 0.000000
# 6 0.000000 0.000000 0.000001 0.000530 0.000000 0.036758
#
#
# Mechanical properties :
#
#
# Convention : Reuss Voigt Hill
#
# Bulk Modulus (GPa) = 45.49814 53.53793 49.51804
# Shear Modulus (GPa) = 28.68191 32.75481 30.71836
#
# Velocity S-wave (km/s) = 3.74229 3.99918 3.87287
# Velocity P-wave (km/s) = 6.39443 6.88956 6.64661
#
# Compressibility (1/GPa) = 0.02197892
#
# Stress axis : x y z
#
# Youngs Moduli (GPa) = 105.30776 87.21168 38.50580
#
# Poissons Ratio (x) = 0.12030 0.16208
# Poissons Ratio (y) = 0.14527 0.26523
# Poissons Ratio (z) = 0.44327 0.60072
#
# Static dielectric constant tensor:
#      x y z
#    x 3.597640 0.000000 -0.107770 
#    y 0.000000 3.790610 0.000000 
#    z -0.107770 0.000000 3.722270 
# 
# 
# High freq. dielectric constant tensor:
#      x y z
#    x 1.797950 0.000000 -0.012830 
#    y 0.000000 1.806590 0.000000 
#    z -0.012830 0.000000 1.803820 
# 
# From -- ./inp_files/66431.got.cif
#   From: 2010.06.25/outbox.cif.g09.slc.cpg/sg15_34_cif.got.tgz:66431.got - 2010.06.28 07:06:18.
