data_PCOD8143959
_publ_section_title
;
Structure prediction by ZEFSAII (Michael W. Deem and Ramdas Pophale) SiO2 
 PCOD8143959
Probable space group: C 2/C
;
_chemical_formula_sum "Si O2"
_cell_formula_units_Z 36
_cell_length_a 13.752460
_cell_length_b 11.538300
_cell_length_c 30.773346
_cell_angle_alpha 90.000000
_cell_angle_beta 162.772746
_cell_angle_gamma 90.000000
_cell_volume 1446.195084
_symmetry_space_group_name_H-M "C 2/C"
_symmetry_group_IT_number 15
_symmetry_cell_setting 'monoclinic'
loop_
_space_group_symop_operation_xyz
x,y,z
-x,y,1/2-z
-x,-y,-z
x,-y,1/2+z
1/2+x,1/2+y,z
1/2-x,1/2+y,1/2-z
1/2-x,1/2-y,-z
1/2+x,1/2-y,1/2+z
loop_
_atom_site_type_symbol
_atom_site_label
_atom_site_fract_x
_atom_site_fract_y
_atom_site_fract_z
Si Si1 0.470360 0.205008 0.912509
Si Si2 0.647233 0.198147 0.088473
Si Si3 0.848367 0.418073 0.757521
Si Si4 0.147739 0.465125 0.972076
Si Si5 0.000000 0.415087 0.250000
O O1 0.170441 0.294228 0.775853
O O2 0.385453 0.071612 0.864858
O O3 0.750000 0.250000 0.000000
O O4 0.586358 0.204173 0.011523
O O5 0.369434 0.124835 0.994987
O O6 0.000000 0.137653 0.250000
O O7 0.675980 0.332715 0.116974
O O8 0.501441 0.475764 0.621035
O O9 0.050480 0.506729 0.813937
O O10 0.054803 0.394958 0.889074
#
# Coordination Sequence:
#
# PCOD8143959 Si02
#       5
#     8   8   8   8   4
#     4  10  21  41  67  99 139 179 224 281 346 409
#     4  10  22  42  69  98 142 177 228 289 340 407
#     4  11  25  45  72  99 141 185 228 289 351 417
#     4  11  24  43  73 101 138 180 233 285 351 406
#     4  10  24  44  66  98 144 176 234 280 354 408
#
# _framework density 24.892907000000001
#
# number of rings (size 3 to 8) (size 9 to 14) (size 15 to 20)
#    0.667    0.889    0.000    6.000    3.111    4.444 
#    6.000    0.000    0.000    0.000    0.000    0.000 
#    0.000    0.000    0.000    0.000    0.000    0.000 
#
# Total GULP energy -223059.752991 kJ/mol
# GULP energy per Si atom -12392.208499 kJ/mol
# Density = 2.483625 g / cm^3
# Si number density = 24.892907 Si / 1000 Ang^3
#
#
#
# Elastic Constant Matrix: (Units=GPa)
#
#
# Indices 1 2 3 4 5 6 
#
# 1 128.1349 54.3125 32.9752 0.0060 -38.8851 0.0263
# 2 54.3125 146.4955 6.7239 0.0075 -7.3149 0.0321
# 3 32.9752 6.7239 53.2010 -0.0545 -30.7689 0.0676
# 4 0.0060 0.0075 -0.0545 23.5773 0.0268 -1.6875
# 5 -38.8851 -7.3149 -30.7689 0.0268 50.0780 0.0025
# 6 0.0263 0.0321 0.0676 -1.6875 0.0025 49.8872
#
#
#
# Elastic Compliance Matrix: (Units=1/GPa)
#
#
# Indices 1 2 3 4 5 6 
#
# 1 0.012555 -0.004152 -0.003055 -0.000017 0.007265 -0.000001
# 2 -0.004152 0.008256 0.000563 0.000001 -0.001672 -0.000004
# 3 -0.003055 0.000563 0.029931 0.000049 0.016100 -0.000038
# 4 -0.000017 0.000001 0.000049 0.042517 -0.000006 0.001438
# 5 0.007265 -0.001672 0.016100 -0.000006 0.035258 -0.000027
# 6 -0.000001 -0.000004 -0.000038 0.001438 -0.000027 0.020094
#
#
# Mechanical properties :
#
#
# Convention : Reuss Voigt Hill
#
# Bulk Modulus (GPa) = 26.69983 57.31720 42.00851
# Shear Modulus (GPa) = 28.67242 40.29649 34.48446
#
# Velocity S-wave (km/s) = 3.39755 4.02779 3.72602
# Velocity P-wave (km/s) = 5.11275 6.68628 5.95174
#
# Compressibility (1/GPa) = 0.03745342
#
# Stress axis : x y z
#
# Youngs Moduli (GPa) = 79.64858 121.12300 33.41052
#
# Poissons Ratio (x) = 0.50287 0.10208
# Poissons Ratio (y) = 0.33068 -0.01881
# Poissons Ratio (z) = 0.24336 -0.06818
#
# Static dielectric constant tensor:
#      x y z
#    x 4.393060 -0.000130 -0.043000 
#    y -0.000130 5.173240 -0.000050 
#    z -0.043000 -0.000050 4.207400 
# 
# 
# High freq. dielectric constant tensor:
#      x y z
#    x 1.990100 0.000000 -0.016350 
#    y 0.000000 2.007340 0.000000 
#    z -0.016350 0.000000 1.970630 
# 
# From -- ./inp_files/313683.got.cif
#   From: 2010.06.25/outbox.cif.g09.slc.cpg/sg15_157_cif.got.tgz:313683.got - 2010.06.28 07:06:18.
