data_PCOD8143369
_publ_section_title
;
Structure prediction by ZEFSAII (Michael W. Deem and Ramdas Pophale) SiO2 
 PCOD8143369
Probable space group: C 2/C
;
_chemical_formula_sum "Si O2"
_cell_formula_units_Z 56
_cell_length_a 8.719877
_cell_length_b 24.999700
_cell_length_c 15.520443
_cell_angle_alpha 90.000000
_cell_angle_beta 129.042014
_cell_angle_gamma 90.000000
_cell_volume 2627.808941
_symmetry_space_group_name_H-M "C 2/C"
_symmetry_group_IT_number 15
_symmetry_cell_setting 'monoclinic'
loop_
_space_group_symop_operation_xyz
x,y,z
-x,y,1/2-z
-x,-y,-z
x,-y,1/2+z
1/2+x,1/2+y,z
1/2-x,1/2+y,1/2-z
1/2-x,1/2-y,-z
1/2+x,1/2-y,1/2+z
loop_
_atom_site_type_symbol
_atom_site_label
_atom_site_fract_x
_atom_site_fract_y
_atom_site_fract_z
Si Si1 0.818606 0.958273 0.847158
Si Si2 0.119303 0.698588 0.471466
Si Si3 0.252496 0.504496 0.004975
Si Si4 0.777544 0.839581 0.199895
Si Si5 0.672114 0.042435 0.654521
Si Si6 0.194574 0.763822 0.763502
Si Si7 0.719844 0.157998 0.340141
O O1 0.756728 0.897834 0.804540
O O2 0.054933 0.958747 0.933018
O O3 0.731603 0.997100 0.743928
O O4 0.730505 0.970504 0.910056
O O5 0.250000 0.750000 0.500000
O O6 0.131473 0.674502 0.570503
O O7 0.229836 0.655097 0.447637
O O8 0.886224 0.709232 0.375224
O O9 0.274787 0.467578 0.098071
O O10 0.062719 0.542717 0.944674
O O11 0.739748 0.900596 0.216409
O O12 0.731046 0.799416 0.261789
O O13 0.000000 0.830619 0.250000
O O14 0.148662 0.795194 0.657164
O O15 0.000000 0.771867 0.750000
O O16 0.500000 0.179722 0.250000
#
# Coordination Sequence:
#
# PCOD8143369 Si02
#       7
#     8   8   8   8   8   8   8
#     4  11  22  41  65  91 129 171 214 269 323 384
#     4  11  21  44  68  89 124 171 216 265 313 390
#     4  10  23  41  60  95 129 164 221 260 326 394
#     4  12  23  42  67  93 126 172 220 260 322 395
#     4  11  24  41  65  95 131 171 216 272 324 383
#     4  11  25  41  61  98 129 161 214 268 327 383
#     4  10  21  40  66  88 120 170 217 257 318 388
#
# _framework density 21.310528999999999
#
# number of rings (size 3 to 8) (size 9 to 14) (size 15 to 20)
#    0.000    1.143    2.857    3.857    0.000    8.571 
#    2.571    0.000    0.000    0.000    0.000    0.000 
#    0.000    0.000    0.000    0.000    0.000    0.000 
#
# Total GULP energy -347091.918822 kJ/mol
# GULP energy per Si atom -12396.139958 kJ/mol
# Density = 2.126202 g / cm^3
# Si number density = 21.310529 Si / 1000 Ang^3
#
#
#
# Elastic Constant Matrix: (Units=GPa)
#
#
# Indices 1 2 3 4 5 6 
#
# 1 132.5778 43.3606 28.0510 0.0000 -0.8462 0.0000
# 2 43.3606 127.5454 23.7824 0.0000 -8.7770 0.0000
# 3 28.0510 23.7824 81.9759 0.0000 -9.0231 0.0000
# 4 0.0000 0.0000 0.0000 32.4781 0.0000 -3.5123
# 5 -0.8462 -8.7770 -9.0231 0.0000 32.8374 0.0000
# 6 0.0000 0.0000 0.0000 -3.5123 0.0000 28.4776
#
#
#
# Elastic Compliance Matrix: (Units=1/GPa)
#
#
# Indices 1 2 3 4 5 6 
#
# 1 0.008914 -0.002661 -0.002404 0.000000 -0.001142 0.000000
# 2 -0.002661 0.009166 -0.001533 0.000000 0.001960 0.000000
# 3 -0.002404 -0.001533 0.013833 0.000000 0.003329 0.000000
# 4 0.000000 0.000000 0.000000 0.031206 0.000000 0.003849
# 5 -0.001142 0.001960 0.003329 0.000000 0.031862 0.000000
# 6 0.000000 0.000000 0.000000 0.003849 0.000000 0.035590
#
#
# Mechanical properties :
#
#
# Convention : Reuss Voigt Hill
#
# Bulk Modulus (GPa) = 53.42771 59.16524 56.29648
# Shear Modulus (GPa) = 33.33206 35.21895 34.27550
#
# Velocity S-wave (km/s) = 3.95918 4.06970 4.01482
# Velocity P-wave (km/s) = 6.78421 7.06448 6.92577
#
# Compressibility (1/GPa) = 0.01871688
#
# Stress axis : x y z
#
# Youngs Moduli (GPa) = 112.17828 109.10312 72.29339
#
# Poissons Ratio (x) = 0.29031 0.17380
# Poissons Ratio (y) = 0.29849 0.11081
# Poissons Ratio (z) = 0.26969 0.16724
#
# Static dielectric constant tensor:
#      x y z
#    x 4.007090 0.000000 -0.173510 
#    y 0.000000 3.735160 0.000000 
#    z -0.173510 0.000000 4.177480 
# 
# 
# High freq. dielectric constant tensor:
#      x y z
#    x 1.839880 0.000000 -0.000410 
#    y 0.000000 1.831680 0.000000 
#    z -0.000410 0.000000 1.837390 
# 
# From -- ./inp_files/137947.got.cif
#   From: 2010.06.25/outbox.cif.g09.slc.cpg/sg15_69_cif.got.tgz:137947.got - 2010.06.28 07:06:18.
