data_PCOD8143729
_publ_section_title
;
Structure prediction by ZEFSAII (Michael W. Deem and Ramdas Pophale) SiO2 
 PCOD8143729
Probable space group: C 2/C
;
_chemical_formula_sum "Si O2"
_cell_formula_units_Z 48
_cell_length_a 19.340030
_cell_length_b 11.854529
_cell_length_c 22.954779
_cell_angle_alpha 90.000000
_cell_angle_beta 26.287933
_cell_angle_gamma 90.000000
_cell_volume 2330.788991
_symmetry_space_group_name_H-M "C 2/C"
_symmetry_group_IT_number 15
_symmetry_cell_setting 'monoclinic'
loop_
_space_group_symop_operation_xyz
x,y,z
-x,y,1/2-z
-x,-y,-z
x,-y,1/2+z
1/2+x,1/2+y,z
1/2-x,1/2+y,1/2-z
1/2-x,1/2-y,-z
1/2+x,1/2-y,1/2+z
loop_
_atom_site_type_symbol
_atom_site_label
_atom_site_fract_x
_atom_site_fract_y
_atom_site_fract_z
Si Si1 0.344955 0.353995 0.199838
Si Si2 0.664921 0.967373 0.239808
Si Si3 0.860590 0.121614 0.817052
Si Si4 0.324744 0.305016 0.595023
Si Si5 0.824378 0.307018 0.370916
Si Si6 0.185626 0.421975 0.005312
O O1 0.246327 0.449442 0.240868
O O2 0.408990 0.404480 0.212993
O O3 0.229165 0.248414 0.301805
O O4 0.489186 0.317880 0.049795
O O5 0.699376 0.858036 0.174702
O O6 0.479311 0.977607 0.387520
O O7 0.735865 0.076795 0.155058
O O8 0.727680 0.219118 0.917068
O O9 0.000000 0.172849 0.750000
O O10 0.813185 0.005848 0.883650
O O11 0.790984 0.406813 0.442958
O O12 0.704391 0.203273 0.464463
O O13 0.000000 0.261962 0.250000
#
# Coordination Sequence:
#
# PCOD8143729 Si02
#       6
#     8   8   8   8   8   8
#     4  10  25  43  64  97 129 177 219 274 332 394
#     4  11  23  41  68  92 132 174 215 283 329 393
#     4  10  24  41  69  95 130 178 217 274 332 397
#     4  10  24  45  61 101 131 167 232 263 336 400
#     4   9  21  37  61  96 131 168 221 271 326 390
#     4  10  21  41  63  97 129 173 226 268 330 397
#
# _framework density 20.593886000000001
#
# number of rings (size 3 to 8) (size 9 to 14) (size 15 to 20)
#    1.000    1.000    0.000    2.000    4.667    4.667 
#    0.000    0.000    0.000    0.000    0.000    0.000 
#    0.000    0.000    0.000    0.000    0.000    0.000 
#
# Total GULP energy -297477.297700 kJ/mol
# GULP energy per Si atom -12394.887404 kJ/mol
# Density = 2.054701 g / cm^3
# Si number density = 20.593886 Si / 1000 Ang^3
#
#
#
# Elastic Constant Matrix: (Units=GPa)
#
#
# Indices 1 2 3 4 5 6 
#
# 1 87.2571 17.5063 13.3772 0.0007 -5.7872 -0.0067
# 2 17.5063 60.8084 35.8901 -0.0051 -7.3835 -0.0090
# 3 13.3772 35.8901 109.8829 -0.0270 6.5501 0.0099
# 4 0.0007 -0.0051 -0.0270 35.5743 0.0053 8.7315
# 5 -5.7872 -7.3835 6.5501 0.0053 21.4600 -0.0040
# 6 -0.0067 -0.0090 0.0099 8.7315 -0.0040 24.7657
#
#
#
# Elastic Compliance Matrix: (Units=1/GPa)
#
#
# Indices 1 2 3 4 5 6 
#
# 1 0.012305 -0.002792 -0.000740 -0.000003 0.002584 0.000004
# 2 -0.002792 0.022964 -0.007727 -0.000008 0.009507 0.000015
# 3 -0.000740 -0.007727 0.012105 0.000012 -0.006553 -0.000013
# 4 -0.000003 -0.000008 0.000012 0.030773 -0.000017 -0.010850
# 5 0.002584 0.009507 -0.006553 -0.000017 0.052566 0.000021
# 6 0.000004 0.000015 -0.000013 -0.010850 0.000021 0.044204
#
#
# Mechanical properties :
#
#
# Convention : Reuss Voigt Hill
#
# Bulk Modulus (GPa) = 40.23240 43.49952 41.86596
# Shear Modulus (GPa) = 24.30470 29.10499 26.70484
#
# Velocity S-wave (km/s) = 3.43912 3.76344 3.60493
# Velocity P-wave (km/s) = 5.94546 6.32875 6.14010
#
# Compressibility (1/GPa) = 0.02485559
#
# Stress axis : x y z
#
# Youngs Moduli (GPa) = 81.26528 43.54645 82.60891
#
# Poissons Ratio (x) = 0.12158 0.06114
# Poissons Ratio (y) = 0.22690 0.63834
# Poissons Ratio (z) = 0.06015 0.33650
#
# Static dielectric constant tensor:
#      x y z
#    x 3.520760 0.000000 0.096260 
#    y 0.000000 3.455660 0.000020 
#    z 0.096260 0.000020 3.699470 
# 
# 
# High freq. dielectric constant tensor:
#      x y z
#    x 1.792450 0.000000 0.002610 
#    y 0.000000 1.798000 0.000000 
#    z 0.002610 0.000000 1.809420 
# 
# From -- ./inp_files/277214.got.cif
#   From: 2010.06.25/outbox.cif.g09.slc.cpg/sg15_139_cif.got.tgz:277214.got - 2010.06.28 07:06:18.
