data_PCOD8143666
_publ_section_title
;
Structure prediction by ZEFSAII (Michael W. Deem and Ramdas Pophale) SiO2 
 PCOD8143666
Probable space group: C 2/C
;
_chemical_formula_sum "Si O2"
_cell_formula_units_Z 48
_cell_length_a 11.450710
_cell_length_b 26.840357
_cell_length_c 7.616778
_cell_angle_alpha 90.000000
_cell_angle_beta 72.732496
_cell_angle_gamma 90.000000
_cell_volume 2235.441058
_symmetry_space_group_name_H-M "C 2/C"
_symmetry_group_IT_number 15
_symmetry_cell_setting 'monoclinic'
loop_
_space_group_symop_operation_xyz
x,y,z
-x,y,1/2-z
-x,-y,-z
x,-y,1/2+z
1/2+x,1/2+y,z
1/2-x,1/2+y,1/2-z
1/2-x,1/2-y,-z
1/2+x,1/2-y,1/2+z
loop_
_atom_site_type_symbol
_atom_site_label
_atom_site_fract_x
_atom_site_fract_y
_atom_site_fract_z
Si Si1 0.234385 0.648876 0.217535
Si Si2 0.247759 0.159718 0.895794
Si Si3 0.644235 0.214403 0.980067
Si Si4 0.359292 0.059028 0.758919
Si Si5 0.858521 0.549797 0.355229
Si Si6 0.013841 0.193641 0.448931
O O1 0.224653 0.675031 0.413499
O O2 0.212362 0.589372 0.236512
O O3 0.366299 0.659658 0.068415
O O4 0.129658 0.671371 0.133877
O O5 0.330757 0.190988 0.724274
O O6 0.274996 0.101181 0.880351
O O7 0.105392 0.168711 0.910780
O O8 0.525572 0.249944 0.019436
O O9 0.750000 0.250000 0.000000
O O10 0.500000 0.067038 0.750000
O O11 0.340746 0.065168 0.561808
O O12 0.307591 0.005643 0.843908
O O13 0.000000 0.549370 0.250000
O O14 0.000000 0.197843 0.250000
#
# Coordination Sequence:
#
# PCOD8143666 Si02
#       6
#     8   8   8   8   8   8
#     4  10  21  41  62  94 128 166 211 259 314 372
#     4  11  22  43  65  90 129 169 206 267 312 371
#     4  10  22  41  59  90 123 167 220 249 315 373
#     4  11  22  39  66  96 125 166 209 256 322 374
#     4  11  21  40  63  97 129 161 208 263 312 376
#     4   9  22  41  63  88 127 168 213 261 312 371
#
# _framework density 21.472272
#
# number of rings (size 3 to 8) (size 9 to 14) (size 15 to 20)
#    0.000    1.667    1.667    4.000    0.000    9.333 
#    9.000    2.500    0.000    0.000    0.000    0.000 
#    0.000    0.000    0.000    0.000    0.000    0.000 
#
# Total GULP energy -297514.085209 kJ/mol
# GULP energy per Si atom -12396.420217 kJ/mol
# Density = 2.142340 g / cm^3
# Si number density = 21.472272 Si / 1000 Ang^3
#
#
#
# Elastic Constant Matrix: (Units=GPa)
#
#
# Indices 1 2 3 4 5 6 
#
# 1 73.1068 62.7965 23.1632 0.0000 -5.1395 0.0000
# 2 62.7965 157.7969 29.5208 0.0000 -11.5585 0.0000
# 3 23.1632 29.5208 94.2743 0.0000 9.4726 0.0000
# 4 0.0000 0.0000 0.0000 125.7874 0.0000 10.7062
# 5 -5.1395 -11.5585 9.4726 0.0000 21.6033 0.0000
# 6 0.0000 0.0000 0.0000 10.7062 0.0000 43.3817
#
#
#
# Elastic Compliance Matrix: (Units=1/GPa)
#
#
# Indices 1 2 3 4 5 6 
#
# 1 0.021537 -0.007829 -0.003069 0.000000 0.002280 0.000000
# 2 -0.007829 0.010075 -0.001659 0.000000 0.004255 0.000000
# 3 -0.003069 -0.001659 0.012598 0.000000 -0.007142 0.000000
# 4 0.000000 0.000000 0.000000 0.008120 0.000000 -0.002004
# 5 0.002280 0.004255 -0.007142 0.000000 0.052240 0.000000
# 6 0.000000 0.000000 0.000000 -0.002004 0.000000 0.023546
#
#
# Mechanical properties :
#
#
# Convention : Reuss Voigt Hill
#
# Bulk Modulus (GPa) = 52.36778 61.79323 57.08050
# Shear Modulus (GPa) = 31.32915 52.13430 41.73173
#
# Velocity S-wave (km/s) = 3.82390 4.93280 4.41332
# Velocity P-wave (km/s) = 6.62856 7.82841 7.25334
#
# Compressibility (1/GPa) = 0.01909571
#
# Stress axis : x y z
#
# Youngs Moduli (GPa) = 46.43258 99.25483 79.37517
#
# Poissons Ratio (x) = 0.77712 0.24360
# Poissons Ratio (y) = 0.36354 0.13166
# Poissons Ratio (z) = 0.14250 0.16464
#
# Static dielectric constant tensor:
#      x y z
#    x 4.084440 0.000000 0.237320 
#    y 0.000000 4.302230 0.000000 
#    z 0.237320 0.000000 3.937810 
# 
# 
# High freq. dielectric constant tensor:
#      x y z
#    x 1.821680 0.000000 0.022280 
#    y 0.000000 1.850410 0.000000 
#    z 0.022280 0.000000 1.851820 
# 
# From -- ./inp_files/32544.got.cif
#   From: 2010.06.25/outbox.cif.g09.slc.cpg/sg15_17_cif.got.tgz:32544.got - 2010.06.28 07:06:18.
