data_PCOD8143784
_publ_section_title
;
Structure prediction by ZEFSAII (Michael W. Deem and Ramdas Pophale) SiO2 
 PCOD8143784
Probable space group: C 2/C
;
_chemical_formula_sum "Si O2"
_cell_formula_units_Z 64
_cell_length_a 22.565483
_cell_length_b 29.423338
_cell_length_c 8.456649
_cell_angle_alpha 90.000000
_cell_angle_beta 149.262680
_cell_angle_gamma 90.000000
_cell_volume 2869.744341
_symmetry_space_group_name_H-M "C 2/C"
_symmetry_group_IT_number 15
_symmetry_cell_setting 'monoclinic'
loop_
_space_group_symop_operation_xyz
x,y,z
-x,y,1/2-z
-x,-y,-z
x,-y,1/2+z
1/2+x,1/2+y,z
1/2-x,1/2+y,1/2-z
1/2-x,1/2-y,-z
1/2+x,1/2-y,1/2+z
loop_
_atom_site_type_symbol
_atom_site_label
_atom_site_fract_x
_atom_site_fract_y
_atom_site_fract_z
Si Si1 0.369019 0.284526 0.932776
Si Si2 0.433873 0.867265 0.836515
Si Si3 0.726719 0.213077 0.579123
Si Si4 0.367841 0.661353 0.131762
Si Si5 0.654592 0.896712 0.198896
Si Si6 0.080186 0.127553 0.784264
Si Si7 0.291968 0.065200 0.195435
Si Si8 0.133488 0.513629 0.819997
O O1 0.294418 0.241075 0.809291
O O2 0.348297 0.296114 0.703123
O O3 0.500000 0.268773 0.250000
O O4 0.345221 0.327987 0.994827
O O5 0.385879 0.815775 0.732498
O O6 0.390992 0.892390 0.581835
O O7 0.385177 0.894771 0.875755
O O8 0.574102 0.869581 0.144533
O O9 0.750000 0.250000 0.500000
O O10 0.832909 0.178774 0.872959
O O11 0.498002 0.640972 0.445220
O O12 0.283591 0.622306 0.003592
O O13 0.659223 0.949809 0.243530
O O14 0.000000 0.113419 0.750000
O O15 0.164736 0.086545 0.930377
O O16 0.335712 0.035812 0.442666
O O17 0.287096 0.030602 0.035010
O O18 0.000000 0.500000 0.500000
#
# Coordination Sequence:
#
# PCOD8143784 Si02
#       8
#     8   8   8   8   8   8   8   8
#     4   9  19  37  64  88 126 176 226 274 328 395
#     4  10  23  39  64  91 133 183 210 281 343 407
#     4  11  22  37  60  99 137 171 231 290 333 392
#     4   9  20  40  68  92 129 189 222 271 338 405
#     4  10  21  41  64  96 133 169 231 266 349 411
#     4   9  20  43  68  94 131 187 232 275 335 402
#     4  12  24  43  68  97 136 171 221 274 346 411
#     4  12  24  39  68 105 133 167 216 282 351 414
#
# _framework density 22.301639000000002
#
# number of rings (size 3 to 8) (size 9 to 14) (size 15 to 20)
#    0.000    2.000    1.250    3.750    5.250    0.000 
#    0.000   12.500    0.000    3.000    0.000    0.000 
#    0.000    0.000    0.000    0.000    0.000    0.000 
#
# Total GULP energy -396533.824006 kJ/mol
# GULP energy per Si atom -12391.682000 kJ/mol
# Density = 2.225088 g / cm^3
# Si number density = 22.301639 Si / 1000 Ang^3
#
#
#
# Elastic Constant Matrix: (Units=GPa)
#
#
# Indices 1 2 3 4 5 6 
#
# 1 75.5089 57.7843 25.3842 0.0000 10.0697 0.0000
# 2 57.7843 131.3792 43.2667 0.0000 14.6795 0.0000
# 3 25.3842 43.2667 87.1868 0.0000 5.1306 0.0000
# 4 0.0000 0.0000 0.0000 16.6801 0.0000 4.4028
# 5 10.0697 14.6795 5.1306 0.0000 22.9228 0.0000
# 6 0.0000 0.0000 0.0000 4.4028 0.0000 50.1692
#
#
#
# Elastic Compliance Matrix: (Units=1/GPa)
#
#
# Indices 1 2 3 4 5 6 
#
# 1 0.020435 -0.008021 -0.001766 0.000000 -0.003445 0.000000
# 2 -0.008021 0.012820 -0.003801 0.000000 -0.003835 0.000000
# 3 -0.001766 -0.003801 0.013864 0.000000 0.000107 0.000000
# 4 0.000000 0.000000 0.000000 0.061373 0.000000 -0.005386
# 5 -0.003445 -0.003835 0.000107 0.000000 0.047570 0.000000
# 6 0.000000 0.000000 0.000000 -0.005386 0.000000 0.020405
#
#
# Mechanical properties :
#
#
# Convention : Reuss Voigt Hill
#
# Bulk Modulus (GPa) = 50.14596 60.77170 55.45883
# Shear Modulus (GPa) = 23.77655 29.13042 26.45348
#
# Velocity S-wave (km/s) = 3.26871 3.61806 3.44781
# Velocity P-wave (km/s) = 6.06466 6.69051 6.38526
#
# Compressibility (1/GPa) = 0.01994178
#
# Stress axis : x y z
#
# Youngs Moduli (GPa) = 48.93547 78.00431 72.13059
#
# Poissons Ratio (x) = 0.62570 0.12740
# Poissons Ratio (y) = 0.39253 0.27415
# Poissons Ratio (z) = 0.08643 0.29648
#
# Static dielectric constant tensor:
#      x y z
#    x 4.027460 0.000000 0.335220 
#    y 0.000000 4.212920 0.000000 
#    z 0.335220 0.000000 3.739540 
# 
# 
# High freq. dielectric constant tensor:
#      x y z
#    x 1.879040 0.000000 -0.006190 
#    y 0.000000 1.879580 0.000000 
#    z -0.006190 0.000000 1.862630 
# 
# From -- ./inp_files/64217.got.cif
#   From: 2010.06.25/outbox.cif.g09.slc.cpg/sg15_33_cif.got.tgz:64217.got - 2010.06.28 07:06:18.
