data_PCOD8143778
_publ_section_title
;
Structure prediction by ZEFSAII (Michael W. Deem and Ramdas Pophale) SiO2 
 PCOD8143778
Probable space group: C 2/C
;
_chemical_formula_sum "Si O2"
_cell_formula_units_Z 40
_cell_length_a 15.553016
_cell_length_b 9.751266
_cell_length_c 21.633423
_cell_angle_alpha 90.000000
_cell_angle_beta 144.056243
_cell_angle_gamma 90.000000
_cell_volume 1925.893077
_symmetry_space_group_name_H-M "C 2/C"
_symmetry_group_IT_number 15
_symmetry_cell_setting 'monoclinic'
loop_
_space_group_symop_operation_xyz
x,y,z
-x,y,1/2-z
-x,-y,-z
x,-y,1/2+z
1/2+x,1/2+y,z
1/2-x,1/2+y,1/2-z
1/2-x,1/2-y,-z
1/2+x,1/2-y,1/2+z
loop_
_atom_site_type_symbol
_atom_site_label
_atom_site_fract_x
_atom_site_fract_y
_atom_site_fract_z
Si Si1 0.620073 0.187096 0.600345
Si Si2 0.122112 0.678380 0.743448
Si Si3 0.302132 0.912187 0.905412
Si Si4 0.334452 0.470368 0.920880
Si Si5 0.305181 0.900406 0.044735
O O1 0.620316 0.230274 0.672049
O O2 0.453457 0.167734 0.479488
O O3 0.695585 0.308399 0.605073
O O4 0.711785 0.046912 0.645176
O O5 0.168642 0.807375 0.813924
O O6 0.234723 0.554237 0.815535
O O7 0.963686 0.616117 0.669341
O O8 0.305865 0.971075 0.977821
O O9 0.300174 0.514133 0.971459
O O10 0.500000 0.500000 0.000000
O O11 0.250000 0.750000 0.000000
#
# Coordination Sequence:
#
# PCOD8143778 Si02
#       5
#     8   8   8   8   8
#     4  10  22  38  64  99 127 168 217 270 326 382
#     4  11  21  41  68  92 129 172 216 264 324 397
#     4  10  21  41  64  94 132 168 215 271 325 391
#     4  12  22  40  65  95 127 171 220 269 323 394
#     4  11  23  40  67  93 127 169 220 266 323 389
#
# _framework density 20.769584999999999
#
# number of rings (size 3 to 8) (size 9 to 14) (size 15 to 20)
#    0.000    1.200    4.000    3.000    0.000    0.800 
#    0.000    0.000   13.200    0.000    0.000    0.000 
#    0.000    0.000    0.000    0.000    0.000    0.000 
#
# Total GULP energy -248007.611444 kJ/mol
# GULP energy per Si atom -12400.380572 kJ/mol
# Density = 2.072231 g / cm^3
# Si number density = 20.769585 Si / 1000 Ang^3
#
#
#
# Elastic Constant Matrix: (Units=GPa)
#
#
# Indices 1 2 3 4 5 6 
#
# 1 115.2959 50.5001 37.4033 0.0000 4.3881 0.0000
# 2 50.5001 126.4106 43.2498 0.0000 1.1684 0.0000
# 3 37.4033 43.2498 105.6349 0.0001 7.7529 0.0000
# 4 0.0000 0.0000 0.0001 29.3157 0.0000 -3.6432
# 5 4.3881 1.1684 7.7529 0.0000 36.3908 0.0000
# 6 0.0000 0.0000 0.0000 -3.6432 0.0000 40.5754
#
#
#
# Elastic Compliance Matrix: (Units=1/GPa)
#
#
# Indices 1 2 3 4 5 6 
#
# 1 0.011048 -0.003589 -0.002390 0.000000 -0.000708 0.000000
# 2 -0.003589 0.010375 -0.003032 0.000000 0.000746 0.000000
# 3 -0.002390 -0.003032 0.011709 0.000000 -0.002109 0.000000
# 4 0.000000 0.000000 0.000000 0.034496 0.000000 0.003097
# 5 -0.000708 0.000746 -0.002109 0.000000 0.027990 0.000000
# 6 0.000000 0.000000 0.000000 0.003097 0.000000 0.024924
#
#
# Mechanical properties :
#
#
# Convention : Reuss Voigt Hill
#
# Bulk Modulus (GPa) = 66.18413 67.73863 66.96138
# Shear Modulus (GPa) = 34.81882 35.66894 35.24388
#
# Velocity S-wave (km/s) = 4.09887 4.14860 4.12381
# Velocity P-wave (km/s) = 7.37130 7.45876 7.41516
#
# Compressibility (1/GPa) = 0.01510936
#
# Stress axis : x y z
#
# Youngs Moduli (GPa) = 90.51588 96.38639 85.40449
#
# Poissons Ratio (x) = 0.34594 0.20415
# Poissons Ratio (y) = 0.32487 0.25892
# Poissons Ratio (z) = 0.21637 0.29221
#
# Static dielectric constant tensor:
#      x y z
#    x 3.891600 0.000000 -0.801850 
#    y 0.000000 3.802460 0.000000 
#    z -0.801850 0.000000 3.442500 
# 
# 
# High freq. dielectric constant tensor:
#      x y z
#    x 1.813870 0.000000 -0.009550 
#    y 0.000000 1.803460 0.000000 
#    z -0.009550 0.000000 1.816520 
# 
# From -- ./inp_files/276766.got.cif
#   From: 2010.06.25/outbox.cif.g09.slc.cpg/sg15_139_cif.got.tgz:276766.got - 2010.06.28 07:06:18.
