data_PCOD8143579
_publ_section_title
;
Structure prediction by ZEFSAII (Michael W. Deem and Ramdas Pophale) SiO2 
 PCOD8143579
Probable space group: C 2/C
;
_chemical_formula_sum "Si O2"
_cell_formula_units_Z 56
_cell_length_a 10.736814
_cell_length_b 11.100353
_cell_length_c 26.058270
_cell_angle_alpha 90.000000
_cell_angle_beta 80.612182
_cell_angle_gamma 90.000000
_cell_volume 3064.092927
_symmetry_space_group_name_H-M "C 2/C"
_symmetry_group_IT_number 15
_symmetry_cell_setting 'monoclinic'
loop_
_space_group_symop_operation_xyz
x,y,z
-x,y,1/2-z
-x,-y,-z
x,-y,1/2+z
1/2+x,1/2+y,z
1/2-x,1/2+y,1/2-z
1/2-x,1/2-y,-z
1/2+x,1/2-y,1/2+z
loop_
_atom_site_type_symbol
_atom_site_label
_atom_site_fract_x
_atom_site_fract_y
_atom_site_fract_z
Si Si1 0.697216 0.087486 0.199897
Si Si2 0.429369 0.695046 0.127105
Si Si3 0.026380 0.737316 0.146470
Si Si4 0.231248 0.371310 0.812453
Si Si5 0.387741 0.485040 0.380329
Si Si6 0.733760 0.279588 0.059933
Si Si7 0.418766 0.843099 0.304830
O O1 0.834809 0.128376 0.172146
O O2 0.593721 0.188940 0.193338
O O3 0.693877 0.069057 0.261190
O O4 0.660290 0.961942 0.174726
O O5 0.534059 0.597091 0.102158
O O6 0.362661 0.747488 0.081142
O O7 0.495607 0.805443 0.152385
O O8 0.117931 0.701460 0.092036
O O9 0.889491 0.679671 0.148702
O O10 0.018255 0.883423 0.150126
O O11 0.293891 0.474753 0.841818
O O12 0.326976 0.264037 0.794966
O O13 0.301523 0.421648 0.430322
O O14 0.750000 0.250000 0.000000
O O15 0.500000 0.876624 0.250000
#
# Coordination Sequence:
#
# PCOD8143579 Si02
#       7
#     8   8   8   8   8   8   8
#     4  11  22  32  58  82 120 159 187 232 278 347
#     4  10  21  41  55  88 117 151 195 235 285 353
#     4   9  21  37  54  85 113 147 197 231 288 336
#     4  11  21  36  55  83 121 156 191 229 287 343
#     4   9  22  37  60  80 117 149 190 245 281 347
#     4   9  21  41  65  84 111 151 196 253 302 333
#     4  11  22  34  55  83 118 159 190 228 280 339
#
# _framework density 18.276209000000001
#
# number of rings (size 3 to 8) (size 9 to 14) (size 15 to 20)
#    0.857    1.143    1.429    2.143    6.000    0.571 
#    2.571    0.714    0.000    1.714    0.000    0.000 
#    0.000    0.000    0.000    0.000    0.000    0.000 
#
# Total GULP energy -347083.189409 kJ/mol
# GULP energy per Si atom -12395.828193 kJ/mol
# Density = 1.823461 g / cm^3
# Si number density = 18.276209 Si / 1000 Ang^3
#
#
#
# Elastic Constant Matrix: (Units=GPa)
#
#
# Indices 1 2 3 4 5 6 
#
# 1 93.6605 35.2820 46.7797 0.0000 8.9560 0.0000
# 2 35.2820 79.5578 23.9125 0.0000 12.6711 0.0000
# 3 46.7797 23.9125 95.9212 0.0000 12.5653 0.0000
# 4 0.0000 0.0000 0.0000 17.9495 0.0000 -4.6469
# 5 8.9560 12.6711 12.5653 0.0000 18.9755 0.0000
# 6 0.0000 0.0000 0.0000 -4.6469 0.0000 28.0695
#
#
#
# Elastic Compliance Matrix: (Units=1/GPa)
#
#
# Indices 1 2 3 4 5 6 
#
# 1 0.015807 -0.005103 -0.006467 0.000000 0.000229 0.000000
# 2 -0.005103 0.016279 -0.000505 0.000000 -0.008127 0.000000
# 3 -0.006467 -0.000505 0.014520 0.000000 -0.006226 0.000000
# 4 0.000000 0.000000 0.000000 0.058207 0.000000 0.009636
# 5 0.000229 -0.008127 -0.006226 0.000000 0.062141 0.000000
# 6 0.000000 0.000000 0.000000 0.009636 0.000000 0.037221
#
#
# Mechanical properties :
#
#
# Convention : Reuss Voigt Hill
#
# Bulk Modulus (GPa) = 44.52943 53.45423 48.99183
# Shear Modulus (GPa) = 21.20348 23.87658 22.54003
#
# Velocity S-wave (km/s) = 3.40982 3.61838 3.51565
# Velocity P-wave (km/s) = 6.31823 6.83874 6.58363
#
# Compressibility (1/GPa) = 0.02245706
#
# Stress axis : x y z
#
# Youngs Moduli (GPa) = 63.26249 61.43000 68.86827
#
# Poissons Ratio (x) = 0.31347 0.44536
# Poissons Ratio (y) = 0.32282 0.03477
# Poissons Ratio (z) = 0.40911 0.03101
#
# Static dielectric constant tensor:
#      x y z
#    x 3.538810 0.000000 0.054580 
#    y 0.000000 3.391680 0.000000 
#    z 0.054580 0.000000 2.910850 
# 
# 
# High freq. dielectric constant tensor:
#      x y z
#    x 1.722040 0.000000 0.008280 
#    y 0.000000 1.713650 0.000000 
#    z 0.008280 0.000000 1.666910 
# 
# From -- ./inp_files/268479.got.cif
#   From: 2010.06.25/outbox.cif.g09.slc.cpg/sg15_135_cif.got.tgz:268479.got - 2010.06.28 07:06:18.
