data_PCOD8143515
_publ_section_title
;
Structure prediction by ZEFSAII (Michael W. Deem and Ramdas Pophale) SiO2 
 PCOD8143515
Probable space group: C 2/C
;
_chemical_formula_sum "Si O2"
_cell_formula_units_Z 52
_cell_length_a 13.012191
_cell_length_b 13.245893
_cell_length_c 14.945065
_cell_angle_alpha 90.000000
_cell_angle_beta 63.537659
_cell_angle_gamma 90.000000
_cell_volume 2306.018923
_symmetry_space_group_name_H-M "C 2/C"
_symmetry_group_IT_number 15
_symmetry_cell_setting 'monoclinic'
loop_
_space_group_symop_operation_xyz
x,y,z
-x,y,1/2-z
-x,-y,-z
x,-y,1/2+z
1/2+x,1/2+y,z
1/2-x,1/2+y,1/2-z
1/2-x,1/2-y,-z
1/2+x,1/2-y,1/2+z
loop_
_atom_site_type_symbol
_atom_site_label
_atom_site_fract_x
_atom_site_fract_y
_atom_site_fract_z
Si Si1 0.500000 0.752702 0.750000
Si Si2 0.811632 0.405633 0.749840
Si Si3 0.069570 0.890639 0.890749
Si Si4 0.599449 0.707897 0.146375
Si Si5 0.420450 0.581866 0.910308
Si Si6 0.885615 0.438181 0.344879
Si Si7 0.785907 0.545063 0.068969
O O1 0.396949 0.821638 0.753965
O O2 0.461217 0.683449 0.846993
O O3 0.682545 0.360573 0.787841
O O4 0.790179 0.497456 0.829113
O O5 0.851568 0.453723 0.638983
O O6 0.970455 0.803954 0.920660
O O7 0.111303 0.892159 0.976153
O O8 0.019285 0.996861 0.873044
O O9 0.500000 0.659681 0.250000
O O10 0.630460 0.820062 0.164445
O O11 0.719112 0.651177 0.088229
O O12 0.305948 0.545013 0.903363
O O13 0.879969 0.462520 0.452920
O O14 0.000000 0.477844 0.250000
#
# Coordination Sequence:
#
# PCOD8143515 Si02
#       7
#     4   8   8   8   8   8   8
#     4  12  28  44  64 100 144 178 232 284 334 422
#     4  12  25  45  64  99 142 181 230 277 347 408
#     4  10  21  44  72 100 134 172 225 285 337 412
#     4  10  21  40  69 105 134 166 230 280 336 411
#     4  10  23  44  71 101 132 177 230 285 336 401
#     4  11  25  46  62  99 142 178 225 283 340 413
#     4  11  23  43  74  98 133 185 226 283 344 408
#
# _framework density 22.549686000000001
#
# number of rings (size 3 to 8) (size 9 to 14) (size 15 to 20)
#    0.000    1.231    3.846    1.385    4.308    3.692 
#    0.000    0.000    0.000    0.000    0.000    0.000 
#    0.000    0.000    0.000    0.000    0.000    0.000 
#
# Total GULP energy -322234.900296 kJ/mol
# GULP energy per Si atom -12393.650011 kJ/mol
# Density = 2.249836 g / cm^3
# Si number density = 22.549686 Si / 1000 Ang^3
#
#
#
# Elastic Constant Matrix: (Units=GPa)
#
#
# Indices 1 2 3 4 5 6 
#
# 1 86.4983 44.9743 41.7092 0.0000 3.4994 0.0000
# 2 44.9743 119.4624 40.9547 0.0000 8.1562 0.0000
# 3 41.7092 40.9547 152.8479 0.0000 7.5197 0.0000
# 4 0.0000 0.0000 0.0000 31.2057 0.0000 1.0640
# 5 3.4994 8.1562 7.5197 0.0000 40.8163 0.0000
# 6 0.0000 0.0000 0.0000 1.0640 0.0000 17.3780
#
#
#
# Elastic Compliance Matrix: (Units=1/GPa)
#
#
# Indices 1 2 3 4 5 6 
#
# 1 0.015484 -0.004834 -0.002939 0.000000 0.000180 0.000000
# 2 -0.004834 0.010807 -0.001504 0.000000 -0.001468 0.000000
# 3 -0.002939 -0.001504 0.007791 0.000000 -0.000883 0.000000
# 4 0.000000 0.000000 0.000000 0.032112 0.000000 -0.001966
# 5 0.000180 -0.001468 -0.000883 0.000000 0.024941 0.000000
# 6 0.000000 0.000000 0.000000 -0.001966 0.000000 0.057664
#
#
# Mechanical properties :
#
#
# Convention : Reuss Voigt Hill
#
# Bulk Modulus (GPa) = 64.40287 68.23165 66.31726
# Shear Modulus (GPa) = 28.98054 33.29138 31.13596
#
# Velocity S-wave (km/s) = 3.58884 3.84651 3.71990
# Velocity P-wave (km/s) = 6.76723 7.07471 6.92268
#
# Compressibility (1/GPa) = 0.01552726
#
# Stress axis : x y z
#
# Youngs Moduli (GPa) = 64.58168 92.53559 128.35480
#
# Poissons Ratio (x) = 0.44733 0.37723
# Poissons Ratio (y) = 0.31220 0.19307
# Poissons Ratio (z) = 0.18980 0.13919
#
# Static dielectric constant tensor:
#      x y z
#    x 4.096880 0.000000 0.134500 
#    y 0.000000 3.830420 0.000000 
#    z 0.134500 0.000000 4.267680 
# 
# 
# High freq. dielectric constant tensor:
#      x y z
#    x 1.888390 0.000000 0.005070 
#    y 0.000000 1.871790 0.000000 
#    z 0.005070 0.000000 1.904130 
# 
# From -- ./inp_files/144189.got.cif
#   From: 2010.06.25/outbox.cif.g09.slc.cpg/sg15_73_cif.got.tgz:144189.got - 2010.06.28 07:06:18.
