data_PCOD8143179
_publ_section_title
;
Structure prediction by ZEFSAII (Michael W. Deem and Ramdas Pophale) SiO2 
 PCOD8143179
Probable space group: C 2/C
;
_chemical_formula_sum "Si O2"
_cell_formula_units_Z 48
_cell_length_a 11.373393
_cell_length_b 9.775792
_cell_length_c 22.529747
_cell_angle_alpha 90.000000
_cell_angle_beta 63.513245
_cell_angle_gamma 90.000000
_cell_volume 2242.020285
_symmetry_space_group_name_H-M "C 2/C"
_symmetry_group_IT_number 15
_symmetry_cell_setting 'monoclinic'
loop_
_space_group_symop_operation_xyz
x,y,z
-x,y,1/2-z
-x,-y,-z
x,-y,1/2+z
1/2+x,1/2+y,z
1/2-x,1/2+y,1/2-z
1/2-x,1/2-y,-z
1/2+x,1/2-y,1/2+z
loop_
_atom_site_type_symbol
_atom_site_label
_atom_site_fract_x
_atom_site_fract_y
_atom_site_fract_z
Si Si1 0.555679 0.144500 0.675055
Si Si2 0.969656 0.013937 0.931848
Si Si3 0.606712 0.545296 0.179155
Si Si4 0.610584 0.938117 0.394398
Si Si5 0.776398 0.969843 0.565249
Si Si6 0.914457 0.679047 0.471437
O O1 0.500000 0.084911 0.750000
O O2 0.616196 0.291909 0.674155
O O3 0.672924 0.050497 0.626814
O O4 0.448475 0.151976 0.646494
O O5 0.104244 0.932605 0.916719
O O6 0.947026 0.017176 0.868521
O O7 0.976920 0.171310 0.952976
O O8 0.847019 0.943677 0.995465
O O9 0.500000 0.494179 0.250000
O O10 0.748518 0.485148 0.161817
O O11 0.522072 0.070427 0.425767
O O12 0.624549 0.850440 0.451285
O O13 0.711397 0.838804 0.545655
#
# Coordination Sequence:
#
# PCOD8143179 Si02
#       6
#     8   8   8   8   8   8
#     4  10  24  43  62  86 124 170 211 254 310 381
#     4  11  23  37  63  94 128 158 205 264 312 372
#     4  11  25  42  61  92 127 165 207 258 315 376
#     4  10  22  40  66  87 121 166 206 256 315 372
#     4  10  22  38  62  90 121 161 203 255 308 371
#     4  10  21  40  63  93 122 156 208 263 310 373
#
# _framework density 21.409262999999999
#
# number of rings (size 3 to 8) (size 9 to 14) (size 15 to 20)
#    0.000    1.667    1.667    1.500    7.000    0.667 
#    0.000    3.333    0.000    0.000    0.000    0.000 
#    0.000    0.000    0.000    0.000    0.000    0.000 
#
# Total GULP energy -297414.064685 kJ/mol
# GULP energy per Si atom -12392.252695 kJ/mol
# Density = 2.136053 g / cm^3
# Si number density = 21.409263 Si / 1000 Ang^3
#
#
#
# Elastic Constant Matrix: (Units=GPa)
#
#
# Indices 1 2 3 4 5 6 
#
# 1 114.4806 6.0286 46.1531 0.0000 -5.5476 0.0000
# 2 6.0286 44.0752 29.4253 0.0000 -6.6467 0.0000
# 3 46.1531 29.4253 153.1418 0.0000 -5.2025 0.0000
# 4 0.0000 0.0000 0.0000 31.5135 0.0000 9.6482
# 5 -5.5476 -6.6467 -5.2025 0.0000 32.7800 0.0000
# 6 0.0000 0.0000 0.0000 9.6482 0.0000 -5.0915
#
#
#
# Elastic Compliance Matrix: (Units=1/GPa)
#
#
# Indices 1 2 3 4 5 6 
#
# 1 0.010025 0.000945 -0.003156 0.000000 0.001387 0.000000
# 2 0.000945 0.026796 -0.005272 0.000000 0.004757 0.000000
# 3 -0.003156 -0.005272 0.008485 0.000000 -0.000256 0.000000
# 4 0.000000 0.000000 0.000000 0.020082 0.000000 0.038054
# 5 0.001387 0.004757 -0.000256 0.000000 0.031665 0.000000
# 6 0.000000 0.000000 0.000000 0.038054 0.000000 -0.124295
#
#
# Mechanical properties :
#
#
# Convention : Reuss Voigt Hill
#
# Bulk Modulus (GPa) = 32.95909 52.76797 42.86353
# Shear Modulus (GPa) = -2311.42960 27.17980 -1142.12490
#
# Velocity S-wave (km/s) = -32.89352 3.56692 -23.12208
# Velocity P-wave (km/s) = 37.77852 6.45482 26.32064
#
# Compressibility (1/GPa) = 0.03034064
#
# Stress axis : x y z
#
# Youngs Moduli (GPa) = 99.75287 37.31882 117.85273
#
# Poissons Ratio (x) = -0.03526 0.37190
# Poissons Ratio (y) = -0.09424 0.62130
# Poissons Ratio (z) = 0.31478 0.19674
#
# Static dielectric constant tensor:
#      x y z
#    x 4.203990 0.000000 0.003020 
#    y 0.000000 3.671010 0.000000 
#    z 0.003020 0.000000 4.119500 
# 
# 
# High freq. dielectric constant tensor:
#      x y z
#    x 1.859660 0.000000 -0.000870 
#    y 0.000000 1.824890 0.000000 
#    z -0.000870 0.000000 1.847270 
# 
# From -- ./inp_files/268388.got.cif
#   From: 2010.06.25/outbox.cif.g09.slc.cpg/sg15_135_cif.got.tgz:268388.got - 2010.06.28 07:06:18.
