data_PCOD8143905
_publ_section_title
;
Structure prediction by ZEFSAII (Michael W. Deem and Ramdas Pophale) SiO2 
 PCOD8143905
Probable space group: C 2/C
;
_chemical_formula_sum "Si O2"
_cell_formula_units_Z 60
_cell_length_a 8.941494
_cell_length_b 17.630566
_cell_length_c 20.394285
_cell_angle_alpha 90.000000
_cell_angle_beta 115.372811
_cell_angle_gamma 90.000000
_cell_volume 2904.902798
_symmetry_space_group_name_H-M "C 2/C"
_symmetry_group_IT_number 15
_symmetry_cell_setting 'monoclinic'
loop_
_space_group_symop_operation_xyz
x,y,z
-x,y,1/2-z
-x,-y,-z
x,-y,1/2+z
1/2+x,1/2+y,z
1/2-x,1/2+y,1/2-z
1/2-x,1/2-y,-z
1/2+x,1/2-y,1/2+z
loop_
_atom_site_type_symbol
_atom_site_label
_atom_site_fract_x
_atom_site_fract_y
_atom_site_fract_z
Si Si1 0.701172 0.613552 0.346736
Si Si2 0.166587 0.169162 0.992911
Si Si3 0.142180 0.508044 0.329668
Si Si4 0.667908 0.758759 0.252912
Si Si5 0.462326 0.944023 0.551123
Si Si6 0.395439 0.614853 0.842126
Si Si7 0.500000 0.491261 0.250000
Si Si8 0.884938 0.853651 0.868034
O O1 0.707775 0.690486 0.308656
O O2 0.662668 0.544952 0.288225
O O3 0.556583 0.611936 0.373904
O O4 0.877619 0.609161 0.414007
O O5 0.301344 0.104683 0.004182
O O6 0.091653 0.164254 0.051411
O O7 0.250000 0.250000 0.000000
O O8 0.016316 0.157086 0.914862
O O9 0.059914 0.510941 0.385537
O O10 0.262487 0.435558 0.355989
O O11 0.238215 0.585741 0.330611
O O12 0.000000 0.494929 0.250000
O O13 0.500000 0.796433 0.250000
O O14 0.809552 0.821608 0.280748
O O15 0.656675 0.725229 0.177202
O O16 0.500000 0.000000 0.500000
O O17 0.495419 0.559749 0.813426
#
# Coordination Sequence:
#
# PCOD8143905 Si02
#       8
#     8   8   8   8   8   8   4   8
#     4  11  20  44  68  95 126 176 223 268 327 404
#     4  11  27  46  61  97 134 178 221 272 340 406
#     4  11  23  42  67 101 131 171 223 279 332 398
#     4  10  21  41  66  97 123 169 222 271 330 400
#     4  11  25  41  67  94 134 172 222 266 331 407
#     4  12  25  40  66  98 137 168 221 290 338 387
#     4  12  22  40  70  98 130 170 228 280 334 390
#     4  10  22  43  73  89 133 181 222 266 335 412
#
# _framework density 20.654734999999999
#
# number of rings (size 3 to 8) (size 9 to 14) (size 15 to 20)
#    0.000    1.067    3.333    3.600    3.733    2.133 
#    4.800    3.333    0.000    0.000    0.000    0.000 
#    0.000    0.000    0.000    0.000    0.000    0.000 
#
# Total GULP energy -372069.928184 kJ/mol
# GULP energy per Si atom -12402.330939 kJ/mol
# Density = 2.060772 g / cm^3
# Si number density = 20.654735 Si / 1000 Ang^3
#
#
#
# Elastic Constant Matrix: (Units=GPa)
#
#
# Indices 1 2 3 4 5 6 
#
# 1 84.2943 22.6618 37.6598 0.0000 -2.5233 0.0000
# 2 22.6618 87.8255 30.6275 0.0000 -1.2536 0.0000
# 3 37.6598 30.6275 96.6898 0.0000 -0.7949 0.0000
# 4 0.0000 0.0000 0.0000 24.9676 0.0000 3.4896
# 5 -2.5233 -1.2536 -0.7949 0.0000 42.7291 0.0000
# 6 0.0000 0.0000 0.0000 3.4896 0.0000 20.8792
#
#
#
# Elastic Compliance Matrix: (Units=1/GPa)
#
#
# Indices 1 2 3 4 5 6 
#
# 1 0.014695 -0.002010 -0.005081 0.000000 0.000714 0.000000
# 2 -0.002010 0.013079 -0.003358 0.000000 0.000203 0.000000
# 3 -0.005081 -0.003358 0.013384 0.000000 -0.000150 0.000000
# 4 0.000000 0.000000 0.000000 0.041010 0.000000 -0.006854
# 5 0.000714 0.000203 -0.000150 0.000000 0.023449 0.000000
# 6 0.000000 0.000000 0.000000 -0.006854 0.000000 0.049040
#
#
# Mechanical properties :
#
#
# Convention : Reuss Voigt Hill
#
# Bulk Modulus (GPa) = 49.35983 50.07864 49.71924
# Shear Modulus (GPa) = 27.42616 29.57256 28.49936
#
# Velocity S-wave (km/s) = 3.64791 3.78796 3.71859
# Velocity P-wave (km/s) = 6.45697 6.59013 6.52389
#
# Compressibility (1/GPa) = 0.02025939
#
# Stress axis : x y z
#
# Youngs Moduli (GPa) = 68.05071 76.45925 74.71612
#
# Poissons Ratio (x) = 0.15365 0.37964
# Poissons Ratio (y) = 0.13676 0.25093
# Poissons Ratio (z) = 0.34577 0.25679
#
# Static dielectric constant tensor:
#      x y z
#    x 3.535750 0.000000 -0.373530 
#    y 0.000000 3.791010 0.000000 
#    z -0.373530 0.000000 3.443280 
# 
# 
# High freq. dielectric constant tensor:
#      x y z
#    x 1.817990 0.000000 -0.001890 
#    y 0.000000 1.811740 0.000000 
#    z -0.001890 0.000000 1.809650 
# 
# From -- ./inp_files/232755.got.cif
#   From: 2010.06.25/outbox.cif.g09.slc.cpg/sg15_117_cif.got.tgz:232755.got - 2010.06.28 07:06:18.
