data_PCOD8143901
_publ_section_title
;
Structure prediction by ZEFSAII (Michael W. Deem and Ramdas Pophale) SiO2 
 PCOD8143901
Probable space group: C 2/C
;
_chemical_formula_sum "Si O2"
_cell_formula_units_Z 52
_cell_length_a 14.609188
_cell_length_b 9.641176
_cell_length_c 31.526941
_cell_angle_alpha 90.000000
_cell_angle_beta 144.724360
_cell_angle_gamma 90.000000
_cell_volume 2564.471452
_symmetry_space_group_name_H-M "C 2/C"
_symmetry_group_IT_number 15
_symmetry_cell_setting 'monoclinic'
loop_
_space_group_symop_operation_xyz
x,y,z
-x,y,1/2-z
-x,-y,-z
x,-y,1/2+z
1/2+x,1/2+y,z
1/2-x,1/2+y,1/2-z
1/2-x,1/2-y,-z
1/2+x,1/2-y,1/2+z
loop_
_atom_site_type_symbol
_atom_site_label
_atom_site_fract_x
_atom_site_fract_y
_atom_site_fract_z
Si Si1 0.044714 0.231166 0.525589
Si Si2 0.096768 0.345053 0.944227
Si Si3 0.236400 0.624650 0.027173
Si Si4 0.681460 0.454228 0.605979
Si Si5 0.411931 0.554785 0.335103
Si Si6 0.500000 0.835556 0.750000
Si Si7 0.371042 0.253600 0.287089
O O1 0.126648 0.340769 0.525640
O O2 0.015581 0.304925 0.559140
O O3 0.877520 0.177549 0.443660
O O4 0.158323 0.097907 0.572630
O O5 0.995616 0.329102 0.863219
O O6 0.250000 0.250000 0.000000
O O7 0.153719 0.502156 0.969793
O O8 0.407623 0.581781 0.110874
O O9 0.250000 0.750000 0.000000
O O10 0.583022 0.455517 0.612257
O O11 0.866809 0.439958 0.683246
O O12 0.345974 0.410583 0.292108
O O13 0.298698 0.677148 0.275585
O O14 0.564698 0.739775 0.736703
#
# Coordination Sequence:
#
# PCOD8143901 Si02
#       7
#     8   8   8   8   8   4   8
#     4  11  23  41  68  98 136 171 225 276 329 394
#     4  12  24  45  71  98 135 177 223 276 337 395
#     4  12  26  42  68 104 133 173 225 280 332 395
#     4  10  21  41  66  96 130 178 220 267 335 399
#     4  11  24  46  64  96 135 176 220 276 335 400
#     4  10  24  38  68  94 130 174 226 268 334 402
#     4  11  25  45  67  95 133 175 223 274 338 396
#
# _framework density 20.277083000000001
#
# number of rings (size 3 to 8) (size 9 to 14) (size 15 to 20)
#    0.000    0.923    4.615    1.385    6.462    1.231 
#    2.769    0.000    0.000    0.000    0.000    0.000 
#    0.000    0.000    0.000    0.000    0.000    0.000 
#
# Total GULP energy -322557.280720 kJ/mol
# GULP energy per Si atom -12406.049258 kJ/mol
# Density = 2.023093 g / cm^3
# Si number density = 20.277083 Si / 1000 Ang^3
#
#
#
# Elastic Constant Matrix: (Units=GPa)
#
#
# Indices 1 2 3 4 5 6 
#
# 1 60.1211 19.8543 18.8994 0.0000 -3.0359 0.0000
# 2 19.8543 121.9554 38.1777 0.0000 1.3080 0.0000
# 3 18.8994 38.1777 119.3847 0.0000 7.1578 0.0000
# 4 0.0000 0.0000 0.0000 35.0801 0.0000 -6.7626
# 5 -3.0359 1.3080 7.1578 0.0000 34.7116 0.0000
# 6 0.0000 0.0000 0.0000 -6.7626 0.0000 26.7838
#
#
#
# Elastic Compliance Matrix: (Units=1/GPa)
#
#
# Indices 1 2 3 4 5 6 
#
# 1 0.018210 -0.002272 -0.002285 0.000000 0.002150 0.000000
# 2 -0.002272 0.009398 -0.002645 0.000000 -0.000007 0.000000
# 3 -0.002285 -0.002645 0.009710 0.000000 -0.002102 0.000000
# 4 0.000000 0.000000 0.000000 0.029965 0.000000 0.007566
# 5 0.002150 -0.000007 -0.002102 0.000000 0.029431 0.000000
# 6 0.000000 0.000000 0.000000 0.007566 0.000000 0.039246
#
#
# Mechanical properties :
#
#
# Convention : Reuss Voigt Hill
#
# Bulk Modulus (GPa) = 43.64324 50.59158 47.11741
# Shear Modulus (GPa) = 31.64509 34.28376 32.96442
#
# Velocity S-wave (km/s) = 3.95477 4.11635 4.03637
# Velocity P-wave (km/s) = 6.51335 6.89904 6.70897
#
# Compressibility (1/GPa) = 0.02291305
#
# Stress axis : x y z
#
# Youngs Moduli (GPa) = 54.91377 106.40807 102.98722
#
# Poissons Ratio (x) = 0.24180 0.23533
# Poissons Ratio (y) = 0.12479 0.27241
# Poissons Ratio (z) = 0.12548 0.28146
#
# Static dielectric constant tensor:
#      x y z
#    x 3.784840 0.000000 -0.074070 
#    y 0.000000 3.652670 0.000000 
#    z -0.074070 0.000000 3.836030 
# 
# 
# High freq. dielectric constant tensor:
#      x y z
#    x 1.797910 0.000000 -0.001720 
#    y 0.000000 1.792830 0.000000 
#    z -0.001720 0.000000 1.802520 
# 
# From -- ./inp_files/313222.got.cif
#   From: 2010.06.25/outbox.cif.g09.slc.cpg/sg15_157_cif.got.tgz:313222.got - 2010.06.28 07:06:18.
