data_PCOD8143659
_publ_section_title
;
Structure prediction by ZEFSAII (Michael W. Deem and Ramdas Pophale) SiO2 
 PCOD8143659
Probable space group: C 2/C
;
_chemical_formula_sum "Si O2"
_cell_formula_units_Z 64
_cell_length_a 24.761816
_cell_length_b 12.926681
_cell_length_c 14.534358
_cell_angle_alpha 90.000000
_cell_angle_beta 37.387797
_cell_angle_gamma 90.000000
_cell_volume 2824.892213
_symmetry_space_group_name_H-M "C 2/C"
_symmetry_group_IT_number 15
_symmetry_cell_setting 'monoclinic'
loop_
_space_group_symop_operation_xyz
x,y,z
-x,y,1/2-z
-x,-y,-z
x,-y,1/2+z
1/2+x,1/2+y,z
1/2-x,1/2+y,1/2-z
1/2-x,1/2-y,-z
1/2+x,1/2-y,1/2+z
loop_
_atom_site_type_symbol
_atom_site_label
_atom_site_fract_x
_atom_site_fract_y
_atom_site_fract_z
Si Si1 0.623427 0.897552 0.396250
Si Si2 0.301935 0.481369 0.215528
Si Si3 0.842541 0.461720 0.356308
Si Si4 0.925674 0.124348 0.692628
Si Si5 0.647812 0.470310 0.561294
Si Si6 0.355331 0.744328 0.372701
Si Si7 0.452255 0.153597 0.224044
Si Si8 0.611433 0.675905 0.364781
O O1 0.698502 0.950314 0.358247
O O2 0.629317 0.944155 0.287182
O O3 0.522552 0.910854 0.566891
O O4 0.643498 0.774761 0.379248
O O5 0.360408 0.402392 0.196648
O O6 0.307677 0.594981 0.252563
O O7 0.338922 0.500331 0.062027
O O8 0.736528 0.472961 0.503019
O O9 0.879609 0.363539 0.366857
O O10 0.877884 0.569224 0.349343
O O11 0.907457 0.245599 0.738943
O O12 0.027247 0.115220 0.521272
O O13 0.916932 0.048518 0.794304
O O14 0.617025 0.348496 0.595893
O O15 0.250000 0.750000 0.500000
O O16 0.410823 0.717154 0.206091
O O17 0.500000 0.195680 0.250000
#
# Coordination Sequence:
#
# PCOD8143659 Si02
#       8
#     8   8   8   8   8   8   8   8
#     4   9  22  41  63  91 127 173 218 275 331 398
#     4  11  23  40  68  96 127 179 225 268 345 410
#     4   9  20  42  64  90 125 173 219 274 335 395
#     4  11  25  42  63  97 137 173 216 287 337 403
#     4  10  22  38  66  99 127 167 223 276 338 407
#     4   9  18  38  65  90 126 167 212 272 323 383
#     4  11  25  41  64  93 134 178 219 269 341 410
#     4  10  21  41  62  91 135 171 213 276 342 385
#
# _framework density 22.655732
#
# number of rings (size 3 to 8) (size 9 to 14) (size 15 to 20)
#    0.000    2.000    1.250    1.500    5.250    2.500 
#    0.000    5.000    0.000    0.000    0.000    0.000 
#    0.000    0.000    0.000    0.000    0.000    0.000 
#
# Total GULP energy -396422.293033 kJ/mol
# GULP energy per Si atom -12388.196657 kJ/mol
# Density = 2.260417 g / cm^3
# Si number density = 22.655732 Si / 1000 Ang^3
#
#
#
# Elastic Constant Matrix: (Units=GPa)
#
#
# Indices 1 2 3 4 5 6 
#
# 1 54.8425 33.1147 3.1401 0.0000 -5.5722 0.0000
# 2 33.1147 139.3542 18.4965 0.0000 -14.0877 0.0000
# 3 3.1401 18.4965 79.3997 0.0000 12.1119 0.0000
# 4 0.0000 0.0000 0.0000 37.7675 0.0000 -2.8029
# 5 -5.5722 -14.0877 12.1119 0.0000 19.2130 0.0000
# 6 0.0000 0.0000 0.0000 -2.8029 0.0000 22.0896
#
#
#
# Elastic Compliance Matrix: (Units=1/GPa)
#
#
# Indices 1 2 3 4 5 6 
#
# 1 0.021417 -0.004785 -0.000160 0.000000 0.002804 0.000000
# 2 -0.004785 0.009502 -0.003181 0.000000 0.007585 0.000000
# 3 -0.000160 -0.003181 0.015163 0.000000 -0.011938 0.000000
# 4 0.000000 0.000000 0.000000 0.026730 0.000000 0.003392
# 5 0.002804 0.007585 -0.011938 0.000000 0.065949 0.000000
# 6 0.000000 0.000000 0.000000 0.003392 0.000000 0.045701
#
#
# Mechanical properties :
#
#
# Convention : Reuss Voigt Hill
#
# Bulk Modulus (GPa) = 33.52350 42.56657 38.04503
# Shear Modulus (GPa) = 23.73531 30.40368 27.06949
#
# Velocity S-wave (km/s) = 3.24026 3.66729 3.46037
# Velocity P-wave (km/s) = 5.36918 6.06310 5.72666
#
# Compressibility (1/GPa) = 0.02982983
#
# Stress axis : x y z
#
# Youngs Moduli (GPa) = 46.69159 105.24108 65.94998
#
# Poissons Ratio (x) = 0.50354 0.01056
# Poissons Ratio (y) = 0.22340 0.20981
# Poissons Ratio (z) = 0.00748 0.33481
#
# Static dielectric constant tensor:
#      x y z
#    x 3.658230 0.000000 0.086490 
#    y 0.000000 4.404220 0.000000 
#    z 0.086490 0.000000 4.264600 
# 
# 
# High freq. dielectric constant tensor:
#      x y z
#    x 1.856430 0.000000 0.013690 
#    y 0.000000 1.910190 0.000000 
#    z 0.013690 0.000000 1.903400 
# 
# From -- ./inp_files/173651.got.cif
#   From: 2010.06.25/outbox.cif.g09.slc.cpg/sg15_87_cif.got.tgz:173651.got - 2010.06.28 07:06:18.
