data_PCOD8143081
_publ_section_title
;
Structure prediction by ZEFSAII (Michael W. Deem and Ramdas Pophale) SiO2 
 PCOD8143081
Probable space group: C 2/C
;
_chemical_formula_sum "Si O2"
_cell_formula_units_Z 40
_cell_length_a 9.105259
_cell_length_b 10.137436
_cell_length_c 21.920549
_cell_angle_alpha 90.000000
_cell_angle_beta 77.785784
_cell_angle_gamma 90.000000
_cell_volume 1977.552134
_symmetry_space_group_name_H-M "C 2/C"
_symmetry_group_IT_number 15
_symmetry_cell_setting 'monoclinic'
loop_
_space_group_symop_operation_xyz
x,y,z
-x,y,1/2-z
-x,-y,-z
x,-y,1/2+z
1/2+x,1/2+y,z
1/2-x,1/2+y,1/2-z
1/2-x,1/2-y,-z
1/2+x,1/2-y,1/2+z
loop_
_atom_site_type_symbol
_atom_site_label
_atom_site_fract_x
_atom_site_fract_y
_atom_site_fract_z
Si Si1 0.515948 0.370764 0.614977
Si Si2 0.128816 0.954191 0.285464
Si Si3 0.841326 0.400654 0.569010
Si Si4 0.610439 0.197122 0.973067
Si Si5 0.278545 0.311649 0.801069
O O1 0.440777 0.510641 0.641413
O O2 0.668297 0.384630 0.561209
O O3 0.398234 0.290115 0.585328
O O4 0.561065 0.303087 0.676530
O O5 0.000000 0.910096 0.250000
O O6 0.783118 0.084038 0.245576
O O7 0.242585 0.833252 0.280155
O O8 0.877376 0.551793 0.554345
O O9 0.848515 0.365187 0.640387
O O10 0.956807 0.301432 0.525798
O O11 0.750000 0.250000 0.000000
#
# Coordination Sequence:
#
# PCOD8143081 Si02
#       5
#     8   8   8   8   8
#     4   9  22  40  64  85 129 158 209 250 313 362
#     4  10  21  40  61  94 120 166 205 260 309 379
#     4   9  23  40  58  92 125 159 210 255 302 376
#     4  11  23  39  64  90 125 165 210 252 309 367
#     4   9  22  41  63  88 129 156 209 254 313 366
#
# _framework density 20.227027
#
# number of rings (size 3 to 8) (size 9 to 14) (size 15 to 20)
#    1.200    1.200    0.000    0.600    5.600    4.000 
#    3.600    0.000    0.000    0.000    0.000    0.000 
#    0.000    0.000    0.000    0.000    0.000    0.000 
#
# Total GULP energy -247763.639907 kJ/mol
# GULP energy per Si atom -12388.181995 kJ/mol
# Density = 2.018099 g / cm^3
# Si number density = 20.227027 Si / 1000 Ang^3
#
#
#
# Elastic Constant Matrix: (Units=GPa)
#
#
# Indices 1 2 3 4 5 6 
#
# 1 68.0924 52.0070 32.8663 0.0000 4.7655 0.0000
# 2 52.0070 115.8740 43.2759 0.0000 3.5103 0.0000
# 3 32.8663 43.2759 76.3998 0.0000 2.6602 0.0000
# 4 0.0000 0.0000 0.0000 31.9879 0.0000 -5.6218
# 5 4.7655 3.5103 2.6602 0.0000 24.7865 0.0000
# 6 0.0000 0.0000 0.0000 -5.6218 0.0000 25.8426
#
#
#
# Elastic Compliance Matrix: (Units=1/GPa)
#
#
# Indices 1 2 3 4 5 6 
#
# 1 0.024148 -0.008763 -0.005326 0.000000 -0.002830 0.000000
# 2 -0.008763 0.014145 -0.004247 0.000000 0.000137 0.000000
# 3 -0.005326 -0.004247 0.017796 0.000000 -0.000285 0.000000
# 4 0.000000 0.000000 0.000000 0.032504 0.000000 0.007071
# 5 -0.002830 0.000137 -0.000285 0.000000 0.040900 0.000000
# 6 0.000000 0.000000 0.000000 0.007071 0.000000 0.040234
#
#
# Mechanical properties :
#
#
# Convention : Reuss Voigt Hill
#
# Bulk Modulus (GPa) = 51.50329 57.40714 54.45522
# Shear Modulus (GPa) = 23.48829 25.33787 24.41308
#
# Velocity S-wave (km/s) = 3.41138 3.54315 3.47789
# Velocity P-wave (km/s) = 6.40583 6.72173 6.56568
#
# Compressibility (1/GPa) = 0.01941624
#
# Stress axis : x y z
#
# Youngs Moduli (GPa) = 41.41179 70.69435 56.19287
#
# Poissons Ratio (x) = 0.61952 0.29926
# Poissons Ratio (y) = 0.36291 0.23867
# Poissons Ratio (z) = 0.22054 0.30027
#
# Static dielectric constant tensor:
#      x y z
#    x 3.580230 0.000000 -0.265710 
#    y 0.000000 3.388100 0.000000 
#    z -0.265710 0.000000 3.699810 
# 
# 
# High freq. dielectric constant tensor:
#      x y z
#    x 1.774850 0.000000 -0.015690 
#    y 0.000000 1.780840 0.000000 
#    z -0.015690 0.000000 1.792680 
# 
# From -- ./inp_files/287025.got.cif
#   From: 2010.06.25/outbox.cif.g09.slc.cpg/sg15_144_cif.got.tgz:287025.got - 2010.06.28 07:06:18.
