data_PCOD8143189
_publ_section_title
;
Structure prediction by ZEFSAII (Michael W. Deem and Ramdas Pophale) SiO2 
 PCOD8143189
Probable space group: C 2/C
;
_chemical_formula_sum "Si O2"
_cell_formula_units_Z 48
_cell_length_a 30.440930
_cell_length_b 8.311195
_cell_length_c 16.031280
_cell_angle_alpha 90.000000
_cell_angle_beta 33.023917
_cell_angle_gamma 90.000000
_cell_volume 2210.433142
_symmetry_space_group_name_H-M "C 2/C"
_symmetry_group_IT_number 15
_symmetry_cell_setting 'monoclinic'
loop_
_space_group_symop_operation_xyz
x,y,z
-x,y,1/2-z
-x,-y,-z
x,-y,1/2+z
1/2+x,1/2+y,z
1/2-x,1/2+y,1/2-z
1/2-x,1/2-y,-z
1/2+x,1/2-y,1/2+z
loop_
_atom_site_type_symbol
_atom_site_label
_atom_site_fract_x
_atom_site_fract_y
_atom_site_fract_z
Si Si1 0.828499 0.196433 0.923398
Si Si2 0.808173 0.113791 0.212923
Si Si3 0.921546 0.893326 0.123409
Si Si4 0.430018 0.943783 0.550060
Si Si5 0.741959 0.947653 0.162282
Si Si6 0.419574 0.183842 0.423717
O O1 0.905594 0.181153 0.740261
O O2 0.850922 0.326157 0.960228
O O3 0.750000 0.250000 0.000000
O O4 0.810394 0.021292 0.993726
O O5 0.754089 0.253608 0.341847
O O6 0.841598 0.994677 0.229854
O O7 0.751763 0.013599 0.240805
O O8 0.887886 0.187670 0.041727
O O9 0.933294 0.749895 0.037675
O O10 0.000000 0.000000 0.000000
O O11 0.500000 0.000000 0.500000
O O12 0.346426 0.996283 0.727083
O O13 0.436654 0.016921 0.445648
O O14 0.500000 0.246518 0.250000
#
# Coordination Sequence:
#
# PCOD8143189 Si02
#       6
#     8   8   8   8   8   8
#     4  11  23  41  68  99 134 179 222 282 342 408
#     4  10  22  39  65  94 131 176 218 278 330 403
#     4  12  24  42  66  97 136 171 224 283 348 403
#     4  11  22  39  66  92 125 172 222 270 335 406
#     4  10  21  40  63  94 129 174 226 268 334 403
#     4  10  22  42  65  95 134 176 222 275 337 403
#
# _framework density 21.715201
#
# number of rings (size 3 to 8) (size 9 to 14) (size 15 to 20)
#    0.000    1.333    1.667    5.000    4.667    0.667 
#    0.000    7.500    0.000    0.000    0.000    0.000 
#    0.000    0.000    0.000    0.000    0.000    0.000 
#
# Total GULP energy -297566.296446 kJ/mol
# GULP energy per Si atom -12398.595685 kJ/mol
# Density = 2.166578 g / cm^3
# Si number density = 21.715201 Si / 1000 Ang^3
#
#
#
# Elastic Constant Matrix: (Units=GPa)
#
#
# Indices 1 2 3 4 5 6 
#
# 1 145.0796 62.6665 25.8335 0.0000 -2.5542 0.0000
# 2 62.6665 139.7106 8.8238 0.0008 3.8166 0.0005
# 3 25.8335 8.8238 76.5003 0.0004 7.8261 0.0002
# 4 0.0000 0.0008 0.0004 27.5775 0.0001 -5.9978
# 5 -2.5542 3.8166 7.8261 0.0001 33.3162 0.0000
# 6 0.0000 0.0005 0.0002 -5.9978 0.0000 42.2214
#
#
#
# Elastic Compliance Matrix: (Units=1/GPa)
#
#
# Indices 1 2 3 4 5 6 
#
# 1 0.009142 -0.003972 -0.002815 0.000000 0.001817 0.000000
# 2 -0.003972 0.008950 0.000456 0.000000 -0.001437 0.000000
# 3 -0.002815 0.000456 0.014342 0.000000 -0.003637 0.000000
# 4 0.000000 0.000000 0.000000 0.037417 0.000000 0.005315
# 5 0.001817 -0.001437 -0.003637 0.000000 0.031174 0.000000
# 6 0.000000 0.000000 0.000000 0.005315 0.000000 0.024440
#
#
# Mechanical properties :
#
#
# Convention : Reuss Voigt Hill
#
# Bulk Modulus (GPa) = 50.57805 61.77088 56.17446
# Shear Modulus (GPa) = 34.55019 38.22083 36.38551
#
# Velocity S-wave (km/s) = 3.99314 4.19990 4.09782
# Velocity P-wave (km/s) = 6.67849 7.21294 6.95086
#
# Compressibility (1/GPa) = 0.01977142
#
# Stress axis : x y z
#
# Youngs Moduli (GPa) = 109.38728 111.73315 69.72604
#
# Poissons Ratio (x) = 0.44385 0.19627
# Poissons Ratio (y) = 0.43453 -0.03180
# Poissons Ratio (z) = 0.30791 -0.05097
#
# Static dielectric constant tensor:
#      x y z
#    x 4.182040 0.000000 0.055230 
#    y 0.000000 3.967060 0.000000 
#    z 0.055230 0.000000 4.073470 
# 
# 
# High freq. dielectric constant tensor:
#      x y z
#    x 1.868290 0.000000 -0.011920 
#    y 0.000000 1.843240 0.000000 
#    z -0.011920 0.000000 1.839900 
# 
# From -- ./inp_files/176907.got.cif
#   From: 2010.06.25/outbox.cif.g09.slc.cpg/sg15_89_cif.got.tgz:176907.got - 2010.06.28 07:06:18.
