data_PCOD8143522
_publ_section_title
;
Structure prediction by ZEFSAII (Michael W. Deem and Ramdas Pophale) SiO2 
 PCOD8143522
Probable space group: C 2/C
;
_chemical_formula_sum "Si O2"
_cell_formula_units_Z 40
_cell_length_a 14.928475
_cell_length_b 14.533199
_cell_length_c 9.841286
_cell_angle_alpha 90.000000
_cell_angle_beta 118.615246
_cell_angle_gamma 90.000000
_cell_volume 1874.353867
_symmetry_space_group_name_H-M "C 2/C"
_symmetry_group_IT_number 15
_symmetry_cell_setting 'monoclinic'
loop_
_space_group_symop_operation_xyz
x,y,z
-x,y,1/2-z
-x,-y,-z
x,-y,1/2+z
1/2+x,1/2+y,z
1/2-x,1/2+y,1/2-z
1/2-x,1/2-y,-z
1/2+x,1/2-y,1/2+z
loop_
_atom_site_type_symbol
_atom_site_label
_atom_site_fract_x
_atom_site_fract_y
_atom_site_fract_z
Si Si1 0.639072 0.781962 0.906758
Si Si2 0.792788 0.480305 0.622576
Si Si3 0.064128 0.949036 0.934483
Si Si4 0.399666 0.942621 0.963997
Si Si5 0.456269 0.741133 0.936947
O O1 0.649040 0.890463 0.893872
O O2 0.577903 0.754432 0.999742
O O3 0.591277 0.727083 0.746025
O O4 0.750000 0.750000 0.000000
O O5 0.673388 0.498607 0.502516
O O6 0.810829 0.480876 0.797685
O O7 0.859960 0.553953 0.589733
O O8 0.000000 0.955650 0.750000
O O9 0.074379 0.842190 0.985747
O O10 0.000000 0.000000 0.000000
O O11 0.413538 0.834363 0.966408
O O12 0.500000 0.000000 0.000000
#
# Coordination Sequence:
#
# PCOD8143522 Si02
#       5
#     8   8   8   8   8
#     4  10  21  40  69  94 129 181 226 269 342 419
#     4  11  24  41  67 100 132 180 228 275 348 410
#     4  12  28  46  69 100 145 184 232 287 349 413
#     4  11  22  43  68 100 138 174 229 287 344 412
#     4  10  24  42  66 100 133 176 232 283 337 409
#
# _framework density 21.340686999999999
#
# number of rings (size 3 to 8) (size 9 to 14) (size 15 to 20)
#    0.000    1.200    2.000    3.000    8.400    4.000 
#    0.000    0.000    0.000    0.000    0.000    0.000 
#    0.000    0.000    0.000    0.000    0.000    0.000 
#
# Total GULP energy -247764.452929 kJ/mol
# GULP energy per Si atom -12388.222646 kJ/mol
# Density = 2.129211 g / cm^3
# Si number density = 21.340687 Si / 1000 Ang^3
#
#
#
# Elastic Constant Matrix: (Units=GPa)
#
#
# Indices 1 2 3 4 5 6 
#
# 1 123.0658 18.9982 39.1969 0.0000 11.9033 0.0000
# 2 18.9982 77.8056 54.9157 0.0000 0.8442 0.0000
# 3 39.1969 54.9157 95.8810 0.0000 5.3876 0.0000
# 4 0.0000 0.0000 0.0000 28.2028 0.0000 4.4360
# 5 11.9033 0.8442 5.3876 0.0000 41.2989 0.0000
# 6 0.0000 0.0000 0.0000 4.4360 0.0000 30.8201
#
#
#
# Elastic Compliance Matrix: (Units=1/GPa)
#
#
# Indices 1 2 3 4 5 6 
#
# 1 0.009564 0.000604 -0.004131 0.000000 -0.002230 0.000000
# 2 0.000604 0.021669 -0.012717 0.000000 0.001042 0.000000
# 3 -0.004131 -0.012717 0.019463 0.000000 -0.001089 0.000000
# 4 0.000000 0.000000 0.000000 0.036279 0.000000 -0.005222
# 5 -0.002230 0.001042 -0.001089 0.000000 0.024977 0.000000
# 6 0.000000 0.000000 0.000000 -0.005222 0.000000 0.033198
#
#
# Mechanical properties :
#
#
# Convention : Reuss Voigt Hill
#
# Bulk Modulus (GPa) = 54.91474 58.10825 56.51150
# Shear Modulus (GPa) = 27.21755 32.30713 29.76234
#
# Velocity S-wave (km/s) = 3.57512 3.89508 3.73852
# Velocity P-wave (km/s) = 6.54449 6.89324 6.72113
#
# Compressibility (1/GPa) = 0.01821005
#
# Stress axis : x y z
#
# Youngs Moduli (GPa) = 104.56176 46.14870 51.38021
#
# Poissons Ratio (x) = -0.02789 0.21223
# Poissons Ratio (y) = -0.06319 0.65338
# Poissons Ratio (z) = 0.43190 0.58685
#
# Static dielectric constant tensor:
#      x y z
#    x 4.105100 0.000000 -0.164700 
#    y 0.000000 3.703170 0.000000 
#    z -0.164700 0.000000 1.819700 
# 
# 
# High freq. dielectric constant tensor:
#      x y z
#    x 1.851140 0.000000 0.002790 
#    y 0.000000 1.842410 0.000000 
#    z 0.002790 0.000000 1.833700 
# 
# From -- ./inp_files/37857.got.cif
#   From: 2010.06.25/outbox.cif.g09.slc.cpg/sg15_19_cif.got.tgz:37857.got - 2010.06.28 07:06:18.
