data_PCOD8143204
_publ_section_title
;
Structure prediction by ZEFSAII (Michael W. Deem and Ramdas Pophale) SiO2 
 PCOD8143204
Probable space group: C 2/C
;
_chemical_formula_sum "Si O2"
_cell_formula_units_Z 64
_cell_length_a 13.667837
_cell_length_b 9.553672
_cell_length_c 26.161505
_cell_angle_alpha 90.000000
_cell_angle_beta 68.619373
_cell_angle_gamma 90.000000
_cell_volume 3181.017647
_symmetry_space_group_name_H-M "C 2/C"
_symmetry_group_IT_number 15
_symmetry_cell_setting 'monoclinic'
loop_
_space_group_symop_operation_xyz
x,y,z
-x,y,1/2-z
-x,-y,-z
x,-y,1/2+z
1/2+x,1/2+y,z
1/2-x,1/2+y,1/2-z
1/2-x,1/2-y,-z
1/2+x,1/2-y,1/2+z
loop_
_atom_site_type_symbol
_atom_site_label
_atom_site_fract_x
_atom_site_fract_y
_atom_site_fract_z
Si Si1 0.316332 0.382333 0.404453
Si Si2 0.535203 0.440295 0.686167
Si Si3 0.376999 0.530453 0.632268
Si Si4 0.942117 0.567781 0.927907
Si Si5 0.808622 0.691359 0.866339
Si Si6 0.603604 0.262846 0.933194
Si Si7 0.721371 0.865655 0.965351
Si Si8 0.030105 0.264824 0.561889
O O1 0.387536 0.431692 0.343240
O O2 0.201793 0.340155 0.407649
O O3 0.310273 0.514809 0.444644
O O4 0.360973 0.252881 0.427923
O O5 0.500000 0.467130 0.750000
O O6 0.428508 0.452396 0.671652
O O7 0.597925 0.290720 0.673026
O O8 0.258822 0.599340 0.662515
O O9 0.366283 0.418977 0.588613
O O10 0.451932 0.652549 0.599485
O O11 0.860047 0.582729 0.896989
O O12 0.006061 0.421897 0.916283
O O13 0.019152 0.700148 0.909438
O O14 0.887253 0.566902 0.995030
O O15 0.718219 0.787437 0.911024
O O16 0.551319 0.262676 0.998677
O O17 0.750000 0.750000 0.000000
#
# Coordination Sequence:
#
# PCOD8143204 Si02
#       8
#     8   8   8   8   8   8   8   8
#     4  10  22  37  58  87 123 168 211 259 314 369
#     4  10  23  48  67  89 121 156 210 279 331 366
#     4  11  24  40  63  94 121 166 214 251 316 378
#     4  11  21  35  55  89 134 170 205 243 295 374
#     4  10  21  40  64  86 123 162 207 260 309 375
#     4  12  22  35  57  94 135 170 208 243 307 384
#     4   9  19  31  55  85 122 170 204 238 299 366
#     4  11  23  34  56  91 134 173 204 250 302 374
#
# _framework density 20.119347000000001
#
# number of rings (size 3 to 8) (size 9 to 14) (size 15 to 20)
#    0.000    1.500    2.500    2.625    8.750    0.000 
#    2.250    0.000    0.000    1.500    0.000    0.000 
#    0.000    0.000    0.000    0.000    0.000    0.000 
#
# Total GULP energy -396432.775421 kJ/mol
# GULP energy per Si atom -12388.524232 kJ/mol
# Density = 2.007355 g / cm^3
# Si number density = 20.119347 Si / 1000 Ang^3
#
#
#
# Elastic Constant Matrix: (Units=GPa)
#
#
# Indices 1 2 3 4 5 6 
#
# 1 104.6715 29.8009 32.8394 0.0000 13.5933 0.0000
# 2 29.8009 104.8667 25.8360 0.0000 5.5540 0.0000
# 3 32.8394 25.8360 75.6999 0.0000 7.3094 0.0000
# 4 0.0000 0.0000 0.0000 14.3971 0.0000 -0.8819
# 5 13.5933 5.5540 7.3094 0.0000 14.1924 0.0000
# 6 0.0000 0.0000 0.0000 -0.8819 0.0000 42.2349
#
#
#
# Elastic Compliance Matrix: (Units=1/GPa)
#
#
# Indices 1 2 3 4 5 6 
#
# 1 0.012561 -0.002138 -0.003829 0.000000 -0.009222 0.000000
# 2 -0.002138 0.010851 -0.002698 0.000000 -0.000809 0.000000
# 3 -0.003829 -0.002698 0.016138 0.000000 -0.003588 0.000000
# 4 0.000000 0.000000 0.000000 0.069547 0.000000 0.001452
# 5 -0.009222 -0.000809 -0.003588 0.000000 0.081458 0.000000
# 6 0.000000 0.000000 0.000000 0.001452 0.000000 0.023707
#
#
# Mechanical properties :
#
#
# Convention : Reuss Voigt Hill
#
# Bulk Modulus (GPa) = 45.00215 51.35451 48.17833
# Shear Modulus (GPa) = 20.92050 27.28233 24.10142
#
# Velocity S-wave (km/s) = 3.22812 3.68642 3.46486
# Velocity P-wave (km/s) = 6.02582 6.61059 6.32497
#
# Compressibility (1/GPa) = 0.02222116
#
# Stress axis : x y z
#
# Youngs Moduli (GPa) = 79.60907 92.15767 61.96393
#
# Poissons Ratio (x) = 0.19702 0.23727
# Poissons Ratio (y) = 0.17019 0.16717
# Poissons Ratio (z) = 0.30483 0.24862
#
# Static dielectric constant tensor:
#      x y z
#    x 3.948640 0.000000 -0.102970 
#    y 0.000000 3.900830 0.000000 
#    z -0.102970 0.000000 3.308210 
# 
# 
# High freq. dielectric constant tensor:
#      x y z
#    x 1.798140 0.000000 -0.000410 
#    y 0.000000 1.802940 0.000000 
#    z -0.000410 0.000000 1.727250 
# 
# From -- ./inp_files/295112.got.cif
#   From: 2010.06.25/outbox.cif.g09.slc.cpg/sg15_148_cif.got.tgz:295112.got - 2010.06.28 07:06:18.
