data_PCOD8143140
_publ_section_title
;
Structure prediction by ZEFSAII (Michael W. Deem and Ramdas Pophale) SiO2 
 PCOD8143140
Probable space group: C 2/C
;
_chemical_formula_sum "Si O2"
_cell_formula_units_Z 56
_cell_length_a 20.030994
_cell_length_b 8.731680
_cell_length_c 14.699157
_cell_angle_alpha 90.000000
_cell_angle_beta 74.698783
_cell_angle_gamma 90.000000
_cell_volume 2479.809404
_symmetry_space_group_name_H-M "C 2/C"
_symmetry_group_IT_number 15
_symmetry_cell_setting 'monoclinic'
loop_
_space_group_symop_operation_xyz
x,y,z
-x,y,1/2-z
-x,-y,-z
x,-y,1/2+z
1/2+x,1/2+y,z
1/2-x,1/2+y,1/2-z
1/2-x,1/2-y,-z
1/2+x,1/2-y,1/2+z
loop_
_atom_site_type_symbol
_atom_site_label
_atom_site_fract_x
_atom_site_fract_y
_atom_site_fract_z
Si Si1 0.686145 0.621886 0.744322
Si Si2 0.578824 0.839015 0.536212
Si Si3 0.287841 0.970171 0.481759
Si Si4 0.187340 0.525409 0.223707
Si Si5 0.632584 0.274798 0.450536
Si Si6 0.446510 0.982774 0.619379
Si Si7 0.366376 0.469004 0.418511
O O1 0.760271 0.534449 0.716912
O O2 0.698713 0.793985 0.704333
O O3 0.652881 0.618816 0.856994
O O4 0.634353 0.535599 0.691908
O O5 0.523991 0.931145 0.622092
O O6 0.582904 0.662130 0.561684
O O7 0.655518 0.902982 0.516740
O O8 0.553102 0.861957 0.440925
O O9 0.299273 0.816811 0.537957
O O10 0.296397 0.928829 0.372127
O O11 0.213533 0.047015 0.522733
O O12 0.107135 0.498843 0.279265
O O13 0.575246 0.154314 0.441814
O O14 0.604333 0.376120 0.545383
#
# Coordination Sequence:
#
# PCOD8143140 Si02
#       7
#     8   8   8   8   8   8   8
#     4  11  23  38  58  94 126 163 198 260 317 370
#     4  10  21  40  63  88 121 164 217 258 302 381
#     4  11  22  39  62  94 127 164 204 262 320 373
#     4  11  23  37  62  92 126 162 206 256 320 380
#     4  10  23  41  60  91 132 165 200 260 325 374
#     4   9  22  42  61  87 123 168 207 259 321 365
#     4  12  22  37  64  94 125 162 211 258 314 380
#
# _framework density 22.582381000000002
#
# number of rings (size 3 to 8) (size 9 to 14) (size 15 to 20)
#    0.000    1.429    2.857    3.429    4.000    1.143 
#    0.000    0.000    0.000    0.000    7.429    0.000 
#    0.000    0.000    0.000    0.000    0.000    0.000 
#
# Total GULP energy -346987.156181 kJ/mol
# GULP energy per Si atom -12392.398435 kJ/mol
# Density = 2.253098 g / cm^3
# Si number density = 22.582381 Si / 1000 Ang^3
#
#
#
# Elastic Constant Matrix: (Units=GPa)
#
#
# Indices 1 2 3 4 5 6 
#
# 1 48.8153 0.1627 16.0108 0.0000 0.5070 0.0000
# 2 0.1627 49.8846 33.3754 0.0000 16.6497 0.0000
# 3 16.0108 33.3754 104.5436 0.0000 11.8459 0.0000
# 4 0.0000 0.0000 0.0000 31.6423 0.0000 3.9151
# 5 0.5070 16.6497 11.8459 0.0000 25.6908 0.0000
# 6 0.0000 0.0000 0.0000 3.9151 0.0000 34.9346
#
#
#
# Elastic Compliance Matrix: (Units=1/GPa)
#
#
# Indices 1 2 3 4 5 6 
#
# 1 0.021866 0.002871 -0.004226 0.000000 -0.000343 0.000000
# 2 0.002871 0.031214 -0.008553 0.000000 -0.016342 0.000000
# 3 -0.004226 -0.008553 0.012984 0.000000 -0.000361 0.000000
# 4 0.000000 0.000000 0.000000 0.032048 0.000000 -0.003592
# 5 -0.000343 -0.016342 -0.000361 0.000000 0.049688 0.000000
# 6 0.000000 0.000000 0.000000 -0.003592 0.000000 0.029027
#
#
# Mechanical properties :
#
#
# Convention : Reuss Voigt Hill
#
# Bulk Modulus (GPa) = 21.62325 33.59349 27.60837
# Shear Modulus (GPa) = 23.57842 28.69986 26.13914
#
# Velocity S-wave (km/s) = 3.23477 3.56883 3.40590
# Velocity P-wave (km/s) = 4.85260 5.64715 5.26489
#
# Compressibility (1/GPa) = 0.04624651
#
# Stress axis : x y z
#
# Youngs Moduli (GPa) = 45.73399 32.03741 77.01795
#
# Poissons Ratio (x) = -0.09198 0.32550
# Poissons Ratio (y) = -0.13130 0.65872
# Poissons Ratio (z) = 0.19329 0.27401
#
# Static dielectric constant tensor:
#      x y z
#    x 4.160630 0.000000 0.249450 
#    y 0.000000 4.019400 0.000000 
#    z 0.249450 0.000000 4.080860 
# 
# 
# High freq. dielectric constant tensor:
#      x y z
#    x 1.887100 0.000000 0.012970 
#    y 0.000000 1.873990 0.000000 
#    z 0.012970 0.000000 1.883420 
# 
# From -- ./inp_files/171796.got.cif
#   From: 2010.06.25/outbox.cif.g09.slc.cpg/sg15_86_cif.got.tgz:171796.got - 2010.06.28 07:06:18.
