data_PCOD8143027
_publ_section_title
;
Structure prediction by ZEFSAII (Michael W. Deem and Ramdas Pophale) SiO2 
 PCOD8143027
Probable space group: C 2/C
;
_chemical_formula_sum "Si O2"
_cell_formula_units_Z 64
_cell_length_a 19.781769
_cell_length_b 11.455650
_cell_length_c 29.295110
_cell_angle_alpha 90.000000
_cell_angle_beta 29.353123
_cell_angle_gamma 90.000000
_cell_volume 3254.206817
_symmetry_space_group_name_H-M "C 2/C"
_symmetry_group_IT_number 15
_symmetry_cell_setting 'monoclinic'
loop_
_space_group_symop_operation_xyz
x,y,z
-x,y,1/2-z
-x,-y,-z
x,-y,1/2+z
1/2+x,1/2+y,z
1/2-x,1/2+y,1/2-z
1/2-x,1/2-y,-z
1/2+x,1/2-y,1/2+z
loop_
_atom_site_type_symbol
_atom_site_label
_atom_site_fract_x
_atom_site_fract_y
_atom_site_fract_z
Si Si1 0.480360 0.635306 0.631299
Si Si2 0.273728 0.471141 0.465700
Si Si3 0.659883 0.653677 0.148995
Si Si4 0.295276 0.332544 0.012690
Si Si5 0.597357 0.173150 0.002494
Si Si6 0.317594 0.065267 0.143676
Si Si7 0.725626 0.198666 0.834678
Si Si8 0.394179 0.382617 0.658895
O O1 0.602623 0.614601 0.595105
O O2 0.536574 0.706689 0.555738
O O3 0.377733 0.708611 0.724070
O O4 0.413100 0.522783 0.645724
O O5 0.334490 0.569233 0.397192
O O6 0.232685 0.538141 0.537593
O O7 0.149205 0.401729 0.515419
O O8 0.500000 0.682243 0.250000
O O9 0.736811 0.584784 0.144022
O O10 0.737287 0.778297 0.094242
O O11 0.460247 0.330290 0.912205
O O12 0.250000 0.250000 0.000000
O O13 0.718159 0.199540 0.894519
O O14 0.474835 0.107157 0.048126
O O15 0.230075 0.140069 0.232210
O O16 0.328657 0.928336 0.149924
O O17 0.642252 0.312562 0.866016
#
# Coordination Sequence:
#
# PCOD8143027 Si02
#       8
#     8   8   8   8   8   8   8   8
#     4  10  23  43  59  91 124 163 210 252 312 378
#     4  10  22  38  62  86 124 166 205 259 306 378
#     4  11  20  37  62  95 123 159 212 261 314 371
#     4   9  19  34  57  85 120 161 193 246 315 363
#     4  12  23  38  65  92 122 164 213 253 308 371
#     4  11  22  37  60  97 121 153 212 269 303 375
#     4  11  22  38  63  88 123 158 204 263 313 368
#     4  10  21  40  60  85 127 160 200 256 324 366
#
# _framework density 19.666851000000001
#
# number of rings (size 3 to 8) (size 9 to 14) (size 15 to 20)
#    0.000    1.500    2.500    4.500    3.500    0.500 
#    0.000    0.000    5.500    0.000    0.000    0.000 
#    0.000    0.000    0.000    0.000    0.000    0.000 
#
# Total GULP energy -396431.986952 kJ/mol
# GULP energy per Si atom -12388.499592 kJ/mol
# Density = 1.962209 g / cm^3
# Si number density = 19.666851 Si / 1000 Ang^3
#
#
#
# Elastic Constant Matrix: (Units=GPa)
#
#
# Indices 1 2 3 4 5 6 
#
# 1 65.1065 35.2435 25.7795 -0.0018 -10.7238 -0.0004
# 2 35.2435 79.6989 50.0849 0.0006 0.9959 0.0001
# 3 25.7795 50.0849 89.8985 0.0074 1.5117 0.0013
# 4 -0.0018 0.0006 0.0074 28.7411 0.0009 -1.8898
# 5 -10.7238 0.9959 1.5117 0.0009 32.9024 -0.0001
# 6 -0.0004 0.0001 0.0013 -1.8898 -0.0001 32.6033
#
#
#
# Elastic Compliance Matrix: (Units=1/GPa)
#
#
# Indices 1 2 3 4 5 6 
#
# 1 0.021994 -0.008889 -0.001481 0.000002 0.007506 0.000000
# 2 -0.008889 0.022900 -0.010156 0.000002 -0.003124 0.000000
# 3 -0.001481 -0.010156 0.017223 -0.000004 -0.000967 -0.000001
# 4 0.000002 0.000002 -0.000004 0.034927 0.000000 0.002024
# 5 0.007506 -0.003124 -0.000967 0.000000 0.032978 0.000000
# 6 0.000000 0.000000 -0.000001 0.002024 0.000000 0.030789
#
#
# Mechanical properties :
#
#
# Convention : Reuss Voigt Hill
#
# Bulk Modulus (GPa) = 47.47486 50.76885 49.12186
# Shear Modulus (GPa) = 23.93669 27.08909 25.51289
#
# Velocity S-wave (km/s) = 3.49249 3.71536 3.60565
# Velocity P-wave (km/s) = 6.36045 6.65399 6.50888
#
# Compressibility (1/GPa) = 0.02106378
#
# Stress axis : x y z
#
# Youngs Moduli (GPa) = 45.46713 43.66881 58.06189
#
# Poissons Ratio (x) = 0.38817 0.08599
# Poissons Ratio (y) = 0.40416 0.58970
# Poissons Ratio (z) = 0.06733 0.44352
#
# Static dielectric constant tensor:
#      x y z
#    x 3.555630 -0.000020 0.229790 
#    y -0.000020 3.982320 0.000060 
#    z 0.229790 0.000060 3.555490 
# 
# 
# High freq. dielectric constant tensor:
#      x y z
#    x 1.755460 0.000000 -0.004440 
#    y 0.000000 1.765400 0.000000 
#    z -0.004440 0.000000 1.768290 
# 
# From -- ./inp_files/316165.got.cif
#   From: 2010.06.25/outbox.cif.g09.slc.cpg/sg15_159_cif.got.tgz:316165.got - 2010.06.28 07:06:18.
