data_PCOD8143014
_publ_section_title
;
Structure prediction by ZEFSAII (Michael W. Deem and Ramdas Pophale) SiO2 
 PCOD8143014
Probable space group: C 2/C
;
_chemical_formula_sum "Si O2"
_cell_formula_units_Z 56
_cell_length_a 28.070206
_cell_length_b 8.564210
_cell_length_c 12.516200
_cell_angle_alpha 90.000000
_cell_angle_beta 115.998460
_cell_angle_gamma 90.000000
_cell_volume 2704.402209
_symmetry_space_group_name_H-M "C 2/C"
_symmetry_group_IT_number 15
_symmetry_cell_setting 'monoclinic'
loop_
_space_group_symop_operation_xyz
x,y,z
-x,y,1/2-z
-x,-y,-z
x,-y,1/2+z
1/2+x,1/2+y,z
1/2-x,1/2+y,1/2-z
1/2-x,1/2-y,-z
1/2+x,1/2-y,1/2+z
loop_
_atom_site_type_symbol
_atom_site_label
_atom_site_fract_x
_atom_site_fract_y
_atom_site_fract_z
Si Si1 0.616599 0.720810 0.982602
Si Si2 0.113830 0.775330 0.236750
Si Si3 0.001916 0.732902 0.420091
Si Si4 0.131628 0.441625 0.565142
Si Si5 0.187502 0.996513 0.684685
Si Si6 0.480854 0.882669 0.119991
Si Si7 0.236367 0.275683 0.610091
O O1 0.631081 0.757855 0.874601
O O2 0.554109 0.677444 0.930097
O O3 0.651832 0.578149 0.056800
O O4 0.630363 0.871374 0.068000
O O5 0.126025 0.618681 0.181267
O O6 0.051505 0.821760 0.168691
O O7 0.148743 0.916465 0.227617
O O8 0.998066 0.559287 0.367898
O O9 0.005925 0.723702 0.552177
O O10 0.082710 0.377056 0.447594
O O11 0.183864 0.379846 0.559772
O O12 0.217791 0.866987 0.782624
O O13 0.228169 0.112573 0.664761
O O14 0.500000 0.809388 0.250000
O O15 0.250000 0.250000 0.500000
#
# Coordination Sequence:
#
# PCOD8143014 Si02
#       7
#     8   8   8   8   8   8   8
#     4  11  21  37  62  89 119 158 192 237 292 343
#     4  10  21  40  59  87 125 155 189 242 289 341
#     4   9  18  31  54  85 119 154 192 228 282 353
#     4   9  21  37  60  89 118 152 199 239 286 351
#     4  11  25  41  61  87 113 151 205 242 291 357
#     4   9  16  30  53  86 121 155 189 230 279 341
#     4  11  24  44  63  84 117 154 195 251 298 340
#
# _framework density 20.706979
#
# number of rings (size 3 to 8) (size 9 to 14) (size 15 to 20)
#    0.000    2.000    0.000    4.714    0.000    5.143 
#    0.000    6.429    0.000    0.000    0.000    0.000 
#    0.000    0.000    0.000    0.000    0.000    0.000 
#
# Total GULP energy -347248.244675 kJ/mol
# GULP energy per Si atom -12401.723024 kJ/mol
# Density = 2.065985 g / cm^3
# Si number density = 20.706979 Si / 1000 Ang^3
#
#
#
# Elastic Constant Matrix: (Units=GPa)
#
#
# Indices 1 2 3 4 5 6 
#
# 1 132.4073 47.6793 57.6646 0.0000 -1.2321 0.0000
# 2 47.6793 87.9096 50.0728 0.0000 2.7724 0.0000
# 3 57.6646 50.0728 139.0178 0.0000 -17.5070 0.0000
# 4 0.0000 0.0000 0.0000 27.9153 0.0000 7.3329
# 5 -1.2321 2.7724 -17.5070 0.0000 25.7638 0.0000
# 6 0.0000 0.0000 0.0000 7.3329 0.0000 30.8088
#
#
#
# Elastic Compliance Matrix: (Units=1/GPa)
#
#
# Indices 1 2 3 4 5 6 
#
# 1 0.010221 -0.003786 -0.003022 0.000000 -0.001157 0.000000
# 2 -0.003786 0.016468 -0.005038 0.000000 -0.005377 0.000000
# 3 -0.003022 -0.005038 0.011277 0.000000 0.008060 0.000000
# 4 0.000000 0.000000 0.000000 0.038212 0.000000 -0.009095
# 5 -0.001157 -0.005377 0.008060 0.000000 0.044815 0.000000
# 6 0.000000 0.000000 0.000000 -0.009095 0.000000 0.034623
#
#
# Mechanical properties :
#
#
# Convention : Reuss Voigt Hill
#
# Bulk Modulus (GPa) = 70.05929 74.46314 72.26121
# Shear Modulus (GPa) = 27.16437 30.49211 28.82824
#
# Velocity S-wave (km/s) = 3.62587 3.84155 3.73527
# Velocity P-wave (km/s) = 7.17191 7.46426 7.31955
#
# Compressibility (1/GPa) = 0.01427363
#
# Stress axis : x y z
#
# Youngs Moduli (GPa) = 97.83824 60.72374 88.67930
#
# Poissons Ratio (x) = 0.22989 0.26797
# Poissons Ratio (y) = 0.37040 0.44680
# Poissons Ratio (z) = 0.29564 0.30595
#
# Static dielectric constant tensor:
#      x y z
#    x 3.987140 0.000000 0.002540 
#    y 0.000000 3.543370 0.000000 
#    z 0.002540 0.000000 3.705670 
# 
# 
# High freq. dielectric constant tensor:
#      x y z
#    x 1.824060 0.000000 -0.000880 
#    y 0.000000 1.783880 0.000000 
#    z -0.000880 0.000000 1.814440 
# 
# From -- ./inp_files/122016.got.cif
#   From: 2010.06.25/outbox.cif.g09.slc.cpg/sg15_62_cif.got.tgz:122016.got - 2010.06.28 07:06:18.
