data_PCOD8143175
_publ_section_title
;
Structure prediction by ZEFSAII (Michael W. Deem and Ramdas Pophale) SiO2 
 PCOD8143175
Probable space group: C 2/C
;
_chemical_formula_sum "Si O2"
_cell_formula_units_Z 60
_cell_length_a 27.601138
_cell_length_b 11.153040
_cell_length_c 9.463424
_cell_angle_alpha 90.000000
_cell_angle_beta 80.172680
_cell_angle_gamma 90.000000
_cell_volume 2870.441933
_symmetry_space_group_name_H-M "C 2/C"
_symmetry_group_IT_number 15
_symmetry_cell_setting 'monoclinic'
loop_
_space_group_symop_operation_xyz
x,y,z
-x,y,1/2-z
-x,-y,-z
x,-y,1/2+z
1/2+x,1/2+y,z
1/2-x,1/2+y,1/2-z
1/2-x,1/2-y,-z
1/2+x,1/2-y,1/2+z
loop_
_atom_site_type_symbol
_atom_site_label
_atom_site_fract_x
_atom_site_fract_y
_atom_site_fract_z
Si Si1 0.748686 0.611878 0.477349
Si Si2 0.862844 0.921194 0.498815
Si Si3 0.192128 0.489288 0.801609
Si Si4 0.128529 0.565159 0.586150
Si Si5 0.917436 0.316639 0.951527
Si Si6 0.947237 0.288335 0.237496
Si Si7 0.424266 0.481182 0.723392
Si Si8 0.500000 0.672231 0.750000
O O1 0.750000 0.750000 0.500000
O O2 0.694369 0.554714 0.499641
O O3 0.776204 0.558999 0.598568
O O4 0.773940 0.594937 0.311620
O O5 0.872999 0.779310 0.475791
O O6 0.878212 0.975404 0.641174
O O7 0.899231 0.995862 0.383824
O O8 0.165843 0.577410 0.701161
O O9 0.153328 0.416380 0.919489
O O10 0.102312 0.434844 0.616997
O O11 0.089852 0.673543 0.618698
O O12 0.966436 0.258928 0.860704
O O13 0.930142 0.355347 0.104112
O O14 0.951231 0.146402 0.211463
O O15 0.000000 0.340382 0.250000
O O16 0.465123 0.584980 0.671169
#
# Coordination Sequence:
#
# PCOD8143175 Si02
#       8
#     8   8   8   8   8   8   8   4
#     4  11  23  43  70  96 134 171 224 274 341 395
#     4  10  21  40  63  92 124 165 211 263 323 386
#     4  10  23  43  67  94 127 173 215 278 325 394
#     4  11  22  44  62  94 129 169 223 259 330 384
#     4  10  23  40  65  89 129 170 212 264 319 383
#     4  11  24  38  63  92 132 167 210 268 318 381
#     4  10  22  39  63  92 132 164 209 265 319 387
#     4  10  22  40  66  96 124 170 218 258 324 390
#
# _framework density 20.902704
#
# number of rings (size 3 to 8) (size 9 to 14) (size 15 to 20)
#    0.000    1.600    2.000    2.400    4.667    3.200 
#    7.200    1.333    0.000    0.000    0.000    0.000 
#    0.000    0.000    0.000    0.000    0.000    0.000 
#
# Total GULP energy -371835.011523 kJ/mol
# GULP energy per Si atom -12394.500384 kJ/mol
# Density = 2.085513 g / cm^3
# Si number density = 20.902704 Si / 1000 Ang^3
#
#
#
# Elastic Constant Matrix: (Units=GPa)
#
#
# Indices 1 2 3 4 5 6 
#
# 1 117.0750 23.4014 37.9631 0.0000 -9.3204 0.0000
# 2 23.4014 67.4560 28.3222 0.0000 -0.6778 0.0000
# 3 37.9631 28.3222 114.9065 0.0000 -5.8657 0.0000
# 4 0.0000 0.0000 0.0000 24.0100 0.0000 -10.4759
# 5 -9.3204 -0.6778 -5.8657 0.0000 36.7962 0.0000
# 6 0.0000 0.0000 0.0000 -10.4759 0.0000 12.3729
#
#
#
# Elastic Compliance Matrix: (Units=1/GPa)
#
#
# Indices 1 2 3 4 5 6 
#
# 1 0.010030 -0.002356 -0.002627 0.000000 0.002078 0.000000
# 2 -0.002356 0.017093 -0.003478 0.000000 -0.000836 0.000000
# 3 -0.002627 -0.003478 0.010476 0.000000 0.000941 0.000000
# 4 0.000000 0.000000 0.000000 0.066049 0.000000 0.055922
# 5 0.002078 -0.000836 0.000941 0.000000 0.027838 0.000000
# 6 0.000000 0.000000 0.000000 0.055922 0.000000 0.128169
#
#
# Mechanical properties :
#
#
# Convention : Reuss Voigt Hill
#
# Bulk Modulus (GPa) = 48.35929 53.20121 50.78025
# Shear Modulus (GPa) = 17.63870 28.61923 23.12896
#
# Velocity S-wave (km/s) = 2.90806 3.70424 3.33003
# Velocity P-wave (km/s) = 5.87038 6.61833 6.25554
#
# Compressibility (1/GPa) = 0.02067855
#
# Stress axis : x y z
#
# Youngs Moduli (GPa) = 99.70436 58.50221 95.45825
#
# Poissons Ratio (x) = 0.13781 0.25076
# Poissons Ratio (y) = 0.23486 0.33197
# Poissons Ratio (z) = 0.26192 0.20345
#
# Static dielectric constant tensor:
#      x y z
#    x 4.090840 0.000000 -0.047440 
#    y 0.000000 3.460480 0.000000 
#    z -0.047440 0.000000 3.831280 
# 
# 
# High freq. dielectric constant tensor:
#      x y z
#    x 1.834950 0.000000 0.000970 
#    y 0.000000 1.799290 0.000000 
#    z 0.000970 0.000000 1.825960 
# 
# From -- ./inp_files/65500.got.cif
#   From: 2010.06.25/outbox.cif.g09.slc.cpg/sg15_33_cif.got.tgz:65500.got - 2010.06.28 07:06:18.
