data_PCOD8143101
_publ_section_title
;
Structure prediction by ZEFSAII (Michael W. Deem and Ramdas Pophale) SiO2 
 PCOD8143101
Probable space group: C 2/C
;
_chemical_formula_sum "Si O2"
_cell_formula_units_Z 60
_cell_length_a 24.778419
_cell_length_b 20.676624
_cell_length_c 9.296369
_cell_angle_alpha 90.000000
_cell_angle_beta 35.261074
_cell_angle_gamma 90.000000
_cell_volume 2749.605605
_symmetry_space_group_name_H-M "C 2/C"
_symmetry_group_IT_number 15
_symmetry_cell_setting 'monoclinic'
loop_
_space_group_symop_operation_xyz
x,y,z
-x,y,1/2-z
-x,-y,-z
x,-y,1/2+z
1/2+x,1/2+y,z
1/2-x,1/2+y,1/2-z
1/2-x,1/2-y,-z
1/2+x,1/2-y,1/2+z
loop_
_atom_site_type_symbol
_atom_site_label
_atom_site_fract_x
_atom_site_fract_y
_atom_site_fract_z
Si Si1 0.096743 0.455930 0.581932
Si Si2 0.847312 0.250631 0.019245
Si Si3 0.414528 0.536669 0.111877
Si Si4 0.079312 0.645195 0.349036
Si Si5 0.295440 0.511376 0.112311
Si Si6 0.500000 0.650333 0.750000
Si Si7 0.622851 0.843740 0.295540
Si Si8 0.786840 0.642377 0.192520
O O1 0.085435 0.425626 0.764407
O O2 0.187999 0.499944 0.391124
O O3 0.107970 0.400580 0.439951
O O4 0.000000 0.494207 0.750000
O O5 0.846553 0.280353 0.182216
O O6 0.750240 0.214655 0.200448
O O7 0.855760 0.305792 0.881677
O O8 0.927195 0.196634 0.829157
O O9 0.373094 0.497845 0.065610
O O10 0.327643 0.535829 0.413251
O O11 0.500000 0.500000 0.000000
O O12 0.448853 0.607026 0.984753
O O13 0.117089 0.636811 0.428036
O O14 0.974022 0.671908 0.575903
O O15 0.291086 0.588695 0.088701
O O16 0.697169 0.865342 0.013721
#
# Coordination Sequence:
#
# PCOD8143101 Si02
#       8
#     8   8   8   8   8   4   8   8
#     4   9  21  40  62  90 122 171 209 254 319 383
#     4  11  21  42  64  86 120 168 211 255 319 381
#     4  12  23  43  65  95 127 172 211 264 315 383
#     4  10  21  40  62  87 126 161 205 264 318 372
#     4  12  24  40  66  94 134 166 216 263 318 387
#     4  12  22  42  72  88 124 170 216 254 326 374
#     4  10  21  40  64  87 122 164 210 257 314 382
#     4  12  23  37  61  96 122 161 205 266 316 370
#
# _framework density 21.821311999999999
#
# number of rings (size 3 to 8) (size 9 to 14) (size 15 to 20)
#    0.000    1.067    4.000    3.600    0.000    1.067 
#    0.000    3.333    2.933    0.000    0.000    0.000 
#    0.000    0.000    0.000    0.000    0.000    0.000 
#
# Total GULP energy -371855.810520 kJ/mol
# GULP energy per Si atom -12395.193684 kJ/mol
# Density = 2.177165 g / cm^3
# Si number density = 21.821312 Si / 1000 Ang^3
#
#
#
# Elastic Constant Matrix: (Units=GPa)
#
#
# Indices 1 2 3 4 5 6 
#
# 1 117.2711 27.9158 10.2734 0.0000 -5.7906 0.0000
# 2 27.9158 62.0083 16.4488 0.0000 0.1461 0.0000
# 3 10.2734 16.4488 65.8222 0.0000 7.0593 0.0000
# 4 0.0000 0.0000 0.0000 31.2000 0.0000 -11.0505
# 5 -5.7906 0.1461 7.0593 0.0000 35.8434 0.0000
# 6 0.0000 0.0000 0.0000 -11.0505 0.0000 25.2079
#
#
#
# Elastic Compliance Matrix: (Units=1/GPa)
#
#
# Indices 1 2 3 4 5 6 
#
# 1 0.009664 -0.004183 -0.000646 0.000000 0.001705 0.000000
# 2 -0.004183 0.019105 -0.004128 0.000000 0.000059 0.000000
# 3 -0.000646 -0.004128 0.016687 0.000000 -0.003374 0.000000
# 4 0.000000 0.000000 0.000000 0.037942 0.000000 0.016633
# 5 0.001705 0.000059 -0.003374 0.000000 0.028839 0.000000
# 6 0.000000 0.000000 0.000000 0.016633 0.000000 0.046962
#
#
# Mechanical properties :
#
#
# Convention : Reuss Voigt Hill
#
# Bulk Modulus (GPa) = 36.30856 39.37530 37.84193
# Shear Modulus (GPa) = 26.83945 31.14781 28.99363
#
# Velocity S-wave (km/s) = 3.51089 3.78220 3.64907
# Velocity P-wave (km/s) = 5.75415 6.09565 5.92736
#
# Compressibility (1/GPa) = 0.02754171
#
# Stress axis : x y z
#
# Youngs Moduli (GPa) = 103.47828 52.34235 59.92832
#
# Poissons Ratio (x) = 0.21896 0.03870
# Poissons Ratio (y) = 0.43288 0.24737
# Poissons Ratio (z) = 0.06683 0.21605
#
# Static dielectric constant tensor:
#      x y z
#    x 4.056310 0.000000 -0.108980 
#    y 0.000000 3.870410 0.000000 
#    z -0.108980 0.000000 4.266230 
# 
# 
# High freq. dielectric constant tensor:
#      x y z
#    x 1.869460 0.000000 -0.010280 
#    y 0.000000 1.845140 0.000000 
#    z -0.010280 0.000000 1.853390 
# 
# From -- ./inp_files/63500.got.cif
#   From: 2010.06.25/outbox.cif.g09.slc.cpg/sg15_32_cif.got.tgz:63500.got - 2010.06.28 07:06:18.
