data_PCOD8143732
_publ_section_title
;
Structure prediction by ZEFSAII (Michael W. Deem and Ramdas Pophale) SiO2 
 PCOD8143732
Probable space group: C 2/C
;
_chemical_formula_sum "Si O2"
_cell_formula_units_Z 60
_cell_length_a 23.329358
_cell_length_b 8.991229
_cell_length_c 27.543340
_cell_angle_alpha 90.000000
_cell_angle_beta 27.408640
_cell_angle_gamma 90.000000
_cell_volume 2659.568502
_symmetry_space_group_name_H-M "C 2/C"
_symmetry_group_IT_number 15
_symmetry_cell_setting 'monoclinic'
loop_
_space_group_symop_operation_xyz
x,y,z
-x,y,1/2-z
-x,-y,-z
x,-y,1/2+z
1/2+x,1/2+y,z
1/2-x,1/2+y,1/2-z
1/2-x,1/2-y,-z
1/2+x,1/2-y,1/2+z
loop_
_atom_site_type_symbol
_atom_site_label
_atom_site_fract_x
_atom_site_fract_y
_atom_site_fract_z
Si Si1 0.500000 0.830452 0.250000
Si Si2 0.778344 0.131703 0.893158
Si Si3 0.763893 0.461705 0.913661
Si Si4 0.969371 0.011183 0.467114
Si Si5 0.490821 0.885144 0.933804
Si Si6 0.846425 0.880916 0.917663
Si Si7 0.163347 0.177942 0.761174
Si Si8 0.057033 0.307773 0.426275
O O1 0.528664 0.716735 0.183829
O O2 0.617560 0.929531 0.177725
O O3 0.815764 0.295519 0.885741
O O4 0.827717 0.125120 0.800914
O O5 0.829874 0.990048 0.883478
O O6 0.629867 0.126260 0.008985
O O7 0.677764 0.468936 0.930000
O O8 0.660463 0.510058 0.031366
O O9 0.000406 0.184166 0.432980
O O10 0.000000 0.000000 0.500000
O O11 0.060057 0.921425 0.364244
O O12 0.608619 0.845483 0.810706
O O13 0.492331 0.046232 0.955394
O O14 0.478667 0.774277 0.989980
O O15 0.750000 0.750000 0.000000
O O16 0.294633 0.171955 0.689736
#
# Coordination Sequence:
#
# PCOD8143732 Si02
#       8
#     4   8   8   8   8   8   8   8
#     4  10  26  48  72 110 140 178 252 294 362 438
#     4  11  24  44  74  98 139 189 243 297 368 434
#     4  11  25  49  73 103 147 193 237 299 370 431
#     4  12  23  45  71 104 146 190 237 294 360 430
#     4  10  21  41  63  99 142 183 241 291 357 429
#     4  10  25  47  72 104 139 178 242 307 360 434
#     4  11  22  42  65 105 139 189 245 291 348 447
#     4  10  22  38  65  97 144 194 231 294 357 423
#
# _framework density 22.56005
#
# number of rings (size 3 to 8) (size 9 to 14) (size 15 to 20)
#    0.000    1.333    2.667    2.000    5.600    2.667 
#    2.400    0.000    0.000    0.000    0.000    0.000 
#    0.000    0.000    0.000    0.000    0.000    0.000 
#
# Total GULP energy -371656.516878 kJ/mol
# GULP energy per Si atom -12388.550563 kJ/mol
# Density = 2.250870 g / cm^3
# Si number density = 22.560050 Si / 1000 Ang^3
#
#
#
# Elastic Constant Matrix: (Units=GPa)
#
#
# Indices 1 2 3 4 5 6 
#
# 1 72.4512 41.8522 29.6051 -0.0139 -2.2606 0.0240
# 2 41.8522 127.4679 43.3418 -0.0117 -1.6456 0.0164
# 3 29.6051 43.3418 113.8158 -0.0010 -5.5450 0.0111
# 4 -0.0139 -0.0117 -0.0010 44.1958 0.0013 0.0989
# 5 -2.2606 -1.6456 -5.5450 0.0013 31.0598 -0.0037
# 6 0.0240 0.0164 0.0111 0.0989 -0.0037 34.5886
#
#
#
# Elastic Compliance Matrix: (Units=1/GPa)
#
#
# Indices 1 2 3 4 5 6 
#
# 1 0.017764 -0.004897 -0.002729 0.000004 0.000546 -0.000009
# 2 -0.004897 0.010363 -0.002686 0.000001 -0.000287 -0.000001
# 3 -0.002729 -0.002686 0.010594 -0.000001 0.001550 0.000000
# 4 0.000004 0.000001 -0.000001 0.022627 -0.000001 -0.000065
# 5 0.000546 -0.000287 0.001550 -0.000001 0.032497 0.000003
# 6 -0.000009 -0.000001 0.000000 -0.000065 0.000003 0.028911
#
#
# Mechanical properties :
#
#
# Convention : Reuss Voigt Hill
#
# Bulk Modulus (GPa) = 55.26260 60.37035 57.81647
# Shear Modulus (GPa) = 33.46413 35.23122 34.34767
#
# Velocity S-wave (km/s) = 3.85559 3.95608 3.90616
# Velocity P-wave (km/s) = 6.66106 6.90546 6.78436
#
# Compressibility (1/GPa) = 0.01809542
#
# Stress axis : x y z
#
# Youngs Moduli (GPa) = 56.29480 96.49885 94.38886
#
# Poissons Ratio (x) = 0.47260 0.25759
# Poissons Ratio (y) = 0.27570 0.25356
# Poissons Ratio (z) = 0.15363 0.25923
#
# Static dielectric constant tensor:
#      x y z
#    x 4.125420 0.000020 0.097660 
#    y 0.000020 5.097410 -0.000010 
#    z 0.097660 -0.000010 4.462430 
# 
# 
# High freq. dielectric constant tensor:
#      x y z
#    x 1.864940 0.000000 0.002050 
#    y 0.000000 1.919440 0.000000 
#    z 0.002050 0.000000 1.896890 
# 
# From -- ./inp_files/302063.got.cif
#   From: 2010.06.25/outbox.cif.g09.slc.cpg/sg15_152_cif.got.tgz:302063.got - 2010.06.28 07:06:18.
