data_PCOD8143139
_publ_section_title
;
Structure prediction by ZEFSAII (Michael W. Deem and Ramdas Pophale) SiO2 
 PCOD8143139
Probable space group: C 2/C
;
_chemical_formula_sum "Si O2"
_cell_formula_units_Z 40
_cell_length_a 14.443711
_cell_length_b 9.106647
_cell_length_c 21.755302
_cell_angle_alpha 90.000000
_cell_angle_beta 36.032039
_cell_angle_gamma 90.000000
_cell_volume 1683.275313
_symmetry_space_group_name_H-M "C 2/C"
_symmetry_group_IT_number 15
_symmetry_cell_setting 'monoclinic'
loop_
_space_group_symop_operation_xyz
x,y,z
-x,y,1/2-z
-x,-y,-z
x,-y,1/2+z
1/2+x,1/2+y,z
1/2-x,1/2+y,1/2-z
1/2-x,1/2-y,-z
1/2+x,1/2-y,1/2+z
loop_
_atom_site_type_symbol
_atom_site_label
_atom_site_fract_x
_atom_site_fract_y
_atom_site_fract_z
Si Si1 0.065206 0.109436 0.312005
Si Si2 0.280189 0.371598 0.638192
Si Si3 0.838869 0.550540 0.618188
Si Si4 0.521523 0.931842 0.328034
Si Si5 0.799350 0.087780 0.993234
O O1 0.113984 0.112417 0.358110
O O2 0.999536 0.262336 0.319667
O O3 0.207910 0.076910 0.188104
O O4 0.934886 0.980280 0.377211
O O5 0.259934 0.198051 0.633799
O O6 0.113365 0.460213 0.731216
O O7 0.358268 0.427807 0.532559
O O8 0.865453 0.580203 0.674976
O O9 0.000000 0.500000 0.500000
O O10 0.353463 0.991057 0.436846
O O11 0.750000 0.250000 0.000000
#
# Coordination Sequence:
#
# PCOD8143139 Si02
#       5
#     8   8   8   8   8
#     4  10  23  41  63  89 123 163 207 251 303 368
#     4  10  22  41  64  88 122 165 205 248 306 371
#     4  10  21  40  63  88 119 162 208 250 299 365
#     4  10  22  39  61  91 123 157 203 253 304 361
#     4  12  23  39  63  94 126 159 200 256 311 363
#
# _framework density 23.763195
#
# number of rings (size 3 to 8) (size 9 to 14) (size 15 to 20)
#    0.000    1.600    0.000    4.200    0.000    9.600 
#    0.000    9.000    0.000    0.000    0.000    0.000 
#    0.000    0.000    0.000    0.000    0.000    0.000 
#
# Total GULP energy -247765.169120 kJ/mol
# GULP energy per Si atom -12388.258456 kJ/mol
# Density = 2.370911 g / cm^3
# Si number density = 23.763195 Si / 1000 Ang^3
#
#
#
# Elastic Constant Matrix: (Units=GPa)
#
#
# Indices 1 2 3 4 5 6 
#
# 1 38.7506 24.5428 12.1081 0.0000 -3.6756 0.0000
# 2 24.5428 206.7930 94.9620 0.0000 -35.1883 0.0000
# 3 12.1081 94.9620 171.9204 -0.0001 -24.8950 0.0000
# 4 0.0000 0.0000 -0.0001 48.4349 0.0000 -12.6275
# 5 -3.6756 -35.1883 -24.8950 0.0000 34.3417 0.0000
# 6 0.0000 0.0000 0.0000 -12.6275 0.0000 29.3150
#
#
#
# Elastic Compliance Matrix: (Units=1/GPa)
#
#
# Indices 1 2 3 4 5 6 
#
# 1 0.027916 -0.003307 -0.000220 0.000000 -0.000561 0.000000
# 2 -0.003307 0.007566 -0.003212 0.000000 0.005070 0.000000
# 3 -0.000220 -0.003212 0.007962 0.000000 0.002457 0.000000
# 4 0.000000 0.000000 0.000000 0.023258 0.000000 0.010018
# 5 -0.000561 0.005070 0.002457 0.000000 0.036035 0.000000
# 6 0.000000 0.000000 0.000000 0.010018 0.000000 0.038428
#
#
# Mechanical properties :
#
#
# Convention : Reuss Voigt Hill
#
# Bulk Modulus (GPa) = 33.37243 75.63220 54.50232
# Shear Modulus (GPa) = 30.37038 41.47506 35.92272
#
# Velocity S-wave (km/s) = 3.57885 4.18227 3.89227
# Velocity P-wave (km/s) = 5.58138 7.43091 6.57154
#
# Compressibility (1/GPa) = 0.02996485
#
# Stress axis : x y z
#
# Youngs Moduli (GPa) = 35.82115 132.16946 125.59352
#
# Poissons Ratio (x) = 0.43714 0.02769
# Poissons Ratio (y) = 0.11848 0.40342
# Poissons Ratio (z) = 0.00790 0.42454
#
# Static dielectric constant tensor:
#      x y z
#    x 4.201000 0.000000 0.203390 
#    y 0.000000 4.683510 0.000000 
#    z 0.203390 0.000000 4.184630 
# 
# 
# High freq. dielectric constant tensor:
#      x y z
#    x 1.938390 0.000000 0.005950 
#    y 0.000000 1.953380 0.000000 
#    z 0.005950 0.000000 1.937600 
# 
# From -- ./inp_files/276737.got.cif
#   From: 2010.06.25/outbox.cif.g09.slc.cpg/sg15_139_cif.got.tgz:276737.got - 2010.06.28 07:06:18.
