data_PCOD8143886
_publ_section_title
;
Structure prediction by ZEFSAII (Michael W. Deem and Ramdas Pophale) SiO2 
 PCOD8143886
Probable space group: C 2/C
;
_chemical_formula_sum "Si O2"
_cell_formula_units_Z 40
_cell_length_a 16.566749
_cell_length_b 8.648464
_cell_length_c 24.290970
_cell_angle_alpha 90.000000
_cell_angle_beta 30.225112
_cell_angle_gamma 90.000000
_cell_volume 1751.996445
_symmetry_space_group_name_H-M "C 2/C"
_symmetry_group_IT_number 15
_symmetry_cell_setting 'monoclinic'
loop_
_space_group_symop_operation_xyz
x,y,z
-x,y,1/2-z
-x,-y,-z
x,-y,1/2+z
1/2+x,1/2+y,z
1/2-x,1/2+y,1/2-z
1/2-x,1/2-y,-z
1/2+x,1/2-y,1/2+z
loop_
_atom_site_type_symbol
_atom_site_label
_atom_site_fract_x
_atom_site_fract_y
_atom_site_fract_z
Si Si1 0.316726 0.889354 0.843502
Si Si2 0.669017 0.919050 0.391190
Si Si3 0.253066 0.935227 0.491391
Si Si4 0.899006 0.424247 0.191065
Si Si5 0.548480 0.373701 0.777050
O O1 0.500000 0.839134 0.750000
O O2 0.194952 0.744913 0.906624
O O3 0.248103 0.001032 0.931804
O O4 0.305941 0.979253 0.792019
O O5 0.697460 0.918011 0.308647
O O6 0.500000 0.000000 0.500000
O O7 0.807413 0.027179 0.332218
O O8 0.250000 0.750000 0.500000
O O9 0.418495 0.991875 0.422895
O O10 0.091954 0.990213 0.617583
O O11 0.902426 0.245085 0.205434
O O12 0.500000 0.278844 0.750000
#
# Coordination Sequence:
#
# PCOD8143886 Si02
#       5
#     8   8   8   8   8
#     4  10  22  42  68  94 126 171 219 264 322 393
#     4  12  26  41  58  93 135 169 209 268 326 379
#     4   9  19  39  68  96 120 161 218 271 322 388
#     4  10  21  41  66  93 123 162 214 268 319 382
#     4  11  22  41  65  90 122 165 210 259 319 386
#
# _framework density 22.831095999999999
#
# number of rings (size 3 to 8) (size 9 to 14) (size 15 to 20)
#    0.000    1.600    0.000    6.000    0.000    4.800 
#    0.000   11.000    0.000    0.000    0.000    0.000 
#    0.000    0.000    0.000    0.000    0.000    0.000 
#
# Total GULP energy -247783.420788 kJ/mol
# GULP energy per Si atom -12389.171039 kJ/mol
# Density = 2.277913 g / cm^3
# Si number density = 22.831096 Si / 1000 Ang^3
#
#
#
# Elastic Constant Matrix: (Units=GPa)
#
#
# Indices 1 2 3 4 5 6 
#
# 1 106.5682 45.6823 20.4421 -0.0005 20.5412 0.0002
# 2 45.6823 109.1689 51.2269 -0.0004 -2.4832 0.0003
# 3 20.4421 51.2269 127.1984 -0.0030 -13.7123 0.0007
# 4 -0.0005 -0.0004 -0.0030 25.9496 0.0011 -4.2165
# 5 20.5412 -2.4832 -13.7123 0.0011 28.2500 -0.0002
# 6 0.0002 0.0003 0.0007 -4.2165 -0.0002 36.6251
#
#
#
# Elastic Compliance Matrix: (Units=1/GPa)
#
#
# Indices 1 2 3 4 5 6 
#
# 1 0.014250 -0.005634 -0.001257 0.000001 -0.011467 0.000000
# 2 -0.005634 0.013566 -0.004208 -0.000001 0.003246 0.000000
# 3 -0.001257 -0.004208 0.010359 0.000001 0.005573 0.000000
# 4 0.000001 -0.000001 0.000001 0.039271 -0.000002 0.004521
# 5 -0.011467 0.003246 0.005573 -0.000002 0.046727 0.000000
# 6 0.000000 0.000000 0.000000 0.004521 0.000000 0.027824
#
#
# Mechanical properties :
#
#
# Convention : Reuss Voigt Hill
#
# Bulk Modulus (GPa) = 62.59059 64.18203 63.38631
# Shear Modulus (GPa) = 27.85177 33.20388 30.52782
#
# Velocity S-wave (km/s) = 3.49650 3.81770 3.66063
# Velocity P-wave (km/s) = 6.61626 6.89970 6.75946
#
# Compressibility (1/GPa) = 0.01597684
#
# Stress axis : x y z
#
# Youngs Moduli (GPa) = 70.17421 73.71296 96.53152
#
# Poissons Ratio (x) = 0.41529 0.12138
# Poissons Ratio (y) = 0.39535 0.40622
# Poissons Ratio (z) = 0.08824 0.31019
#
# Static dielectric constant tensor:
#      x y z
#    x 4.237040 0.000000 -0.108270 
#    y 0.000000 3.834760 0.000000 
#    z -0.108270 0.000000 4.647270 
# 
# 
# High freq. dielectric constant tensor:
#      x y z
#    x 1.911930 0.000000 0.010560 
#    y 0.000000 1.878820 0.000000 
#    z 0.010560 0.000000 1.908590 
# 
# From -- ./inp_files/102661.got.cif
#   From: 2010.06.25/outbox.cif.g09.slc.cpg/sg15_52_cif.got.tgz:102661.got - 2010.06.28 07:06:18.
