data_PCOD8143422
_publ_section_title
;
Structure prediction by ZEFSAII (Michael W. Deem and Ramdas Pophale) SiO2 
 PCOD8143422
Probable space group: C 2/C
;
_chemical_formula_sum "Si O2"
_cell_formula_units_Z 60
_cell_length_a 23.082809
_cell_length_b 13.079194
_cell_length_c 30.195953
_cell_angle_alpha 90.000000
_cell_angle_beta 18.461725
_cell_angle_gamma 90.000000
_cell_volume 2886.867067
_symmetry_space_group_name_H-M "C 2/C"
_symmetry_group_IT_number 15
_symmetry_cell_setting 'monoclinic'
loop_
_space_group_symop_operation_xyz
x,y,z
-x,y,1/2-z
-x,-y,-z
x,-y,1/2+z
1/2+x,1/2+y,z
1/2-x,1/2+y,1/2-z
1/2-x,1/2-y,-z
1/2+x,1/2-y,1/2+z
loop_
_atom_site_type_symbol
_atom_site_label
_atom_site_fract_x
_atom_site_fract_y
_atom_site_fract_z
Si Si1 0.312216 0.652087 0.742455
Si Si2 0.000000 0.197864 0.750000
Si Si3 0.902125 0.676058 0.235705
Si Si4 0.899590 0.279174 0.524462
Si Si5 0.798579 0.805801 0.918276
Si Si6 0.177384 0.508684 0.400284
Si Si7 0.490587 0.612486 0.523291
Si Si8 0.304635 0.962413 0.013523
O O1 0.438315 0.744782 0.668966
O O2 0.328825 0.563099 0.767878
O O3 0.389550 0.605462 0.642451
O O4 0.107274 0.685443 0.879530
O O5 0.933680 0.272940 0.759903
O O6 0.153202 0.124915 0.617902
O O7 0.689293 0.655117 0.387414
O O8 0.023147 0.573931 0.141233
O O9 0.848962 0.260299 0.509804
O O10 0.764936 0.371494 0.639075
O O11 0.871191 0.179203 0.575040
O O12 0.000000 0.785747 0.750000
O O13 0.750000 0.750000 0.000000
O O14 0.771509 0.927369 0.946750
O O15 0.130294 0.467456 0.483064
O O16 0.000000 0.500000 0.500000
O O17 0.500000 0.500000 0.500000
#
# Coordination Sequence:
#
# PCOD8143422 Si02
#       8
#     8   4   8   8   8   8   8   8
#     4  10  21  40  67 100 130 171 222 276 342 411
#     4  12  22  46  66 104 138 180 234 278 350 424
#     4  11  25  42  69  97 139 182 219 286 343 421
#     4   9  23  42  67  94 131 177 226 281 337 412
#     4  11  26  49  74 102 137 187 243 290 346 423
#     4   9  19  37  68  92 120 173 226 266 327 408
#     4  11  26  42  63 102 139 170 224 287 355 400
#     4  11  23  44  70  98 137 180 232 280 350 414
#
# _framework density 20.783777000000001
#
# number of rings (size 3 to 8) (size 9 to 14) (size 15 to 20)
#    0.000    1.600    2.000    1.200   11.200    1.067 
#    8.400    0.000    0.000    0.000    0.000    0.000 
#    0.000    0.000    0.000    0.000    0.000    0.000 
#
# Total GULP energy -371802.809993 kJ/mol
# GULP energy per Si atom -12393.427000 kJ/mol
# Density = 2.073647 g / cm^3
# Si number density = 20.783777 Si / 1000 Ang^3
#
#
#
# Elastic Constant Matrix: (Units=GPa)
#
#
# Indices 1 2 3 4 5 6 
#
# 1 137.5956 71.8975 34.1471 0.0029 10.6400 0.0093
# 2 71.8975 137.9143 39.5757 0.0067 16.7021 0.0157
# 3 34.1471 39.5757 73.3046 -0.1697 17.1488 -0.0624
# 4 0.0029 0.0067 -0.1697 31.9683 0.0005 3.2519
# 5 10.6400 16.7021 17.1488 0.0005 33.8546 0.0207
# 6 0.0093 0.0157 -0.0624 3.2519 0.0207 36.0588
#
#
#
# Elastic Compliance Matrix: (Units=1/GPa)
#
#
# Indices 1 2 3 4 5 6 
#
# 1 0.010294 -0.004739 -0.002299 -0.000012 0.000267 -0.000004
# 2 -0.004739 0.010901 -0.003140 -0.000018 -0.002298 -0.000006
# 3 -0.002299 -0.003140 0.018011 0.000094 -0.006852 0.000029
# 4 -0.000012 -0.000018 0.000094 0.031571 -0.000034 -0.002847
# 5 0.000267 -0.002298 -0.006852 -0.000034 0.034058 -0.000027
# 6 -0.000004 -0.000006 0.000029 -0.002847 -0.000027 0.027989
#
#
# Mechanical properties :
#
#
# Convention : Reuss Voigt Hill
#
# Bulk Modulus (GPa) = 53.05271 71.11724 62.08498
# Shear Modulus (GPa) = 31.35501 33.92261 32.63881
#
# Velocity S-wave (km/s) = 3.88832 4.04439 3.96712
# Velocity P-wave (km/s) = 6.76315 7.49009 7.13588
#
# Compressibility (1/GPa) = 0.01884918
#
# Stress axis : x y z
#
# Youngs Moduli (GPa) = 97.14544 91.73675 55.52130
#
# Poissons Ratio (x) = 0.43474 0.12766
# Poissons Ratio (y) = 0.46037 0.17434
# Poissons Ratio (z) = 0.22336 0.28806
#
# Static dielectric constant tensor:
#      x y z
#    x 4.356130 -0.002490 -0.240860 
#    y -0.002490 4.596270 0.002560 
#    z -0.240860 0.002560 3.629370 
# 
# 
# High freq. dielectric constant tensor:
#      x y z
#    x 1.828290 0.000000 -0.003620 
#    y 0.000000 1.822270 0.000040 
#    z -0.003620 0.000040 1.795640 
# 
# From -- ./inp_files/301180.got.cif
#   From: 2010.06.25/outbox.cif.g09.slc.cpg/sg15_151_cif.got.tgz:301180.got - 2010.06.28 07:06:18.
