data_PCOD8143227
_publ_section_title
;
Structure prediction by ZEFSAII (Michael W. Deem and Ramdas Pophale) SiO2 
 PCOD8143227
Probable space group: C 2/C
;
_chemical_formula_sum "Si O2"
_cell_formula_units_Z 48
_cell_length_a 28.566302
_cell_length_b 9.172538
_cell_length_c 8.756370
_cell_angle_alpha 90.000000
_cell_angle_beta 80.402461
_cell_angle_gamma 90.000000
_cell_volume 2262.277996
_symmetry_space_group_name_H-M "C 2/C"
_symmetry_group_IT_number 15
_symmetry_cell_setting 'monoclinic'
loop_
_space_group_symop_operation_xyz
x,y,z
-x,y,1/2-z
-x,-y,-z
x,-y,1/2+z
1/2+x,1/2+y,z
1/2-x,1/2+y,1/2-z
1/2-x,1/2-y,-z
1/2+x,1/2-y,1/2+z
loop_
_atom_site_type_symbol
_atom_site_label
_atom_site_fract_x
_atom_site_fract_y
_atom_site_fract_z
Si Si1 0.153902 0.899913 0.993714
Si Si2 0.906247 0.914110 0.184056
Si Si3 0.462045 0.799398 0.483270
Si Si4 0.216717 0.648553 0.920100
Si Si5 0.000000 0.062549 0.250000
Si Si6 0.747128 0.406038 0.427556
Si Si7 0.000000 0.474955 0.750000
O O1 0.169111 0.741477 0.917686
O O2 0.112377 0.951483 0.905117
O O3 0.196174 0.018121 0.982819
O O4 0.133564 0.870780 0.172691
O O5 0.954817 0.959750 0.242581
O O6 0.912852 0.774205 0.066639
O O7 0.493314 0.663288 0.404426
O O8 0.482513 0.873397 0.624101
O O9 0.458965 0.919465 0.347779
O O10 0.244334 0.604392 0.754599
O O11 0.250000 0.750000 0.000000
O O12 0.210023 0.500172 0.020031
O O13 0.750000 0.250000 0.500000
#
# Coordination Sequence:
#
# PCOD8143227 Si02
#       7
#     8   8   8   8   4   8   4
#     4  11  24  40  64 101 132 168 225 285 327 395
#     4  12  23  40  64  98 135 168 229 289 326 395
#     4  10  21  40  64  90 125 175 223 266 340 398
#     4  10  21  40  65  95 127 172 212 266 342 402
#     4  11  23  40  66  96 123 185 220 276 348 379
#     4  11  21  41  71  93 132 173 216 267 343 422
#     4   9  21  40  66  88 121 171 238 258 328 431
#
# _framework density 21.217549999999999
#
# number of rings (size 3 to 8) (size 9 to 14) (size 15 to 20)
#    0.000    1.333    1.667    6.000    2.333    0.000 
#    0.000    3.333    0.000    0.000    0.000    0.000 
#    0.000    0.000    0.000    0.000    0.000    0.000 
#
# Total GULP energy -297382.278886 kJ/mol
# GULP energy per Si atom -12390.928287 kJ/mol
# Density = 2.116926 g / cm^3
# Si number density = 21.217550 Si / 1000 Ang^3
#
#
#
# Elastic Constant Matrix: (Units=GPa)
#
#
# Indices 1 2 3 4 5 6 
#
# 1 86.7048 51.1065 41.4272 0.0000 -11.6670 0.0000
# 2 51.1065 143.4356 57.3408 0.0000 -5.5827 0.0000
# 3 41.4272 57.3408 149.0378 0.0000 -26.7604 0.0000
# 4 0.0000 0.0000 0.0000 43.0605 0.0000 -3.2423
# 5 -11.6670 -5.5827 -26.7604 0.0000 40.7501 0.0000
# 6 0.0000 0.0000 0.0000 -3.2423 0.0000 40.3830
#
#
#
# Elastic Compliance Matrix: (Units=1/GPa)
#
#
# Indices 1 2 3 4 5 6 
#
# 1 0.015595 -0.004613 -0.002122 0.000000 0.002439 0.000000
# 2 -0.004613 0.009646 -0.002753 0.000000 -0.001807 0.000000
# 3 -0.002122 -0.002753 0.009276 0.000000 0.005107 0.000000
# 4 0.000000 0.000000 0.000000 0.023364 0.000000 0.001876
# 5 0.002439 -0.001807 0.005107 0.000000 0.028344 0.000000
# 6 0.000000 0.000000 0.000000 0.001876 0.000000 0.024914
#
#
# Mechanical properties :
#
#
# Convention : Reuss Voigt Hill
#
# Bulk Modulus (GPa) = 64.35281 75.43637 69.89459
# Shear Modulus (GPa) = 36.95634 40.12565 38.54099
#
# Velocity S-wave (km/s) = 4.17799 4.35346 4.26663
# Velocity P-wave (km/s) = 7.32598 7.80391 7.56872
#
# Compressibility (1/GPa) = 0.01553934
#
# Stress axis : x y z
#
# Youngs Moduli (GPa) = 64.12475 103.67180 107.80796
#
# Poissons Ratio (x) = 0.47826 0.22875
# Poissons Ratio (y) = 0.29582 0.29683
# Poissons Ratio (z) = 0.13606 0.28545
#
# Static dielectric constant tensor:
#      x y z
#    x 3.991910 0.000000 -0.381900 
#    y 0.000000 5.253250 0.000000 
#    z -0.381900 0.000000 4.310820 
# 
# 
# High freq. dielectric constant tensor:
#      x y z
#    x 1.791810 0.000000 -0.013050 
#    y 0.000000 1.847130 0.000000 
#    z -0.013050 0.000000 1.860270 
# 
# From -- ./inp_files/68622.got.cif
#   From: 2010.06.25/outbox.cif.g09.slc.cpg/sg15_35_cif.got.tgz:68622.got - 2010.06.28 07:06:18.
