data_PCOD8143304
_publ_section_title
;
Structure prediction by ZEFSAII (Michael W. Deem and Ramdas Pophale) SiO2 
 PCOD8143304
Probable space group: C 2/C
;
_chemical_formula_sum "Si O2"
_cell_formula_units_Z 40
_cell_length_a 7.459174
_cell_length_b 13.628882
_cell_length_c 18.884134
_cell_angle_alpha 90.000000
_cell_angle_beta 104.699354
_cell_angle_gamma 90.000000
_cell_volume 1856.932156
_symmetry_space_group_name_H-M "C 2/C"
_symmetry_group_IT_number 15
_symmetry_cell_setting 'monoclinic'
loop_
_space_group_symop_operation_xyz
x,y,z
-x,y,1/2-z
-x,-y,-z
x,-y,1/2+z
1/2+x,1/2+y,z
1/2-x,1/2+y,1/2-z
1/2-x,1/2-y,-z
1/2+x,1/2-y,1/2+z
loop_
_atom_site_type_symbol
_atom_site_label
_atom_site_fract_x
_atom_site_fract_y
_atom_site_fract_z
Si Si1 0.657129 0.240331 0.589280
Si Si2 0.098376 0.109541 0.493789
Si Si3 0.650484 0.933022 0.978829
Si Si4 0.002622 0.663191 0.329498
Si Si5 0.720289 0.249067 0.892792
O O1 0.609221 0.351240 0.550997
O O2 0.666420 0.167269 0.524444
O O3 0.849825 0.246518 0.650456
O O4 0.495489 0.214655 0.630313
O O5 0.150831 0.155603 0.575221
O O6 0.242178 0.163910 0.453723
O O7 0.853196 0.007999 0.502667
O O8 0.571004 0.918692 0.891418
O O9 0.500000 0.000000 0.000000
O O10 0.000000 0.619688 0.250000
O O11 0.797782 0.705779 0.327251
#
# Coordination Sequence:
#
# PCOD8143304 Si02
#       5
#     8   8   8   8   8
#     4  10  21  40  65  90 122 169 209 269 324 370
#     4   9  17  35  65  93 112 156 217 272 302 380
#     4  12  18  38  73  93 121 165 230 268 312 390
#     4  12  25  39  59  92 134 169 209 264 336 393
#     4   9  17  39  59  89 125 153 209 261 331 371
#
# _framework density 21.540907000000001
#
# number of rings (size 3 to 8) (size 9 to 14) (size 15 to 20)
#    1.200    0.400    6.000    0.600    0.000    1.600 
#    0.000    2.000    0.000    0.000    0.000    0.000 
#    0.000    0.000    0.000    0.000    0.000    0.000 
#
# Total GULP energy -247777.244879 kJ/mol
# GULP energy per Si atom -12388.862244 kJ/mol
# Density = 2.149188 g / cm^3
# Si number density = 21.540907 Si / 1000 Ang^3
#
#
#
# Elastic Constant Matrix: (Units=GPa)
#
#
# Indices 1 2 3 4 5 6 
#
# 1 134.8311 30.1180 48.0407 0.0000 -14.9396 0.0000
# 2 30.1180 115.0064 33.5151 0.0000 -2.6128 0.0000
# 3 48.0407 33.5151 119.8758 0.0000 -15.8226 0.0000
# 4 0.0000 0.0000 0.0000 13.0918 0.0000 -2.0592
# 5 -14.9396 -2.6128 -15.8226 0.0000 26.5224 0.0000
# 6 0.0000 0.0000 0.0000 -2.0592 0.0000 25.5566
#
#
#
# Elastic Compliance Matrix: (Units=1/GPa)
#
#
# Indices 1 2 3 4 5 6 
#
# 1 0.009115 -0.001497 -0.002796 0.000000 0.003319 0.000000
# 2 -0.001497 0.009724 -0.002284 0.000000 -0.001247 0.000000
# 3 -0.002796 -0.002284 0.010707 0.000000 0.004587 0.000000
# 4 0.000000 0.000000 0.000000 0.077364 0.000000 0.006234
# 5 0.003319 -0.001247 0.004587 0.000000 0.042187 0.000000
# 6 0.000000 0.000000 0.000000 0.006234 0.000000 0.039631
#
#
# Mechanical properties :
#
#
# Convention : Reuss Voigt Hill
#
# Bulk Modulus (GPa) = 61.00354 65.89566 63.44960
# Shear Modulus (GPa) = 24.11433 30.23680 27.17556
#
# Velocity S-wave (km/s) = 3.34947 3.75065 3.55573
# Velocity P-wave (km/s) = 6.58331 7.02950 6.81006
#
# Compressibility (1/GPa) = 0.01639249
#
# Stress axis : x y z
#
# Youngs Moduli (GPa) = 109.70791 102.83544 93.40090
#
# Poissons Ratio (x) = 0.15392 0.26119
# Poissons Ratio (y) = 0.16421 0.21329
# Poissons Ratio (z) = 0.30679 0.23483
#
# Static dielectric constant tensor:
#      x y z
#    x 4.597600 0.000000 -0.231140 
#    y 0.000000 4.002970 0.000000 
#    z -0.231140 0.000000 3.243150 
# 
# 
# High freq. dielectric constant tensor:
#      x y z
#    x 1.901010 0.000000 -0.020980 
#    y 0.000000 1.840200 0.000000 
#    z -0.020980 0.000000 1.778330 
# 
# From -- ./inp_files/189488.got.cif
#   From: 2010.06.25/outbox.cif.g09.slc.cpg/sg15_95_cif.got.tgz:189488.got - 2010.06.28 07:06:18.
