data_PCOD8143231
_publ_section_title
;
Structure prediction by ZEFSAII (Michael W. Deem and Ramdas Pophale) SiO2 
 PCOD8143231
Probable space group: C 2/C
;
_chemical_formula_sum "Si O2"
_cell_formula_units_Z 60
_cell_length_a 8.053112
_cell_length_b 32.579931
_cell_length_c 10.862770
_cell_angle_alpha 90.000000
_cell_angle_beta 69.160064
_cell_angle_gamma 90.000000
_cell_volume 2663.606136
_symmetry_space_group_name_H-M "C 2/C"
_symmetry_group_IT_number 15
_symmetry_cell_setting 'monoclinic'
loop_
_space_group_symop_operation_xyz
x,y,z
-x,y,1/2-z
-x,-y,-z
x,-y,1/2+z
1/2+x,1/2+y,z
1/2-x,1/2+y,1/2-z
1/2-x,1/2-y,-z
1/2+x,1/2-y,1/2+z
loop_
_atom_site_type_symbol
_atom_site_label
_atom_site_fract_x
_atom_site_fract_y
_atom_site_fract_z
Si Si1 0.379231 0.191172 0.485737
Si Si2 0.699874 0.512044 0.942457
Si Si3 0.683784 0.325903 0.265555
Si Si4 0.785027 0.961240 0.796866
Si Si5 0.000000 0.813199 0.750000
Si Si6 0.992095 0.779547 0.497520
Si Si7 0.824156 0.629127 0.120751
Si Si8 0.191344 0.400661 0.146184
O O1 0.353842 0.186372 0.639793
O O2 0.184491 0.192620 0.477189
O O3 0.478626 0.234424 0.441412
O O4 0.490203 0.153114 0.397932
O O5 0.784315 0.483079 0.812050
O O6 0.700036 0.558129 0.895517
O O7 0.500000 0.500000 0.000000
O O8 0.779222 0.512355 0.063150
O O9 0.500000 0.314671 0.250000
O O10 0.671404 0.299598 0.393989
O O11 0.697064 0.374217 0.286520
O O12 0.689201 0.916747 0.818876
O O13 0.000000 0.956267 0.750000
O O14 0.979278 0.780918 0.865311
O O15 0.168390 0.843133 0.716367
O O16 0.815510 0.625392 0.976471
O O17 0.000000 0.411480 0.250000
#
# Coordination Sequence:
#
# PCOD8143231 Si02
#       8
#     8   8   8   8   4   8   8   8
#     4  10  23  43  64  92 130 172 215 276 328 380
#     4   9  20  36  65  90 123 169 211 261 330 395
#     4  10  21  40  64  91 122 168 220 264 317 389
#     4   9  18  38  63  94 127 169 218 268 324 401
#     4  12  24  38  64  94 132 172 216 266 322 398
#     4  10  24  41  63  94 130 172 222 268 324 391
#     4  11  22  38  65  93 132 170 213 272 332 387
#     4  11  21  40  66  94 127 164 216 277 322 391
#
# _framework density 22.525853999999999
#
# number of rings (size 3 to 8) (size 9 to 14) (size 15 to 20)
#    0.000    1.867    3.333    0.000    1.867    3.733 
#    0.000    4.000   11.733    0.000    0.000    0.000 
#    0.000    0.000    0.000    0.000    0.000    0.000 
#
# Total GULP energy -371662.533692 kJ/mol
# GULP energy per Si atom -12388.751123 kJ/mol
# Density = 2.247458 g / cm^3
# Si number density = 22.525854 Si / 1000 Ang^3
#
#
#
# Elastic Constant Matrix: (Units=GPa)
#
#
# Indices 1 2 3 4 5 6 
#
# 1 30.3157 33.7954 18.1690 0.0000 -12.9651 0.0000
# 2 33.7954 118.1478 42.9095 0.0000 -4.6485 0.0000
# 3 18.1690 42.9095 123.2038 0.0000 -0.1930 0.0000
# 4 0.0000 0.0000 0.0000 27.8144 0.0000 -9.1780
# 5 -12.9651 -4.6485 -0.1930 0.0000 27.3355 0.0000
# 6 0.0000 0.0000 0.0000 -9.1780 0.0000 34.8736
#
#
#
# Elastic Compliance Matrix: (Units=1/GPa)
#
#
# Indices 1 2 3 4 5 6 
#
# 1 0.065507 -0.016179 -0.003981 0.000000 0.028290 0.000000
# 2 -0.016179 0.013758 -0.002414 0.000000 -0.005351 0.000000
# 3 -0.003981 -0.002414 0.009541 0.000000 -0.002231 0.000000
# 4 0.000000 0.000000 0.000000 0.039372 0.000000 0.010362
# 5 0.028290 -0.005351 -0.002231 0.000000 0.049075 0.000000
# 6 0.000000 0.000000 0.000000 0.010362 0.000000 0.031402
#
#
# Mechanical properties :
#
#
# Convention : Reuss Voigt Hill
#
# Bulk Modulus (GPa) = 22.90545 51.26834 37.08689
# Shear Modulus (GPa) = 18.63197 29.79095 24.21146
#
# Velocity S-wave (km/s) = 2.87912 3.64060 3.28202
# Velocity P-wave (km/s) = 4.60902 6.36248 5.55536
#
# Compressibility (1/GPa) = 0.04365773
#
# Stress axis : x y z
#
# Youngs Moduli (GPa) = 15.26549 72.68468 104.81014
#
# Poissons Ratio (x) = 1.17595 0.41728
# Poissons Ratio (y) = 0.24698 0.25303
# Poissons Ratio (z) = 0.06078 0.17547
#
# Static dielectric constant tensor:
#      x y z
#    x 3.701150 0.000000 -0.082250 
#    y 0.000000 4.030180 0.000000 
#    z -0.082250 0.000000 4.963530 
# 
# 
# High freq. dielectric constant tensor:
#      x y z
#    x 1.856490 0.000000 -0.009750 
#    y 0.000000 1.886520 0.000000 
#    z -0.009750 0.000000 1.911160 
# 
# From -- ./inp_files/82563.got.cif
#   From: 2010.06.25/outbox.cif.g09.slc.cpg/sg15_42_cif.got.tgz:82563.got - 2010.06.28 07:06:18.
