data_PCOD8143041
_publ_section_title
;
Structure prediction by ZEFSAII (Michael W. Deem and Ramdas Pophale) SiO2 
 PCOD8143041
Probable space group: C 2/C
;
_chemical_formula_sum "Si O2"
_cell_formula_units_Z 52
_cell_length_a 15.616657
_cell_length_b 10.837743
_cell_length_c 17.054386
_cell_angle_alpha 90.000000
_cell_angle_beta 122.352892
_cell_angle_gamma 90.000000
_cell_volume 2438.375359
_symmetry_space_group_name_H-M "C 2/C"
_symmetry_group_IT_number 15
_symmetry_cell_setting 'monoclinic'
loop_
_space_group_symop_operation_xyz
x,y,z
-x,y,1/2-z
-x,-y,-z
x,-y,1/2+z
1/2+x,1/2+y,z
1/2-x,1/2+y,1/2-z
1/2-x,1/2-y,-z
1/2+x,1/2-y,1/2+z
loop_
_atom_site_type_symbol
_atom_site_label
_atom_site_fract_x
_atom_site_fract_y
_atom_site_fract_z
Si Si1 0.322776 0.100876 0.034773
Si Si2 0.846578 0.248893 0.695499
Si Si3 0.950575 0.420795 0.855049
Si Si4 0.850937 0.340300 0.369712
Si Si5 0.000000 0.038591 0.750000
Si Si6 0.608239 0.506466 0.454934
Si Si7 0.014380 0.803617 0.016794
O O1 0.319411 0.220856 0.090820
O O2 0.433167 0.034027 0.097579
O O3 0.316309 0.139032 0.942111
O O4 0.229212 0.009036 0.005796
O O5 0.910449 0.367243 0.753896
O O6 0.751145 0.229175 0.708993
O O7 0.909917 0.124640 0.736946
O O8 0.876852 0.533467 0.839379
O O9 0.938658 0.313513 0.915053
O O10 0.945345 0.247903 0.411857
O O11 0.049536 0.957153 0.844844
O O12 0.555558 0.380237 0.457592
O O13 0.598386 0.612246 0.516178
#
# Coordination Sequence:
#
# PCOD8143041 Si02
#       7
#     8   8   8   8   4   8   8
#     4  11  20  39  64  92 116 167 210 249 313 364
#     4  12  21  36  66  92 122 157 217 264 299 362
#     4  11  24  40  63  95 126 165 207 264 308 373
#     4  11  23  40  63  88 127 164 204 259 317 369
#     4  12  20  38  62  98 118 152 220 266 300 360
#     4  11  22  36  68  92 122 166 208 264 307 369
#     4  10  21  40  60  93 125 162 204 255 317 375
#
# _framework density 21.325675
#
# number of rings (size 3 to 8) (size 9 to 14) (size 15 to 20)
#    0.000    0.923    6.154    3.231    0.000    2.462 
#    0.000    3.077    6.769    0.000    0.000    0.000 
#    0.000    0.000    0.000    0.000    0.000    0.000 
#
# Total GULP energy -322174.937238 kJ/mol
# GULP energy per Si atom -12391.343740 kJ/mol
# Density = 2.127714 g / cm^3
# Si number density = 21.325675 Si / 1000 Ang^3
#
#
#
# Elastic Constant Matrix: (Units=GPa)
#
#
# Indices 1 2 3 4 5 6 
#
# 1 103.6976 31.5429 30.7899 0.0000 13.0947 0.0000
# 2 31.5429 38.3807 11.1490 0.0000 0.1910 0.0000
# 3 30.7899 11.1490 66.9345 0.0000 6.6765 0.0000
# 4 0.0000 0.0000 0.0000 17.0498 0.0000 4.3515
# 5 13.0947 0.1910 6.6765 0.0000 26.6832 0.0000
# 6 0.0000 0.0000 0.0000 4.3515 0.0000 36.3895
#
#
#
# Elastic Compliance Matrix: (Units=1/GPa)
#
#
# Indices 1 2 3 4 5 6 
#
# 1 0.015143 -0.011109 -0.004494 0.000000 -0.006228 0.000000
# 2 -0.011109 0.035553 -0.001364 0.000000 0.005539 0.000000
# 3 -0.004494 -0.001364 0.017449 0.000000 -0.002151 0.000000
# 4 0.000000 0.000000 0.000000 0.060498 0.000000 -0.007234
# 5 -0.006228 0.005539 -0.002151 0.000000 0.041031 0.000000
# 6 0.000000 0.000000 0.000000 -0.007234 0.000000 0.028346
#
#
# Mechanical properties :
#
#
# Convention : Reuss Voigt Hill
#
# Bulk Modulus (GPa) = 29.23075 39.55295 34.39185
# Shear Modulus (GPa) = 20.54569 25.05991 22.80280
#
# Velocity S-wave (km/s) = 3.10728 3.43170 3.27351
# Velocity P-wave (km/s) = 5.15850 5.85572 5.51813
#
# Compressibility (1/GPa) = 0.03421055
#
# Stress axis : x y z
#
# Youngs Moduli (GPa) = 66.03503 28.12669 57.30929
#
# Poissons Ratio (x) = 0.31246 0.25757
# Poissons Ratio (y) = 0.73358 0.07819
# Poissons Ratio (z) = 0.29679 0.03837
#
# Static dielectric constant tensor:
#      x y z
#    x 4.021700 0.000000 0.291660 
#    y 0.000000 3.467550 0.000000 
#    z 0.291660 0.000000 4.152660 
# 
# 
# High freq. dielectric constant tensor:
#      x y z
#    x 1.837110 0.000000 0.018310 
#    y 0.000000 1.798390 0.000000 
#    z 0.018310 0.000000 1.842520 
# 
# From -- ./inp_files/247891.got.cif
#   From: 2010.06.25/outbox.cif.g09.slc.cpg/sg15_124_cif.got.tgz:247891.got - 2010.06.28 07:06:18.
