data_PCOD8143923
_publ_section_title
;
Structure prediction by ZEFSAII (Michael W. Deem and Ramdas Pophale) SiO2 
 PCOD8143923
Probable space group: C 2/C
;
_chemical_formula_sum "Si O2"
_cell_formula_units_Z 48
_cell_length_a 16.989010
_cell_length_b 15.556577
_cell_length_c 17.847019
_cell_angle_alpha 90.000000
_cell_angle_beta 151.784902
_cell_angle_gamma 90.000000
_cell_volume 2230.024504
_symmetry_space_group_name_H-M "C 2/C"
_symmetry_group_IT_number 15
_symmetry_cell_setting 'monoclinic'
loop_
_space_group_symop_operation_xyz
x,y,z
-x,y,1/2-z
-x,-y,-z
x,-y,1/2+z
1/2+x,1/2+y,z
1/2-x,1/2+y,1/2-z
1/2-x,1/2-y,-z
1/2+x,1/2-y,1/2+z
loop_
_atom_site_type_symbol
_atom_site_label
_atom_site_fract_x
_atom_site_fract_y
_atom_site_fract_z
Si Si1 0.401714 0.179795 0.373783
Si Si2 0.804186 0.508040 0.086660
Si Si3 0.816653 0.332263 0.281108
Si Si4 0.190163 0.324690 0.397596
Si Si5 0.864555 0.671319 0.072177
Si Si6 0.695806 0.518273 0.160219
O O1 0.306968 0.269098 0.277112
O O2 0.494687 0.182587 0.532296
O O3 0.549203 0.175035 0.436042
O O4 0.267318 0.101468 0.264715
O O5 0.718653 0.414444 0.001158
O O6 0.756432 0.581937 0.985701
O O7 0.746183 0.541253 0.118540
O O8 0.000000 0.491891 0.250000
O O9 0.785163 0.304805 0.169090
O O10 0.781188 0.432751 0.264634
O O11 0.250000 0.250000 0.500000
O O12 0.000000 0.338082 0.250000
O O13 0.000000 0.661584 0.250000
O O14 0.750000 0.750000 0.000000
O O15 0.500000 0.500000 0.000000
#
# Coordination Sequence:
#
# PCOD8143923 Si02
#       6
#     8   8   8   8   8   8
#     4  12  23  43  67 101 141 179 230 292 355 422
#     4   9  19  41  65  91 126 176 228 280 342 410
#     4  11  25  40  65 101 134 175 231 290 355 424
#     4  10  21  41  67  88 125 173 225 279 340 405
#     4  11  22  40  68  93 132 180 231 275 341 413
#     4  11  23  41  67  96 137 183 231 292 352 421
#
# _framework density 21.524426999999999
#
# number of rings (size 3 to 8) (size 9 to 14) (size 15 to 20)
#    0.000    1.333    3.333    3.500    2.333    1.333 
#    3.000    0.833    0.000    0.000    0.000    0.000 
#    0.000    0.000    0.000    0.000    0.000    0.000 
#
# Total GULP energy -297318.040959 kJ/mol
# GULP energy per Si atom -12388.251707 kJ/mol
# Density = 2.147544 g / cm^3
# Si number density = 21.524427 Si / 1000 Ang^3
#
#
#
# Elastic Constant Matrix: (Units=GPa)
#
#
# Indices 1 2 3 4 5 6 
#
# 1 96.8611 46.1504 30.6751 -0.0142 5.2026 -0.0114
# 2 46.1504 184.0514 50.7113 -0.0148 -11.5566 -0.0141
# 3 30.6751 50.7113 83.3759 -0.0119 1.5469 -0.0147
# 4 -0.0142 -0.0148 -0.0119 51.3313 -0.0120 -2.7861
# 5 5.2026 -11.5566 1.5469 -0.0120 27.4133 -0.0123
# 6 -0.0114 -0.0141 -0.0147 -2.7861 -0.0123 39.5312
#
#
#
# Elastic Compliance Matrix: (Units=1/GPa)
#
#
# Indices 1 2 3 4 5 6 
#
# 1 0.012683 -0.002546 -0.003056 0.000001 -0.003308 0.000001
# 2 -0.002546 0.007290 -0.003567 0.000002 0.003758 0.000002
# 3 -0.003056 -0.003567 0.015321 0.000001 -0.001788 0.000003
# 4 0.000001 0.000002 0.000001 0.019556 0.000010 0.001378
# 5 -0.003308 0.003758 -0.001788 0.000010 0.038792 0.000013
# 6 0.000001 0.000002 0.000003 0.001378 0.000013 0.025394
#
#
# Mechanical properties :
#
#
# Convention : Reuss Voigt Hill
#
# Bulk Modulus (GPa) = 58.97801 68.81801 63.89801
# Shear Modulus (GPa) = 34.95861 39.43860 37.19860
#
# Velocity S-wave (km/s) = 4.03443 4.28515 4.16168
# Velocity P-wave (km/s) = 7.01157 7.51830 7.26935
#
# Compressibility (1/GPa) = 0.01695547
#
# Stress axis : x y z
#
# Youngs Moduli (GPa) = 78.84836 137.16559 65.26863
#
# Poissons Ratio (x) = 0.34918 0.19948
# Poissons Ratio (y) = 0.20072 0.23284
# Poissons Ratio (z) = 0.24099 0.48932
#
# Static dielectric constant tensor:
#      x y z
#    x 4.148340 -0.000090 0.108050 
#    y -0.000090 3.786000 -0.000030 
#    z 0.108050 -0.000030 3.619720 
# 
# 
# High freq. dielectric constant tensor:
#      x y z
#    x 1.847310 0.000000 0.004950 
#    y 0.000000 1.877690 0.000000 
#    z 0.004950 0.000000 1.812390 
# 
# From -- ./inp_files/211460.got.cif
#   From: 2010.06.25/outbox.cif.g09.slc.cpg/sg15_106_cif.got.tgz:211460.got - 2010.06.28 07:06:18.
