data_PCOD8143788
_publ_section_title
;
Structure prediction by ZEFSAII (Michael W. Deem and Ramdas Pophale) SiO2 
 PCOD8143788
Probable space group: C 2/C
;
_chemical_formula_sum "Si O2"
_cell_formula_units_Z 64
_cell_length_a 18.772619
_cell_length_b 16.028393
_cell_length_c 15.997864
_cell_angle_alpha 90.000000
_cell_angle_beta 141.157889
_cell_angle_gamma 90.000000
_cell_volume 3019.024115
_symmetry_space_group_name_H-M "C 2/C"
_symmetry_group_IT_number 15
_symmetry_cell_setting 'monoclinic'
loop_
_space_group_symop_operation_xyz
x,y,z
-x,y,1/2-z
-x,-y,-z
x,-y,1/2+z
1/2+x,1/2+y,z
1/2-x,1/2+y,1/2-z
1/2-x,1/2-y,-z
1/2+x,1/2-y,1/2+z
loop_
_atom_site_type_symbol
_atom_site_label
_atom_site_fract_x
_atom_site_fract_y
_atom_site_fract_z
Si Si1 0.636570 0.536545 0.736944
Si Si2 0.488776 0.373477 0.838021
Si Si3 0.601853 0.997989 0.208478
Si Si4 0.722380 0.304377 0.765914
Si Si5 0.880922 0.815145 0.163569
Si Si6 0.293519 0.622721 0.862546
Si Si7 0.862695 0.547834 0.447846
Si Si8 0.264149 0.847256 0.620601
O O1 0.541441 0.466503 0.660406
O O2 0.591168 0.616410 0.742397
O O3 0.652330 0.558989 0.654347
O O4 0.756183 0.505002 0.885771
O O5 0.500000 0.363451 0.750000
O O6 0.394768 0.310814 0.789851
O O7 0.613024 0.351154 0.984952
O O8 0.607589 0.013445 0.115647
O O9 0.636624 0.082275 0.290569
O O10 0.688401 0.923646 0.312300
O O11 0.471767 0.967519 0.108465
O O12 0.751104 0.207626 0.780493
O O13 0.824004 0.354829 0.906259
O O14 0.705774 0.345366 0.658714
O O15 0.806454 0.744938 0.138242
O O16 0.000000 0.772012 0.250000
O O17 0.827406 0.864098 0.035341
#
# Coordination Sequence:
#
# PCOD8143788 Si02
#       8
#     8   8   8   8   8   8   8   8
#     4  10  21  41  64  98 127 174 217 267 333 396
#     4  11  26  43  67  94 132 171 220 289 326 389
#     4   9  19  36  63  89 122 167 214 265 314 391
#     4  10  22  42  67  95 131 170 220 276 328 393
#     4  11  24  38  64  97 141 174 208 268 333 402
#     4  11  23  39  70  98 122 171 225 268 334 399
#     4   8  18  38  61  88 126 164 216 266 317 380
#     4  10  23  41  59 100 133 170 219 263 330 400
#
# _framework density 21.198903000000001
#
# number of rings (size 3 to 8) (size 9 to 14) (size 15 to 20)
#    0.000    2.000    1.250    1.500    7.000    2.500 
#    2.250    0.000    0.000    0.000    0.000    0.000 
#    0.000    0.000    0.000    0.000    0.000    0.000 
#
# Total GULP energy -396695.263650 kJ/mol
# GULP energy per Si atom -12396.726989 kJ/mol
# Density = 2.115065 g / cm^3
# Si number density = 21.198903 Si / 1000 Ang^3
#
#
#
# Elastic Constant Matrix: (Units=GPa)
#
#
# Indices 1 2 3 4 5 6 
#
# 1 74.5932 13.4815 28.6737 0.0000 2.1261 0.0000
# 2 13.4815 79.2942 20.3796 0.0000 1.2344 0.0000
# 3 28.6737 20.3796 105.6909 0.0000 9.1854 0.0000
# 4 0.0000 0.0000 0.0000 24.9782 0.0000 2.0964
# 5 2.1261 1.2344 9.1854 0.0000 29.9734 0.0000
# 6 0.0000 0.0000 0.0000 2.0964 0.0000 21.0555
#
#
#
# Elastic Compliance Matrix: (Units=1/GPa)
#
#
# Indices 1 2 3 4 5 6 
#
# 1 0.015158 -0.001598 -0.003818 0.000000 0.000161 0.000000
# 2 -0.001598 0.013439 -0.002177 0.000000 0.000227 0.000000
# 3 -0.003818 -0.002177 0.011184 0.000000 -0.003067 0.000000
# 4 0.000000 0.000000 0.000000 0.040372 0.000000 -0.004020
# 5 0.000161 0.000227 -0.003067 0.000000 0.034282 0.000000
# 6 0.000000 0.000000 0.000000 -0.004020 0.000000 0.047894
#
#
# Mechanical properties :
#
#
# Convention : Reuss Voigt Hill
#
# Bulk Modulus (GPa) = 40.66188 42.73866 41.70027
# Shear Modulus (GPa) = 26.92302 28.33764 27.63033
#
# Velocity S-wave (km/s) = 3.56760 3.66013 3.61416
# Velocity P-wave (km/s) = 6.01607 6.16981 6.09343
#
# Compressibility (1/GPa) = 0.02459306
#
# Stress axis : x y z
#
# Youngs Moduli (GPa) = 65.97162 74.40962 89.41512
#
# Poissons Ratio (x) = 0.11893 0.34140
# Poissons Ratio (y) = 0.10545 0.19470
# Poissons Ratio (z) = 0.25189 0.16203
#
# Static dielectric constant tensor:
#      x y z
#    x 3.735890 0.000000 0.212350 
#    y 0.000000 3.714810 0.000000 
#    z 0.212350 0.000000 3.901220 
# 
# 
# High freq. dielectric constant tensor:
#      x y z
#    x 1.818880 0.000000 0.011630 
#    y 0.000000 1.830400 0.000000 
#    z 0.011630 0.000000 1.825280 
# 
# From -- ./inp_files/163291.got.cif
#   From: 2010.06.25/outbox.cif.g09.slc.cpg/sg15_82_cif.got.tgz:163291.got - 2010.06.28 07:06:18.
