data_PCOD8143993
_publ_section_title
;
Structure prediction by ZEFSAII (Michael W. Deem and Ramdas Pophale) SiO2 
 PCOD8143993
Probable space group: C 2/C
;
_chemical_formula_sum "Si O2"
_cell_formula_units_Z 48
_cell_length_a 22.141039
_cell_length_b 7.836198
_cell_length_c 11.403456
_cell_angle_alpha 90.000000
_cell_angle_beta 74.763535
_cell_angle_gamma 90.000000
_cell_volume 1908.971457
_symmetry_space_group_name_H-M "C 2/C"
_symmetry_group_IT_number 15
_symmetry_cell_setting 'monoclinic'
loop_
_space_group_symop_operation_xyz
x,y,z
-x,y,1/2-z
-x,-y,-z
x,-y,1/2+z
1/2+x,1/2+y,z
1/2-x,1/2+y,1/2-z
1/2-x,1/2-y,-z
1/2+x,1/2-y,1/2+z
loop_
_atom_site_type_symbol
_atom_site_label
_atom_site_fract_x
_atom_site_fract_y
_atom_site_fract_z
Si Si1 0.364557 0.394361 0.679108
Si Si2 0.664488 0.194803 0.595975
Si Si3 0.227574 0.039452 0.477073
Si Si4 0.951442 0.725847 0.473267
Si Si5 0.915100 0.373909 0.578564
Si Si6 0.640769 0.272183 0.182148
O O1 0.356790 0.220494 0.758527
O O2 0.301662 0.428602 0.635763
O O3 0.422563 0.385940 0.558631
O O4 0.379323 0.541403 0.763698
O O5 0.705699 0.358499 0.540766
O O6 0.606043 0.186650 0.538823
O O7 0.697939 0.003907 0.573723
O O8 0.208073 0.197396 0.577930
O O9 0.937475 0.567145 0.565942
O O10 0.914450 0.702143 0.371160
O O11 0.025486 0.744079 0.414257
O O12 0.858470 0.347440 0.702117
#
# Coordination Sequence:
#
# PCOD8143993 Si02
#       6
#     8   8   8   8   8   8
#     4  10  21  44  67  99 139 177 235 281 346 409
#     4  10  21  41  68  98 131 178 223 285 345 399
#     4   9  20  44  64  95 134 170 230 281 335 407
#     4  10  25  43  65 101 140 181 226 280 349 418
#     4  11  23  44  68  98 141 179 228 282 348 413
#     4  10  21  44  70  96 136 179 229 281 340 410
#
# _framework density 25.144431999999998
#
# number of rings (size 3 to 8) (size 9 to 14) (size 15 to 20)
#    0.000    2.000    1.667    0.500    2.333    1.333 
#   18.000    1.667    0.000    0.000    0.000    0.000 
#    0.000    0.000    0.000    0.000    0.000    0.000 
#
# Total GULP energy -297479.629411 kJ/mol
# GULP energy per Si atom -12394.984559 kJ/mol
# Density = 2.508720 g / cm^3
# Si number density = 25.144432 Si / 1000 Ang^3
#
#
#
# Elastic Constant Matrix: (Units=GPa)
#
#
# Indices 1 2 3 4 5 6 
#
# 1 123.1653 3.9589 46.8420 0.0000 8.3272 0.0000
# 2 3.9589 57.1637 30.2949 0.0000 -0.1300 0.0000
# 3 46.8420 30.2949 136.4886 0.0000 3.5460 0.0000
# 4 0.0000 0.0000 0.0000 26.6134 0.0000 3.7799
# 5 8.3272 -0.1300 3.5460 0.0000 31.9673 0.0000
# 6 0.0000 0.0000 0.0000 3.7799 0.0000 31.1384
#
#
#
# Elastic Compliance Matrix: (Units=1/GPa)
#
#
# Indices 1 2 3 4 5 6 
#
# 1 0.009548 0.001181 -0.003484 0.000000 -0.002096 0.000000
# 2 0.001181 0.019982 -0.004848 0.000000 0.000312 0.000000
# 3 -0.003484 -0.004848 0.009603 0.000000 -0.000177 0.000000
# 4 0.000000 0.000000 0.000000 0.038234 0.000000 -0.004641
# 5 -0.002096 0.000312 -0.000177 0.000000 0.031849 0.000000
# 6 0.000000 0.000000 0.000000 -0.004641 0.000000 0.032678
#
#
# Mechanical properties :
#
#
# Convention : Reuss Voigt Hill
#
# Bulk Modulus (GPa) = 40.27575 53.22323 46.74949
# Shear Modulus (GPa) = 30.39965 33.65861 32.02913
#
# Velocity S-wave (km/s) = 3.48084 3.66267 3.57291
# Velocity P-wave (km/s) = 5.67517 6.25299 5.97107
#
# Compressibility (1/GPa) = 0.02482884
#
# Stress axis : x y z
#
# Youngs Moduli (GPa) = 104.73255 50.04474 104.13156
#
# Poissons Ratio (x) = -0.05908 0.36284
# Poissons Ratio (y) = -0.12365 0.50488
# Poissons Ratio (z) = 0.36494 0.24264
#
# Static dielectric constant tensor:
#      x y z
#    x 4.350000 0.000000 -0.364590 
#    y 0.000000 4.828750 0.000000 
#    z -0.364590 0.000000 4.885330 
# 
# 
# High freq. dielectric constant tensor:
#      x y z
#    x 1.977960 0.000000 -0.004800 
#    y 0.000000 2.025750 0.000000 
#    z -0.004800 0.000000 2.015140 
# 
# From -- ./inp_files/116730.got.cif
#   From: 2010.06.25/outbox.cif.g09.slc.cpg/sg15_59_cif.got.tgz:116730.got - 2010.06.28 07:06:18.
