data_PCOD8143207
_publ_section_title
;
Structure prediction by ZEFSAII (Michael W. Deem and Ramdas Pophale) SiO2 
 PCOD8143207
Probable space group: C 2/C
;
_chemical_formula_sum "Si O2"
_cell_formula_units_Z 24
_cell_length_a 4.796659
_cell_length_b 13.935669
_cell_length_c 16.287705
_cell_angle_alpha 90.000000
_cell_angle_beta 107.126740
_cell_angle_gamma 90.000000
_cell_volume 1040.466277
_symmetry_space_group_name_H-M "C 2/C"
_symmetry_group_IT_number 15
_symmetry_cell_setting 'monoclinic'
loop_
_space_group_symop_operation_xyz
x,y,z
-x,y,1/2-z
-x,-y,-z
x,-y,1/2+z
1/2+x,1/2+y,z
1/2-x,1/2+y,1/2-z
1/2-x,1/2-y,-z
1/2+x,1/2-y,1/2+z
loop_
_atom_site_type_symbol
_atom_site_label
_atom_site_fract_x
_atom_site_fract_y
_atom_site_fract_z
Si Si1 0.697334 0.388185 0.443802
Si Si2 0.806688 0.750005 0.306691
Si Si3 0.309719 0.388181 0.556200
O O1 0.509533 0.333066 0.360738
O O2 0.592936 0.360562 0.527333
O O3 0.671204 0.500002 0.421155
O O4 0.038269 0.360543 0.472671
O O5 0.500000 0.796077 0.250000
O O6 0.711923 0.666943 0.360734
O O7 0.000000 0.703936 0.250000
#
# Coordination Sequence:
#
# PCOD8143207 Si02
#       3
#     8   8   8
#     4  10  21  40  64  87 117 164 215 256 299 365
#     4  12  24  38  60  94 132 164 198 258 326 374
#     4  10  21  40  64  87 117 164 215 256 299 365
#
# _framework density 23.066580999999999
#
# number of rings (size 3 to 8) (size 9 to 14) (size 15 to 20)
#    0.000    1.333    0.000    6.000    0.000    1.333 
#    0.000    3.333    0.000    0.000    0.000    0.000 
#    0.000    0.000    0.000    0.000    0.000    0.000 
#
# Total GULP energy -148805.984753 kJ/mol
# GULP energy per Si atom -12400.498729 kJ/mol
# Density = 2.301408 g / cm^3
# Si number density = 23.066581 Si / 1000 Ang^3
#
#
#
# Elastic Constant Matrix: (Units=GPa)
#
#
# Indices 1 2 3 4 5 6 
#
# 1 113.9430 35.7948 37.1075 0.0000 2.2106 0.0000
# 2 35.7948 85.0803 58.8159 0.0000 -1.0432 0.0000
# 3 37.1075 58.8159 113.8178 0.0000 -2.1681 0.0000
# 4 0.0000 0.0000 0.0000 1.0487 0.0000 1.4125
# 5 2.2106 -1.0432 -2.1681 0.0000 14.9840 0.0000
# 6 0.0000 0.0000 0.0000 1.4125 0.0000 31.6821
#
#
#
# Elastic Compliance Matrix: (Units=1/GPa)
#
#
# Indices 1 2 3 4 5 6 
#
# 1 0.010391 -0.003155 -0.001796 0.000000 -0.002013 0.000000
# 2 -0.003155 0.019244 -0.008906 0.000000 0.000517 0.000000
# 3 -0.001796 -0.008906 0.014005 0.000000 0.001671 0.000000
# 4 0.000000 0.000000 0.000000 1.014467 0.000000 -0.045230
# 5 -0.002013 0.000517 0.001671 0.000000 0.067312 0.000000
# 6 0.000000 0.000000 0.000000 -0.045230 0.000000 0.033580
#
#
# Mechanical properties :
#
#
# Convention : Reuss Voigt Hill
#
# Bulk Modulus (GPa) = 62.78567 64.03083 63.40825
# Shear Modulus (GPa) = 4.19455 21.61783 12.90619
#
# Velocity S-wave (km/s) = 1.34996 3.06468 2.36798
# Velocity P-wave (km/s) = 5.45053 6.35157 5.91822
#
# Compressibility (1/GPa) = 0.01592720
#
# Stress axis : x y z
#
# Youngs Moduli (GPa) = 96.23394 51.96427 71.40068
#
# Poissons Ratio (x) = 0.16395 0.12822
# Poissons Ratio (y) = 0.30363 0.63589
# Poissons Ratio (z) = 0.17281 0.46279
#
# Static dielectric constant tensor:
#      x y z
#    x 4.809520 0.000000 0.035220 
#    y 0.000000 3.974450 0.000000 
#    z 0.035220 0.000000 4.050320 
# 
# 
# High freq. dielectric constant tensor:
#      x y z
#    x 1.944420 0.000000 0.001970 
#    y 0.000000 1.904680 0.000000 
#    z 0.001970 0.000000 1.901980 
# 
# From -- ./inp_files/101942.got.cif
#   From: 2010.06.25/outbox.cif.g09.slc.cpg/sg15_51_cif.got.tgz:101942.got - 2010.06.28 07:06:18.
