data_PCOD8143141
_publ_section_title
;
Structure prediction by ZEFSAII (Michael W. Deem and Ramdas Pophale) SiO2 
 PCOD8143141
Probable space group: C 2/C
;
_chemical_formula_sum "Si O2"
_cell_formula_units_Z 60
_cell_length_a 25.941273
_cell_length_b 8.856060
_cell_length_c 14.302053
_cell_angle_alpha 90.000000
_cell_angle_beta 112.097580
_cell_angle_gamma 90.000000
_cell_volume 3044.363522
_symmetry_space_group_name_H-M "C 2/C"
_symmetry_group_IT_number 15
_symmetry_cell_setting 'monoclinic'
loop_
_space_group_symop_operation_xyz
x,y,z
-x,y,1/2-z
-x,-y,-z
x,-y,1/2+z
1/2+x,1/2+y,z
1/2-x,1/2+y,1/2-z
1/2-x,1/2-y,-z
1/2+x,1/2-y,1/2+z
loop_
_atom_site_type_symbol
_atom_site_label
_atom_site_fract_x
_atom_site_fract_y
_atom_site_fract_z
Si Si1 0.535377 0.422538 0.603468
Si Si2 0.862174 0.539496 0.744661
Si Si3 0.751458 0.122299 0.360179
Si Si4 0.096997 0.683201 0.375952
Si Si5 0.843670 0.115552 0.263967
Si Si6 0.500000 0.394858 0.250000
Si Si7 0.800758 0.108443 0.584153
Si Si8 0.053071 0.400269 0.048855
O O1 0.500000 0.500000 0.500000
O O2 0.601486 0.461031 0.652571
O O3 0.504265 0.486426 0.670802
O O4 0.531285 0.242496 0.592932
O O5 0.803089 0.458352 0.718044
O O6 0.893599 0.471892 0.675196
O O7 0.854789 0.718480 0.730778
O O8 0.899886 0.507686 0.862098
O O9 0.797513 0.113266 0.312078
O O10 0.770278 0.042358 0.470666
O O11 0.740883 0.298817 0.376474
O O12 0.153836 0.774433 0.422988
O O13 0.077399 0.648578 0.466462
O O14 0.053089 0.786872 0.292058
O O15 0.826174 0.026982 0.159713
O O16 0.000000 0.500000 0.000000
#
# Coordination Sequence:
#
# PCOD8143141 Si02
#       8
#     8   8   8   8   8   4   8   8
#     4  11  24  39  64  97 125 165 219 262 320 382
#     4  10  24  40  62  97 126 168 216 268 322 393
#     4  10  22  39  64  90 125 169 215 262 326 384
#     4  11  22  42  65  88 129 173 210 267 334 387
#     4  11  22  40  62  92 129 161 215 271 314 381
#     4  12  22  40  70  94 128 170 216 276 316 392
#     4  10  21  40  63  88 121 172 214 260 329 384
#     4  11  24  43  66  92 132 172 212 267 327 389
#
# _framework density 19.708552999999998
#
# number of rings (size 3 to 8) (size 9 to 14) (size 15 to 20)
#    0.000    1.333    2.667    3.200    0.000    4.800 
#    0.000    2.667    0.000    0.000    0.000    0.000 
#    0.000    0.000    0.000    0.000    0.000    0.000 
#
# Total GULP energy -371918.896681 kJ/mol
# GULP energy per Si atom -12397.296556 kJ/mol
# Density = 1.966370 g / cm^3
# Si number density = 19.708553 Si / 1000 Ang^3
#
#
#
# Elastic Constant Matrix: (Units=GPa)
#
#
# Indices 1 2 3 4 5 6 
#
# 1 101.9113 59.4837 57.2974 0.0000 -0.7292 0.0000
# 2 59.4837 97.7763 72.7854 0.0000 0.0175 0.0000
# 3 57.2974 72.7854 149.1593 0.0000 11.2151 0.0000
# 4 0.0000 0.0000 0.0000 40.3168 0.0000 4.6440
# 5 -0.7292 0.0175 11.2151 0.0000 40.7984 0.0000
# 6 0.0000 0.0000 0.0000 4.6440 0.0000 27.7726
#
#
#
# Elastic Compliance Matrix: (Units=1/GPa)
#
#
# Indices 1 2 3 4 5 6 
#
# 1 0.015672 -0.007856 -0.002254 0.000000 0.000903 0.000000
# 2 -0.007856 0.020195 -0.006969 0.000000 0.001767 0.000000
# 3 -0.002254 -0.006969 0.011206 0.000000 -0.003118 0.000000
# 4 0.000000 0.000000 0.000000 0.025291 0.000000 -0.004229
# 5 0.000903 0.001767 -0.003118 0.000000 0.025383 0.000000
# 6 0.000000 0.000000 0.000000 -0.004229 0.000000 0.036714
#
#
# Mechanical properties :
#
#
# Convention : Reuss Voigt Hill
#
# Bulk Modulus (GPa) = 77.44729 80.88663 79.16696
# Shear Modulus (GPa) = 28.91446 32.39625 30.65536
#
# Velocity S-wave (km/s) = 3.83443 4.05874 3.94818
# Velocity P-wave (km/s) = 7.68020 7.94323 7.81282
#
# Compressibility (1/GPa) = 0.01291201
#
# Stress axis : x y z
#
# Youngs Moduli (GPa) = 63.80822 49.51825 89.24172
#
# Poissons Ratio (x) = 0.38902 0.20119
# Poissons Ratio (y) = 0.50129 0.62196
# Poissons Ratio (z) = 0.14385 0.34511
#
# Static dielectric constant tensor:
#      x y z
#    x 3.731530 0.000000 0.260840 
#    y 0.000000 3.613220 0.000000 
#    z 0.260840 0.000000 3.826040 
# 
# 
# High freq. dielectric constant tensor:
#      x y z
#    x 1.780010 0.000000 0.011920 
#    y 0.000000 1.760040 0.000000 
#    z 0.011920 0.000000 1.785970 
# 
# From -- ./inp_files/172419.got.cif
#   From: 2010.06.25/outbox.cif.g09.slc.cpg/sg15_87_cif.got.tgz:172419.got - 2010.06.28 07:06:18.
