data_PCOD8143738
_publ_section_title
;
Structure prediction by ZEFSAII (Michael W. Deem and Ramdas Pophale) SiO2 
 PCOD8143738
Probable space group: C 2/C
;
_chemical_formula_sum "Si O2"
_cell_formula_units_Z 48
_cell_length_a 20.992674
_cell_length_b 13.021385
_cell_length_c 17.828359
_cell_angle_alpha 90.000000
_cell_angle_beta 26.453384
_cell_angle_gamma 90.000000
_cell_volume 2170.972538
_symmetry_space_group_name_H-M "C 2/C"
_symmetry_group_IT_number 15
_symmetry_cell_setting 'monoclinic'
loop_
_space_group_symop_operation_xyz
x,y,z
-x,y,1/2-z
-x,-y,-z
x,-y,1/2+z
1/2+x,1/2+y,z
1/2-x,1/2+y,1/2-z
1/2-x,1/2-y,-z
1/2+x,1/2-y,1/2+z
loop_
_atom_site_type_symbol
_atom_site_label
_atom_site_fract_x
_atom_site_fract_y
_atom_site_fract_z
Si Si1 0.492034 0.155930 0.449508
Si Si2 0.411538 0.063714 0.680233
Si Si3 0.114540 0.345031 0.071514
Si Si4 0.129105 0.149179 0.962850
Si Si5 0.896396 0.037517 0.289060
Si Si6 0.320049 0.347927 0.264532
O O1 0.442691 0.159739 0.589064
O O2 0.599259 0.241211 0.304646
O O3 0.351033 0.162346 0.546369
O O4 0.579053 0.050039 0.361518
O O5 0.523578 0.064205 0.629688
O O6 0.248627 0.079452 0.878545
O O7 0.000000 0.292111 0.250000
O O8 0.159465 0.264689 0.959804
O O9 0.251870 0.399994 0.964965
O O10 0.139962 0.125980 0.863020
O O11 0.972621 0.114003 0.151240
O O12 0.000000 0.014630 0.250000
O O13 0.868078 0.932018 0.274495
#
# Coordination Sequence:
#
# PCOD8143738 Si02
#       6
#     8   8   8   8   8   8
#     4  10  22  41  69 100 136 180 229 290 341 414
#     4  10  21  41  64 102 139 176 224 283 356 410
#     4  12  24  44  69 101 146 185 231 285 358 425
#     4  11  24  40  73 105 137 179 232 302 353 416
#     4  12  27  46  65 104 146 190 235 284 352 423
#     4  11  24  43  71 104 138 181 237 291 352 415
#
# _framework density 22.109907
#
# number of rings (size 3 to 8) (size 9 to 14) (size 15 to 20)
#    0.000    1.000    3.333    3.000    4.667    2.000 
#    0.000    1.667    0.000    0.000    0.000    0.000 
#    0.000    0.000    0.000    0.000    0.000    0.000 
#
# Total GULP energy -297345.826834 kJ/mol
# GULP energy per Si atom -12389.409451 kJ/mol
# Density = 2.205958 g / cm^3
# Si number density = 22.109907 Si / 1000 Ang^3
#
#
#
# Elastic Constant Matrix: (Units=GPa)
#
#
# Indices 1 2 3 4 5 6 
#
# 1 107.9631 30.5789 39.2985 0.0001 -30.4191 -0.0001
# 2 30.5789 103.0197 44.9359 0.0001 -16.1805 0.0001
# 3 39.2985 44.9359 117.5694 0.0004 -24.2054 0.0002
# 4 0.0001 0.0001 0.0004 25.7575 -0.0002 -12.1751
# 5 -30.4191 -16.1805 -24.2054 -0.0002 32.8861 -0.0002
# 6 -0.0001 0.0001 0.0002 -12.1751 -0.0002 28.4238
#
#
#
# Elastic Compliance Matrix: (Units=1/GPa)
#
#
# Indices 1 2 3 4 5 6 
#
# 1 0.013198 -0.001571 -0.001717 0.000000 0.010171 0.000000
# 2 -0.001571 0.012074 -0.003731 0.000000 0.001741 0.000000
# 3 -0.001717 -0.003731 0.011551 0.000000 0.005078 0.000000
# 4 0.000000 0.000000 0.000000 0.048680 0.000000 0.020852
# 5 0.010171 0.001741 0.005078 0.000000 0.044411 0.000000
# 6 0.000000 0.000000 0.000000 0.020852 0.000000 0.044113
#
#
# Mechanical properties :
#
#
# Convention : Reuss Voigt Hill
#
# Bulk Modulus (GPa) = 43.88880 62.01987 52.95434
# Shear Modulus (GPa) = 25.55440 31.66274 28.60857
#
# Velocity S-wave (km/s) = 3.40338 3.78836 3.60102
# Velocity P-wave (km/s) = 5.94452 6.87366 6.42591
#
# Compressibility (1/GPa) = 0.02278485
#
# Stress axis : x y z
#
# Youngs Moduli (GPa) = 75.76773 82.82116 86.57164
#
# Poissons Ratio (x) = 0.13012 0.14865
# Poissons Ratio (y) = 0.11904 0.32302
# Poissons Ratio (z) = 0.13010 0.30903
#
# Static dielectric constant tensor:
#      x y z
#    x 3.929410 0.000000 -0.158770 
#    y 0.000000 3.735920 0.000000 
#    z -0.158770 0.000000 4.271410 
# 
# 
# High freq. dielectric constant tensor:
#      x y z
#    x 1.865850 0.000000 -0.019450 
#    y 0.000000 1.854650 0.000000 
#    z -0.019450 0.000000 1.881370 
# 
# From -- ./inp_files/255677.got.cif
#   From: 2010.06.25/outbox.cif.g09.slc.cpg/sg15_128_cif.got.tgz:255677.got - 2010.06.28 07:06:18.
