data_PCOD8143467
_publ_section_title
;
Structure prediction by ZEFSAII (Michael W. Deem and Ramdas Pophale) SiO2 
 PCOD8143467
Probable space group: C 2/C
;
_chemical_formula_sum "Si O2"
_cell_formula_units_Z 56
_cell_length_a 18.230210
_cell_length_b 16.068129
_cell_length_c 8.600974
_cell_angle_alpha 90.000000
_cell_angle_beta 92.858611
_cell_angle_gamma 90.000000
_cell_volume 2516.308371
_symmetry_space_group_name_H-M "C 2/C"
_symmetry_group_IT_number 15
_symmetry_cell_setting 'monoclinic'
loop_
_space_group_symop_operation_xyz
x,y,z
-x,y,1/2-z
-x,-y,-z
x,-y,1/2+z
1/2+x,1/2+y,z
1/2-x,1/2+y,1/2-z
1/2-x,1/2-y,-z
1/2+x,1/2-y,1/2+z
loop_
_atom_site_type_symbol
_atom_site_label
_atom_site_fract_x
_atom_site_fract_y
_atom_site_fract_z
Si Si1 0.071081 0.411214 0.353394
Si Si2 0.355815 0.251958 0.640103
Si Si3 0.118132 0.909056 0.669655
Si Si4 0.647526 0.012724 0.587871
Si Si5 0.213730 0.393062 0.811577
Si Si6 0.080340 0.083106 0.821281
Si Si7 0.303108 0.713675 0.799068
O O1 0.080739 0.314245 0.392418
O O2 0.075679 0.463826 0.513436
O O3 0.136133 0.436289 0.243463
O O4 0.000000 0.432485 0.250000
O O5 0.398279 0.323977 0.739291
O O6 0.325321 0.292973 0.480771
O O7 0.286439 0.207112 0.721261
O O8 0.202638 0.900937 0.631808
O O9 0.071768 0.914437 0.506524
O O10 0.098782 0.989287 0.770981
O O11 0.705739 0.942222 0.646254
O O12 0.670857 0.073331 0.454427
O O13 0.179791 0.301905 0.779916
O O14 0.149005 0.142461 0.780536
O O15 0.000000 0.112147 0.750000
#
# Coordination Sequence:
#
# PCOD8143467 Si02
#       7
#     8   8   8   8   8   8   8
#     4  11  23  39  61  92 132 169 207 258 324 388
#     4  10  23  42  67  96 129 167 222 270 322 380
#     4  11  25  42  69  96 125 172 216 276 322 385
#     4  10  22  38  63  95 127 168 211 260 319 386
#     4  10  21  40  67  98 128 164 217 272 321 372
#     4  12  27  45  67  97 136 175 218 268 336 400
#     4  10  23  43  64  97 131 167 215 277 321 377
#
# _framework density 22.254823999999999
#
# number of rings (size 3 to 8) (size 9 to 14) (size 15 to 20)
#    0.000    1.429    1.429    2.571    8.000    2.857 
#    0.000    0.714    0.000    0.000    0.000    0.000 
#    0.000    0.000    0.000    0.000    0.000    0.000 
#
# Total GULP energy -346924.847147 kJ/mol
# GULP energy per Si atom -12390.173112 kJ/mol
# Density = 2.220417 g / cm^3
# Si number density = 22.254824 Si / 1000 Ang^3
#
#
#
# Elastic Constant Matrix: (Units=GPa)
#
#
# Indices 1 2 3 4 5 6 
#
# 1 44.1217 16.1311 4.5800 0.0000 14.8125 0.0000
# 2 16.1311 96.8082 26.1312 0.0000 4.5704 0.0000
# 3 4.5800 26.1312 93.3413 0.0000 22.3614 0.0000
# 4 0.0000 0.0000 0.0000 28.0421 0.0000 9.7583
# 5 14.8125 4.5704 22.3614 0.0000 35.4738 0.0000
# 6 0.0000 0.0000 0.0000 9.7583 0.0000 20.8934
#
#
#
# Elastic Compliance Matrix: (Units=1/GPa)
#
#
# Indices 1 2 3 4 5 6 
#
# 1 0.028635 -0.005003 0.003187 0.000000 -0.013321 0.000000
# 2 -0.005003 0.012060 -0.003839 0.000000 0.002955 0.000000
# 3 0.003187 -0.003839 0.013937 0.000000 -0.009621 0.000000
# 4 0.000000 0.000000 0.000000 0.042581 0.000000 -0.019888
# 5 -0.013321 0.002955 -0.009621 0.000000 0.039437 0.000000
# 6 0.000000 0.000000 0.000000 -0.019888 0.000000 0.057151
#
#
# Mechanical properties :
#
#
# Convention : Reuss Voigt Hill
#
# Bulk Modulus (GPa) = 23.08278 36.43954 29.76116
# Shear Modulus (GPa) = 22.77388 29.37711 26.07549
#
# Velocity S-wave (km/s) = 3.20241 3.63717 3.42669
# Velocity P-wave (km/s) = 4.90596 5.83506 5.39057
#
# Compressibility (1/GPa) = 0.04332234
#
# Stress axis : x y z
#
# Youngs Moduli (GPa) = 34.92230 82.91897 71.75370
#
# Poissons Ratio (x) = 0.41482 -0.22866
# Poissons Ratio (y) = 0.17471 0.27544
# Poissons Ratio (z) = -0.11129 0.31830
#
# Static dielectric constant tensor:
#      x y z
#    x 3.953300 0.000000 0.182960 
#    y 0.000000 4.116610 0.000000 
#    z 0.182960 0.000000 4.148550 
# 
# 
# High freq. dielectric constant tensor:
#      x y z
#    x 1.858540 0.000000 0.018170 
#    y 0.000000 1.885900 0.000000 
#    z 0.018170 0.000000 1.887130 
# 
# From -- ./inp_files/55638.got.cif
#   From: 2010.06.25/outbox.cif.g09.slc.cpg/sg15_28_cif.got.tgz:55638.got - 2010.06.28 07:06:18.
