data_PCOD8143212
_publ_section_title
;
Structure prediction by ZEFSAII (Michael W. Deem and Ramdas Pophale) SiO2 
 PCOD8143212
Probable space group: C 2/C
;
_chemical_formula_sum "Si O2"
_cell_formula_units_Z 28
_cell_length_a 7.236230
_cell_length_b 34.779167
_cell_length_c 5.055812
_cell_angle_alpha 90.000000
_cell_angle_beta 79.454078
_cell_angle_gamma 90.000000
_cell_volume 1250.903823
_symmetry_space_group_name_H-M "C 2/C"
_symmetry_group_IT_number 15
_symmetry_cell_setting 'monoclinic'
loop_
_space_group_symop_operation_xyz
x,y,z
-x,y,1/2-z
-x,-y,-z
x,-y,1/2+z
1/2+x,1/2+y,z
1/2-x,1/2+y,1/2-z
1/2-x,1/2-y,-z
1/2+x,1/2-y,1/2+z
loop_
_atom_site_type_symbol
_atom_site_label
_atom_site_fract_x
_atom_site_fract_y
_atom_site_fract_z
Si Si1 0.624732 0.214131 0.462290
Si Si2 0.223979 0.407145 0.221052
Si Si3 0.219933 0.364103 0.724204
Si Si4 0.500000 0.526896 0.750000
O O1 0.500000 0.227937 0.250000
O O2 0.750000 0.250000 0.500000
O O3 0.756206 0.179125 0.322375
O O4 0.500000 0.200964 0.750000
O O5 0.296417 0.374892 0.414162
O O6 0.311619 0.447490 0.286278
O O7 0.000000 0.411598 0.250000
O O8 0.306414 0.393406 0.917326
O O9 0.000000 0.370064 0.750000
O O10 0.500000 0.500000 0.500000
#
# Coordination Sequence:
#
# PCOD8143212 Si02
#       4
#     8   8   8   4
#     4  11  22  39  61  90 132 169 214 269 327 377
#     4  10  21  40  64  89 117 163 210 247 311 379
#     4   9  18  37  63  83 117 163 208 252 300 367
#     4  12  26  42  62  94 132 154 196 268 322 378
#
# _framework density 22.383815999999999
#
# number of rings (size 3 to 8) (size 9 to 14) (size 15 to 20)
#    0.000    1.714    0.000    6.857    0.000    1.143 
#    7.714    0.000    0.000    0.000    0.000    0.000 
#    0.000    0.000    0.000    0.000    0.000    0.000 
#
# Total GULP energy -173478.130373 kJ/mol
# GULP energy per Si atom -12391.295027 kJ/mol
# Density = 2.233287 g / cm^3
# Si number density = 22.383816 Si / 1000 Ang^3
#
#
#
# Elastic Constant Matrix: (Units=GPa)
#
#
# Indices 1 2 3 4 5 6 
#
# 1 60.4125 48.2972 37.3574 0.0000 22.1350 0.0000
# 2 48.2972 175.0357 71.3925 0.0000 21.2520 0.0000
# 3 37.3574 71.3925 157.2931 0.0000 23.0931 0.0000
# 4 0.0000 0.0000 0.0000 52.4879 0.0000 16.4576
# 5 22.1350 21.2520 23.0931 0.0000 30.9216 0.0000
# 6 0.0000 0.0000 0.0000 16.4576 0.0000 36.4608
#
#
#
# Elastic Compliance Matrix: (Units=1/GPa)
#
#
# Indices 1 2 3 4 5 6 
#
# 1 0.027015 -0.004846 -0.002096 0.000000 -0.014442 0.000000
# 2 -0.004846 0.008094 -0.002488 0.000000 -0.000236 0.000000
# 3 -0.002096 -0.002488 0.008439 0.000000 -0.003091 0.000000
# 4 0.000000 0.000000 0.000000 0.022193 0.000000 -0.010017
# 5 -0.014442 -0.000236 -0.003091 0.000000 0.045149 0.000000
# 6 0.000000 0.000000 0.000000 -0.010017 0.000000 0.031948
#
#
# Mechanical properties :
#
#
# Convention : Reuss Voigt Hill
#
# Bulk Modulus (GPa) = 40.50729 78.53727 59.52228
# Shear Modulus (GPa) = 29.42453 39.68702 34.55577
#
# Velocity S-wave (km/s) = 3.62960 4.21530 3.93336
# Velocity P-wave (km/s) = 5.97506 7.67166 6.87589
#
# Compressibility (1/GPa) = 0.02468691
#
# Stress axis : x y z
#
# Youngs Moduli (GPa) = 37.01699 123.55456 118.50268
#
# Poissons Ratio (x) = 0.59868 0.24842
# Poissons Ratio (y) = 0.17937 0.29485
# Poissons Ratio (z) = 0.07760 0.30742
#
# Static dielectric constant tensor:
#      x y z
#    x 3.648180 0.000000 0.252020 
#    y 0.000000 4.119070 0.000000 
#    z 0.252020 0.000000 4.834250 
# 
# 
# High freq. dielectric constant tensor:
#      x y z
#    x 1.864130 0.000000 0.026210 
#    y 0.000000 1.876730 0.000000 
#    z 0.026210 0.000000 1.911750 
# 
# From -- ./inp_files/2205.got.cif
#   From: 2010.06.25/outbox.cif.g09.slc.cpg/sg15_2_cif.got.tgz:2205.got - 2010.06.28 07:06:18.
