data_PCOD8143291
_publ_section_title
;
Structure prediction by ZEFSAII (Michael W. Deem and Ramdas Pophale) SiO2 
 PCOD8143291
Probable space group: C 2/C
;
_chemical_formula_sum "Si O2"
_cell_formula_units_Z 48
_cell_length_a 20.725945
_cell_length_b 8.508677
_cell_length_c 14.164531
_cell_angle_alpha 90.000000
_cell_angle_beta 77.203884
_cell_angle_gamma 90.000000
_cell_volume 2435.882881
_symmetry_space_group_name_H-M "C 2/C"
_symmetry_group_IT_number 15
_symmetry_cell_setting 'monoclinic'
loop_
_space_group_symop_operation_xyz
x,y,z
-x,y,1/2-z
-x,-y,-z
x,-y,1/2+z
1/2+x,1/2+y,z
1/2-x,1/2+y,1/2-z
1/2-x,1/2-y,-z
1/2+x,1/2-y,1/2+z
loop_
_atom_site_type_symbol
_atom_site_label
_atom_site_fract_x
_atom_site_fract_y
_atom_site_fract_z
Si Si1 0.500000 0.237615 0.250000
Si Si2 0.890085 0.510955 0.803846
Si Si3 0.532815 0.503953 0.888480
Si Si4 0.275644 0.926395 0.483476
Si Si5 0.288730 0.893698 0.686752
Si Si6 0.500000 0.259721 0.750000
Si Si7 0.685817 0.525074 0.851814
O O1 0.561650 0.135665 0.192329
O O2 0.478156 0.336045 0.165791
O O3 0.846034 0.552086 0.909137
O O4 0.845875 0.477636 0.727068
O O5 0.933286 0.661894 0.767141
O O6 0.498002 0.363831 0.844140
O O7 0.610154 0.477660 0.878926
O O8 0.500000 0.500000 0.000000
O O9 0.250000 0.750000 0.500000
O O10 0.285003 0.985185 0.587529
O O11 0.219790 0.019938 0.441634
O O12 0.302649 0.709045 0.672857
O O13 0.218329 0.918810 0.759857
#
# Coordination Sequence:
#
# PCOD8143291 Si02
#       7
#     4   8   8   8   8   4   8
#     4  10  22  44  60  90 132 162 212 264 306 382
#     4  10  21  42  64  93 120 167 210 257 319 368
#     4  11  25  41  63  91 127 170 207 262 315 379
#     4   9  21  36  65  89 120 157 203 256 306 374
#     4  10  21  40  65  87 127 158 200 265 308 371
#     4  10  26  38  66  88 124 164 212 254 312 382
#     4  10  22  40  62  92 123 161 207 255 321 363
#
# _framework density 19.705380999999999
#
# number of rings (size 3 to 8) (size 9 to 14) (size 15 to 20)
#    0.000    2.000    1.667    0.000   11.667    2.667 
#    0.000    5.000    0.000    0.000    0.000    0.000 
#    0.000    0.000    0.000    0.000    0.000    0.000 
#
# Total GULP energy -297549.799428 kJ/mol
# GULP energy per Si atom -12397.908309 kJ/mol
# Density = 1.966053 g / cm^3
# Si number density = 19.705381 Si / 1000 Ang^3
#
#
#
# Elastic Constant Matrix: (Units=GPa)
#
#
# Indices 1 2 3 4 5 6 
#
# 1 131.2320 25.1552 58.6993 0.0000 -13.9037 0.0000
# 2 25.1552 59.8054 16.2892 0.0000 -7.1900 0.0000
# 3 58.6993 16.2892 123.2575 0.0000 3.3957 0.0000
# 4 0.0000 0.0000 0.0000 20.1435 0.0000 -7.5352
# 5 -13.9037 -7.1900 3.3957 0.0000 31.4334 0.0000
# 6 0.0000 0.0000 0.0000 -7.5352 0.0000 23.9515
#
#
#
# Elastic Compliance Matrix: (Units=1/GPa)
#
#
# Indices 1 2 3 4 5 6 
#
# 1 0.010838 -0.002645 -0.004942 0.000000 0.004723 0.000000
# 2 -0.002645 0.018569 -0.001283 0.000000 0.003216 0.000000
# 3 -0.004942 -0.001283 0.010736 0.000000 -0.003639 0.000000
# 4 0.000000 0.000000 0.000000 0.056266 0.000000 0.017701
# 5 0.004723 0.003216 -0.003639 0.000000 0.035031 0.000000
# 6 0.000000 0.000000 0.000000 0.017701 0.000000 0.047320
#
#
# Mechanical properties :
#
#
# Convention : Reuss Voigt Hill
#
# Bulk Modulus (GPa) = 44.63472 57.17582 50.90527
# Shear Modulus (GPa) = 24.51361 29.38243 26.94802
#
# Velocity S-wave (km/s) = 3.53087 3.86565 3.70205
# Velocity P-wave (km/s) = 6.27080 7.00019 6.64551
#
# Compressibility (1/GPa) = 0.02240408
#
# Stress axis : x y z
#
# Youngs Moduli (GPa) = 92.26836 53.85176 93.14049
#
# Poissons Ratio (x) = 0.14243 0.46030
# Poissons Ratio (y) = 0.24403 0.11951
# Poissons Ratio (z) = 0.45599 0.06910
#
# Static dielectric constant tensor:
#      x y z
#    x 4.000980 0.000000 0.255990 
#    y 0.000000 3.525900 0.000000 
#    z 0.255990 0.000000 3.920880 
# 
# 
# High freq. dielectric constant tensor:
#      x y z
#    x 1.788170 0.000000 0.006350 
#    y 0.000000 1.759540 0.000000 
#    z 0.006350 0.000000 1.771920 
# 
# From -- ./inp_files/166173.got.cif
#   From: 2010.06.25/outbox.cif.g09.slc.cpg/sg15_84_cif.got.tgz:166173.got - 2010.06.28 07:06:18.
