data_PCOD8143012
_publ_section_title
;
Structure prediction by ZEFSAII (Michael W. Deem and Ramdas Pophale) SiO2 
 PCOD8143012
Probable space group: C 2/C
;
_chemical_formula_sum "Si O2"
_cell_formula_units_Z 64
_cell_length_a 15.082974
_cell_length_b 26.345212
_cell_length_c 9.382646
_cell_angle_alpha 90.000000
_cell_angle_beta 112.251208
_cell_angle_gamma 90.000000
_cell_volume 3450.688006
_symmetry_space_group_name_H-M "C 2/C"
_symmetry_group_IT_number 15
_symmetry_cell_setting 'monoclinic'
loop_
_space_group_symop_operation_xyz
x,y,z
-x,y,1/2-z
-x,-y,-z
x,-y,1/2+z
1/2+x,1/2+y,z
1/2-x,1/2+y,1/2-z
1/2-x,1/2-y,-z
1/2+x,1/2-y,1/2+z
loop_
_atom_site_type_symbol
_atom_site_label
_atom_site_fract_x
_atom_site_fract_y
_atom_site_fract_z
Si Si1 0.202122 0.651827 0.636294
Si Si2 0.112875 0.549204 0.662929
Si Si3 0.890690 0.551651 0.506815
Si Si4 0.107095 0.708008 0.833461
Si Si5 0.408138 0.322904 0.616843
Si Si6 0.782992 0.348405 0.873965
Si Si7 0.090996 0.190186 0.715629
Si Si8 0.818877 0.712971 0.128754
O O1 0.179666 0.592948 0.640345
O O2 0.177258 0.684196 0.760269
O O3 0.315786 0.658591 0.677646
O O4 0.140025 0.674155 0.465772
O O5 0.135572 0.543840 0.843952
O O6 0.140309 0.497639 0.600158
O O7 0.003217 0.563325 0.563566
O O8 0.833421 0.597147 0.397790
O O9 0.110969 0.768243 0.823059
O O10 0.000000 0.686283 0.750000
O O11 0.145557 0.691246 0.008906
O O12 0.500000 0.347790 0.750000
O O13 0.315262 0.356323 0.597527
O O14 0.428778 0.319275 0.462462
O O15 0.764162 0.323324 0.708444
O O16 0.102092 0.250988 0.749537
O O17 0.000000 0.170225 0.750000
O O18 0.750000 0.750000 0.000000
#
# Coordination Sequence:
#
# PCOD8143012 Si02
#       8
#     8   8   8   8   8   8   8   8
#     4  11  22  39  58  81 117 158 192 240 294 351
#     4  10  21  40  59  87 119 145 192 245 301 359
#     4  10  22  37  62  88 114 150 190 245 301 362
#     4  11  21  35  60  85 111 152 199 239 287 349
#     4  11  23  35  57  83 116 154 199 242 281 347
#     4  12  21  40  61  84 114 161 205 236 295 361
#     4  11  23  37  53  83 121 154 194 241 292 344
#     4  10  24  36  55  83 120 155 196 246 290 346
#
# _framework density 18.547025000000001
#
# number of rings (size 3 to 8) (size 9 to 14) (size 15 to 20)
#    0.000    1.250    3.750    2.625    8.750    1.000 
#    0.000    0.000    0.000    0.750    0.000    3.500 
#    0.000    0.000    0.000    0.000    0.000    0.000 
#
# Total GULP energy -396772.603173 kJ/mol
# GULP energy per Si atom -12399.143849 kJ/mol
# Density = 1.850481 g / cm^3
# Si number density = 18.547025 Si / 1000 Ang^3
#
#
#
# Elastic Constant Matrix: (Units=GPa)
#
#
# Indices 1 2 3 4 5 6 
#
# 1 104.0478 53.3786 35.7244 0.0000 -0.8263 0.0000
# 2 53.3786 94.9597 47.8127 0.0000 -7.5721 0.0000
# 3 35.7244 47.8127 113.5083 0.0000 -9.9828 0.0000
# 4 0.0000 0.0000 0.0000 22.6644 0.0000 -2.5563
# 5 -0.8263 -7.5721 -9.9828 0.0000 28.5507 0.0000
# 6 0.0000 0.0000 0.0000 -2.5563 0.0000 26.7011
#
#
#
# Elastic Compliance Matrix: (Units=1/GPa)
#
#
# Indices 1 2 3 4 5 6 
#
# 1 0.013779 -0.007150 -0.001503 0.000000 -0.002023 0.000000
# 2 -0.007150 0.017149 -0.004737 0.000000 0.002685 0.000000
# 3 -0.001503 -0.004737 0.011518 0.000000 0.002727 0.000000
# 4 0.000000 0.000000 0.000000 0.044604 0.000000 0.004270
# 5 -0.002023 0.002685 0.002727 0.000000 0.036633 0.000000
# 6 0.000000 0.000000 0.000000 0.004270 0.000000 0.037860
#
#
# Mechanical properties :
#
#
# Convention : Reuss Voigt Hill
#
# Bulk Modulus (GPa) = 63.83128 65.14969 64.49049
# Shear Modulus (GPa) = 25.83369 27.28991 26.56180
#
# Velocity S-wave (km/s) = 3.73617 3.84003 3.78846
# Velocity P-wave (km/s) = 7.28715 7.40703 7.34734
#
# Compressibility (1/GPa) = 0.01566630
#
# Stress axis : x y z
#
# Youngs Moduli (GPa) = 72.57406 58.31126 86.81885
#
# Poissons Ratio (x) = 0.41693 0.13047
# Poissons Ratio (y) = 0.51891 0.41128
# Poissons Ratio (z) = 0.10906 0.27624
#
# Static dielectric constant tensor:
#      x y z
#    x 3.414270 0.000000 -0.036070 
#    y 0.000000 3.277850 0.000000 
#    z -0.036070 0.000000 3.657270 
# 
# 
# High freq. dielectric constant tensor:
#      x y z
#    x 1.708760 0.000000 -0.008600 
#    y 0.000000 1.692550 0.000000 
#    z -0.008600 0.000000 1.736560 
# 
# From -- ./inp_files/43585.got.cif
#   From: 2010.06.25/outbox.cif.g09.slc.cpg/sg15_22_cif.got.tgz:43585.got - 2010.06.28 07:06:18.
