data_PCOD8143756
_publ_section_title
;
Structure prediction by ZEFSAII (Michael W. Deem and Ramdas Pophale) SiO2 
 PCOD8143756
Probable space group: C 2/C
;
_chemical_formula_sum "Si O2"
_cell_formula_units_Z 48
_cell_length_a 26.822195
_cell_length_b 11.030223
_cell_length_c 14.841515
_cell_angle_alpha 90.000000
_cell_angle_beta 150.661013
_cell_angle_gamma 90.000000
_cell_volume 2151.450807
_symmetry_space_group_name_H-M "C 2/C"
_symmetry_group_IT_number 15
_symmetry_cell_setting 'monoclinic'
loop_
_space_group_symop_operation_xyz
x,y,z
-x,y,1/2-z
-x,-y,-z
x,-y,1/2+z
1/2+x,1/2+y,z
1/2-x,1/2+y,1/2-z
1/2-x,1/2-y,-z
1/2+x,1/2-y,1/2+z
loop_
_atom_site_type_symbol
_atom_site_label
_atom_site_fract_x
_atom_site_fract_y
_atom_site_fract_z
Si Si1 0.914181 0.338616 0.678079
Si Si2 0.613895 0.621640 0.258460
Si Si3 0.726856 0.231648 0.292327
Si Si4 0.740830 0.718675 0.608572
Si Si5 0.620342 0.009028 0.209680
Si Si6 0.067277 0.148501 0.652681
O O1 0.842912 0.254548 0.502986
O O2 0.863644 0.442350 0.662133
O O3 0.969059 0.241885 0.829127
O O4 0.000000 0.400144 0.750000
O O5 0.636929 0.682804 0.391844
O O6 0.712472 0.652178 0.350707
O O7 0.586549 0.481129 0.227562
O O8 0.513294 0.671510 0.053301
O O9 0.710290 0.271737 0.163746
O O10 0.681331 0.097285 0.236620
O O11 0.674647 0.323388 0.278322
O O12 0.827993 0.620630 0.721592
O O13 0.500000 0.000000 0.000000
#
# Coordination Sequence:
#
# PCOD8143756 Si02
#       6
#     8   8   8   8   8   8
#     4  11  22  42  69  97 122 171 226 274 322 385
#     4  10  22  41  60  89 131 170 203 265 326 389
#     4  11  23  39  68  95 126 168 221 266 328 389
#     4  11  23  40  64  93 133 167 214 263 333 391
#     4  11  23  43  66  96 132 170 217 277 325 389
#     4  10  21  41  64  90 128 164 216 265 321 390
#
# _framework density 22.310527
#
# number of rings (size 3 to 8) (size 9 to 14) (size 15 to 20)
#    0.000    1.333    0.000    8.000    2.333    0.667 
#   12.000    0.000    0.000    0.000    0.000    0.000 
#    0.000    0.000    0.000    0.000    0.000    0.000 
#
# Total GULP energy -297338.654546 kJ/mol
# GULP energy per Si atom -12389.110606 kJ/mol
# Density = 2.225975 g / cm^3
# Si number density = 22.310527 Si / 1000 Ang^3
#
#
#
# Elastic Constant Matrix: (Units=GPa)
#
#
# Indices 1 2 3 4 5 6 
#
# 1 118.1149 29.6164 12.2684 0.0000 -14.4173 0.0000
# 2 29.6164 55.0641 28.6939 0.0000 -10.8903 0.0000
# 3 12.2684 28.6939 72.0982 0.0000 -0.7068 0.0000
# 4 0.0000 0.0000 0.0000 32.2459 0.0000 2.6715
# 5 -14.4173 -10.8903 -0.7068 0.0000 31.7366 0.0000
# 6 0.0000 0.0000 0.0000 2.6715 0.0000 19.8158
#
#
#
# Elastic Compliance Matrix: (Units=1/GPa)
#
#
# Indices 1 2 3 4 5 6 
#
# 1 0.010035 -0.004993 0.000308 0.000000 0.002852 0.000000
# 2 -0.004993 0.027424 -0.009997 0.000000 0.006919 0.000000
# 3 0.000308 -0.009997 0.017768 0.000000 -0.002895 0.000000
# 4 0.000000 0.000000 0.000000 0.031362 0.000000 -0.004228
# 5 0.002852 0.006919 -0.002895 0.000000 0.035115 0.000000
# 6 0.000000 0.000000 0.000000 -0.004228 0.000000 0.051035
#
#
# Mechanical properties :
#
#
# Convention : Reuss Voigt Hill
#
# Bulk Modulus (GPa) = 38.66751 42.93717 40.80234
# Shear Modulus (GPa) = 23.72774 28.40624 26.06699
#
# Velocity S-wave (km/s) = 3.26471 3.57209 3.42185
# Velocity P-wave (km/s) = 5.61963 6.02496 5.82582
#
# Compressibility (1/GPa) = 0.02586151
#
# Stress axis : x y z
#
# Youngs Moduli (GPa) = 99.65586 36.46398 56.28149
#
# Poissons Ratio (x) = 0.18208 -0.01732
# Poissons Ratio (y) = 0.49763 0.56264
# Poissons Ratio (z) = -0.03067 0.36453
#
# Static dielectric constant tensor:
#      x y z
#    x 3.882020 0.000000 -0.198290 
#    y 0.000000 4.047700 0.000000 
#    z -0.198290 0.000000 4.354640 
# 
# 
# High freq. dielectric constant tensor:
#      x y z
#    x 1.865070 0.000000 -0.008610 
#    y 0.000000 1.878090 0.000000 
#    z -0.008610 0.000000 1.896200 
# 
# From -- ./inp_files/152180.got.cif
#   From: 2010.06.25/outbox.cif.g09.slc.cpg/sg15_77_cif.got.tgz:152180.got - 2010.06.28 07:06:18.
