data_PCOD8143127
_publ_section_title
;
Structure prediction by ZEFSAII (Michael W. Deem and Ramdas Pophale) SiO2 
 PCOD8143127
Probable space group: C 2/C
;
_chemical_formula_sum "Si O2"
_cell_formula_units_Z 48
_cell_length_a 17.871055
_cell_length_b 4.993703
_cell_length_c 25.887310
_cell_angle_alpha 90.000000
_cell_angle_beta 113.655861
_cell_angle_gamma 90.000000
_cell_volume 2116.128367
_symmetry_space_group_name_H-M "C 2/C"
_symmetry_group_IT_number 15
_symmetry_cell_setting 'monoclinic'
loop_
_space_group_symop_operation_xyz
x,y,z
-x,y,1/2-z
-x,-y,-z
x,-y,1/2+z
1/2+x,1/2+y,z
1/2-x,1/2+y,1/2-z
1/2-x,1/2-y,-z
1/2+x,1/2-y,1/2+z
loop_
_atom_site_type_symbol
_atom_site_label
_atom_site_fract_x
_atom_site_fract_y
_atom_site_fract_z
Si Si1 0.750447 0.766768 0.561837
Si Si2 0.787944 0.005656 0.783535
Si Si3 0.021718 0.478263 0.064616
Si Si4 0.067860 0.683883 0.869823
Si Si5 0.689155 0.294023 0.600593
Si Si6 0.529981 0.685538 0.658843
O O1 0.750000 0.750000 0.500000
O O2 0.835292 0.659996 0.610600
O O3 0.682292 0.557942 0.562794
O O4 0.734151 0.062916 0.579669
O O5 0.730863 0.267709 0.762126
O O6 0.879888 0.108053 0.797446
O O7 0.767503 0.880387 0.834026
O O8 0.101018 0.298669 0.094402
O O9 0.035612 0.764074 0.097797
O O10 0.946753 0.328016 0.071987
O O11 0.000000 0.500000 0.000000
O O12 0.010842 0.454086 0.827340
O O13 0.034559 0.965188 0.840754
#
# Coordination Sequence:
#
# PCOD8143127 Si02
#       6
#     8   8   8   8   8   8
#     4  12  26  42  66  97 152 192 219 262 345 417
#     4  12  23  43  74 102 132 171 230 314 357 375
#     4  10  22  37  65  95 136 171 224 276 328 400
#     4  10  22  39  62  89 140 181 212 267 340 394
#     4  12  25  43  66 107 136 172 245 279 327 424
#     4  10  21  40  62  97 127 171 228 268 345 402
#
# _framework density 22.682933999999999
#
# number of rings (size 3 to 8) (size 9 to 14) (size 15 to 20)
#    1.000    0.000    1.667    6.500    2.333    0.667 
#    0.000    0.000    0.000   15.000    0.000    0.000 
#    0.000    0.000    0.000    0.000    0.000    0.000 
#
# Total GULP energy -297318.451756 kJ/mol
# GULP energy per Si atom -12388.268823 kJ/mol
# Density = 2.263131 g / cm^3
# Si number density = 22.682934 Si / 1000 Ang^3
#
#
#
# Elastic Constant Matrix: (Units=GPa)
#
#
# Indices 1 2 3 4 5 6 
#
# 1 56.6516 19.4539 8.0341 0.0005 8.1313 0.0082
# 2 19.4539 156.1083 24.8820 0.0011 14.8071 0.0169
# 3 8.0341 24.8820 49.0060 0.0009 16.2665 0.0005
# 4 0.0005 0.0011 0.0009 43.6898 -0.0005 0.8666
# 5 8.1313 14.8071 16.2665 -0.0005 26.6899 0.0003
# 6 0.0082 0.0169 0.0005 0.8666 0.0003 25.8028
#
#
#
# Elastic Compliance Matrix: (Units=1/GPa)
#
#
# Indices 1 2 3 4 5 6 
#
# 1 0.019009 -0.001840 -0.000750 0.000000 -0.004313 -0.000005
# 2 -0.001840 0.007247 -0.002795 0.000000 -0.001757 -0.000004
# 3 -0.000750 -0.002795 0.026773 -0.000001 -0.014538 0.000002
# 4 0.000000 0.000000 -0.000001 0.022904 0.000001 -0.000769
# 5 -0.004313 -0.001757 -0.014538 0.000001 0.048616 0.000002
# 6 -0.000005 -0.000004 0.000002 -0.000769 0.000002 0.038781
#
#
# Mechanical properties :
#
#
# Convention : Reuss Voigt Hill
#
# Bulk Modulus (GPa) = 23.66376 40.72287 32.19331
# Shear Modulus (GPa) = 26.56909 33.19622 29.88265
#
# Velocity S-wave (km/s) = 3.42618 3.82971 3.63355
# Velocity P-wave (km/s) = 5.10946 6.12761 5.64155
#
# Compressibility (1/GPa) = 0.04225871
#
# Stress axis : x y z
#
# Youngs Moduli (GPa) = 52.60627 137.98385 37.35053
#
# Poissons Ratio (x) = 0.25391 0.02803
# Poissons Ratio (y) = 0.09680 0.10439
# Poissons Ratio (z) = 0.03948 0.38565
#
# Static dielectric constant tensor:
#      x y z
#    x 3.915860 -0.000020 -0.063310 
#    y -0.000020 4.316210 0.000000 
#    z -0.063310 0.000000 3.625810 
# 
# 
# High freq. dielectric constant tensor:
#      x y z
#    x 1.895600 0.000000 0.003000 
#    y 0.000000 1.915300 0.000000 
#    z 0.003000 0.000000 1.863710 
# 
# From -- ./inp_files/275696.got.cif
#   From: 2010.06.25/outbox.cif.g09.slc.cpg/sg15_138_cif.got.tgz:275696.got - 2010.06.28 07:06:18.
