data_PCOD8143138
_publ_section_title
;
Structure prediction by ZEFSAII (Michael W. Deem and Ramdas Pophale) SiO2 
 PCOD8143138
Probable space group: C 2/C
;
_chemical_formula_sum "Si O2"
_cell_formula_units_Z 52
_cell_length_a 8.943213
_cell_length_b 11.452366
_cell_length_c 27.551829
_cell_angle_alpha 90.000000
_cell_angle_beta 58.500387
_cell_angle_gamma 90.000000
_cell_volume 2406.061988
_symmetry_space_group_name_H-M "C 2/C"
_symmetry_group_IT_number 15
_symmetry_cell_setting 'monoclinic'
loop_
_space_group_symop_operation_xyz
x,y,z
-x,y,1/2-z
-x,-y,-z
x,-y,1/2+z
1/2+x,1/2+y,z
1/2-x,1/2+y,1/2-z
1/2-x,1/2-y,-z
1/2+x,1/2-y,1/2+z
loop_
_atom_site_type_symbol
_atom_site_label
_atom_site_fract_x
_atom_site_fract_y
_atom_site_fract_z
Si Si1 0.974795 0.864050 0.632020
Si Si2 0.130045 0.350531 0.542202
Si Si3 0.866986 0.110954 0.675618
Si Si4 0.897334 0.322795 0.839898
Si Si5 0.848668 0.063704 0.496357
Si Si6 0.000000 0.515988 0.750000
Si Si7 0.789874 0.227191 0.590737
O O1 0.786655 0.801976 0.656748
O O2 0.074668 0.879575 0.564508
O O3 0.102759 0.778491 0.640614
O O4 0.959598 0.985087 0.664139
O O5 0.250000 0.250000 0.500000
O O6 0.145990 0.353587 0.597650
O O7 0.194940 0.472704 0.509305
O O8 0.929454 0.332045 0.560147
O O9 0.864597 0.140265 0.618836
O O10 0.976712 0.208962 0.686498
O O11 0.668364 0.099855 0.728739
O O12 0.989286 0.434630 0.799698
O O13 0.764265 0.163061 0.544184
O O14 0.000000 0.000000 0.500000
#
# Coordination Sequence:
#
# PCOD8143138 Si02
#       7
#     8   8   8   8   8   4   8
#     4  11  22  37  59  90 122 157 204 242 299 359
#     4  11  20  36  62  88 121 163 201 241 307 364
#     4  10  22  42  62  82 118 152 191 251 306 353
#     4  10  21  40  63  88 119 157 198 250 300 365
#     4  12  18  34  58  84 123 164 197 244 293 351
#     4  10  22  40  64  90 112 154 202 248 308 360
#     4  11  23  36  58  88 118 159 202 247 292 358
#
# _framework density 21.612079999999999
#
# number of rings (size 3 to 8) (size 9 to 14) (size 15 to 20)
#    0.000    1.231    4.615    2.308    0.000    4.308 
#    0.000    3.077    0.000    0.000    0.000    0.000 
#    0.000    0.000    0.000    0.000    0.000    0.000 
#
# Total GULP energy -322415.629497 kJ/mol
# GULP energy per Si atom -12400.601135 kJ/mol
# Density = 2.156289 g / cm^3
# Si number density = 21.612080 Si / 1000 Ang^3
#
#
#
# Elastic Constant Matrix: (Units=GPa)
#
#
# Indices 1 2 3 4 5 6 
#
# 1 101.6276 60.4301 18.1728 0.0000 -36.6113 0.0000
# 2 60.4301 89.4390 15.4827 0.0000 -21.1471 0.0000
# 3 18.1728 15.4827 73.9303 0.0000 -17.6523 0.0000
# 4 0.0000 0.0000 0.0000 36.9705 0.0000 -13.6439
# 5 -36.6113 -21.1471 -17.6523 0.0000 37.2862 0.0000
# 6 0.0000 0.0000 0.0000 -13.6439 0.0000 45.3127
#
#
#
# Elastic Compliance Matrix: (Units=1/GPa)
#
#
# Indices 1 2 3 4 5 6 
#
# 1 0.022073 -0.011352 0.000664 0.000000 0.015550 0.000000
# 2 -0.011352 0.018827 -0.001425 0.000000 -0.001144 0.000000
# 3 0.000664 -0.001425 0.015361 0.000000 0.007116 0.000000
# 4 0.000000 0.000000 0.000000 0.030430 0.000000 0.009163
# 5 0.015550 -0.001144 0.007116 0.000000 0.044808 0.000000
# 6 0.000000 0.000000 0.000000 0.009163 0.000000 0.024828
#
#
# Mechanical properties :
#
#
# Convention : Reuss Voigt Hill
#
# Bulk Modulus (GPa) = 31.21643 50.35203 40.78423
# Shear Modulus (GPa) = 26.14630 35.30798 30.72714
#
# Velocity S-wave (km/s) = 3.48199 4.04631 3.77471
# Velocity P-wave (km/s) = 5.53543 6.72152 6.15710
#
# Compressibility (1/GPa) = 0.03203442
#
# Stress axis : x y z
#
# Youngs Moduli (GPa) = 45.30405 53.11395 65.10185
#
# Poissons Ratio (x) = 0.60297 -0.04325
# Poissons Ratio (y) = 0.51431 0.09280
# Poissons Ratio (z) = -0.03010 0.07571
#
# Static dielectric constant tensor:
#      x y z
#    x 4.221810 0.000000 -0.315330 
#    y 0.000000 4.277850 0.000000 
#    z -0.315330 0.000000 3.971870 
# 
# 
# High freq. dielectric constant tensor:
#      x y z
#    x 1.842080 0.000000 -0.021280 
#    y 0.000000 1.849450 0.000000 
#    z -0.021280 0.000000 1.844790 
# 
# From -- ./inp_files/287569.got.cif
#   From: 2010.06.25/outbox.cif.g09.slc.cpg/sg15_144_cif.got.tgz:287569.got - 2010.06.28 07:06:18.
