data_PCOD8143068
_publ_section_title
;
Structure prediction by ZEFSAII (Michael W. Deem and Ramdas Pophale) SiO2 
 PCOD8143068
Probable space group: C 2/C
;
_chemical_formula_sum "Si O2"
_cell_formula_units_Z 28
_cell_length_a 7.232563
_cell_length_b 24.657739
_cell_length_c 7.582996
_cell_angle_alpha 90.000000
_cell_angle_beta 65.638023
_cell_angle_gamma 90.000000
_cell_volume 1231.925572
_symmetry_space_group_name_H-M "C 2/C"
_symmetry_group_IT_number 15
_symmetry_cell_setting 'monoclinic'
loop_
_space_group_symop_operation_xyz
x,y,z
-x,y,1/2-z
-x,-y,-z
x,-y,1/2+z
1/2+x,1/2+y,z
1/2-x,1/2+y,1/2-z
1/2-x,1/2-y,-z
1/2+x,1/2-y,1/2+z
loop_
_atom_site_type_symbol
_atom_site_label
_atom_site_fract_x
_atom_site_fract_y
_atom_site_fract_z
Si Si1 0.736076 0.988293 0.900090
Si Si2 0.000000 0.728595 0.750000
Si Si3 0.459131 0.430717 0.500553
Si Si4 0.061497 0.192211 0.918933
O O1 0.802920 0.948055 0.718751
O O2 0.820036 0.959013 0.048945
O O3 0.500000 0.000000 0.000000
O O4 0.851894 0.047100 0.861612
O O5 0.963219 0.766095 0.594375
O O6 0.195457 0.690375 0.651241
O O7 0.468713 0.366544 0.491492
O O8 0.000000 0.212496 0.750000
#
# Coordination Sequence:
#
# PCOD8143068 Si02
#       4
#     8   4   8   8
#     4  10  21  40  61  90 136 180 214 268 328 398
#     4  10  24  48  72 100 134 178 232 286 356 408
#     4  10  23  39  62  98 133 171 224 271 326 407
#     4  11  24  45  72 102 136 178 228 290 345 409
#
# _framework density 22.728646999999999
#
# number of rings (size 3 to 8) (size 9 to 14) (size 15 to 20)
#    0.000    1.714    0.000    3.429    8.000    2.286 
#    0.000    8.571    0.000    0.000    0.000    0.000 
#    0.000    0.000    0.000    0.000    0.000    0.000 
#
# Total GULP energy -173517.691607 kJ/mol
# GULP energy per Si atom -12394.120829 kJ/mol
# Density = 2.267692 g / cm^3
# Si number density = 22.728647 Si / 1000 Ang^3
#
#
#
# Elastic Constant Matrix: (Units=GPa)
#
#
# Indices 1 2 3 4 5 6 
#
# 1 156.7470 41.4906 68.7650 0.0000 -12.1497 0.0000
# 2 41.4906 127.4298 59.3851 0.0000 1.0282 0.0000
# 3 68.7650 59.3851 115.6178 0.0000 1.5979 0.0000
# 4 0.0000 0.0000 0.0000 12.8873 0.0000 -1.4947
# 5 -12.1497 1.0282 1.5979 0.0000 42.9909 0.0000
# 6 0.0000 0.0000 0.0000 -1.4947 0.0000 15.3072
#
#
#
# Elastic Compliance Matrix: (Units=1/GPa)
#
#
# Indices 1 2 3 4 5 6 
#
# 1 0.008972 -0.000577 -0.005078 0.000000 0.002738 0.000000
# 2 -0.000577 0.010354 -0.004972 0.000000 -0.000226 0.000000
# 3 -0.005078 -0.004972 0.014249 0.000000 -0.001846 0.000000
# 4 0.000000 0.000000 0.000000 0.078485 0.000000 0.007664
# 5 0.002738 -0.000226 -0.001846 0.000000 0.024109 0.000000
# 6 0.000000 0.000000 0.000000 0.007664 0.000000 0.066077
#
#
# Mechanical properties :
#
#
# Convention : Reuss Voigt Hill
#
# Bulk Modulus (GPa) = 81.15942 82.11954 81.63948
# Shear Modulus (GPa) = 21.96776 29.58067 25.77421
#
# Velocity S-wave (km/s) = 3.11227 3.61150 3.37114
# Velocity P-wave (km/s) = 6.97857 7.32117 7.15192
#
# Compressibility (1/GPa) = 0.01232143
#
# Stress axis : x y z
#
# Youngs Moduli (GPa) = 111.45342 96.57921 70.18253
#
# Poissons Ratio (x) = 0.05573 0.35638
# Poissons Ratio (y) = 0.06432 0.34894
# Poissons Ratio (z) = 0.56594 0.48018
#
# Static dielectric constant tensor:
#      x y z
#    x 4.250790 0.000000 0.496990 
#    y 0.000000 3.805840 0.000000 
#    z 0.496990 0.000000 4.707220 
# 
# 
# High freq. dielectric constant tensor:
#      x y z
#    x 1.899350 0.000000 0.015380 
#    y 0.000000 1.878200 0.000000 
#    z 0.015380 0.000000 1.932350 
# 
# From -- ./inp_files/21885.got.cif
#   From: 2010.06.25/outbox.cif.g09.slc.cpg/sg15_11_cif.got.tgz:21885.got - 2010.06.28 07:06:18.
