data_PCOD8143789
_publ_section_title
;
Structure prediction by ZEFSAII (Michael W. Deem and Ramdas Pophale) SiO2 
 PCOD8143789
Probable space group: C 2/C
;
_chemical_formula_sum "Si O2"
_cell_formula_units_Z 56
_cell_length_a 17.871020
_cell_length_b 9.211276
_cell_length_c 16.230859
_cell_angle_alpha 90.000000
_cell_angle_beta 105.229470
_cell_angle_gamma 90.000000
_cell_volume 2578.010165
_symmetry_space_group_name_H-M "C 2/C"
_symmetry_group_IT_number 15
_symmetry_cell_setting 'monoclinic'
loop_
_space_group_symop_operation_xyz
x,y,z
-x,y,1/2-z
-x,-y,-z
x,-y,1/2+z
1/2+x,1/2+y,z
1/2-x,1/2+y,1/2-z
1/2-x,1/2-y,-z
1/2+x,1/2-y,1/2+z
loop_
_atom_site_type_symbol
_atom_site_label
_atom_site_fract_x
_atom_site_fract_y
_atom_site_fract_z
Si Si1 0.882722 0.634854 0.347707
Si Si2 0.024190 0.356664 0.163919
Si Si3 0.937462 0.814010 0.514609
Si Si4 0.269866 0.473547 0.215516
Si Si5 0.598200 0.628789 0.979791
Si Si6 0.673317 0.700748 0.157759
Si Si7 0.086077 0.837262 0.295794
O O1 0.944962 0.504933 0.369020
O O2 0.894533 0.747856 0.423773
O O3 0.796742 0.574444 0.341671
O O4 0.890488 0.709871 0.260334
O O5 0.092430 0.236807 0.180102
O O6 0.000000 0.388253 0.250000
O O7 0.947963 0.301704 0.092140
O O8 0.023147 0.857873 0.513758
O O9 0.890043 0.955687 0.532064
O O10 0.297132 0.538944 0.311039
O O11 0.237558 0.310649 0.211799
O O12 0.350016 0.466209 0.186742
O O13 0.588256 0.717747 0.891491
O O14 0.666352 0.700641 0.055660
O O15 0.000000 0.897490 0.250000
#
# Coordination Sequence:
#
# PCOD8143789 Si02
#       7
#     8   8   8   8   8   8   8
#     4  11  22  45  66  95 137 186 218 278 357 412
#     4  10  23  38  66 102 131 171 229 285 339 411
#     4  10  21  41  64  98 138 173 222 288 351 401
#     4  11  24  43  66  96 133 183 215 280 353 405
#     4  10  23  38  66 103 128 176 233 288 332 405
#     4  10  23  43  65  91 140 179 221 279 355 411
#     4  12  24  41  74  98 131 176 243 279 324 414
#
# _framework density 21.722180999999999
#
# number of rings (size 3 to 8) (size 9 to 14) (size 15 to 20)
#    0.000    1.429    2.857    1.714    6.000    0.571 
#    0.000    2.143    0.000    0.000    0.000    0.000 
#    0.000    0.000    0.000    0.000    0.000    0.000 
#
# Total GULP energy -346931.038156 kJ/mol
# GULP energy per Si atom -12390.394220 kJ/mol
# Density = 2.167274 g / cm^3
# Si number density = 21.722181 Si / 1000 Ang^3
#
#
#
# Elastic Constant Matrix: (Units=GPa)
#
#
# Indices 1 2 3 4 5 6 
#
# 1 85.3720 25.5856 16.9769 0.0000 10.6720 0.0000
# 2 25.5856 93.1516 41.5908 0.0000 10.5763 0.0000
# 3 16.9769 41.5908 107.5323 0.0000 -0.3192 0.0000
# 4 0.0000 0.0000 0.0000 34.2459 0.0000 1.4601
# 5 10.6720 10.5763 -0.3192 0.0000 22.8533 0.0000
# 6 0.0000 0.0000 0.0000 1.4601 0.0000 20.4471
#
#
#
# Elastic Compliance Matrix: (Units=1/GPa)
#
#
# Indices 1 2 3 4 5 6 
#
# 1 0.013344 -0.002592 -0.001119 0.000000 -0.005047 0.000000
# 2 -0.002592 0.014382 -0.005170 0.000000 -0.005517 0.000000
# 3 -0.001119 -0.005170 0.011485 0.000000 0.003075 0.000000
# 4 0.000000 0.000000 0.000000 0.029290 0.000000 -0.002092
# 5 -0.005047 -0.005517 0.003075 0.000000 0.048711 0.000000
# 6 0.000000 0.000000 0.000000 -0.002092 0.000000 0.049056
#
#
# Mechanical properties :
#
#
# Convention : Reuss Voigt Hill
#
# Bulk Modulus (GPa) = 46.62360 50.48472 48.55416
# Shear Modulus (GPa) = 26.15360 28.96945 27.56153
#
# Velocity S-wave (km/s) = 3.47364 3.65586 3.56591
# Velocity P-wave (km/s) = 6.13176 6.41186 6.27337
#
# Compressibility (1/GPa) = 0.02144836
#
# Stress axis : x y z
#
# Youngs Moduli (GPa) = 74.94108 69.53220 87.07161
#
# Poissons Ratio (x) = 0.18026 0.09743
# Poissons Ratio (y) = 0.19428 0.45013
# Poissons Ratio (z) = 0.08386 0.35945
#
# Static dielectric constant tensor:
#      x y z
#    x 3.937470 0.000000 0.241970 
#    y 0.000000 3.984420 0.000000 
#    z 0.241970 0.000000 3.953300 
# 
# 
# High freq. dielectric constant tensor:
#      x y z
#    x 1.836320 0.000000 0.018090 
#    y 0.000000 1.850140 0.000000 
#    z 0.018090 0.000000 1.855930 
# 
# From -- ./inp_files/209644.got.cif
#   From: 2010.06.25/outbox.cif.g09.slc.cpg/sg15_105_cif.got.tgz:209644.got - 2010.06.28 07:06:18.
