data_PCOD8143199
_publ_section_title
;
Structure prediction by ZEFSAII (Michael W. Deem and Ramdas Pophale) SiO2 
 PCOD8143199
Probable space group: C 2/C
;
_chemical_formula_sum "Si O2"
_cell_formula_units_Z 52
_cell_length_a 8.345963
_cell_length_b 21.530151
_cell_length_c 17.681672
_cell_angle_alpha 90.000000
_cell_angle_beta 133.784518
_cell_angle_gamma 90.000000
_cell_volume 2293.782914
_symmetry_space_group_name_H-M "C 2/C"
_symmetry_group_IT_number 15
_symmetry_cell_setting 'monoclinic'
loop_
_space_group_symop_operation_xyz
x,y,z
-x,y,1/2-z
-x,-y,-z
x,-y,1/2+z
1/2+x,1/2+y,z
1/2-x,1/2+y,1/2-z
1/2-x,1/2-y,-z
1/2+x,1/2-y,1/2+z
loop_
_atom_site_type_symbol
_atom_site_label
_atom_site_fract_x
_atom_site_fract_y
_atom_site_fract_z
Si Si1 0.489755 0.895469 0.399504
Si Si2 0.000000 0.133165 0.750000
Si Si3 0.408096 0.468338 0.569641
Si Si4 0.000000 0.899175 0.750000
Si Si5 0.031404 0.789978 0.114094
Si Si6 0.454438 0.154158 0.419220
Si Si7 0.140492 0.093578 0.012315
Si Si8 0.500000 0.175304 0.750000
O O1 0.650894 0.955460 0.459865
O O2 0.544834 0.851757 0.489537
O O3 0.558804 0.865663 0.342584
O O4 0.222122 0.909008 0.310292
O O5 0.941361 0.179564 0.661819
O O6 0.448825 0.446307 0.666539
O O7 0.448679 0.542464 0.577670
O O8 0.593311 0.433165 0.579742
O O9 0.208692 0.853931 0.805487
O O10 0.936081 0.721452 0.065181
O O11 0.295896 0.780385 0.204062
O O12 0.982975 0.840466 0.033334
O O13 0.600785 0.103087 0.422923
#
# Coordination Sequence:
#
# PCOD8143199 Si02
#       8
#     8   4   8   4   8   8   8   4
#     4  10  21  41  64  96 131 167 217 269 326 382
#     4  10  22  37  64 102 124 167 224 258 330 380
#     4  10  24  47  66  94 134 171 221 263 322 389
#     4  10  25  47  66  98 132 176 212 268 328 380
#     4  11  22  41  64  97 131 169 212 272 318 386
#     4  11  24  44  66  97 134 171 216 267 330 383
#     4  11  23  44  67  93 126 176 215 270 322 378
#     4  10  21  40  64 100 126 169 220 260 324 386
#
# _framework density 22.669972999999999
#
# number of rings (size 3 to 8) (size 9 to 14) (size 15 to 20)
#    0.000    1.538    3.077    0.923    0.000    5.538 
#    8.308    0.000    0.000    0.000    0.000    0.000 
#    0.000    0.000    0.000    0.000    0.000    0.000 
#
# Total GULP energy -322230.317408 kJ/mol
# GULP energy per Si atom -12393.473746 kJ/mol
# Density = 2.261838 g / cm^3
# Si number density = 22.669973 Si / 1000 Ang^3
#
#
#
# Elastic Constant Matrix: (Units=GPa)
#
#
# Indices 1 2 3 4 5 6 
#
# 1 124.5796 34.5473 32.8928 0.0000 4.4744 0.0000
# 2 34.5473 122.2678 26.9503 0.0000 1.6258 0.0000
# 3 32.8928 26.9503 81.7704 0.0000 2.5228 0.0000
# 4 0.0000 0.0000 0.0000 11.6906 0.0000 -0.4480
# 5 4.4744 1.6258 2.5228 0.0000 22.1310 0.0001
# 6 0.0000 0.0000 0.0000 -0.4480 0.0001 19.1863
#
#
#
# Elastic Compliance Matrix: (Units=1/GPa)
#
#
# Indices 1 2 3 4 5 6 
#
# 1 0.009443 -0.001964 -0.003108 0.000000 -0.001411 0.000000
# 2 -0.001964 0.009230 -0.002251 0.000000 -0.000024 0.000000
# 3 -0.003108 -0.002251 0.014247 0.000000 -0.000830 0.000000
# 4 0.000000 0.000000 0.000000 0.085616 0.000000 0.001999
# 5 -0.001411 -0.000024 -0.000830 0.000000 0.045567 0.000000
# 6 0.000000 0.000000 0.000000 0.001999 0.000000 0.052167
#
#
# Mechanical properties :
#
#
# Convention : Reuss Voigt Hill
#
# Bulk Modulus (GPa) = 54.72288 57.48876 56.10582
# Shear Modulus (GPa) = 21.09636 26.21674 23.65655
#
# Velocity S-wave (km/s) = 3.05386 3.40435 3.23386
# Velocity P-wave (km/s) = 6.05195 6.39272 6.22467
#
# Compressibility (1/GPa) = 0.01827389
#
# Stress axis : x y z
#
# Youngs Moduli (GPa) = 105.89975 108.33808 70.19025
#
# Poissons Ratio (x) = 0.21282 0.21812
# Poissons Ratio (y) = 0.20803 0.15802
# Poissons Ratio (z) = 0.32909 0.24390
#
# Static dielectric constant tensor:
#      x y z
#    x 4.353360 0.000000 0.173870 
#    y 0.000000 3.891350 0.000000 
#    z 0.173870 0.000000 4.112350 
# 
# 
# High freq. dielectric constant tensor:
#      x y z
#    x 1.916750 0.000000 0.011400 
#    y 0.000000 1.876920 0.000000 
#    z 0.011400 0.000000 1.888660 
# 
# From -- ./inp_files/137228.got.cif
#   From: 2010.06.25/outbox.cif.g09.slc.cpg/sg15_69_cif.got.tgz:137228.got - 2010.06.28 07:06:18.
