data_PCOD8143168
_publ_section_title
;
Structure prediction by ZEFSAII (Michael W. Deem and Ramdas Pophale) SiO2 
 PCOD8143168
Probable space group: C 2/C
;
_chemical_formula_sum "Si O2"
_cell_formula_units_Z 44
_cell_length_a 4.884538
_cell_length_b 20.691807
_cell_length_c 20.252696
_cell_angle_alpha 90.000000
_cell_angle_beta 83.537881
_cell_angle_gamma 90.000000
_cell_volume 2033.933057
_symmetry_space_group_name_H-M "C 2/C"
_symmetry_group_IT_number 15
_symmetry_cell_setting 'monoclinic'
loop_
_space_group_symop_operation_xyz
x,y,z
-x,y,1/2-z
-x,-y,-z
x,-y,1/2+z
1/2+x,1/2+y,z
1/2-x,1/2+y,1/2-z
1/2-x,1/2-y,-z
1/2+x,1/2-y,1/2+z
loop_
_atom_site_type_symbol
_atom_site_label
_atom_site_fract_x
_atom_site_fract_y
_atom_site_fract_z
Si Si1 0.249362 0.408331 0.083012
Si Si2 0.290887 0.866757 0.559907
Si Si3 0.789900 0.491119 0.066638
Si Si4 0.000000 0.794187 0.750000
Si Si5 0.918949 0.802321 0.180275
Si Si6 0.724660 0.307365 0.873256
O O1 0.514184 0.451748 0.056787
O O2 0.312534 0.362059 0.141679
O O3 0.983336 0.451389 0.113041
O O4 0.162625 0.367894 0.020192
O O5 0.569174 0.850537 0.590526
O O6 0.064404 0.812024 0.580640
O O7 0.200013 0.937077 0.591603
O O8 0.000000 0.500000 0.000000
O O9 0.185374 0.751611 0.695684
O O10 0.184486 0.834468 0.797943
O O11 0.000000 0.829572 0.250000
O O12 0.174903 0.767330 0.135862
#
# Coordination Sequence:
#
# PCOD8143168 Si02
#       6
#     8   8   8   4   8   8
#     4  11  23  39  67  94 127 165 205 261 311 371
#     4  11  21  38  64  96 126 157 205 257 310 377
#     4  10  21  40  63  91 127 166 198 241 320 377
#     4  10  22  46  60  86 122 178 204 246 316 384
#     4  10  24  42  66  88 125 170 212 254 315 380
#     4  11  22  39  65  90 123 163 205 253 313 375
#
# _framework density 21.632964999999999
#
# number of rings (size 3 to 8) (size 9 to 14) (size 15 to 20)
#    0.000    1.455    1.818    5.455    5.091    1.455 
#    0.000    0.000   12.000    0.000    0.000    0.000 
#    0.000    0.000    0.000    0.000    0.000    0.000 
#
# Total GULP energy -272584.380877 kJ/mol
# GULP energy per Si atom -12390.199131 kJ/mol
# Density = 2.158373 g / cm^3
# Si number density = 21.632965 Si / 1000 Ang^3
#
#
#
# Elastic Constant Matrix: (Units=GPa)
#
#
# Indices 1 2 3 4 5 6 
#
# 1 90.0694 3.2874 26.4761 0.0000 18.6785 0.0000
# 2 3.2874 57.5405 51.8206 0.0000 13.0207 0.0000
# 3 26.4761 51.8206 121.1687 0.0000 35.3018 0.0000
# 4 0.0000 0.0000 0.0000 17.4300 0.0000 12.2615
# 5 18.6785 13.0207 35.3018 0.0000 43.0910 0.0000
# 6 0.0000 0.0000 0.0000 12.2615 0.0000 33.0945
#
#
#
# Elastic Compliance Matrix: (Units=1/GPa)
#
#
# Indices 1 2 3 4 5 6 
#
# 1 0.012644 0.002634 -0.002706 0.000000 -0.004059 0.000000
# 2 0.002634 0.028920 -0.013221 0.000000 0.000951 0.000000
# 3 -0.002706 -0.013221 0.017066 0.000000 -0.008813 0.000000
# 4 0.000000 0.000000 0.000000 0.077596 0.000000 -0.028749
# 5 -0.004059 0.000951 -0.008813 0.000000 0.031899 0.000000
# 6 0.000000 0.000000 0.000000 -0.028749 0.000000 0.040868
#
#
# Mechanical properties :
#
#
# Convention : Reuss Voigt Hill
#
# Bulk Modulus (GPa) = 31.20829 47.99410 39.60119
# Shear Modulus (GPa) = 20.30360 31.20274 25.75317
#
# Velocity S-wave (km/s) = 3.06690 3.80197 3.45405
# Velocity P-wave (km/s) = 5.19603 6.44260 5.85260
#
# Compressibility (1/GPa) = 0.03204277
#
# Stress axis : x y z
#
# Youngs Moduli (GPa) = 79.09025 34.57816 58.59547
#
# Poissons Ratio (x) = -0.09106 0.15858
# Poissons Ratio (y) = -0.20829 0.77468
# Poissons Ratio (z) = 0.21405 0.45715
#
# Static dielectric constant tensor:
#      x y z
#    x 4.386950 0.000000 0.367270 
#    y 0.000000 4.109220 0.000000 
#    z 0.367270 0.000000 3.816090 
# 
# 
# High freq. dielectric constant tensor:
#      x y z
#    x 1.874450 0.000000 0.029530 
#    y 0.000000 1.825910 0.000000 
#    z 0.029530 0.000000 1.833300 
# 
# From -- ./inp_files/227174.got.cif
#   From: 2010.06.25/outbox.cif.g09.slc.cpg/sg15_114_cif.got.tgz:227174.got - 2010.06.28 07:06:18.
