data_PCOD8143645
_publ_section_title
;
Structure prediction by ZEFSAII (Michael W. Deem and Ramdas Pophale) SiO2 
 PCOD8143645
Probable space group: C 2/C
;
_chemical_formula_sum "Si O2"
_cell_formula_units_Z 40
_cell_length_a 12.952531
_cell_length_b 8.080143
_cell_length_c 17.894146
_cell_angle_alpha 90.000000
_cell_angle_beta 94.945452
_cell_angle_gamma 90.000000
_cell_volume 1865.799039
_symmetry_space_group_name_H-M "C 2/C"
_symmetry_group_IT_number 15
_symmetry_cell_setting 'monoclinic'
loop_
_space_group_symop_operation_xyz
x,y,z
-x,y,1/2-z
-x,-y,-z
x,-y,1/2+z
1/2+x,1/2+y,z
1/2-x,1/2+y,1/2-z
1/2-x,1/2-y,-z
1/2+x,1/2-y,1/2+z
loop_
_atom_site_type_symbol
_atom_site_label
_atom_site_fract_x
_atom_site_fract_y
_atom_site_fract_z
Si Si1 0.257205 0.727834 0.887517
Si Si2 0.459327 0.693487 0.827000
Si Si3 0.752421 0.481223 0.491884
Si Si4 0.542938 0.178597 0.483948
Si Si5 0.564009 0.592263 0.402540
O O1 0.334545 0.720384 0.821288
O O2 0.258447 0.544927 0.923671
O O3 0.139149 0.783396 0.859837
O O4 0.303838 0.862017 0.949659
O O5 0.500000 0.757046 0.750000
O O6 0.515270 0.793022 0.895981
O O7 0.487090 0.498705 0.840640
O O8 0.831028 0.325069 0.494042
O O9 0.637781 0.450792 0.448197
O O10 0.496709 0.315853 0.535916
O O11 0.500000 0.000000 0.500000
#
# Coordination Sequence:
#
# PCOD8143645 Si02
#       5
#     8   8   8   8   8
#     4   9  17  40  59  88 128 145 193 273 292 339
#     4  12  25  41  58  91 132 165 197 248 318 373
#     4   9  17  35  65  94 109 148 210 252 298 341
#     4  12  18  38  73  92 112 160 215 255 299 356
#     4  10  21  41  62  88 127 156 200 263 298 354
#
# _framework density 21.438537
#
# number of rings (size 3 to 8) (size 9 to 14) (size 15 to 20)
#    1.200    0.400    6.000    0.600    0.000    0.800 
#    3.600    1.000    0.000    0.000    0.000    0.000 
#    0.000    0.000    0.000    0.000    0.000    0.000 
#
# Total GULP energy -247808.175664 kJ/mol
# GULP energy per Si atom -12390.408783 kJ/mol
# Density = 2.138974 g / cm^3
# Si number density = 21.438537 Si / 1000 Ang^3
#
#
#
# Elastic Constant Matrix: (Units=GPa)
#
#
# Indices 1 2 3 4 5 6 
#
# 1 145.5979 32.6486 50.7643 0.0000 -29.1007 0.0000
# 2 32.6486 44.7951 27.9257 0.0000 -1.3708 0.0000
# 3 50.7643 27.9257 103.1940 0.0000 -33.6492 0.0000
# 4 0.0000 0.0000 0.0000 10.0290 0.0000 -7.1751
# 5 -29.1007 -1.3708 -33.6492 0.0000 34.4516 0.0000
# 6 0.0000 0.0000 0.0000 -7.1751 0.0000 38.8525
#
#
#
# Elastic Compliance Matrix: (Units=1/GPa)
#
#
# Indices 1 2 3 4 5 6 
#
# 1 0.010141 -0.006737 -0.000675 0.000000 0.007639 0.000000
# 2 -0.006737 0.033302 -0.010450 0.000000 -0.014572 0.000000
# 3 -0.000675 -0.010450 0.018384 0.000000 0.016970 0.000000
# 4 0.000000 0.000000 0.000000 0.114890 0.000000 0.021217
# 5 0.007639 -0.014572 0.016970 0.000000 0.051474 0.000000
# 6 0.000000 0.000000 0.000000 0.021217 0.000000 0.029657
#
#
# Mechanical properties :
#
#
# Convention : Reuss Voigt Hill
#
# Bulk Modulus (GPa) = 38.30691 57.36268 47.83479
# Shear Modulus (GPa) = 16.54145 28.81651 22.67898
#
# Velocity S-wave (km/s) = 2.78074 3.67024 3.25601
# Velocity P-wave (km/s) = 5.31197 6.69147 6.04122
#
# Compressibility (1/GPa) = 0.02610495
#
# Stress axis : x y z
#
# Youngs Moduli (GPa) = 98.61076 30.02791 54.39611
#
# Poissons Ratio (x) = 0.20229 0.03670
# Poissons Ratio (y) = 0.66432 0.56841
# Poissons Ratio (z) = 0.06653 0.31378
#
# Static dielectric constant tensor:
#      x y z
#    x 4.344670 0.000000 -0.170480 
#    y 0.000000 3.888730 0.000000 
#    z -0.170480 0.000000 3.220970 
# 
# 
# High freq. dielectric constant tensor:
#      x y z
#    x 1.868190 0.000000 -0.022270 
#    y 0.000000 1.844830 0.000000 
#    z -0.022270 0.000000 1.775080 
# 
# From -- ./inp_files/195160.got.cif
#   From: 2010.06.25/outbox.cif.g09.slc.cpg/sg15_98_cif.got.tgz:195160.got - 2010.06.28 07:06:18.
