data_PCOD8143944
_publ_section_title
;
Structure prediction by ZEFSAII (Michael W. Deem and Ramdas Pophale) SiO2 
 PCOD8143944
Probable space group: C 2/C
;
_chemical_formula_sum "Si O2"
_cell_formula_units_Z 64
_cell_length_a 9.058829
_cell_length_b 31.905638
_cell_length_c 14.243821
_cell_angle_alpha 90.000000
_cell_angle_beta 133.333982
_cell_angle_gamma 90.000000
_cell_volume 2994.462803
_symmetry_space_group_name_H-M "C 2/C"
_symmetry_group_IT_number 15
_symmetry_cell_setting 'monoclinic'
loop_
_space_group_symop_operation_xyz
x,y,z
-x,y,1/2-z
-x,-y,-z
x,-y,1/2+z
1/2+x,1/2+y,z
1/2-x,1/2+y,1/2-z
1/2-x,1/2-y,-z
1/2+x,1/2-y,1/2+z
loop_
_atom_site_type_symbol
_atom_site_label
_atom_site_fract_x
_atom_site_fract_y
_atom_site_fract_z
Si Si1 0.059870 0.154541 0.034596
Si Si2 0.032275 0.522422 0.154890
Si Si3 0.063789 0.669038 0.042660
Si Si4 0.650977 0.626530 0.884571
Si Si5 0.330593 0.210388 0.595300
Si Si6 0.279983 0.465805 0.135009
Si Si7 0.172794 0.099531 0.260379
Si Si8 0.892738 0.281013 0.616391
O O1 0.078174 0.123493 0.130625
O O2 0.263351 0.181771 0.109717
O O3 0.043760 0.122437 0.939407
O O4 0.862357 0.184671 0.949940
O O5 0.140864 0.481918 0.159043
O O6 0.159909 0.565078 0.194918
O O7 0.000000 0.514725 0.250000
O O8 0.813443 0.523865 0.008216
O O9 0.234640 0.634496 0.130906
O O10 0.078425 0.706667 0.125338
O O11 0.055909 0.681623 0.931031
O O12 0.848713 0.653158 0.983509
O O13 0.500000 0.651627 0.750000
O O14 0.704829 0.583901 0.853731
O O15 0.500000 0.221555 0.750000
O O16 0.250000 0.250000 0.500000
O O17 0.500000 0.486496 0.250000
O O18 0.000000 0.077834 0.250000
O O19 0.750000 0.250000 0.500000
O O20 0.000000 0.257271 0.750000
#
# Coordination Sequence:
#
# PCOD8143944 Si02
#       8
#     8   8   8   8   8   8   8   8
#     4  11  24  41  68  96 125 177 234 280 339 405
#     4  11  24  42  71 104 136 180 230 278 340 423
#     4  11  23  41  66  92 128 174 226 279 337 403
#     4  10  21  41  67  93 132 176 221 278 336 403
#     4  12  28  45  67  98 141 182 230 286 350 412
#     4  10  22  43  66 100 145 180 217 282 350 402
#     4  12  23  41  70  97 129 174 231 286 341 402
#     4  11  24  39  62  92 128 167 218 276 337 405
#
# _framework density 21.372782999999998
#
# number of rings (size 3 to 8) (size 9 to 14) (size 15 to 20)
#    0.000    1.000    3.750    2.625    3.500    5.500 
#    0.000    8.125    0.000    0.000    0.000    0.000 
#    0.000    0.000    0.000    0.000    0.000    0.000 
#
# Total GULP energy -396466.255374 kJ/mol
# GULP energy per Si atom -12389.570480 kJ/mol
# Density = 2.132414 g / cm^3
# Si number density = 21.372783 Si / 1000 Ang^3
#
#
#
# Elastic Constant Matrix: (Units=GPa)
#
#
# Indices 1 2 3 4 5 6 
#
# 1 117.5569 30.6733 63.1932 0.0000 -17.9856 0.0000
# 2 30.6733 82.8271 39.0638 0.0000 -12.2471 0.0000
# 3 63.1932 39.0638 181.8386 0.0000 -16.3572 0.0000
# 4 0.0000 0.0000 0.0000 22.3165 0.0000 -9.7221
# 5 -17.9856 -12.2471 -16.3572 0.0000 39.5118 0.0000
# 6 0.0000 0.0000 0.0000 -9.7221 0.0000 36.0841
#
#
#
# Elastic Compliance Matrix: (Units=1/GPa)
#
#
# Indices 1 2 3 4 5 6 
#
# 1 0.011261 -0.002219 -0.003155 0.000000 0.003132 0.000000
# 2 -0.002219 0.014244 -0.002059 0.000000 0.002552 0.000000
# 3 -0.003155 -0.002059 0.007117 0.000000 0.000872 0.000000
# 4 0.000000 0.000000 0.000000 0.050769 0.000000 0.013679
# 5 0.003132 0.002552 0.000872 0.000000 0.027887 0.000000
# 6 0.000000 0.000000 0.000000 0.013679 0.000000 0.031398
#
#
# Mechanical properties :
#
#
# Convention : Reuss Voigt Hill
#
# Bulk Modulus (GPa) = 56.32330 72.00925 64.16627
# Shear Modulus (GPa) = 30.58863 36.20196 33.39530
#
# Velocity S-wave (km/s) = 3.78722 4.12009 3.95715
# Velocity P-wave (km/s) = 6.74789 7.50990 7.13907
#
# Compressibility (1/GPa) = 0.01775464
#
# Stress axis : x y z
#
# Youngs Moduli (GPa) = 88.80509 70.20646 140.51740
#
# Poissons Ratio (x) = 0.15580 0.44332
# Poissons Ratio (y) = 0.19707 0.28934
# Poissons Ratio (z) = 0.28017 0.14456
#
# Static dielectric constant tensor:
#      x y z
#    x 4.067400 0.000000 0.044470 
#    y 0.000000 3.802640 0.000000 
#    z 0.044470 0.000000 4.416590 
# 
# 
# High freq. dielectric constant tensor:
#      x y z
#    x 1.845860 0.000000 -0.004060 
#    y 0.000000 1.826680 0.000000 
#    z -0.004060 0.000000 1.856290 
# 
# From -- ./inp_files/139864.got.cif
#   From: 2010.06.25/outbox.cif.g09.slc.cpg/sg15_70_cif.got.tgz:139864.got - 2010.06.28 07:06:18.
