data_PCOD8143162
_publ_section_title
;
Structure prediction by ZEFSAII (Michael W. Deem and Ramdas Pophale) SiO2 
 PCOD8143162
Probable space group: C 2/C
;
_chemical_formula_sum "Si O2"
_cell_formula_units_Z 52
_cell_length_a 32.269792
_cell_length_b 16.136778
_cell_length_c 9.053280
_cell_angle_alpha 90.000000
_cell_angle_beta 147.289600
_cell_angle_gamma 90.000000
_cell_volume 2547.585122
_symmetry_space_group_name_H-M "C 2/C"
_symmetry_group_IT_number 15
_symmetry_cell_setting 'monoclinic'
loop_
_space_group_symop_operation_xyz
x,y,z
-x,y,1/2-z
-x,-y,-z
x,-y,1/2+z
1/2+x,1/2+y,z
1/2-x,1/2+y,1/2-z
1/2-x,1/2-y,-z
1/2+x,1/2-y,1/2+z
loop_
_atom_site_type_symbol
_atom_site_label
_atom_site_fract_x
_atom_site_fract_y
_atom_site_fract_z
Si Si1 0.000000 0.843545 0.750000
Si Si2 0.381779 0.240959 0.832107
Si Si3 0.538290 0.227598 0.126087
Si Si4 0.078521 0.018337 0.319284
Si Si5 0.665175 0.578350 0.311352
Si Si6 0.169481 0.435284 0.303814
Si Si7 0.578909 0.952640 0.742979
O O1 0.957049 0.790563 0.495984
O O2 0.932501 0.899173 0.616749
O O3 0.334495 0.323752 0.651991
O O4 0.329024 0.160864 0.640408
O O5 0.453789 0.229512 0.941036
O O6 0.402745 0.250497 0.067521
O O7 0.562153 0.138790 0.128932
O O8 0.146175 0.030890 0.405355
O O9 0.101331 0.942486 0.495026
O O10 0.000000 0.000000 0.000000
O O11 0.746958 0.543007 0.506766
O O12 0.147744 0.499966 0.366636
O O13 0.102449 0.444502 0.983365
O O14 0.500000 0.000000 0.500000
#
# Coordination Sequence:
#
# PCOD8143162 Si02
#       7
#     4   8   8   8   8   8   8
#     4  12  22  38  60  96 118 154 216 256 318 348
#     4  10  21  40  63  90 125 167 210 255 312 375
#     4  10  22  36  64  95 121 160 215 267 297 365
#     4  12  24  40  64  93 123 166 213 259 305 376
#     4  12  24  41  64  91 134 164 206 261 320 384
#     4  11  24  41  63  96 127 170 204 259 327 371
#     4  11  22  41  66  93 125 163 221 259 305 373
#
# _framework density 20.411486
#
# number of rings (size 3 to 8) (size 9 to 14) (size 15 to 20)
#    0.000    0.923    4.615    2.769    4.308    0.000 
#    0.000    0.000    0.000    2.769    0.000    0.000 
#    0.000    0.000    0.000    0.000    0.000    0.000 
#
# Total GULP energy -322444.515272 kJ/mol
# GULP energy per Si atom -12401.712126 kJ/mol
# Density = 2.036503 g / cm^3
# Si number density = 20.411486 Si / 1000 Ang^3
#
#
#
# Elastic Constant Matrix: (Units=GPa)
#
#
# Indices 1 2 3 4 5 6 
#
# 1 115.8326 45.7515 14.4495 0.0000 6.9750 0.0000
# 2 45.7515 126.7540 15.2089 0.0000 -5.6537 0.0000
# 3 14.4495 15.2089 50.2652 0.0000 2.6291 0.0000
# 4 0.0000 0.0000 0.0000 20.4426 0.0000 -4.3677
# 5 6.9750 -5.6537 2.6291 0.0000 33.6069 0.0000
# 6 0.0000 0.0000 0.0000 -4.3677 0.0000 41.4668
#
#
#
# Elastic Compliance Matrix: (Units=1/GPa)
#
#
# Indices 1 2 3 4 5 6 
#
# 1 0.010468 -0.003686 -0.001755 0.000000 -0.002655 0.000000
# 2 -0.003686 0.009569 -0.001968 0.000000 0.002529 0.000000
# 3 -0.001755 -0.001968 0.021079 0.000000 -0.001616 0.000000
# 4 0.000000 0.000000 0.000000 0.050044 0.000000 0.005271
# 5 -0.002655 0.002529 -0.001616 0.000000 0.030859 0.000000
# 6 0.000000 0.000000 0.000000 0.005271 0.000000 0.024671
#
#
# Mechanical properties :
#
#
# Convention : Reuss Voigt Hill
#
# Bulk Modulus (GPa) = 38.02632 49.29682 43.66157
# Shear Modulus (GPa) = 29.36463 33.59938 31.48200
#
# Velocity S-wave (km/s) = 3.79705 4.06162 3.93156
# Velocity P-wave (km/s) = 6.15579 6.79703 6.48434
#
# Compressibility (1/GPa) = 0.02629757
#
# Stress axis : x y z
#
# Youngs Moduli (GPa) = 95.52958 104.50694 47.44083
#
# Poissons Ratio (x) = 0.38524 0.08326
# Poissons Ratio (y) = 0.35215 0.09336
# Poissons Ratio (z) = 0.16765 0.20565
#
# Static dielectric constant tensor:
#      x y z
#    x 3.862240 0.000000 -0.139820 
#    y 0.000000 4.038510 0.000000 
#    z -0.139820 0.000000 3.449780 
# 
# 
# High freq. dielectric constant tensor:
#      x y z
#    x 1.802600 0.000000 -0.003720 
#    y 0.000000 1.810940 0.000000 
#    z -0.003720 0.000000 1.777760 
# 
# From -- ./inp_files/70070.got.cif
#   From: 2010.06.25/outbox.cif.g09.slc.cpg/sg15_36_cif.got.tgz:70070.got - 2010.06.28 07:06:18.
