data_PCOD8143268
_publ_section_title
;
Structure prediction by ZEFSAII (Michael W. Deem and Ramdas Pophale) SiO2 
 PCOD8143268
Probable space group: C 2/C
;
_chemical_formula_sum "Si O2"
_cell_formula_units_Z 40
_cell_length_a 13.862929
_cell_length_b 9.247817
_cell_length_c 15.180031
_cell_angle_alpha 90.000000
_cell_angle_beta 97.740690
_cell_angle_gamma 90.000000
_cell_volume 1928.374430
_symmetry_space_group_name_H-M "C 2/C"
_symmetry_group_IT_number 15
_symmetry_cell_setting 'monoclinic'
loop_
_space_group_symop_operation_xyz
x,y,z
-x,y,1/2-z
-x,-y,-z
x,-y,1/2+z
1/2+x,1/2+y,z
1/2-x,1/2+y,1/2-z
1/2-x,1/2-y,-z
1/2+x,1/2-y,1/2+z
loop_
_atom_site_type_symbol
_atom_site_label
_atom_site_fract_x
_atom_site_fract_y
_atom_site_fract_z
Si Si1 0.593734 0.062409 0.616574
Si Si2 0.265704 0.698190 0.403389
Si Si3 0.107165 0.295439 0.744387
Si Si4 0.811679 0.121318 0.900138
Si Si5 0.889060 0.345807 0.036054
O O1 0.673692 0.184382 0.644009
O O2 0.489509 0.142399 0.601323
O O3 0.597999 0.949725 0.696152
O O4 0.620224 0.986114 0.527409
O O5 0.250000 0.750000 0.500000
O O6 0.161493 0.678226 0.343541
O O7 0.327212 0.549916 0.409111
O O8 0.165232 0.177350 0.694791
O O9 0.000000 0.233222 0.750000
O O10 0.699705 0.160314 0.906696
O O11 0.885598 0.199700 0.977204
#
# Coordination Sequence:
#
# PCOD8143268 Si02
#       5
#     8   8   8   8   8
#     4  10  21  40  68  92 128 166 221 256 328 395
#     4  12  24  40  65 100 129 170 215 273 326 382
#     4  11  25  44  65  89 132 179 219 264 323 395
#     4  10  21  40  64  96 135 160 218 269 322 379
#     4   9  19  39  67  97 120 174 209 264 320 398
#
# _framework density 20.74286
#
# number of rings (size 3 to 8) (size 9 to 14) (size 15 to 20)
#    0.000    1.600    2.000    2.400    5.600    0.800 
#    0.000    1.000    0.000    0.000    0.000    0.000 
#    0.000    0.000    0.000    0.000    0.000    0.000 
#
# Total GULP energy -248079.739507 kJ/mol
# GULP energy per Si atom -12403.986975 kJ/mol
# Density = 2.069565 g / cm^3
# Si number density = 20.742860 Si / 1000 Ang^3
#
#
#
# Elastic Constant Matrix: (Units=GPa)
#
#
# Indices 1 2 3 4 5 6 
#
# 1 129.6699 50.1328 58.9158 0.0000 8.4265 0.0000
# 2 50.1328 127.5762 43.8902 0.0000 4.5754 0.0000
# 3 58.9158 43.8902 119.8776 0.0000 6.7534 0.0000
# 4 0.0000 0.0000 0.0000 22.2234 0.0000 -1.7949
# 5 8.4265 4.5754 6.7534 0.0000 40.5081 0.0000
# 6 0.0000 0.0000 0.0000 -1.7949 0.0000 34.6265
#
#
#
# Elastic Compliance Matrix: (Units=1/GPa)
#
#
# Indices 1 2 3 4 5 6 
#
# 1 0.010767 -0.002735 -0.004221 0.000000 -0.001227 0.000000
# 2 -0.002735 0.009672 -0.002188 0.000000 -0.000159 0.000000
# 3 -0.004221 -0.002188 0.011260 0.000000 -0.000752 0.000000
# 4 0.000000 0.000000 0.000000 0.045187 0.000000 0.002342
# 5 -0.001227 -0.000159 -0.000752 0.000000 0.025085 0.000000
# 6 0.000000 0.000000 0.000000 0.002342 0.000000 0.029001
#
#
# Mechanical properties :
#
#
# Convention : Reuss Voigt Hill
#
# Bulk Modulus (GPa) = 74.56904 75.88905 75.22905
# Shear Modulus (GPa) = 32.52478 34.41727 33.47103
#
# Velocity S-wave (km/s) = 3.96409 4.07779 4.02134
# Velocity P-wave (km/s) = 7.54847 7.67048 7.60972
#
# Compressibility (1/GPa) = 0.01341039
#
# Stress axis : x y z
#
# Youngs Moduli (GPa) = 92.87788 103.39607 88.81119
#
# Poissons Ratio (x) = 0.28276 0.37488
# Poissons Ratio (y) = 0.25400 0.19432
# Poissons Ratio (z) = 0.39205 0.22623
#
# Static dielectric constant tensor:
#      x y z
#    x 3.762450 0.000000 -0.021180 
#    y 0.000000 3.855290 0.000000 
#    z -0.021180 0.000000 3.621860 
# 
# 
# High freq. dielectric constant tensor:
#      x y z
#    x 1.812220 0.000000 -0.004510 
#    y 0.000000 1.812740 0.000000 
#    z -0.004510 0.000000 1.808790 
# 
# From -- ./inp_files/150667.got.cif
#   From: 2010.06.25/outbox.cif.g09.slc.cpg/sg15_76_cif.got.tgz:150667.got - 2010.06.28 07:06:18.
