data_PCOD8143872
_publ_section_title
;
Structure prediction by ZEFSAII (Michael W. Deem and Ramdas Pophale) SiO2 
 PCOD8143872
Probable space group: C 2/C
;
_chemical_formula_sum "Si O2"
_cell_formula_units_Z 48
_cell_length_a 9.892695
_cell_length_b 10.723277
_cell_length_c 20.789925
_cell_angle_alpha 90.000000
_cell_angle_beta 124.126744
_cell_angle_gamma 90.000000
_cell_volume 1825.659287
_symmetry_space_group_name_H-M "C 2/C"
_symmetry_group_IT_number 15
_symmetry_cell_setting 'monoclinic'
loop_
_space_group_symop_operation_xyz
x,y,z
-x,y,1/2-z
-x,-y,-z
x,-y,1/2+z
1/2+x,1/2+y,z
1/2-x,1/2+y,1/2-z
1/2-x,1/2-y,-z
1/2+x,1/2-y,1/2+z
loop_
_atom_site_type_symbol
_atom_site_label
_atom_site_fract_x
_atom_site_fract_y
_atom_site_fract_z
Si Si1 0.384003 0.330691 0.996181
Si Si2 0.513941 0.761510 0.650311
Si Si3 0.500000 0.028915 0.250000
Si Si4 0.000000 0.060586 0.750000
Si Si5 0.941316 0.636304 0.546526
Si Si6 0.308816 0.066646 0.382335
Si Si7 0.766332 0.069665 0.900962
O O1 0.345850 0.262622 0.059824
O O2 0.547663 0.400656 0.067754
O O3 0.445558 0.245352 0.952962
O O4 0.260793 0.435557 0.937763
O O5 0.518170 0.885969 0.692602
O O6 0.561455 0.646344 0.707773
O O7 0.651698 0.792737 0.633038
O O8 0.339731 0.944166 0.193108
O O9 0.868568 0.967818 0.687406
O O10 0.825438 0.568621 0.463533
O O11 0.818709 0.672654 0.573074
O O12 0.064534 0.536092 0.610837
#
# Coordination Sequence:
#
# PCOD8143872 Si02
#       7
#     8   8   4   4   8   8   8
#     4  10  24  41  68  94 128 176 224 264 328 396
#     4  10  23  42  61  96 129 168 217 263 334 388
#     4  11  24  40  63  92 132 163 212 272 331 378
#     4  11  24  40  67  98 132 175 216 270 337 394
#     4  10  21  41  66  90 126 171 223 266 322 390
#     4  10  22  41  65  93 126 169 218 273 319 394
#     4  11  23  43  64  98 132 170 217 278 323 399
#
# _framework density 26.291872000000001
#
# number of rings (size 3 to 8) (size 9 to 14) (size 15 to 20)
#    0.000    1.667    1.667    1.500    7.000    0.667 
#    0.000    6.667    0.000    0.000    0.000    0.000 
#    0.000    0.000    0.000    0.000    0.000    0.000 
#
# Total GULP energy -297442.869852 kJ/mol
# GULP energy per Si atom -12393.452911 kJ/mol
# Density = 2.623203 g / cm^3
# Si number density = 26.291872 Si / 1000 Ang^3
#
#
#
# Elastic Constant Matrix: (Units=GPa)
#
#
# Indices 1 2 3 4 5 6 
#
# 1 54.6127 -7.5177 26.5578 0.0000 -10.8557 0.0000
# 2 -7.5177 72.3140 39.7474 0.0000 1.5943 0.0000
# 3 26.5578 39.7474 163.6239 0.0000 22.7083 0.0000
# 4 0.0000 0.0000 0.0000 10.7793 0.0000 -8.8650
# 5 -10.8557 1.5943 22.7083 0.0000 42.4008 0.0000
# 6 0.0000 0.0000 0.0000 -8.8650 0.0000 31.9075
#
#
#
# Elastic Compliance Matrix: (Units=1/GPa)
#
#
# Indices 1 2 3 4 5 6 
#
# 1 0.024334 0.006027 -0.006748 0.000000 0.009618 0.000000
# 2 0.006027 0.017553 -0.005795 0.000000 0.003987 0.000000
# 3 -0.006748 -0.005795 0.009533 0.000000 -0.006615 0.000000
# 4 0.000000 0.000000 0.000000 0.120246 0.000000 0.033409
# 5 0.009618 0.003987 -0.006615 0.000000 0.029440 0.000000
# 6 0.000000 0.000000 0.000000 0.033409 0.000000 0.040623
#
#
# Mechanical properties :
#
#
# Convention : Reuss Voigt Hill
#
# Bulk Modulus (GPa) = 26.05146 45.34731 35.69938
# Shear Modulus (GPa) = 18.68761 32.46839 25.57800
#
# Velocity S-wave (km/s) = 2.66893 3.51796 3.12243
# Velocity P-wave (km/s) = 4.40768 5.81261 5.15820
#
# Compressibility (1/GPa) = 0.03838556
#
# Stress axis : x y z
#
# Youngs Moduli (GPa) = 41.09490 56.97128 104.90039
#
# Poissons Ratio (x) = -0.34337 0.70792
# Poissons Ratio (y) = -0.24768 0.60795
# Poissons Ratio (z) = 0.27733 0.33017
#
# Static dielectric constant tensor:
#      x y z
#    x 4.814160 0.000000 -0.009920 
#    y 0.000000 4.987000 0.000000 
#    z -0.009920 0.000000 5.150820 
# 
# 
# High freq. dielectric constant tensor:
#      x y z
#    x 2.048980 0.000000 0.000200 
#    y 0.000000 2.064630 0.000000 
#    z 0.000200 0.000000 2.078700 
# 
# From -- ./inp_files/196156.got.cif
#   From: 2010.06.25/outbox.cif.g09.slc.cpg/sg15_99_cif.got.tgz:196156.got - 2010.06.28 07:06:18.
