data_PCOD8143609
_publ_section_title
;
Structure prediction by ZEFSAII (Michael W. Deem and Ramdas Pophale) SiO2 
 PCOD8143609
Probable space group: C 2/C
;
_chemical_formula_sum "Si O2"
_cell_formula_units_Z 56
_cell_length_a 10.994702
_cell_length_b 11.152636
_cell_length_c 23.675112
_cell_angle_alpha 90.000000
_cell_angle_beta 106.528164
_cell_angle_gamma 90.000000
_cell_volume 2783.086500
_symmetry_space_group_name_H-M "C 2/C"
_symmetry_group_IT_number 15
_symmetry_cell_setting 'monoclinic'
loop_
_space_group_symop_operation_xyz
x,y,z
-x,y,1/2-z
-x,-y,-z
x,-y,1/2+z
1/2+x,1/2+y,z
1/2-x,1/2+y,1/2-z
1/2-x,1/2-y,-z
1/2+x,1/2-y,1/2+z
loop_
_atom_site_type_symbol
_atom_site_label
_atom_site_fract_x
_atom_site_fract_y
_atom_site_fract_z
Si Si1 0.214170 0.330019 0.167180
Si Si2 0.513398 0.312420 0.904533
Si Si3 0.805362 0.626479 0.626126
Si Si4 0.567513 0.583222 0.876292
Si Si5 0.359784 0.717032 0.795676
Si Si6 0.950212 0.123763 0.970859
Si Si7 0.026711 0.528192 0.187985
O O1 0.130456 0.222822 0.130237
O O2 0.290009 0.392649 0.125597
O O3 0.309681 0.270619 0.225124
O O4 0.131282 0.429865 0.186785
O O5 0.609706 0.235272 0.882128
O O6 0.541271 0.447492 0.890104
O O7 0.536537 0.285714 0.974514
O O8 0.753236 0.670146 0.679607
O O9 0.695194 0.604151 0.566451
O O10 0.892034 0.506167 0.640854
O O11 0.472278 0.619156 0.813070
O O12 0.533303 0.664613 0.927300
O O13 0.419056 0.843533 0.824520
O O14 0.000000 0.000000 0.000000
O O15 0.000000 0.527773 0.250000
#
# Coordination Sequence:
#
# PCOD8143609 Si02
#       7
#     8   8   8   8   8   8   8
#     4  11  23  38  59  89 123 159 204 250 307 371
#     4  10  22  39  63  88 117 164 201 254 306 356
#     4  10  21  41  61  88 123 152 208 250 306 369
#     4  10  22  39  57  89 121 156 207 247 307 367
#     4  11  23  37  60  88 122 163 196 250 309 368
#     4   9  20  38  63  86 117 160 201 254 306 357
#     4  11  22  38  59  85 122 160 198 250 306 365
#
# _framework density 20.121544
#
# number of rings (size 3 to 8) (size 9 to 14) (size 15 to 20)
#    0.000    1.714    1.429    2.571    2.000    5.143 
#    2.571    4.286    0.000   15.429    0.000    0.000 
#    0.000    0.000    0.000    0.000    0.000    0.000 
#
# Total GULP energy -347085.796350 kJ/mol
# GULP energy per Si atom -12395.921298 kJ/mol
# Density = 2.007575 g / cm^3
# Si number density = 20.121544 Si / 1000 Ang^3
#
#
#
# Elastic Constant Matrix: (Units=GPa)
#
#
# Indices 1 2 3 4 5 6 
#
# 1 115.8879 42.5436 44.4464 0.0000 0.0414 0.0000
# 2 42.5436 85.8491 24.6863 0.0000 7.6887 0.0000
# 3 44.4464 24.6863 99.1885 0.0000 22.5351 0.0000
# 4 0.0000 0.0000 0.0000 21.8790 0.0000 2.3439
# 5 0.0414 7.6887 22.5351 0.0000 32.7610 0.0000
# 6 0.0000 0.0000 0.0000 2.3439 0.0000 22.5173
#
#
#
# Elastic Compliance Matrix: (Units=1/GPa)
#
#
# Indices 1 2 3 4 5 6 
#
# 1 0.012619 -0.005114 -0.005512 0.000000 0.004976 0.000000
# 2 -0.005114 0.014643 -0.000680 0.000000 -0.002963 0.000000
# 3 -0.005512 -0.000680 0.015032 0.000000 -0.010174 0.000000
# 4 0.000000 0.000000 0.000000 0.046221 0.000000 -0.004811
# 5 0.004976 -0.002963 -0.010174 0.000000 0.038211 0.000000
# 6 0.000000 0.000000 0.000000 -0.004811 0.000000 0.044911
#
#
# Mechanical properties :
#
#
# Convention : Reuss Voigt Hill
#
# Bulk Modulus (GPa) = 50.80615 58.25313 54.52964
# Shear Modulus (GPa) = 24.89899 28.04806 26.47353
#
# Velocity S-wave (km/s) = 3.52153 3.73759 3.63117
# Velocity P-wave (km/s) = 6.46833 6.90214 6.68876
#
# Compressibility (1/GPa) = 0.01968266
#
# Stress axis : x y z
#
# Youngs Moduli (GPa) = 79.24734 68.28994 66.52270
#
# Poissons Ratio (x) = 0.34923 0.36669
# Poissons Ratio (y) = 0.40527 0.04523
# Poissons Ratio (z) = 0.43683 0.04643
#
# Static dielectric constant tensor:
#      x y z
#    x 1.679910 0.000000 -3.808520 
#    y 0.000000 3.415610 0.000000 
#    z -3.808520 0.000000 -1.585820 
# 
# 
# High freq. dielectric constant tensor:
#      x y z
#    x 1.802720 0.000000 -0.005190 
#    y 0.000000 1.773050 0.000000 
#    z -0.005190 0.000000 1.789520 
# 
# From -- ./inp_files/237122.got.cif
#   From: 2010.06.25/outbox.cif.g09.slc.cpg/sg15_119_cif.got.tgz:237122.got - 2010.06.28 07:06:18.
