data_PCOD8143324
_publ_section_title
;
Structure prediction by ZEFSAII (Michael W. Deem and Ramdas Pophale) SiO2 
 PCOD8143324
Probable space group: C 2/C
;
_chemical_formula_sum "Si O2"
_cell_formula_units_Z 48
_cell_length_a 11.759173
_cell_length_b 20.430319
_cell_length_c 13.595299
_cell_angle_alpha 90.000000
_cell_angle_beta 138.322694
_cell_angle_gamma 90.000000
_cell_volume 2171.798874
_symmetry_space_group_name_H-M "C 2/C"
_symmetry_group_IT_number 15
_symmetry_cell_setting 'monoclinic'
loop_
_space_group_symop_operation_xyz
x,y,z
-x,y,1/2-z
-x,-y,-z
x,-y,1/2+z
1/2+x,1/2+y,z
1/2-x,1/2+y,1/2-z
1/2-x,1/2-y,-z
1/2+x,1/2-y,1/2+z
loop_
_atom_site_type_symbol
_atom_site_label
_atom_site_fract_x
_atom_site_fract_y
_atom_site_fract_z
Si Si1 0.166486 0.146102 0.914383
Si Si2 0.718597 0.512148 0.034776
Si Si3 0.511439 0.688615 0.515481
Si Si4 0.619852 0.558941 0.171684
Si Si5 0.142686 0.315452 0.147743
Si Si6 0.084375 0.558012 0.992527
O O1 0.261907 0.081938 0.014682
O O2 0.289978 0.184352 0.920599
O O3 0.000000 0.121258 0.750000
O O4 0.112954 0.192867 0.970034
O O5 0.526183 0.489554 0.882504
O O6 0.731215 0.519331 0.161282
O O7 0.860919 0.463759 0.082179
O O8 0.474161 0.622036 0.433634
O O9 0.708552 0.689486 0.675508
O O10 0.475980 0.750900 0.422386
O O11 0.744260 0.580486 0.339471
O O12 0.038826 0.380964 0.102209
O O13 0.000000 0.500000 0.000000
#
# Coordination Sequence:
#
# PCOD8143324 Si02
#       6
#     8   8   8   8   8   8
#     4   9  17  33  59  89 122 163 204 259 319 374
#     4  10  21  40  65  92 130 167 210 257 321 378
#     4  10  22  40  62  87 125 173 217 258 318 377
#     4  10  23  41  66  91 127 170 214 259 314 380
#     4  11  22  39  60  91 128 165 215 267 316 379
#     4  12  24  38  63  99 132 164 209 263 320 378
#
# _framework density 22.101495
#
# number of rings (size 3 to 8) (size 9 to 14) (size 15 to 20)
#    0.000    1.667    1.667    3.000    7.000    0.667 
#    0.000    2.500    0.000    0.000    0.000    0.000 
#    0.000    0.000    0.000    0.000    0.000    0.000 
#
# Total GULP energy -297595.572607 kJ/mol
# GULP energy per Si atom -12399.815525 kJ/mol
# Density = 2.205119 g / cm^3
# Si number density = 22.101495 Si / 1000 Ang^3
#
#
#
# Elastic Constant Matrix: (Units=GPa)
#
#
# Indices 1 2 3 4 5 6 
#
# 1 76.0405 36.3290 17.5109 0.0000 4.3486 0.0000
# 2 36.3290 132.0156 55.2171 0.0000 6.4987 0.0000
# 3 17.5109 55.2171 98.8206 0.0000 9.0402 0.0000
# 4 0.0000 0.0000 0.0000 35.2750 0.0000 5.0381
# 5 4.3486 6.4987 9.0402 0.0000 20.4867 0.0000
# 6 0.0000 0.0000 0.0000 5.0381 0.0000 24.6342
#
#
#
# Elastic Compliance Matrix: (Units=1/GPa)
#
#
# Indices 1 2 3 4 5 6 
#
# 1 0.015224 -0.003968 -0.000312 0.000000 -0.001835 0.000000
# 2 -0.003968 0.010930 -0.005381 0.000000 -0.000250 0.000000
# 3 -0.000312 -0.005381 0.013567 0.000000 -0.004213 0.000000
# 4 0.000000 0.000000 0.000000 0.029202 0.000000 -0.005972
# 5 -0.001835 -0.000250 -0.004213 0.000000 0.051140 0.000000
# 6 0.000000 0.000000 0.000000 -0.005972 0.000000 0.041815
#
#
# Mechanical properties :
#
#
# Convention : Reuss Voigt Hill
#
# Bulk Modulus (GPa) = 49.02748 58.33229 53.67989
# Shear Modulus (GPa) = 26.59565 29.26716 27.93140
#
# Velocity S-wave (km/s) = 3.47268 3.64293 3.55882
# Velocity P-wave (km/s) = 6.18954 6.64415 6.42087
#
# Compressibility (1/GPa) = 0.02039672
#
# Stress axis : x y z
#
# Youngs Moduli (GPa) = 65.68714 91.49168 73.70865
#
# Poissons Ratio (x) = 0.36307 0.02303
# Poissons Ratio (y) = 0.26067 0.39664
# Poissons Ratio (z) = 0.02052 0.49233
#
# Static dielectric constant tensor:
#      x y z
#    x 3.992870 0.000000 -0.044650 
#    y 0.000000 3.760930 0.000000 
#    z -0.044650 0.000000 3.848010 
# 
# 
# High freq. dielectric constant tensor:
#      x y z
#    x 1.857780 0.000000 0.000500 
#    y 0.000000 1.868440 0.000000 
#    z 0.000500 0.000000 1.865380 
# 
# From -- ./inp_files/147437.got.cif
#   From: 2010.06.25/outbox.cif.g09.slc.cpg/sg15_74_cif.got.tgz:147437.got - 2010.06.28 07:06:18.
