data_PCOD8143071
_publ_section_title
;
Structure prediction by ZEFSAII (Michael W. Deem and Ramdas Pophale) SiO2 
 PCOD8143071
Probable space group: C 2/C
;
_chemical_formula_sum "Si O2"
_cell_formula_units_Z 64
_cell_length_a 30.579949
_cell_length_b 14.514161
_cell_length_c 8.619486
_cell_angle_alpha 90.000000
_cell_angle_beta 130.648185
_cell_angle_gamma 90.000000
_cell_volume 2902.643760
_symmetry_space_group_name_H-M "C 2/C"
_symmetry_group_IT_number 15
_symmetry_cell_setting 'monoclinic'
loop_
_space_group_symop_operation_xyz
x,y,z
-x,y,1/2-z
-x,-y,-z
x,-y,1/2+z
1/2+x,1/2+y,z
1/2-x,1/2+y,1/2-z
1/2-x,1/2-y,-z
1/2+x,1/2-y,1/2+z
loop_
_atom_site_type_symbol
_atom_site_label
_atom_site_fract_x
_atom_site_fract_y
_atom_site_fract_z
Si Si1 0.800052 0.562559 0.770581
Si Si2 0.704941 0.121621 0.384845
Si Si3 0.428029 0.328949 0.212372
Si Si4 0.170159 0.178054 0.777114
Si Si5 0.626187 0.776975 0.186317
Si Si6 0.058638 0.976693 0.724530
Si Si7 0.027771 0.777415 0.664237
Si Si8 0.672730 0.393267 0.938216
O O1 0.819227 0.457364 0.785974
O O2 0.841198 0.627472 0.762718
O O3 0.735051 0.562976 0.552003
O O4 0.803934 0.591510 0.957379
O O5 0.771492 0.145479 0.502610
O O6 0.667604 0.211067 0.259044
O O7 0.384188 0.351358 0.248770
O O8 0.435324 0.431878 0.150973
O O9 0.486840 0.290330 0.421378
O O10 0.407062 0.252070 0.046161
O O11 0.165875 0.131592 0.601711
O O12 0.581295 0.783372 0.226314
O O13 0.672358 0.697583 0.330249
O O14 0.049407 0.876788 0.782729
O O15 0.119629 0.962134 0.770148
O O16 0.000000 0.000000 0.500000
O O17 0.000000 0.726348 0.750000
#
# Coordination Sequence:
#
# PCOD8143071 Si02
#       8
#     8   8   8   8   8   8   8   8
#     4  11  23  41  61  94 124 168 217 269 324 389
#     4  10  23  40  63  91 126 164 214 269 323 379
#     4  11  20  36  62  88 130 169 206 271 321 387
#     4  10  21  40  61  91 126 169 210 260 325 390
#     4  11  23  38  58  92 125 167 217 262 326 384
#     4   9  20  35  57  92 130 168 214 259 315 390
#     4  10  22  39  59  89 124 168 220 263 327 396
#     4  10  22  37  58  91 131 175 213 257 318 392
#
# _framework density 22.048864999999999
#
# number of rings (size 3 to 8) (size 9 to 14) (size 15 to 20)
#    0.000    1.750    1.250    3.000    1.750   10.000 
#    0.000    0.000    0.000    0.750    0.000    0.000 
#    0.000    0.000    0.000    0.000    0.000    0.000 
#
# Total GULP energy -396475.375772 kJ/mol
# GULP energy per Si atom -12389.855493 kJ/mol
# Density = 2.199868 g / cm^3
# Si number density = 22.048865 Si / 1000 Ang^3
#
#
#
# Elastic Constant Matrix: (Units=GPa)
#
#
# Indices 1 2 3 4 5 6 
#
# 1 112.6276 42.3604 18.4745 0.0000 14.1341 0.0000
# 2 42.3604 105.3939 10.5985 0.0000 10.1200 0.0000
# 3 18.4745 10.5985 50.9661 0.0000 11.7941 0.0000
# 4 0.0000 0.0000 0.0000 23.4378 0.0000 -0.2537
# 5 14.1341 10.1200 11.7941 0.0000 22.0245 0.0000
# 6 0.0000 0.0000 0.0000 -0.2537 0.0000 18.0018
#
#
#
# Elastic Compliance Matrix: (Units=1/GPa)
#
#
# Indices 1 2 3 4 5 6 
#
# 1 0.011244 -0.003885 -0.002296 0.000000 -0.004201 0.000000
# 2 -0.003885 0.011328 -0.000365 0.000000 -0.002516 0.000000
# 3 -0.002296 -0.000365 0.022999 0.000000 -0.010675 0.000000
# 4 0.000000 0.000000 0.000000 0.042673 0.000000 0.000601
# 5 -0.004201 -0.002516 -0.010675 0.000000 0.054973 0.000000
# 6 0.000000 0.000000 0.000000 0.000601 0.000000 0.055558
#
#
# Mechanical properties :
#
#
# Convention : Reuss Voigt Hill
#
# Bulk Modulus (GPa) = 30.78841 45.76162 38.27501
# Shear Modulus (GPa) = 22.45247 25.86311 24.15779
#
# Velocity S-wave (km/s) = 3.19455 3.42861 3.31365
# Velocity P-wave (km/s) = 5.25366 6.03933 5.66014
#
# Compressibility (1/GPa) = 0.03247975
#
# Stress axis : x y z
#
# Youngs Moduli (GPa) = 88.93823 88.27686 43.47960
#
# Poissons Ratio (x) = 0.34295 0.09981
# Poissons Ratio (y) = 0.34552 0.01588
# Poissons Ratio (z) = 0.20417 0.03223
#
# Static dielectric constant tensor:
#      x y z
#    x 4.196310 0.000000 0.350970 
#    y 0.000000 3.903400 0.000000 
#    z 0.350970 0.000000 3.949940 
# 
# 
# High freq. dielectric constant tensor:
#      x y z
#    x 1.871860 0.000000 0.010550 
#    y 0.000000 1.844930 0.000000 
#    z 0.010550 0.000000 1.861860 
# 
# From -- ./inp_files/70168.got.cif
#   From: 2010.06.25/outbox.cif.g09.slc.cpg/sg15_36_cif.got.tgz:70168.got - 2010.06.28 07:06:18.
