data_PCOD8143548
_publ_section_title
;
Structure prediction by ZEFSAII (Michael W. Deem and Ramdas Pophale) SiO2 
 PCOD8143548
Probable space group: C 2/C
;
_chemical_formula_sum "Si O2"
_cell_formula_units_Z 52
_cell_length_a 30.523412
_cell_length_b 9.458290
_cell_length_c 14.443452
_cell_angle_alpha 90.000000
_cell_angle_beta 146.115757
_cell_angle_gamma 90.000000
_cell_volume 2324.741590
_symmetry_space_group_name_H-M "C 2/C"
_symmetry_group_IT_number 15
_symmetry_cell_setting 'monoclinic'
loop_
_space_group_symop_operation_xyz
x,y,z
-x,y,1/2-z
-x,-y,-z
x,-y,1/2+z
1/2+x,1/2+y,z
1/2-x,1/2+y,1/2-z
1/2-x,1/2-y,-z
1/2+x,1/2-y,1/2+z
loop_
_atom_site_type_symbol
_atom_site_label
_atom_site_fract_x
_atom_site_fract_y
_atom_site_fract_z
Si Si1 0.086788 0.013588 0.227518
Si Si2 0.424750 0.427683 0.996153
Si Si3 0.666292 0.231702 0.309215
Si Si4 0.000000 0.691251 0.250000
Si Si5 0.215705 0.869389 0.223096
Si Si6 0.636115 0.976808 0.899065
Si Si7 0.803125 0.225672 0.003955
O O1 0.150682 0.079451 0.406949
O O2 0.106197 0.849299 0.243608
O O3 0.090632 0.105381 0.139466
O O4 0.003154 0.025880 0.132707
O O5 0.443126 0.286399 0.085941
O O6 0.349137 0.506868 0.906524
O O7 0.750000 0.250000 0.500000
O O8 0.673301 0.246515 0.210500
O O9 0.640492 0.077110 0.299588
O O10 0.054895 0.584698 0.291428
O O11 0.290151 0.928971 0.408652
O O12 0.243373 0.797194 0.174939
O O13 0.635295 0.145928 0.896628
O O14 0.750000 0.250000 0.000000
#
# Coordination Sequence:
#
# PCOD8143548 Si02
#       7
#     8   8   8   4   8   8   8
#     4  10  21  40  70  96 132 176 241 269 339 407
#     4  10  21  42  72 100 125 188 227 283 325 426
#     4   9  18  41  64  95 132 174 224 281 332 405
#     4  12  24  42  72  98 148 170 230 280 358 388
#     4  10  24  41  71  95 134 182 239 269 338 415
#     4  11  26  42  67 104 139 179 223 287 348 400
#     4  12  26  43  66 100 138 180 225 291 337 410
#
# _framework density 22.368075999999999
#
# number of rings (size 3 to 8) (size 9 to 14) (size 15 to 20)
#    0.000    1.538    1.538    3.692    4.308    3.692 
#    0.000    0.769    0.000    0.000    0.000    0.000 
#    0.000    0.000    0.000    0.000    0.000    0.000 
#
# Total GULP energy -322167.057470 kJ/mol
# GULP energy per Si atom -12391.040672 kJ/mol
# Density = 2.231717 g / cm^3
# Si number density = 22.368076 Si / 1000 Ang^3
#
#
#
# Elastic Constant Matrix: (Units=GPa)
#
#
# Indices 1 2 3 4 5 6 
#
# 1 116.9931 19.7209 27.4595 0.0000 -6.0076 0.0000
# 2 19.7209 55.1880 12.1136 0.0000 -11.6343 0.0000
# 3 27.4595 12.1136 70.8473 0.0000 1.8731 0.0000
# 4 0.0000 0.0000 0.0000 27.2291 0.0000 4.8090
# 5 -6.0076 -11.6343 1.8731 0.0000 35.2434 0.0000
# 6 0.0000 0.0000 0.0000 4.8090 0.0000 16.8410
#
#
#
# Elastic Compliance Matrix: (Units=1/GPa)
#
#
# Indices 1 2 3 4 5 6 
#
# 1 0.009828 -0.002552 -0.003400 0.000000 0.001013 0.000000
# 2 -0.002552 0.021048 -0.002786 0.000000 0.006661 0.000000
# 3 -0.003400 -0.002786 0.015971 0.000000 -0.002348 0.000000
# 4 0.000000 0.000000 0.000000 0.038676 0.000000 -0.011044
# 5 0.001013 0.006661 -0.002348 0.000000 0.030871 0.000000
# 6 0.000000 0.000000 0.000000 -0.011044 0.000000 0.062532
#
#
# Mechanical properties :
#
#
# Convention : Reuss Voigt Hill
#
# Bulk Modulus (GPa) = 34.04657 40.17960 37.11309
# Shear Modulus (GPa) = 24.24949 28.11165 26.18057
#
# Velocity S-wave (km/s) = 3.29616 3.54895 3.42489
# Velocity P-wave (km/s) = 5.45347 5.89875 5.68048
#
# Compressibility (1/GPa) = 0.02937154
#
# Stress axis : x y z
#
# Youngs Moduli (GPa) = 101.75391 47.51157 62.61400
#
# Poissons Ratio (x) = 0.12125 0.21286
# Poissons Ratio (y) = 0.25967 0.17443
# Poissons Ratio (z) = 0.34591 0.13235
#
# Static dielectric constant tensor:
#      x y z
#    x 4.343570 0.000000 -0.061970 
#    y 0.000000 3.675190 0.000000 
#    z -0.061970 0.000000 3.982460 
# 
# 
# High freq. dielectric constant tensor:
#      x y z
#    x 1.893970 0.000000 -0.002880 
#    y 0.000000 1.859110 0.000000 
#    z -0.002880 0.000000 1.877820 
# 
# From -- ./inp_files/181238.got.cif
#   From: 2010.06.25/outbox.cif.g09.slc.cpg/sg15_91_cif.got.tgz:181238.got - 2010.06.28 07:06:18.
