data_PCOD8143570
_publ_section_title
;
Structure prediction by ZEFSAII (Michael W. Deem and Ramdas Pophale) SiO2 
 PCOD8143570
Probable space group: C 2/C
;
_chemical_formula_sum "Si O2"
_cell_formula_units_Z 36
_cell_length_a 4.981162
_cell_length_b 20.536911
_cell_length_c 14.726736
_cell_angle_alpha 90.000000
_cell_angle_beta 99.250918
_cell_angle_gamma 90.000000
_cell_volume 1486.916941
_symmetry_space_group_name_H-M "C 2/C"
_symmetry_group_IT_number 15
_symmetry_cell_setting 'monoclinic'
loop_
_space_group_symop_operation_xyz
x,y,z
-x,y,1/2-z
-x,-y,-z
x,-y,1/2+z
1/2+x,1/2+y,z
1/2-x,1/2+y,1/2-z
1/2-x,1/2-y,-z
1/2+x,1/2-y,1/2+z
loop_
_atom_site_type_symbol
_atom_site_label
_atom_site_fract_x
_atom_site_fract_y
_atom_site_fract_z
Si Si1 0.471188 0.467493 0.901474
Si Si2 0.500000 0.434375 0.250000
Si Si3 0.479675 0.884106 0.920460
Si Si4 0.856943 0.660523 0.877166
Si Si5 0.161536 0.756376 0.098669
O O1 0.380364 0.522212 0.824945
O O2 0.758443 0.438675 0.885921
O O3 0.259458 0.408144 0.891481
O O4 0.500000 0.500000 0.000000
O O5 0.251323 0.389999 0.202551
O O6 0.392923 0.816340 0.867044
O O7 0.507279 0.877467 0.030982
O O8 0.614135 0.703579 0.904920
O O9 0.086851 0.705625 0.840123
O O10 0.250000 0.750000 0.000000
#
# Coordination Sequence:
#
# PCOD8143570 Si02
#       5
#     8   4   8   8   8
#     4  12  26  45  70 105 146 194 238 294 357 425
#     4  12  30  44  72 108 150 190 250 300 358 432
#     4  11  22  45  73 102 141 186 243 285 360 433
#     4  11  23  42  70 108 138 182 238 302 357 431
#     4  10  21  40  73 104 132 178 235 296 366 421
#
# _framework density 24.211171
#
# number of rings (size 3 to 8) (size 9 to 14) (size 15 to 20)
#    0.000    0.889    2.222    7.333    0.000    3.556 
#    0.000    4.444    0.000    2.667    0.000    0.000 
#    0.000    0.000    0.000    0.000    0.000    0.000 
#
# Total GULP energy -223247.559601 kJ/mol
# GULP energy per Si atom -12402.642200 kJ/mol
# Density = 2.415607 g / cm^3
# Si number density = 24.211171 Si / 1000 Ang^3
#
#
#
# Elastic Constant Matrix: (Units=GPa)
#
#
# Indices 1 2 3 4 5 6 
#
# 1 135.1278 57.9843 14.3104 0.0000 11.7320 0.0000
# 2 57.9843 165.2088 56.9703 0.0000 17.9719 0.0000
# 3 14.3104 56.9703 85.5280 0.0000 18.2584 0.0000
# 4 0.0000 0.0000 0.0000 28.1027 0.0000 8.1342
# 5 11.7320 17.9719 18.2584 0.0000 26.9579 0.0000
# 6 0.0000 0.0000 0.0000 8.1342 0.0000 56.5316
#
#
#
# Elastic Compliance Matrix: (Units=1/GPa)
#
#
# Indices 1 2 3 4 5 6 
#
# 1 0.008893 -0.003271 0.001229 0.000000 -0.002522 0.000000
# 2 -0.003271 0.009152 -0.005320 0.000000 -0.001075 0.000000
# 3 0.001229 -0.005320 0.016819 0.000000 -0.008380 0.000000
# 4 0.000000 0.000000 0.000000 0.037130 0.000000 -0.005343
# 5 -0.002522 -0.001075 -0.008380 0.000000 0.044585 0.000000
# 6 0.000000 0.000000 0.000000 -0.005343 0.000000 0.018458
#
#
# Mechanical properties :
#
#
# Convention : Reuss Voigt Hill
#
# Bulk Modulus (GPa) = 49.64897 71.59941 60.62419
# Shear Modulus (GPa) = 31.95456 39.42509 35.68983
#
# Velocity S-wave (km/s) = 3.63688 4.03970 3.84357
# Velocity P-wave (km/s) = 6.17957 7.16910 6.69265
#
# Compressibility (1/GPa) = 0.02014141
#
# Stress axis : x y z
#
# Youngs Moduli (GPa) = 112.45258 109.26365 59.45776
#
# Poissons Ratio (x) = 0.35735 -0.07308
# Poissons Ratio (y) = 0.36778 0.31629
# Poissons Ratio (z) = -0.13821 0.58123
#
# Static dielectric constant tensor:
#      x y z
#    x 4.488540 0.000000 0.233190 
#    y 0.000000 4.442030 0.000000 
#    z 0.233190 0.000000 4.092450 
# 
# 
# High freq. dielectric constant tensor:
#      x y z
#    x 1.975860 0.000000 0.002010 
#    y 0.000000 1.981600 0.000000 
#    z 0.002010 0.000000 1.936950 
# 
# From -- ./inp_files/128748.got.cif
#   From: 2010.06.25/outbox.cif.g09.slc.cpg/sg15_65_cif.got.tgz:128748.got - 2010.06.28 07:06:18.
