data_PCOD8143879
_publ_section_title
;
Structure prediction by ZEFSAII (Michael W. Deem and Ramdas Pophale) SiO2 
 PCOD8143879
Probable space group: C 2/C
;
_chemical_formula_sum "Si O2"
_cell_formula_units_Z 36
_cell_length_a 9.828319
_cell_length_b 16.841834
_cell_length_c 10.558688
_cell_angle_alpha 90.000000
_cell_angle_beta 77.527094
_cell_angle_gamma 90.000000
_cell_volume 1706.497180
_symmetry_space_group_name_H-M "C 2/C"
_symmetry_group_IT_number 15
_symmetry_cell_setting 'monoclinic'
loop_
_space_group_symop_operation_xyz
x,y,z
-x,y,1/2-z
-x,-y,-z
x,-y,1/2+z
1/2+x,1/2+y,z
1/2-x,1/2+y,1/2-z
1/2-x,1/2-y,-z
1/2+x,1/2-y,1/2+z
loop_
_atom_site_type_symbol
_atom_site_label
_atom_site_fract_x
_atom_site_fract_y
_atom_site_fract_z
Si Si1 0.357141 0.629346 0.480947
Si Si2 0.772752 0.524051 0.792621
Si Si3 0.500000 0.891400 0.750000
Si Si4 0.587646 0.793590 0.961840
Si Si5 0.500000 0.853023 0.250000
Si Si6 0.000000 0.958882 0.750000
O O1 0.286766 0.553415 0.561319
O O2 0.411374 0.698547 0.565750
O O3 0.241971 0.669976 0.412950
O O4 0.488228 0.597177 0.375248
O O5 0.860129 0.443256 0.787175
O O6 0.874275 0.592747 0.721003
O O7 0.640156 0.511670 0.727682
O O8 0.492217 0.836829 0.877381
O O9 0.541678 0.802319 0.118683
#
# Coordination Sequence:
#
# PCOD8143879 Si02
#       6
#     8   8   4   8   4   4
#     4  10  22  39  61  90 129 167 205 259 318 374
#     4  10  23  37  63  91 127 162 213 258 314 368
#     4  11  22  41  69  96 121 166 216 263 300 381
#     4  10  21  41  66  92 124 164 213 260 313 367
#     4   9  21  40  66  91 121 166 218 253 305 378
#     4  12  21  39  61  89 126 170 204 260 317 381
#
# _framework density 21.095846000000002
#
# number of rings (size 3 to 8) (size 9 to 14) (size 15 to 20)
#    0.000    1.778    2.222    1.333    3.111    3.556 
#    0.000    1.111    0.000    0.000    0.000    0.000 
#    0.000    0.000    0.000    0.000    0.000    0.000 
#
# Total GULP energy -223074.472385 kJ/mol
# GULP energy per Si atom -12393.026244 kJ/mol
# Density = 2.104783 g / cm^3
# Si number density = 21.095846 Si / 1000 Ang^3
#
#
#
# Elastic Constant Matrix: (Units=GPa)
#
#
# Indices 1 2 3 4 5 6 
#
# 1 114.4821 45.3314 24.0321 0.0000 -4.6063 0.0000
# 2 45.3314 96.1645 45.6160 0.0000 2.2813 0.0000
# 3 24.0321 45.6160 96.3991 0.0000 -6.5272 0.0000
# 4 0.0000 0.0000 0.0000 17.0993 0.0000 -3.0807
# 5 -4.6063 2.2813 -6.5272 0.0000 31.2425 0.0000
# 6 0.0000 0.0000 0.0000 -3.0807 0.0000 18.7448
#
#
#
# Elastic Compliance Matrix: (Units=1/GPa)
#
#
# Indices 1 2 3 4 5 6 
#
# 1 0.010862 -0.005086 -0.000170 0.000000 0.001937 0.000000
# 2 -0.005086 0.015960 -0.006506 0.000000 -0.003274 0.000000
# 3 -0.000170 -0.006506 0.013719 0.000000 0.003316 0.000000
# 4 0.000000 0.000000 0.000000 0.060266 0.000000 0.009905
# 5 0.001937 -0.003274 0.003316 0.000000 0.033225 0.000000
# 6 0.000000 0.000000 0.000000 0.009905 0.000000 0.054976
#
#
# Mechanical properties :
#
#
# Convention : Reuss Voigt Hill
#
# Bulk Modulus (GPa) = 58.76288 59.66719 59.21503
# Shear Modulus (GPa) = 22.91411 26.22174 24.56793
#
# Velocity S-wave (km/s) = 3.29932 3.52942 3.41631
# Velocity P-wave (km/s) = 6.51380 6.70480 6.60999
#
# Compressibility (1/GPa) = 0.01701755
#
# Stress axis : x y z
#
# Youngs Moduli (GPa) = 92.06016 62.65612 72.89032
#
# Poissons Ratio (x) = 0.31865 0.01241
# Poissons Ratio (y) = 0.46819 0.47424
# Poissons Ratio (z) = 0.01567 0.40765
#
# Static dielectric constant tensor:
#      x y z
#    x 3.764590 0.000000 -0.221770 
#    y 0.000000 4.001540 0.000000 
#    z -0.221770 0.000000 3.574780 
# 
# 
# High freq. dielectric constant tensor:
#      x y z
#    x 1.814780 0.000000 -0.021810 
#    y 0.000000 1.834800 0.000000 
#    z -0.021810 0.000000 1.811730 
# 
# From -- ./inp_files/22570.got.cif
#   From: 2010.06.25/outbox.cif.g09.slc.cpg/sg15_12_cif.got.tgz:22570.got - 2010.06.28 07:06:18.
