data_PCOD8143064
_publ_section_title
;
Structure prediction by ZEFSAII (Michael W. Deem and Ramdas Pophale) SiO2 
 PCOD8143064
Probable space group: C 2/C
;
_chemical_formula_sum "Si O2"
_cell_formula_units_Z 48
_cell_length_a 27.595175
_cell_length_b 16.759020
_cell_length_c 9.442155
_cell_angle_alpha 90.000000
_cell_angle_beta 34.868715
_cell_angle_gamma 90.000000
_cell_volume 2496.430860
_symmetry_space_group_name_H-M "C 2/C"
_symmetry_group_IT_number 15
_symmetry_cell_setting 'monoclinic'
loop_
_space_group_symop_operation_xyz
x,y,z
-x,y,1/2-z
-x,-y,-z
x,-y,1/2+z
1/2+x,1/2+y,z
1/2-x,1/2+y,1/2-z
1/2-x,1/2-y,-z
1/2+x,1/2-y,1/2+z
loop_
_atom_site_type_symbol
_atom_site_label
_atom_site_fract_x
_atom_site_fract_y
_atom_site_fract_z
Si Si1 0.728361 0.762962 0.387893
Si Si2 0.725783 0.944201 0.338766
Si Si3 0.154509 0.688649 0.614580
Si Si4 0.056479 0.456730 0.249929
Si Si5 0.098682 0.806702 0.993197
Si Si6 0.795441 0.933599 0.875093
O O1 0.750000 0.750000 0.500000
O O2 0.701288 0.854437 0.434477
O O3 0.649342 0.709676 0.519520
O O4 0.812459 0.741869 0.095940
O O5 0.640065 0.992687 0.510291
O O6 0.775925 0.982238 0.349301
O O7 0.791372 0.949376 0.051536
O O8 0.077781 0.632383 0.750216
O O9 0.228338 0.633841 0.496607
O O10 0.126917 0.743489 0.808861
O O11 0.000000 0.446230 0.250000
O O12 0.000000 0.500000 0.500000
O O13 0.000000 0.797010 0.250000
O O14 0.115759 0.896407 0.892259
#
# Coordination Sequence:
#
# PCOD8143064 Si02
#       6
#     8   8   8   8   8   8
#     4  11  24  39  68  93 120 167 221 259 305 386
#     4  11  22  39  65  85 127 166 209 255 314 377
#     4  10  21  41  61  87 126 167 208 248 312 394
#     4  11  25  36  59  97 134 159 196 258 327 384
#     4  11  23  42  66  89 124 167 209 266 327 368
#     4  10  21  40  61  89 116 166 211 250 306 386
#
# _framework density 19.227450999999999
#
# number of rings (size 3 to 8) (size 9 to 14) (size 15 to 20)
#    0.000    1.333    3.333    3.000   11.667    0.000 
#    0.000    0.833    0.000    0.000    0.000    0.000 
#    0.000    0.000    0.000    0.000    0.000    0.000 
#
# Total GULP energy -297592.293497 kJ/mol
# GULP energy per Si atom -12399.678896 kJ/mol
# Density = 1.918369 g / cm^3
# Si number density = 19.227451 Si / 1000 Ang^3
#
#
#
# Elastic Constant Matrix: (Units=GPa)
#
#
# Indices 1 2 3 4 5 6 
#
# 1 105.4444 11.8659 41.5467 0.0000 11.2467 0.0000
# 2 11.8659 63.0112 11.1444 0.0000 -4.7122 0.0000
# 3 41.5467 11.1444 80.9195 0.0000 13.4017 0.0000
# 4 0.0000 0.0000 0.0000 32.0163 0.0000 6.6438
# 5 11.2467 -4.7122 13.4017 0.0000 24.8872 0.0000
# 6 0.0000 0.0000 0.0000 6.6438 0.0000 22.6237
#
#
#
# Elastic Compliance Matrix: (Units=1/GPa)
#
#
# Indices 1 2 3 4 5 6 
#
# 1 0.012143 -0.001510 -0.005567 0.000000 -0.002776 0.000000
# 2 -0.001510 0.016972 -0.002424 0.000000 0.005201 0.000000
# 3 -0.005567 -0.002424 0.016699 0.000000 -0.006935 0.000000
# 4 0.000000 0.000000 0.000000 0.033261 0.000000 -0.009768
# 5 -0.002776 0.005201 -0.006935 0.000000 0.046155 0.000000
# 6 0.000000 0.000000 0.000000 -0.009768 0.000000 0.047070
#
#
# Mechanical properties :
#
#
# Convention : Reuss Voigt Hill
#
# Bulk Modulus (GPa) = 37.29530 42.05434 39.67482
# Shear Modulus (GPa) = 24.97028 28.22666 26.59847
#
# Velocity S-wave (km/s) = 3.60763 3.83566 3.72339
# Velocity P-wave (km/s) = 6.06567 6.44483 6.25812
#
# Compressibility (1/GPa) = 0.02681303
#
# Stress axis : x y z
#
# Youngs Moduli (GPa) = 82.35127 58.92030 59.88500
#
# Poissons Ratio (x) = 0.08895 0.33338
# Poissons Ratio (y) = 0.12432 0.14514
# Poissons Ratio (z) = 0.45846 0.14280
#
# Static dielectric constant tensor:
#      x y z
#    x 3.576680 0.000000 -0.001390 
#    y 0.000000 4.582780 0.000000 
#    z -0.001390 0.000000 3.855580 
# 
# 
# High freq. dielectric constant tensor:
#      x y z
#    x 1.741310 0.000000 0.018160 
#    y 0.000000 1.757150 0.000000 
#    z 0.018160 0.000000 1.744700 
# 
# From -- ./inp_files/56411.got.cif
#   From: 2010.06.25/outbox.cif.g09.slc.cpg/sg15_29_cif.got.tgz:56411.got - 2010.06.28 07:06:18.
