data_PCOD8143034
_publ_section_title
;
Structure prediction by ZEFSAII (Michael W. Deem and Ramdas Pophale) SiO2 
 PCOD8143034
Probable space group: C 2/C
;
_chemical_formula_sum "Si O2"
_cell_formula_units_Z 56
_cell_length_a 12.648148
_cell_length_b 25.629426
_cell_length_c 8.791119
_cell_angle_alpha 90.000000
_cell_angle_beta 62.190021
_cell_angle_gamma 90.000000
_cell_volume 2520.621774
_symmetry_space_group_name_H-M "C 2/C"
_symmetry_group_IT_number 15
_symmetry_cell_setting 'monoclinic'
loop_
_space_group_symop_operation_xyz
x,y,z
-x,y,1/2-z
-x,-y,-z
x,-y,1/2+z
1/2+x,1/2+y,z
1/2-x,1/2+y,1/2-z
1/2-x,1/2-y,-z
1/2+x,1/2-y,1/2+z
loop_
_atom_site_type_symbol
_atom_site_label
_atom_site_fract_x
_atom_site_fract_y
_atom_site_fract_z
Si Si1 0.227980 0.659426 0.396048
Si Si2 0.969762 0.835267 0.552236
Si Si3 0.259911 0.544107 0.412216
Si Si4 0.500000 0.397904 0.250000
Si Si5 0.234719 0.057490 0.743663
Si Si6 0.500000 0.416283 0.750000
Si Si7 0.519374 0.775713 0.915595
Si Si8 0.382606 0.154364 0.728752
O O1 0.357514 0.671392 0.240932
O O2 0.190787 0.597533 0.414831
O O3 0.213798 0.677024 0.583664
O O4 0.138168 0.690832 0.350523
O O5 0.036227 0.780727 0.482136
O O6 0.933661 0.860283 0.415647
O O7 0.055964 0.877678 0.579717
O O8 0.280681 0.537376 0.576257
O O9 0.201944 0.491430 0.385684
O O10 0.393958 0.549466 0.251036
O O11 0.394119 0.431672 0.246501
O O12 0.327058 0.105466 0.675346
O O13 0.500000 0.769392 0.750000
O O14 0.410338 0.803341 0.079262
O O15 0.500000 0.139218 0.750000
#
# Coordination Sequence:
#
# PCOD8143034 Si02
#       8
#     8   8   8   4   8   4   8   8
#     4   9  23  44  62  89 131 168 221 265 318 398
#     4  11  24  41  63  95 133 174 212 264 332 390
#     4  10  22  40  61  92 126 170 217 265 325 388
#     4  12  25  40  62 102 142 168 205 272 332 398
#     4  11  24  40  66  95 133 173 214 269 333 384
#     4  10  21  40  60  88 130 168 217 258 314 406
#     4  11  24  41  65  97 127 169 221 274 327 380
#     4   9  22  47  67  92 132 171 226 273 317 386
#
# _framework density 22.216740999999999
#
# number of rings (size 3 to 8) (size 9 to 14) (size 15 to 20)
#    0.000    1.714    2.143    0.429    9.000    3.429 
#    0.000    7.143    0.000    0.000    0.000    0.000 
#    0.000    0.000    0.000    0.000    0.000    0.000 
#
# Total GULP energy -346922.716893 kJ/mol
# GULP energy per Si atom -12390.097032 kJ/mol
# Density = 2.216617 g / cm^3
# Si number density = 22.216741 Si / 1000 Ang^3
#
#
#
# Elastic Constant Matrix: (Units=GPa)
#
#
# Indices 1 2 3 4 5 6 
#
# 1 52.4984 26.1895 17.4241 0.0000 9.9443 0.0000
# 2 26.1895 106.9189 30.6319 0.0000 19.1699 0.0000
# 3 17.4241 30.6319 108.4664 0.0000 4.9917 0.0000
# 4 0.0000 0.0000 0.0000 37.1537 0.0000 9.2839
# 5 9.9443 19.1699 4.9917 0.0000 30.8966 0.0000
# 6 0.0000 0.0000 0.0000 9.2839 0.0000 30.0373
#
#
#
# Elastic Compliance Matrix: (Units=1/GPa)
#
#
# Indices 1 2 3 4 5 6 
#
# 1 0.022689 -0.004119 -0.002280 0.000000 -0.004378 0.000000
# 2 -0.004119 0.012114 -0.002493 0.000000 -0.005787 0.000000
# 3 -0.002280 -0.002493 0.010261 0.000000 0.000623 0.000000
# 4 0.000000 0.000000 0.000000 0.029168 0.000000 -0.009015
# 5 -0.004378 -0.005787 0.000623 0.000000 0.037265 0.000000
# 6 0.000000 0.000000 0.000000 -0.009015 0.000000 0.036078
#
#
# Mechanical properties :
#
#
# Convention : Reuss Voigt Hill
#
# Bulk Modulus (GPa) = 36.65763 46.26385 41.46074
# Shear Modulus (GPa) = 28.66088 32.52673 30.59381
#
# Velocity S-wave (km/s) = 3.59563 3.83046 3.71490
# Velocity P-wave (km/s) = 5.81153 6.35864 6.09123
#
# Compressibility (1/GPa) = 0.02727945
#
# Stress axis : x y z
#
# Youngs Moduli (GPa) = 44.07360 82.55052 97.45570
#
# Poissons Ratio (x) = 0.34006 0.22219
# Poissons Ratio (y) = 0.18156 0.24295
# Poissons Ratio (z) = 0.10049 0.20579
#
# Static dielectric constant tensor:
#      x y z
#    x 3.805080 0.000000 0.087720 
#    y 0.000000 4.141710 0.000000 
#    z 0.087720 0.000000 4.277760 
# 
# 
# High freq. dielectric constant tensor:
#      x y z
#    x 1.848350 0.000000 0.007670 
#    y 0.000000 1.881840 0.000000 
#    z 0.007670 0.000000 1.886380 
# 
# From -- ./inp_files/34230.got.cif
#   From: 2010.06.25/outbox.cif.g09.slc.cpg/sg15_18_cif.got.tgz:34230.got - 2010.06.28 07:06:18.
