data_PCOD8143646
_publ_section_title
;
Structure prediction by ZEFSAII (Michael W. Deem and Ramdas Pophale) SiO2 
 PCOD8143646
Probable space group: C 2/C
;
_chemical_formula_sum "Si O2"
_cell_formula_units_Z 56
_cell_length_a 29.131355
_cell_length_b 8.925210
_cell_length_c 12.093513
_cell_angle_alpha 90.000000
_cell_angle_beta 60.471795
_cell_angle_gamma 90.000000
_cell_volume 2735.944949
_symmetry_space_group_name_H-M "C 2/C"
_symmetry_group_IT_number 15
_symmetry_cell_setting 'monoclinic'
loop_
_space_group_symop_operation_xyz
x,y,z
-x,y,1/2-z
-x,-y,-z
x,-y,1/2+z
1/2+x,1/2+y,z
1/2-x,1/2+y,1/2-z
1/2-x,1/2-y,-z
1/2+x,1/2-y,1/2+z
loop_
_atom_site_type_symbol
_atom_site_label
_atom_site_fract_x
_atom_site_fract_y
_atom_site_fract_z
Si Si1 0.693585 0.425779 0.401670
Si Si2 0.766820 0.359619 0.724776
Si Si3 0.903206 0.002922 0.119318
Si Si4 0.063273 0.287350 0.795242
Si Si5 0.679961 0.680777 0.156862
Si Si6 0.135265 0.468320 0.320323
Si Si7 0.944853 0.273071 0.948392
O O1 0.729967 0.575529 0.368431
O O2 0.720458 0.317079 0.276382
O O3 0.634573 0.465710 0.438781
O O4 0.692995 0.327736 0.512740
O O5 0.731209 0.383844 0.657970
O O6 0.822412 0.445937 0.653852
O O7 0.930760 0.855881 0.132831
O O8 0.870372 0.077470 0.257629
O O9 0.945482 0.118960 0.018285
O O10 0.103819 0.417646 0.779075
O O11 0.072901 0.241333 0.656603
O O12 0.003286 0.344220 0.882679
O O13 0.666577 0.850976 0.206303
O O14 0.095457 0.390240 0.451544
#
# Coordination Sequence:
#
# PCOD8143646 Si02
#       7
#     8   8   8   8   8   8   8
#     4  11  22  40  59  87 119 158 197 242 296 357
#     4  11  22  37  58  85 119 153 198 242 290 351
#     4  10  21  41  62  89 118 156 198 248 293 356
#     4  11  22  40  65  89 116 161 199 245 305 353
#     4  10  23  40  59  86 123 159 194 241 300 350
#     4  11  23  39  61  88 123 157 198 249 295 353
#     4  10  24  41  60  90 124 151 200 253 299 354
#
# _framework density 20.468247000000002
#
# number of rings (size 3 to 8) (size 9 to 14) (size 15 to 20)
#    0.000    1.429    2.857    2.143    2.000    0.000 
#    0.000    1.429    0.000    6.857    0.000    0.000 
#    0.000    0.000    0.000    0.000    0.000    0.000 
#
# Total GULP energy -347113.728123 kJ/mol
# GULP energy per Si atom -12396.918862 kJ/mol
# Density = 2.042166 g / cm^3
# Si number density = 20.468247 Si / 1000 Ang^3
#
#
#
# Elastic Constant Matrix: (Units=GPa)
#
#
# Indices 1 2 3 4 5 6 
#
# 1 110.3096 45.0405 40.0212 0.0000 -8.0063 0.0000
# 2 45.0405 96.3300 42.9994 0.0000 2.0560 0.0000
# 3 40.0212 42.9994 92.4505 0.0000 -1.5049 0.0000
# 4 0.0000 0.0000 0.0000 21.3957 0.0000 -2.6746
# 5 -8.0063 2.0560 -1.5049 0.0000 20.4365 0.0000
# 6 0.0000 0.0000 0.0000 -2.6746 0.0000 34.3603
#
#
#
# Elastic Compliance Matrix: (Units=1/GPa)
#
#
# Indices 1 2 3 4 5 6 
#
# 1 0.012432 -0.004488 -0.003212 0.000000 0.005085 0.000000
# 2 -0.004488 0.014785 -0.004993 0.000000 -0.003613 0.000000
# 3 -0.003212 -0.004993 0.014534 0.000000 0.000314 0.000000
# 4 0.000000 0.000000 0.000000 0.047198 0.000000 0.003674
# 5 0.005085 -0.003613 0.000314 0.000000 0.051311 0.000000
# 6 0.000000 0.000000 0.000000 0.003674 0.000000 0.029389
#
#
# Mechanical properties :
#
#
# Convention : Reuss Voigt Hill
#
# Bulk Modulus (GPa) = 61.09860 61.69027 61.39443
# Shear Modulus (GPa) = 24.93898 26.64043 25.78970
#
# Velocity S-wave (km/s) = 3.49438 3.61161 3.55348
# Velocity P-wave (km/s) = 6.79677 6.89903 6.84809
#
# Compressibility (1/GPa) = 0.01636699
#
# Stress axis : x y z
#
# Youngs Moduli (GPa) = 80.43686 67.63599 68.80315
#
# Poissons Ratio (x) = 0.30353 0.22098
# Poissons Ratio (y) = 0.36098 0.34352
# Poissons Ratio (z) = 0.25834 0.33769
#
# Static dielectric constant tensor:
#      x y z
#    x 3.747960 0.000000 -0.134720 
#    y 0.000000 3.822240 0.000000 
#    z -0.134720 0.000000 3.584430 
# 
# 
# High freq. dielectric constant tensor:
#      x y z
#    x 1.810040 0.000000 -0.013800 
#    y 0.000000 1.805730 0.000000 
#    z -0.013800 0.000000 1.786970 
# 
# From -- ./inp_files/122010.got.cif
#   From: 2010.06.25/outbox.cif.g09.slc.cpg/sg15_62_cif.got.tgz:122010.got - 2010.06.28 07:06:18.
