data_PCOD8143560
_publ_section_title
;
Structure prediction by ZEFSAII (Michael W. Deem and Ramdas Pophale) SiO2 
 PCOD8143560
Probable space group: C 2/C
;
_chemical_formula_sum "Si O2"
_cell_formula_units_Z 44
_cell_length_a 22.679627
_cell_length_b 9.336082
_cell_length_c 14.513070
_cell_angle_alpha 90.000000
_cell_angle_beta 142.320710
_cell_angle_gamma 90.000000
_cell_volume 1878.331913
_symmetry_space_group_name_H-M "C 2/C"
_symmetry_group_IT_number 15
_symmetry_cell_setting 'monoclinic'
loop_
_space_group_symop_operation_xyz
x,y,z
-x,y,1/2-z
-x,-y,-z
x,-y,1/2+z
1/2+x,1/2+y,z
1/2-x,1/2+y,1/2-z
1/2-x,1/2-y,-z
1/2+x,1/2-y,1/2+z
loop_
_atom_site_type_symbol
_atom_site_label
_atom_site_fract_x
_atom_site_fract_y
_atom_site_fract_z
Si Si1 0.500000 0.507035 0.250000
Si Si2 0.676159 0.865789 0.199114
Si Si3 0.917547 0.399332 0.787188
Si Si4 0.331155 0.714842 0.026973
Si Si5 0.377303 0.026612 0.045547
Si Si6 0.480381 0.638388 0.536456
O O1 0.591800 0.604431 0.335538
O O2 0.534130 0.408218 0.375909
O O3 0.780498 0.845614 0.372942
O O4 0.614977 0.981222 0.181439
O O5 0.615832 0.717452 0.120086
O O6 0.701520 0.925655 0.127969
O O7 0.851652 0.399119 0.612644
O O8 0.926318 0.245956 0.849939
O O9 0.023687 0.426941 0.879092
O O10 0.250000 0.750000 0.000000
O O11 0.387235 0.857828 0.070630
O O12 0.500000 0.500000 0.500000
#
# Coordination Sequence:
#
# PCOD8143560 Si02
#       6
#     4   8   8   8   8   8
#     4  12  28  46  68 104 150 188 218 308 370 400
#     4  11  24  44  72 103 138 190 245 285 351 436
#     4  10  21  44  73 100 134 193 232 283 357 429
#     4  12  26  45  71 106 142 185 245 294 353 425
#     4  10  21  40  71  96 140 183 233 284 348 421
#     4  11  24  42  72 107 144 179 236 298 359 421
#
# _framework density 23.425041
#
# number of rings (size 3 to 8) (size 9 to 14) (size 15 to 20)
#    0.000    1.091    1.818    6.545    7.636    0.000 
#    0.000    0.909    0.000    0.000    0.000    0.000 
#    0.000    0.000    0.000    0.000    0.000    0.000 
#
# Total GULP energy -272716.174318 kJ/mol
# GULP energy per Si atom -12396.189742 kJ/mol
# Density = 2.337172 g / cm^3
# Si number density = 23.425041 Si / 1000 Ang^3
#
#
#
# Elastic Constant Matrix: (Units=GPa)
#
#
# Indices 1 2 3 4 5 6 
#
# 1 57.7938 36.3641 30.5050 0.0000 -16.0483 0.0000
# 2 36.3641 148.4924 41.1376 0.0000 -10.5107 0.0000
# 3 30.5050 41.1376 128.5100 0.0000 -22.3075 0.0000
# 4 0.0000 0.0000 0.0000 43.4765 0.0000 -13.6378
# 5 -16.0483 -10.5107 -22.3075 0.0000 40.1948 0.0000
# 6 0.0000 0.0000 0.0000 -13.6378 0.0000 22.9920
#
#
#
# Elastic Compliance Matrix: (Units=1/GPa)
#
#
# Indices 1 2 3 4 5 6 
#
# 1 0.023521 -0.004460 -0.003019 0.000000 0.006550 0.000000
# 2 -0.004460 0.008253 -0.001679 0.000000 -0.000555 0.000000
# 3 -0.003019 -0.001679 0.009683 0.000000 0.003730 0.000000
# 4 0.000000 0.000000 0.000000 0.028259 0.000000 0.016762
# 5 0.006550 -0.000555 0.003730 0.000000 0.029419 0.000000
# 6 0.000000 0.000000 0.000000 0.016762 0.000000 0.053436
#
#
# Mechanical properties :
#
#
# Convention : Reuss Voigt Hill
#
# Bulk Modulus (GPa) = 43.21436 61.20107 52.20771
# Shear Modulus (GPa) = 27.99550 36.45195 32.22372
#
# Velocity S-wave (km/s) = 3.46079 3.94904 3.71295
# Velocity P-wave (km/s) = 5.87004 6.85392 6.38097
#
# Compressibility (1/GPa) = 0.02314045
#
# Stress axis : x y z
#
# Youngs Moduli (GPa) = 42.51465 121.17438 103.27356
#
# Poissons Ratio (x) = 0.54047 0.31175
# Poissons Ratio (y) = 0.18963 0.17343
# Poissons Ratio (z) = 0.12834 0.20349
#
# Static dielectric constant tensor:
#      x y z
#    x 3.911430 0.000000 -0.652560 
#    y 0.000000 4.887160 0.000000 
#    z -0.652560 0.000000 5.395380 
# 
# 
# High freq. dielectric constant tensor:
#      x y z
#    x 1.898970 0.000000 -0.027930 
#    y 0.000000 1.939030 0.000000 
#    z -0.027930 0.000000 1.946010 
# 
# From -- ./inp_files/176745.got.cif
#   From: 2010.06.25/outbox.cif.g09.slc.cpg/sg15_89_cif.got.tgz:176745.got - 2010.06.28 07:06:18.
