data_PCOD8143531
_publ_section_title
;
Structure prediction by ZEFSAII (Michael W. Deem and Ramdas Pophale) SiO2 
 PCOD8143531
Probable space group: C 2/C
;
_chemical_formula_sum "Si O2"
_cell_formula_units_Z 56
_cell_length_a 20.766110
_cell_length_b 8.100361
_cell_length_c 28.727977
_cell_angle_alpha 90.000000
_cell_angle_beta 30.472396
_cell_angle_gamma 90.000000
_cell_volume 2450.631646
_symmetry_space_group_name_H-M "C 2/C"
_symmetry_group_IT_number 15
_symmetry_cell_setting 'monoclinic'
loop_
_space_group_symop_operation_xyz
x,y,z
-x,y,1/2-z
-x,-y,-z
x,-y,1/2+z
1/2+x,1/2+y,z
1/2-x,1/2+y,1/2-z
1/2-x,1/2-y,-z
1/2+x,1/2-y,1/2+z
loop_
_atom_site_type_symbol
_atom_site_label
_atom_site_fract_x
_atom_site_fract_y
_atom_site_fract_z
Si Si1 0.909924 0.469891 0.186761
Si Si2 0.743463 0.349264 0.726266
Si Si3 0.621923 0.341686 0.954252
Si Si4 0.869749 0.748107 0.957858
Si Si5 0.622123 0.712918 0.940929
Si Si6 0.595962 0.802184 0.732733
Si Si7 0.481303 0.430032 0.136779
O O1 0.867595 0.632333 0.182645
O O2 0.835741 0.313415 0.212187
O O3 0.887827 0.515397 0.254627
O O4 0.058727 0.427787 0.090339
O O5 0.788131 0.331966 0.645204
O O6 0.661530 0.514023 0.787712
O O7 0.641062 0.519468 0.917374
O O8 0.759537 0.249179 0.871873
O O9 0.525915 0.242614 0.979343
O O10 0.557770 0.353934 0.045365
O O11 0.750000 0.750000 0.000000
O O12 0.834203 0.763667 0.033772
O O13 0.952560 0.900873 0.887802
O O14 0.500000 0.811145 0.750000
O O15 0.525497 0.688422 0.814546
#
# Coordination Sequence:
#
# PCOD8143531 Si02
#       7
#     8   8   8   8   8   8   8
#     4  11  24  40  69 101 138 180 226 295 352 414
#     4  11  22  43  71 105 134 175 239 292 349 412
#     4  10  22  44  69  98 136 181 230 284 364 409
#     4  10  25  45  68  97 143 188 228 285 367 428
#     4  10  21  40  69  99 129 183 226 286 344 429
#     4  12  27  44  70 101 138 189 236 284 358 428
#     4  10  25  46  69  99 142 182 230 304 346 417
#
# _framework density 22.851251999999999
#
# number of rings (size 3 to 8) (size 9 to 14) (size 15 to 20)
#    0.000    1.429    1.429    2.571   12.000    2.286 
#    5.143    2.857    0.000    0.000    0.000    0.000 
#    0.000    0.000    0.000    0.000    0.000    0.000 
#
# Total GULP energy -346955.916077 kJ/mol
# GULP energy per Si atom -12391.282717 kJ/mol
# Density = 2.279924 g / cm^3
# Si number density = 22.851252 Si / 1000 Ang^3
#
#
#
# Elastic Constant Matrix: (Units=GPa)
#
#
# Indices 1 2 3 4 5 6 
#
# 1 174.8349 32.5690 67.1960 0.0006 -7.4956 -0.0091
# 2 32.5690 45.2359 27.8006 -0.0041 6.3360 -0.0138
# 3 67.1960 27.8006 128.3369 0.0001 -1.1460 0.0123
# 4 0.0006 -0.0041 0.0001 30.3831 0.0069 -0.5974
# 5 -7.4956 6.3360 -1.1460 0.0069 38.7621 0.0037
# 6 -0.0091 -0.0138 0.0123 -0.5974 0.0037 25.3599
#
#
#
# Elastic Compliance Matrix: (Units=1/GPa)
#
#
# Indices 1 2 3 4 5 6 
#
# 1 0.007766 -0.003911 -0.003201 -0.000001 0.002046 0.000002
# 2 -0.003911 0.028220 -0.004114 0.000006 -0.005491 0.000017
# 3 -0.003201 -0.004114 0.010362 -0.000001 0.000360 -0.000008
# 4 -0.000001 0.000006 -0.000001 0.032928 -0.000007 0.000776
# 5 0.002046 -0.005491 0.000360 -0.000007 0.027102 -0.000007
# 6 0.000002 0.000017 -0.000008 0.000776 -0.000007 0.039451
#
#
# Mechanical properties :
#
#
# Convention : Reuss Voigt Hill
#
# Bulk Modulus (GPa) = 41.84785 67.05989 54.45387
# Shear Modulus (GPa) = 28.36926 33.62382 30.99654
#
# Velocity S-wave (km/s) = 3.52728 3.84007 3.68699
# Velocity P-wave (km/s) = 5.91116 7.00511 6.48126
#
# Compressibility (1/GPa) = 0.02389609
#
# Stress axis : x y z
#
# Youngs Moduli (GPa) = 128.76345 35.43614 96.50299
#
# Poissons Ratio (x) = 0.13859 0.30889
# Poissons Ratio (y) = 0.50360 0.39704
# Poissons Ratio (z) = 0.41215 0.14579
#
# Static dielectric constant tensor:
#      x y z
#    x 3.971580 -0.000040 -0.158920 
#    y -0.000040 4.103160 -0.000010 
#    z -0.158920 -0.000010 4.298610 
# 
# 
# High freq. dielectric constant tensor:
#      x y z
#    x 1.894190 0.000000 -0.004110 
#    y 0.000000 1.891450 0.000000 
#    z -0.004110 0.000000 1.909090 
# 
# From -- ./inp_files/317492.got.cif
#   From: 2010.06.25/outbox.cif.g09.slc.cpg/sg15_159_cif.got.tgz:317492.got - 2010.06.28 07:06:18.
