data_PCOD8143451
_publ_section_title
;
Structure prediction by ZEFSAII (Michael W. Deem and Ramdas Pophale) SiO2 
 PCOD8143451
Probable space group: C 2/C
;
_chemical_formula_sum "Si O2"
_cell_formula_units_Z 52
_cell_length_a 19.020191
_cell_length_b 12.975697
_cell_length_c 19.803336
_cell_angle_alpha 90.000000
_cell_angle_beta 29.966538
_cell_angle_gamma 90.000000
_cell_volume 2441.261602
_symmetry_space_group_name_H-M "C 2/C"
_symmetry_group_IT_number 15
_symmetry_cell_setting 'monoclinic'
loop_
_space_group_symop_operation_xyz
x,y,z
-x,y,1/2-z
-x,-y,-z
x,-y,1/2+z
1/2+x,1/2+y,z
1/2-x,1/2+y,1/2-z
1/2-x,1/2-y,-z
1/2+x,1/2-y,1/2+z
loop_
_atom_site_type_symbol
_atom_site_label
_atom_site_fract_x
_atom_site_fract_y
_atom_site_fract_z
Si Si1 0.869803 0.160387 0.983751
Si Si2 0.717035 0.160894 0.638080
Si Si3 0.500000 0.982551 0.250000
Si Si4 0.335277 0.488394 0.628759
Si Si5 0.681920 0.112015 0.010379
Si Si6 0.507109 0.316131 0.665255
Si Si7 0.370735 0.478013 0.243302
O O1 0.862343 0.284110 0.992298
O O2 0.799874 0.109726 0.109748
O O3 0.784656 0.127237 0.988297
O O4 0.033427 0.125217 0.843688
O O5 0.619348 0.244835 0.757544
O O6 0.842908 0.216271 0.491355
O O7 0.632424 0.088290 0.657041
O O8 0.777989 0.093939 0.647327
O O9 0.540326 0.055563 0.153209
O O10 0.500000 0.500000 0.500000
O O11 0.282747 0.484000 0.750237
O O12 0.757131 0.036062 0.895810
O O13 0.500000 0.293218 0.750000
O O14 0.484166 0.435390 0.668445
#
# Coordination Sequence:
#
# PCOD8143451 Si02
#       7
#     8   8   4   8   8   8   8
#     4  10  21  40  67  94 138 177 236 286 349 406
#     4  12  25  43  70  98 141 184 231 293 353 413
#     4  12  24  44  66 104 152 168 236 308 352 400
#     4  10  21  46  67  94 140 186 216 285 356 415
#     4  11  24  37  68 103 129 183 235 288 345 418
#     4  12  24  41  70 102 132 181 242 287 348 414
#     4  11  23  42  69  93 140 182 232 281 357 425
#
# _framework density 21.300464000000002
#
# number of rings (size 3 to 8) (size 9 to 14) (size 15 to 20)
#    0.000    0.923    5.385    2.769    6.462    1.231 
#    0.000    2.308    0.000    0.000    0.000    0.000 
#    0.000    0.000    0.000    0.000    0.000    0.000 
#
# Total GULP energy -322319.072637 kJ/mol
# GULP energy per Si atom -12396.887409 kJ/mol
# Density = 2.125198 g / cm^3
# Si number density = 21.300464 Si / 1000 Ang^3
#
#
#
# Elastic Constant Matrix: (Units=GPa)
#
#
# Indices 1 2 3 4 5 6 
#
# 1 97.6210 40.3648 37.0589 -0.0004 8.5078 -0.0001
# 2 40.3648 98.5941 45.8846 -0.0016 -6.6737 -0.0001
# 3 37.0589 45.8846 139.5192 -0.0026 -0.3718 0.0000
# 4 -0.0004 -0.0016 -0.0026 27.4583 0.0005 -8.7643
# 5 8.5078 -6.6737 -0.3718 0.0005 28.0010 0.0001
# 6 -0.0001 -0.0001 0.0000 -8.7643 0.0001 31.3085
#
#
#
# Elastic Compliance Matrix: (Units=1/GPa)
#
#
# Indices 1 2 3 4 5 6 
#
# 1 0.013511 -0.004976 -0.001966 0.000000 -0.005317 0.000000
# 2 -0.004976 0.014032 -0.003280 0.000000 0.004813 0.000000
# 3 -0.001966 -0.003280 0.008768 0.000001 -0.000068 0.000000
# 4 0.000000 0.000000 0.000001 0.039992 -0.000001 0.011195
# 5 -0.005317 0.004813 -0.000068 -0.000001 0.038475 0.000000
# 6 0.000000 0.000000 0.000000 0.011195 0.000000 0.035074
#
#
# Mechanical properties :
#
#
# Convention : Reuss Voigt Hill
#
# Bulk Modulus (GPa) = 63.02810 64.70565 63.86688
# Shear Modulus (GPa) = 28.47579 31.51528 29.99553
#
# Velocity S-wave (km/s) = 3.66028 3.85068 3.75668
# Velocity P-wave (km/s) = 6.89331 7.08617 6.99041
#
# Compressibility (1/GPa) = 0.01586594
#
# Stress axis : x y z
#
# Youngs Moduli (GPa) = 74.01245 71.26413 114.04584
#
# Poissons Ratio (x) = 0.35463 0.22426
# Poissons Ratio (y) = 0.36831 0.37410
# Poissons Ratio (z) = 0.14554 0.23376
#
# Static dielectric constant tensor:
#      x y z
#    x 4.061910 -0.000080 0.339050 
#    y -0.000080 -0.498820 -0.000060 
#    z 0.339050 -0.000060 3.986020 
# 
# 
# High freq. dielectric constant tensor:
#      x y z
#    x 1.830280 0.000000 0.002870 
#    y 0.000000 1.837390 0.000000 
#    z 0.002870 0.000000 1.829570 
# 
# From -- ./inp_files/252719.got.cif
#   From: 2010.06.25/outbox.cif.g09.slc.cpg/sg15_127_cif.got.tgz:252719.got - 2010.06.28 07:06:18.
