data_PCOD8143449
_publ_section_title
;
Structure prediction by ZEFSAII (Michael W. Deem and Ramdas Pophale) SiO2 
 PCOD8143449
Probable space group: C 2/C
;
_chemical_formula_sum "Si O2"
_cell_formula_units_Z 52
_cell_length_a 18.109199
_cell_length_b 26.745391
_cell_length_c 5.075939
_cell_angle_alpha 90.000000
_cell_angle_beta 63.958684
_cell_angle_gamma 90.000000
_cell_volume 2208.878820
_symmetry_space_group_name_H-M "C 2/C"
_symmetry_group_IT_number 15
_symmetry_cell_setting 'monoclinic'
loop_
_space_group_symop_operation_xyz
x,y,z
-x,y,1/2-z
-x,-y,-z
x,-y,1/2+z
1/2+x,1/2+y,z
1/2-x,1/2+y,1/2-z
1/2-x,1/2-y,-z
1/2+x,1/2-y,1/2+z
loop_
_atom_site_type_symbol
_atom_site_label
_atom_site_fract_x
_atom_site_fract_y
_atom_site_fract_z
Si Si1 0.447699 0.621548 0.570998
Si Si2 0.627192 0.721755 0.783437
Si Si3 0.500000 0.206177 0.250000
Si Si4 0.648925 0.527157 0.819983
Si Si5 0.342916 0.970889 0.053790
Si Si6 0.232058 0.306222 0.787374
Si Si7 0.847717 0.645495 0.599016
O O1 0.500000 0.632360 0.750000
O O2 0.406467 0.672165 0.525941
O O3 0.376320 0.581906 0.739147
O O4 0.500000 0.599100 0.250000
O O5 0.550777 0.758492 0.864396
O O6 0.672504 0.704119 0.438551
O O7 0.691486 0.750491 0.874731
O O8 0.435621 0.172058 0.515287
O O9 0.613385 0.487980 0.660575
O O10 0.745836 0.525313 0.683935
O O11 0.366632 0.913398 0.066280
O O12 0.379479 0.005969 0.228054
O O13 0.188725 0.337083 0.621160
O O14 0.218522 0.338739 0.072192
#
# Coordination Sequence:
#
# PCOD8143449 Si02
#       7
#     8   8   4   8   8   8   8
#     4  12  26  38  61  90 127 171 206 264 316 391
#     4  10  23  43  62  96 127 174 218 268 320 380
#     4  10  24  42  66  92 140 168 212 264 332 392
#     4  10  22  41  62  87 120 163 213 264 316 374
#     4  10  21  40  67  94 124 162 215 273 318 381
#     4  10  24  40  69  89 131 170 224 266 313 386
#     4  11  23  43  66 101 127 176 210 270 324 396
#
# _framework density 23.541357000000001
#
# number of rings (size 3 to 8) (size 9 to 14) (size 15 to 20)
#    0.000    1.538    0.769    2.769    2.154   14.154 
#    0.000    0.769    0.000    0.000    0.000    0.000 
#    0.000    0.000    0.000    0.000    0.000    0.000 
#
# Total GULP energy -322358.710435 kJ/mol
# GULP energy per Si atom -12398.411940 kJ/mol
# Density = 2.348778 g / cm^3
# Si number density = 23.541357 Si / 1000 Ang^3
#
#
#
# Elastic Constant Matrix: (Units=GPa)
#
#
# Indices 1 2 3 4 5 6 
#
# 1 56.8526 36.3213 26.7526 0.0000 4.5774 0.0000
# 2 36.3213 168.0193 22.1366 0.0000 1.9553 0.0000
# 3 26.7526 22.1366 82.4433 0.0000 13.0539 0.0000
# 4 0.0000 0.0000 0.0000 31.3909 0.0000 -3.9106
# 5 4.5774 1.9553 13.0539 0.0000 19.2448 0.0000
# 6 0.0000 0.0000 0.0000 -3.9106 0.0000 30.8870
#
#
#
# Elastic Compliance Matrix: (Units=1/GPa)
#
#
# Indices 1 2 3 4 5 6 
#
# 1 0.023304 -0.004198 -0.006302 0.000000 -0.000842 0.000000
# 2 -0.004198 0.006931 -0.000611 0.000000 0.000709 0.000000
# 3 -0.006302 -0.000611 0.015787 0.000000 -0.009147 0.000000
# 4 0.000000 0.000000 0.000000 0.032367 0.000000 0.004098
# 5 -0.000842 0.000709 -0.009147 0.000000 0.058295 0.000000
# 6 0.000000 0.000000 0.000000 0.004098 0.000000 0.032895
#
#
# Mechanical properties :
#
#
# Convention : Reuss Voigt Hill
#
# Bulk Modulus (GPa) = 42.01456 53.08183 47.54820
# Shear Modulus (GPa) = 25.03320 31.11150 28.07235
#
# Velocity S-wave (km/s) = 3.26448 3.63928 3.45696
# Velocity P-wave (km/s) = 5.66524 6.34480 6.01462
#
# Compressibility (1/GPa) = 0.02380127
#
# Stress axis : x y z
#
# Youngs Moduli (GPa) = 42.91064 144.27074 63.34352
#
# Poissons Ratio (x) = 0.60561 0.39917
# Poissons Ratio (y) = 0.18013 0.03872
# Poissons Ratio (z) = 0.27041 0.08818
#
# Static dielectric constant tensor:
#      x y z
#    x 4.208670 0.000000 -0.013610 
#    y 0.000000 4.333700 0.000000 
#    z -0.013610 0.000000 4.380120 
# 
# 
# High freq. dielectric constant tensor:
#      x y z
#    x 1.920330 0.000000 0.001810 
#    y 0.000000 1.944740 0.000000 
#    z 0.001810 0.000000 1.922580 
# 
# From -- ./inp_files/14379.got.cif
#   From: 2010.06.25/outbox.cif.g09.slc.cpg/sg15_8_cif.got.tgz:14379.got - 2010.06.28 07:06:18.
