data_PCOD8143161
_publ_section_title
;
Structure prediction by ZEFSAII (Michael W. Deem and Ramdas Pophale) SiO2 
 PCOD8143161
Probable space group: C 2/C
;
_chemical_formula_sum "Si O2"
_cell_formula_units_Z 52
_cell_length_a 33.003710
_cell_length_b 15.819456
_cell_length_c 9.127268
_cell_angle_alpha 90.000000
_cell_angle_beta 32.229883
_cell_angle_gamma 90.000000
_cell_volume 2541.446538
_symmetry_space_group_name_H-M "C 2/C"
_symmetry_group_IT_number 15
_symmetry_cell_setting 'monoclinic'
loop_
_space_group_symop_operation_xyz
x,y,z
-x,y,1/2-z
-x,-y,-z
x,-y,1/2+z
1/2+x,1/2+y,z
1/2-x,1/2+y,1/2-z
1/2-x,1/2-y,-z
1/2+x,1/2-y,1/2+z
loop_
_atom_site_type_symbol
_atom_site_label
_atom_site_fract_x
_atom_site_fract_y
_atom_site_fract_z
Si Si1 0.618045 0.764219 0.884012
Si Si2 0.928385 0.546693 0.653830
Si Si3 0.580315 0.530575 0.313984
Si Si4 0.002569 0.278222 0.487373
Si Si5 0.333925 0.947084 0.713216
Si Si6 0.332788 0.417398 0.240723
Si Si7 0.000000 0.844382 0.250000
O O1 0.666815 0.847223 0.758175
O O2 0.672554 0.682636 0.703613
O O3 0.564306 0.741047 0.185939
O O4 0.572018 0.794464 0.880474
O O5 0.958983 0.642621 0.544603
O O6 0.898477 0.503750 0.596605
O O7 0.000000 0.500000 0.500000
O O8 0.854316 0.538842 0.982081
O O9 0.500000 0.500000 0.500000
O O10 0.617895 0.450568 0.275214
O O11 0.569904 0.599435 0.475864
O O12 0.630889 0.567807 0.029155
O O13 0.973064 0.211783 0.696610
O O14 0.246784 0.969593 0.013899
#
# Coordination Sequence:
#
# PCOD8143161 Si02
#       7
#     8   8   8   8   8   8   4
#     4  10  21  40  63  90 123 166 210 253 310 374
#     4  11  22  42  65  93 126 164 216 258 305 376
#     4  12  24  41  64  91 121 167 212 258 309 376
#     4  10  22  36  65  93 120 160 212 264 299 365
#     4  11  24  41  63  96 127 168 205 256 327 369
#     4  12  24  41  64  91 132 164 206 264 315 381
#     4  12  22  38  60  98 116 152 214 256 312 346
#
# _framework density 20.460788000000001
#
# number of rings (size 3 to 8) (size 9 to 14) (size 15 to 20)
#    0.000    0.923    4.615    2.769    4.308    0.000 
#    0.000    0.000    0.000    1.846    0.000    0.000 
#    0.000    0.000    0.000    0.000    0.000    0.000 
#
# Total GULP energy -322156.335183 kJ/mol
# GULP energy per Si atom -12390.628276 kJ/mol
# Density = 2.041422 g / cm^3
# Si number density = 20.460788 Si / 1000 Ang^3
#
#
#
# Elastic Constant Matrix: (Units=GPa)
#
#
# Indices 1 2 3 4 5 6 
#
# 1 80.3285 27.1355 26.3367 0.0000 6.0306 0.0000
# 2 27.1355 88.8558 18.6550 0.0000 15.6543 0.0000
# 3 26.3367 18.6550 96.4558 0.0000 -0.6181 0.0000
# 4 0.0000 0.0000 0.0000 27.7343 0.0000 6.9828
# 5 6.0306 15.6543 -0.6181 0.0000 27.3774 0.0000
# 6 0.0000 0.0000 0.0000 6.9828 0.0000 37.9320
#
#
#
# Elastic Compliance Matrix: (Units=1/GPa)
#
#
# Indices 1 2 3 4 5 6 
#
# 1 0.014869 -0.003606 -0.003371 0.000000 -0.001290 0.000000
# 2 -0.003606 0.014005 -0.001771 0.000000 -0.007254 0.000000
# 3 -0.003371 -0.001771 0.011643 0.000000 0.002018 0.000000
# 4 0.000000 0.000000 0.000000 0.037809 0.000000 -0.006960
# 5 -0.001290 -0.007254 0.002018 0.000000 0.041004 0.000000
# 6 0.000000 0.000000 0.000000 -0.006960 0.000000 0.027644
#
#
# Mechanical properties :
#
#
# Convention : Reuss Voigt Hill
#
# Bulk Modulus (GPa) = 43.43534 45.54382 44.48958
# Shear Modulus (GPa) = 29.04565 31.50958 30.27762
#
# Velocity S-wave (km/s) = 3.77181 3.92854 3.85097
# Velocity P-wave (km/s) = 6.34377 6.54869 6.44704
#
# Compressibility (1/GPa) = 0.02302273
#
# Stress axis : x y z
#
# Youngs Moduli (GPa) = 67.25427 71.40285 85.88727
#
# Poissons Ratio (x) = 0.25747 0.28950
# Poissons Ratio (y) = 0.24251 0.15207
# Poissons Ratio (z) = 0.22670 0.12642
#
# Static dielectric constant tensor:
#      x y z
#    x 3.549540 0.000000 0.284670 
#    y 0.000000 4.082850 0.000000 
#    z 0.284670 0.000000 3.670340 
# 
# 
# High freq. dielectric constant tensor:
#      x y z
#    x 1.793950 0.000000 0.012010 
#    y 0.000000 1.808430 0.000000 
#    z 0.012010 0.000000 1.797410 
# 
# From -- ./inp_files/70072.got.cif
#   From: 2010.06.25/outbox.cif.g09.slc.cpg/sg15_36_cif.got.tgz:70072.got - 2010.06.28 07:06:18.
