data_PCOD8143018
_publ_section_title
;
Structure prediction by ZEFSAII (Michael W. Deem and Ramdas Pophale) SiO2 
 PCOD8143018
Probable space group: C 2/C
;
_chemical_formula_sum "Si O2"
_cell_formula_units_Z 64
_cell_length_a 12.486177
_cell_length_b 12.552108
_cell_length_c 21.446841
_cell_angle_alpha 90.000000
_cell_angle_beta 110.786289
_cell_angle_gamma 90.000000
_cell_volume 3142.531090
_symmetry_space_group_name_H-M "C 2/C"
_symmetry_group_IT_number 15
_symmetry_cell_setting 'monoclinic'
loop_
_space_group_symop_operation_xyz
x,y,z
-x,y,1/2-z
-x,-y,-z
x,-y,1/2+z
1/2+x,1/2+y,z
1/2-x,1/2+y,1/2-z
1/2-x,1/2-y,-z
1/2+x,1/2-y,1/2+z
loop_
_atom_site_type_symbol
_atom_site_label
_atom_site_fract_x
_atom_site_fract_y
_atom_site_fract_z
Si Si1 0.867454 0.669428 0.722132
Si Si2 0.742634 0.276832 0.322198
Si Si3 0.338877 0.284182 0.967208
Si Si4 0.601405 0.727800 0.507591
Si Si5 0.252898 0.459032 0.800793
Si Si6 0.126952 0.991682 0.298286
Si Si7 0.810506 0.826056 0.602542
Si Si8 0.622496 0.492150 0.057476
O O1 0.821844 0.693501 0.781135
O O2 0.842072 0.546542 0.700015
O O3 0.809735 0.748221 0.661232
O O4 0.000000 0.693047 0.750000
O O5 0.818531 0.281379 0.399962
O O6 0.696350 0.156172 0.303509
O O7 0.641164 0.363842 0.309403
O O8 0.306743 0.409211 0.956015
O O9 0.250000 0.250000 0.000000
O O10 0.473718 0.263389 0.010249
O O11 0.681419 0.826250 0.546183
O O12 0.599484 0.714110 0.431913
O O13 0.669071 0.624058 0.549336
O O14 0.285545 0.464453 0.735342
O O15 0.367990 0.487363 0.865551
O O16 0.000000 0.018572 0.250000
O O17 0.155997 0.054407 0.368462
O O18 0.500000 0.500000 0.000000
#
# Coordination Sequence:
#
# PCOD8143018 Si02
#       8
#     8   8   8   8   8   8   8   8
#     4  11  21  38  64  88 122 165 207 263 317 379
#     4  10  23  42  58  91 128 159 212 255 319 379
#     4  10  22  39  62  90 125 167 206 258 322 381
#     4  10  22  39  65  93 124 165 214 271 311 382
#     4  10  21  40  59  90 124 160 207 257 317 383
#     4  11  25  38  65  92 122 167 210 266 308 375
#     4  11  22  39  65  95 123 162 223 264 320 369
#     4   9  19  35  61  85 119 163 205 254 306 378
#
# _framework density 20.365749000000001
#
# number of rings (size 3 to 8) (size 9 to 14) (size 15 to 20)
#    0.000    1.750    2.500    1.125    7.000    1.500 
#    0.000    5.625    0.000    0.000    0.000    0.000 
#    0.000    0.000    0.000    0.000    0.000    0.000 
#
# Total GULP energy -396502.926094 kJ/mol
# GULP energy per Si atom -12390.716440 kJ/mol
# Density = 2.031940 g / cm^3
# Si number density = 20.365749 Si / 1000 Ang^3
#
#
#
# Elastic Constant Matrix: (Units=GPa)
#
#
# Indices 1 2 3 4 5 6 
#
# 1 87.7641 26.7571 33.2237 0.0000 -9.1176 0.0000
# 2 26.7571 123.5956 42.9539 0.0000 -1.6771 0.0000
# 3 33.2237 42.9539 110.1588 0.0000 -4.2550 0.0000
# 4 0.0000 0.0000 0.0000 21.2040 0.0000 4.3007
# 5 -9.1176 -1.6771 -4.2550 0.0000 24.3071 0.0000
# 6 0.0000 0.0000 0.0000 4.3007 0.0000 20.9671
#
#
#
# Elastic Compliance Matrix: (Units=1/GPa)
#
#
# Indices 1 2 3 4 5 6 
#
# 1 0.013620 -0.001759 -0.003251 0.000000 0.004418 0.000000
# 2 -0.001759 0.009586 -0.003229 0.000000 -0.000564 0.000000
# 3 -0.003251 -0.003229 0.011339 0.000000 0.000542 0.000000
# 4 0.000000 0.000000 0.000000 0.049208 0.000000 -0.010093
# 5 0.004418 -0.000564 0.000542 0.000000 0.042854 0.000000
# 6 0.000000 0.000000 0.000000 -0.010093 0.000000 0.049764
#
#
# Mechanical properties :
#
#
# Convention : Reuss Voigt Hill
#
# Bulk Modulus (GPa) = 55.35173 58.59864 56.97519
# Shear Modulus (GPa) = 25.14181 27.86789 26.50485
#
# Velocity S-wave (km/s) = 3.51738 3.70316 3.61146
# Velocity P-wave (km/s) = 6.61315 6.86441 6.73995
#
# Compressibility (1/GPa) = 0.01806628
#
# Stress axis : x y z
#
# Youngs Moduli (GPa) = 73.42018 104.31563 88.19453
#
# Poissons Ratio (x) = 0.18346 0.28676
# Poissons Ratio (y) = 0.12912 0.28481
# Poissons Ratio (z) = 0.23872 0.33687
#
# Static dielectric constant tensor:
#      x y z
#    x 3.330840 0.000000 0.001680 
#    y 0.000000 4.270670 0.000000 
#    z 0.001680 0.000000 3.953960 
# 
# 
# High freq. dielectric constant tensor:
#      x y z
#    x 1.761290 0.000000 -0.001670 
#    y 0.000000 1.803570 0.000000 
#    z -0.001670 0.000000 1.810120 
# 
# From -- ./inp_files/268915.got.cif
#   From: 2010.06.25/outbox.cif.g09.slc.cpg/sg15_135_cif.got.tgz:268915.got - 2010.06.28 07:06:18.
