data_PCOD8143052
_publ_section_title
;
Structure prediction by ZEFSAII (Michael W. Deem and Ramdas Pophale) SiO2 
 PCOD8143052
Probable space group: C 2/C
;
_chemical_formula_sum "Si O2"
_cell_formula_units_Z 48
_cell_length_a 15.783169
_cell_length_b 8.680604
_cell_length_c 28.597092
_cell_angle_alpha 90.000000
_cell_angle_beta 142.039757
_cell_angle_gamma 90.000000
_cell_volume 2410.027580
_symmetry_space_group_name_H-M "C 2/C"
_symmetry_group_IT_number 15
_symmetry_cell_setting 'monoclinic'
loop_
_space_group_symop_operation_xyz
x,y,z
-x,y,1/2-z
-x,-y,-z
x,-y,1/2+z
1/2+x,1/2+y,z
1/2-x,1/2+y,1/2-z
1/2-x,1/2-y,-z
1/2+x,1/2-y,1/2+z
loop_
_atom_site_type_symbol
_atom_site_label
_atom_site_fract_x
_atom_site_fract_y
_atom_site_fract_z
Si Si1 0.463621 0.356575 0.594528
Si Si2 0.377821 0.340525 0.344960
Si Si3 0.745252 0.207940 0.689131
Si Si4 0.340701 0.999649 0.685034
Si Si5 0.229272 0.718611 0.920408
Si Si6 0.119906 0.426162 0.584495
O O1 0.496851 0.538081 0.605670
O O2 0.596513 0.265129 0.638089
O O3 0.341584 0.310359 0.507850
O O4 0.413600 0.292471 0.622915
O O5 0.341602 0.291658 0.276570
O O6 0.239728 0.412013 0.308082
O O7 0.435979 0.196185 0.400825
O O8 0.816876 0.317801 0.681725
O O9 0.719665 0.043541 0.654894
O O10 0.500000 0.043256 0.750000
O O11 0.283663 0.052775 0.610096
O O12 0.276602 0.843597 0.904397
O O13 0.000000 0.500000 0.500000
#
# Coordination Sequence:
#
# PCOD8143052 Si02
#       6
#     8   8   8   8   8   8
#     4  10  21  40  61  86 120 158 208 241 312 363
#     4  10  23  39  63  87 122 165 201 251 308 370
#     4  11  22  39  62  88 123 157 199 254 307 369
#     4  10  22  38  61  86 119 157 205 247 303 370
#     4  10  22  39  61  88 118 162 197 258 300 370
#     4  11  22  38  61  91 121 155 201 253 306 361
#
# _framework density 19.916782999999999
#
# number of rings (size 3 to 8) (size 9 to 14) (size 15 to 20)
#    0.000    1.667    1.667    3.000    2.333    4.667 
#    0.000    1.667    0.000    0.000    0.000    0.000 
#    0.000    0.000    0.000    0.000    0.000    0.000 
#
# Total GULP energy -297416.966157 kJ/mol
# GULP energy per Si atom -12392.373590 kJ/mol
# Density = 1.987145 g / cm^3
# Si number density = 19.916783 Si / 1000 Ang^3
#
#
#
# Elastic Constant Matrix: (Units=GPa)
#
#
# Indices 1 2 3 4 5 6 
#
# 1 104.5813 51.5758 40.5134 0.0000 -7.6360 0.0000
# 2 51.5758 135.5453 44.1394 0.0000 -19.5034 0.0001
# 3 40.5134 44.1394 85.1122 0.0000 -9.2684 0.0000
# 4 0.0000 0.0000 0.0000 45.0033 0.0000 -7.7381
# 5 -7.6360 -19.5034 -9.2684 0.0000 33.3406 0.0000
# 6 0.0000 0.0001 0.0000 -7.7381 0.0000 24.9827
#
#
#
# Elastic Compliance Matrix: (Units=1/GPa)
#
#
# Indices 1 2 3 4 5 6 
#
# 1 0.012990 -0.003567 -0.004369 0.000000 -0.000326 0.000000
# 2 -0.003567 0.010416 -0.003227 0.000000 0.004379 0.000000
# 3 -0.004369 -0.003227 0.015662 0.000000 0.001466 0.000000
# 4 0.000000 0.000000 0.000000 0.023471 0.000000 0.007270
# 5 -0.000326 0.004379 0.001466 0.000000 0.032888 0.000000
# 6 0.000000 0.000000 0.000000 0.007270 0.000000 0.042279
#
#
# Mechanical properties :
#
#
# Convention : Reuss Voigt Hill
#
# Bulk Modulus (GPa) = 59.72998 66.41066 63.07032
# Shear Modulus (GPa) = 30.19130 33.26602 31.72866
#
# Velocity S-wave (km/s) = 3.89764 4.09130 3.99565
# Velocity P-wave (km/s) = 7.09298 7.46557 7.28166
#
# Compressibility (1/GPa) = 0.01674201
#
# Stress axis : x y z
#
# Youngs Moduli (GPa) = 76.98476 96.00862 63.84949
#
# Poissons Ratio (x) = 0.34245 0.27894
# Poissons Ratio (y) = 0.27459 0.20604
# Poissons Ratio (z) = 0.33633 0.30981
#
# Static dielectric constant tensor:
#      x y z
#    x 3.343450 0.000000 -0.552930 
#    y 0.000000 3.961100 0.000000 
#    z -0.552930 0.000000 3.831010 
# 
# 
# High freq. dielectric constant tensor:
#      x y z
#    x 1.781480 0.000000 -0.008640 
#    y 0.000000 1.784080 0.000000 
#    z -0.008640 0.000000 1.776960 
# 
# From -- ./inp_files/208964.got.cif
#   From: 2010.06.25/outbox.cif.g09.slc.cpg/sg15_105_cif.got.tgz:208964.got - 2010.06.28 07:06:18.
