data_PCOD8143952
_publ_section_title
;
Structure prediction by ZEFSAII (Michael W. Deem and Ramdas Pophale) SiO2 
 PCOD8143952
Probable space group: C 2/C
;
_chemical_formula_sum "Si O2"
_cell_formula_units_Z 56
_cell_length_a 8.660322
_cell_length_b 18.666699
_cell_length_c 16.486876
_cell_angle_alpha 90.000000
_cell_angle_beta 82.824864
_cell_angle_gamma 90.000000
_cell_volume 2644.390500
_symmetry_space_group_name_H-M "C 2/C"
_symmetry_group_IT_number 15
_symmetry_cell_setting 'monoclinic'
loop_
_space_group_symop_operation_xyz
x,y,z
-x,y,1/2-z
-x,-y,-z
x,-y,1/2+z
1/2+x,1/2+y,z
1/2-x,1/2+y,1/2-z
1/2-x,1/2-y,-z
1/2+x,1/2-y,1/2+z
loop_
_atom_site_type_symbol
_atom_site_label
_atom_site_fract_x
_atom_site_fract_y
_atom_site_fract_z
Si Si1 0.576952 0.805241 0.092502
Si Si2 0.066464 0.207584 0.935997
Si Si3 0.057501 0.343624 0.628085
Si Si4 0.000000 0.233724 0.250000
Si Si5 0.943118 0.948185 0.429196
Si Si6 0.254121 0.122064 0.227737
Si Si7 0.594353 0.930397 0.472500
Si Si8 0.500000 0.495574 0.750000
O O1 0.758417 0.808951 0.104770
O O2 0.465840 0.781893 0.173979
O O3 0.515495 0.884968 0.079742
O O4 0.558229 0.749465 0.021045
O O5 0.976713 0.258360 0.877255
O O6 0.980059 0.132654 0.952750
O O7 0.179839 0.357305 0.689686
O O8 0.134081 0.379046 0.545179
O O9 0.893220 0.384324 0.654046
O O10 0.857020 0.186384 0.290775
O O11 0.758951 0.955557 0.426137
O O12 0.017211 0.961954 0.334547
O O13 0.000000 0.000000 0.500000
O O14 0.158513 0.049240 0.234707
O O15 0.500000 0.000000 0.500000
#
# Coordination Sequence:
#
# PCOD8143952 Si02
#       8
#     8   8   8   4   8   8   8   4
#     4  10  23  40  64  96 130 171 215 277 333 401
#     4  10  23  42  65  95 131 170 219 270 334 399
#     4  10  21  41  67  95 126 171 216 278 324 402
#     4  11  22  36  64  96 129 162 208 276 331 390
#     4  12  27  43  67  96 135 183 228 281 334 403
#     4  10  22  38  66  93 128 167 216 264 337 400
#     4  11  24  42  66  92 132 176 225 268 336 401
#     4  11  26  44  64  96 135 176 222 280 339 406
#
# _framework density 21.176904
#
# number of rings (size 3 to 8) (size 9 to 14) (size 15 to 20)
#    0.000    1.429    1.429    2.571    8.000    3.429 
#    0.000    1.429    0.000    0.000    0.000    0.000 
#    0.000    0.000    0.000    0.000    0.000    0.000 
#
# Total GULP energy -347095.644970 kJ/mol
# GULP energy per Si atom -12396.273035 kJ/mol
# Density = 2.112870 g / cm^3
# Si number density = 21.176904 Si / 1000 Ang^3
#
#
#
# Elastic Constant Matrix: (Units=GPa)
#
#
# Indices 1 2 3 4 5 6 
#
# 1 77.4898 35.8029 4.7318 0.0000 0.6037 0.0000
# 2 35.8029 120.6807 13.0668 0.0000 -0.0600 0.0000
# 3 4.7318 13.0668 80.4934 0.0000 -0.7104 0.0000
# 4 0.0000 0.0000 0.0000 19.6102 0.0000 1.8897
# 5 0.6037 -0.0600 -0.7104 0.0000 27.7726 0.0000
# 6 0.0000 0.0000 0.0000 1.8897 0.0000 23.3564
#
#
#
# Elastic Compliance Matrix: (Units=1/GPa)
#
#
# Indices 1 2 3 4 5 6 
#
# 1 0.014960 -0.004421 -0.000165 0.000000 -0.000339 0.000000
# 2 -0.004421 0.009741 -0.001321 0.000000 0.000083 0.000000
# 3 -0.000165 -0.001321 0.012650 0.000000 0.000324 0.000000
# 4 0.000000 0.000000 0.000000 0.051395 0.000000 -0.004158
# 5 -0.000339 0.000083 0.000324 0.000000 0.036023 0.000000
# 6 0.000000 0.000000 0.000000 -0.004158 0.000000 0.043151
#
#
# Mechanical properties :
#
#
# Convention : Reuss Voigt Hill
#
# Bulk Modulus (GPa) = 39.15564 42.87409 41.01487
# Shear Modulus (GPa) = 26.56115 29.15200 27.85657
#
# Velocity S-wave (km/s) = 3.54538 3.71427 3.63081
# Velocity P-wave (km/s) = 5.94050 6.21965 6.08168
#
# Compressibility (1/GPa) = 0.02553911
#
# Stress axis : x y z
#
# Youngs Moduli (GPa) = 66.84447 102.66053 79.04942
#
# Poissons Ratio (x) = 0.45382 0.01303
# Poissons Ratio (y) = 0.29549 0.10440
# Poissons Ratio (z) = 0.01102 0.13558
#
# Static dielectric constant tensor:
#      x y z
#    x 3.785980 0.000000 -0.151980 
#    y 0.000000 3.834050 0.000000 
#    z -0.151980 0.000000 3.819730 
# 
# 
# High freq. dielectric constant tensor:
#      x y z
#    x 1.836540 0.000000 -0.005290 
#    y 0.000000 1.832720 0.000000 
#    z -0.005290 0.000000 1.832330 
# 
# From -- ./inp_files/190972.got.cif
#   From: 2010.06.25/outbox.cif.g09.slc.cpg/sg15_96_cif.got.tgz:190972.got - 2010.06.28 07:06:18.
