data_PCOD8143252
_publ_section_title
;
Structure prediction by ZEFSAII (Michael W. Deem and Ramdas Pophale) SiO2 
 PCOD8143252
Probable space group: C 2/C
;
_chemical_formula_sum "Si O2"
_cell_formula_units_Z 52
_cell_length_a 19.889828
_cell_length_b 14.191449
_cell_length_c 7.590653
_cell_angle_alpha 90.000000
_cell_angle_beta 91.166863
_cell_angle_gamma 90.000000
_cell_volume 2142.135000
_symmetry_space_group_name_H-M "C 2/C"
_symmetry_group_IT_number 15
_symmetry_cell_setting 'monoclinic'
loop_
_space_group_symop_operation_xyz
x,y,z
-x,y,1/2-z
-x,-y,-z
x,-y,1/2+z
1/2+x,1/2+y,z
1/2-x,1/2+y,1/2-z
1/2-x,1/2-y,-z
1/2+x,1/2-y,1/2+z
loop_
_atom_site_type_symbol
_atom_site_label
_atom_site_fract_x
_atom_site_fract_y
_atom_site_fract_z
Si Si1 0.384248 0.886267 0.271807
Si Si2 0.169464 0.107486 0.275661
Si Si3 0.449900 0.715962 0.101561
Si Si4 0.750819 0.275084 0.298088
Si Si5 0.550335 0.939483 0.889077
Si Si6 0.500000 0.650956 0.750000
Si Si7 0.858877 0.094885 0.633039
O O1 0.429790 0.822458 0.147202
O O2 0.307347 0.853389 0.256332
O O3 0.408561 0.870873 0.477479
O O4 0.394942 0.994145 0.210733
O O5 0.113158 0.145777 0.405235
O O6 0.234911 0.176488 0.305567
O O7 0.183506 0.000469 0.331078
O O8 0.143583 0.117585 0.073872
O O9 0.500000 0.674799 0.250000
O O10 0.484812 0.718066 0.913616
O O11 0.750000 0.250000 0.500000
O O12 0.678244 0.322477 0.254693
O O13 0.500000 0.885218 0.750000
O O14 0.500000 0.000000 0.000000
O O15 0.435741 0.584736 0.702025
#
# Coordination Sequence:
#
# PCOD8143252 Si02
#       7
#     8   8   8   8   8   4   8
#     4  10  21  40  64  93 139 184 238 299 357 427
#     4  10  22  42  70  97 140 183 229 300 352 423
#     4  11  22  43  63  99 141 177 225 294 355 426
#     4   9  22  44  65  95 140 189 236 291 359 422
#     4   9  18  37  61  97 131 176 235 293 353 422
#     4  12  26  42  72 106 136 184 236 284 374 426
#     4  11  23  43  69 105 138 185 237 294 360 429
#
# _framework density 24.274846
#
# number of rings (size 3 to 8) (size 9 to 14) (size 15 to 20)
#    0.000    1.846    1.538    2.308    1.077    3.692 
#   11.077    8.462    0.000    0.000    0.000    0.000 
#    0.000    0.000    0.000    0.000    0.000    0.000 
#
# Total GULP energy -322216.529344 kJ/mol
# GULP energy per Si atom -12392.943436 kJ/mol
# Density = 2.421960 g / cm^3
# Si number density = 24.274846 Si / 1000 Ang^3
#
#
#
# Elastic Constant Matrix: (Units=GPa)
#
#
# Indices 1 2 3 4 5 6 
#
# 1 99.7099 45.1246 26.8594 0.0000 -16.3219 0.0000
# 2 45.1246 113.7305 28.1204 0.0000 -11.9149 0.0000
# 3 26.8594 28.1204 118.9185 0.0000 -14.6195 0.0000
# 4 0.0000 0.0000 0.0000 33.8452 0.0000 -0.0862
# 5 -16.3219 -11.9149 -14.6195 0.0000 33.9045 0.0000
# 6 0.0000 0.0000 0.0000 -0.0862 0.0000 22.2605
#
#
#
# Elastic Compliance Matrix: (Units=1/GPa)
#
#
# Indices 1 2 3 4 5 6 
#
# 1 0.013080 -0.004409 -0.001402 0.000000 0.004143 0.000000
# 2 -0.004409 0.011023 -0.001474 0.000000 0.001116 0.000000
# 3 -0.001402 -0.001474 0.009427 0.000000 0.002872 0.000000
# 4 0.000000 0.000000 0.000000 0.029547 0.000000 0.000114
# 5 0.004143 0.001116 0.002872 0.000000 0.033120 0.000000
# 6 0.000000 0.000000 0.000000 0.000114 0.000000 0.044923
#
#
# Mechanical properties :
#
#
# Convention : Reuss Voigt Hill
#
# Bulk Modulus (GPa) = 52.74037 59.17417 55.95727
# Shear Modulus (GPa) = 30.86211 33.48571 32.17391
#
# Velocity S-wave (km/s) = 3.56948 3.71811 3.64456
# Velocity P-wave (km/s) = 6.22590 6.54692 6.38842
#
# Compressibility (1/GPa) = 0.01896081
#
# Stress axis : x y z
#
# Youngs Moduli (GPa) = 76.45017 90.71636 106.07338
#
# Poissons Ratio (x) = 0.39998 0.14877
# Poissons Ratio (y) = 0.33708 0.15631
# Poissons Ratio (z) = 0.10722 0.13368
#
# Static dielectric constant tensor:
#      x y z
#    x 4.560320 0.000000 -0.056820 
#    y 0.000000 4.455630 0.000000 
#    z -0.056820 0.000000 4.867370 
# 
# 
# High freq. dielectric constant tensor:
#      x y z
#    x 1.951030 0.000000 -0.017620 
#    y 0.000000 1.949760 0.000000 
#    z -0.017620 0.000000 1.971840 
# 
# From -- ./inp_files/55292.got.cif
#   From: 2010.06.25/outbox.cif.g09.slc.cpg/sg15_28_cif.got.tgz:55292.got - 2010.06.28 07:06:18.
