data_PCOD8143151
_publ_section_title
;
Structure prediction by ZEFSAII (Michael W. Deem and Ramdas Pophale) SiO2 
 PCOD8143151
Probable space group: C 2/C
;
_chemical_formula_sum "Si O2"
_cell_formula_units_Z 64
_cell_length_a 7.513177
_cell_length_b 26.445792
_cell_length_c 27.485181
_cell_angle_alpha 90.000000
_cell_angle_beta 145.090789
_cell_angle_gamma 90.000000
_cell_volume 3125.256264
_symmetry_space_group_name_H-M "C 2/C"
_symmetry_group_IT_number 15
_symmetry_cell_setting 'monoclinic'
loop_
_space_group_symop_operation_xyz
x,y,z
-x,y,1/2-z
-x,-y,-z
x,-y,1/2+z
1/2+x,1/2+y,z
1/2-x,1/2+y,1/2-z
1/2-x,1/2-y,-z
1/2+x,1/2-y,1/2+z
loop_
_atom_site_type_symbol
_atom_site_label
_atom_site_fract_x
_atom_site_fract_y
_atom_site_fract_z
Si Si1 0.661423 0.883281 0.902251
Si Si2 0.686275 0.630080 0.910269
Si Si3 0.282698 0.686100 0.344234
Si Si4 0.290991 0.934202 0.250001
Si Si5 0.747927 0.883282 0.597748
Si Si6 0.005148 0.713686 0.918382
Si Si7 0.224655 0.130081 0.589731
Si Si8 0.201666 0.049712 0.250000
O O1 0.749022 0.833152 0.892008
O O2 0.399331 0.869036 0.883112
O O3 0.543536 0.926314 0.837485
O O4 0.977051 0.900828 0.000711
O O5 0.528973 0.594600 0.834187
O O6 0.812137 0.680425 0.913222
O O7 0.433930 0.645872 0.894642
O O8 0.972784 0.599170 0.999287
O O9 0.603022 0.666845 0.392012
O O10 0.270588 0.746998 0.340196
O O11 0.000000 0.663854 0.250000
O O12 0.500000 0.939163 0.250000
O O13 0.476162 0.905399 0.334190
O O14 0.214053 0.990009 0.250001
O O15 0.018633 0.926315 0.662516
O O16 0.167208 0.680427 0.913223
O O17 0.250000 0.750000 0.000000
O O18 0.000000 0.066461 0.250000
#
# Coordination Sequence:
#
# PCOD8143151 Si02
#       8
#     8   8   8   8   8   8   8   8
#     4  10  21  40  63  89 127 161 205 261 309 367
#     4  10  23  43  62  87 131 166 204 259 308 370
#     4  12  24  38  62  97 127 166 204 264 313 362
#     4  10  24  42  62  91 123 170 208 252 317 374
#     4  10  21  40  63  89 127 161 205 261 309 367
#     4  12  24  40  64  98 122 167 221 244 319 379
#     4  10  23  43  62  87 131 166 204 259 308 370
#     4  10  22  38  62  93 117 160 214 256 317 368
#
# _framework density 20.478321999999999
#
# number of rings (size 3 to 8) (size 9 to 14) (size 15 to 20)
#    0.000    1.500    3.750    0.000    5.250    2.500 
#    0.000    0.000    0.000    0.000    0.000    0.000 
#    0.000    0.000    0.000    0.000    0.000    0.000 
#
# Total GULP energy -396630.755181 kJ/mol
# GULP energy per Si atom -12394.711099 kJ/mol
# Density = 2.043171 g / cm^3
# Si number density = 20.478322 Si / 1000 Ang^3
#
#
#
# Elastic Constant Matrix: (Units=GPa)
#
#
# Indices 1 2 3 4 5 6 
#
# 1 89.1824 48.8014 42.1178 0.0000 -0.4469 0.0001
# 2 48.8014 140.9396 75.3927 0.0000 0.8041 0.0000
# 3 42.1178 75.3927 174.9029 0.0000 3.0369 0.0001
# 4 0.0000 0.0000 0.0000 35.1652 0.0001 0.2426
# 5 -0.4469 0.8041 3.0369 0.0001 16.1715 0.0000
# 6 0.0001 0.0000 0.0001 0.2426 0.0000 27.1072
#
#
#
# Elastic Compliance Matrix: (Units=1/GPa)
#
#
# Indices 1 2 3 4 5 6 
#
# 1 0.014222 -0.004015 -0.001710 0.000000 0.000914 0.000000
# 2 -0.004015 0.010356 -0.003498 0.000000 0.000031 0.000000
# 3 -0.001710 -0.003498 0.007660 0.000000 -0.001312 0.000000
# 4 0.000000 0.000000 0.000000 0.028439 0.000000 -0.000255
# 5 0.000914 0.000031 -0.001312 0.000000 0.062107 0.000000
# 6 0.000000 0.000000 0.000000 -0.000255 0.000000 0.036893
#
#
# Mechanical properties :
#
#
# Convention : Reuss Voigt Hill
#
# Bulk Modulus (GPa) = 72.50248 81.96095 77.23171
# Shear Modulus (GPa) = 27.36417 31.60298 29.48358
#
# Velocity S-wave (km/s) = 3.65944 3.93267 3.79851
# Velocity P-wave (km/s) = 7.30320 7.79303 7.55209
#
# Compressibility (1/GPa) = 0.01379263
#
# Stress axis : x y z
#
# Youngs Moduli (GPa) = 70.31270 96.55852 130.55213
#
# Poissons Ratio (x) = 0.38769 0.22324
# Poissons Ratio (y) = 0.28231 0.45665
# Poissons Ratio (z) = 0.12023 0.33775
#
# Static dielectric constant tensor:
#      x y z
#    x 3.745580 0.000000 0.016270 
#    y 0.000000 3.649830 0.000000 
#    z 0.016270 0.000000 4.284880 
# 
# 
# High freq. dielectric constant tensor:
#      x y z
#    x 1.806200 0.000000 0.000540 
#    y 0.000000 1.775460 0.000000 
#    z 0.000540 0.000000 1.824070 
# 
# From -- ./inp_files/309150.got.cif
#   From: 2010.06.25/outbox.cif.g09.slc.cpg/sg15_155_cif.got.tgz:309150.got - 2010.06.28 07:06:18.
