data_PCOD8143982
_publ_section_title
;
Structure prediction by ZEFSAII (Michael W. Deem and Ramdas Pophale) SiO2 
 PCOD8143982
Probable space group: C 2/C
;
_chemical_formula_sum "Si O2"
_cell_formula_units_Z 48
_cell_length_a 14.647042
_cell_length_b 9.826818
_cell_length_c 27.529004
_cell_angle_alpha 90.000000
_cell_angle_beta 38.141561
_cell_angle_gamma 90.000000
_cell_volume 2447.176099
_symmetry_space_group_name_H-M "C 2/C"
_symmetry_group_IT_number 15
_symmetry_cell_setting 'monoclinic'
loop_
_space_group_symop_operation_xyz
x,y,z
-x,y,1/2-z
-x,-y,-z
x,-y,1/2+z
1/2+x,1/2+y,z
1/2-x,1/2+y,1/2-z
1/2-x,1/2-y,-z
1/2+x,1/2-y,1/2+z
loop_
_atom_site_type_symbol
_atom_site_label
_atom_site_fract_x
_atom_site_fract_y
_atom_site_fract_z
Si Si1 0.602372 0.969928 0.163648
Si Si2 0.612536 0.292048 0.333743
Si Si3 0.918130 0.861048 0.043803
Si Si4 0.908746 0.617824 0.562827
Si Si5 0.142300 0.481747 0.309514
Si Si6 0.896070 0.216558 0.837375
O O1 0.500000 0.915632 0.250000
O O2 0.746126 0.875171 0.102328
O O3 0.516584 0.958457 0.148744
O O4 0.645635 0.126445 0.155076
O O5 0.555722 0.308965 0.412276
O O6 0.732738 0.408981 0.274605
O O7 0.474106 0.311341 0.355939
O O8 0.681417 0.142057 0.296406
O O9 0.990136 0.751419 0.977917
O O10 0.000000 0.000000 0.000000
O O11 0.862065 0.585435 0.636612
O O12 0.757333 0.635642 0.596253
O O13 0.000000 0.500000 0.500000
O O14 0.000000 0.163718 0.750000
#
# Coordination Sequence:
#
# PCOD8143982 Si02
#       6
#     8   8   8   8   8   8
#     4  10  21  41  68  95 127 173 223 263 322 401
#     4  11  24  43  69  98 128 177 221 265 323 399
#     4  12  25  42  67  99 134 171 216 273 330 383
#     4  12  25  44  63  99 140 164 213 282 328 373
#     4  11  24  43  69  95 132 173 222 267 326 393
#     4  10  21  41  70  93 126 179 221 257 324 405
#
# _framework density 19.614443000000001
#
# number of rings (size 3 to 8) (size 9 to 14) (size 15 to 20)
#    0.000    1.000    6.667    0.000    2.333    2.667 
#    3.000    2.500    0.000    0.000    0.000    0.000 
#    0.000    0.000    0.000    0.000    0.000    0.000 
#
# Total GULP energy -297724.563659 kJ/mol
# GULP energy per Si atom -12405.190152 kJ/mol
# Density = 1.956980 g / cm^3
# Si number density = 19.614443 Si / 1000 Ang^3
#
#
#
# Elastic Constant Matrix: (Units=GPa)
#
#
# Indices 1 2 3 4 5 6 
#
# 1 108.5811 37.7778 29.0933 0.0000 -13.7765 0.0000
# 2 37.7778 113.3459 36.2373 0.0000 -18.0891 0.0000
# 3 29.0933 36.2373 67.2368 0.0000 -20.7200 0.0000
# 4 0.0000 0.0000 0.0000 47.3600 0.0000 -3.7179
# 5 -13.7765 -18.0891 -20.7200 0.0000 39.3512 0.0000
# 6 0.0000 0.0000 0.0000 -3.7179 0.0000 28.5525
#
#
#
# Elastic Compliance Matrix: (Units=1/GPa)
#
#
# Indices 1 2 3 4 5 6 
#
# 1 0.011053 -0.002523 -0.003089 0.000000 0.001083 0.000000
# 2 -0.002523 0.011403 -0.004429 0.000000 0.002026 0.000000
# 3 -0.003089 -0.004429 0.021052 0.000000 0.007967 0.000000
# 4 0.000000 0.000000 0.000000 0.021333 0.000000 0.002778
# 5 0.001083 0.002026 0.007967 0.000000 0.030918 0.000000
# 6 0.000000 0.000000 0.000000 0.002778 0.000000 0.035385
#
#
# Mechanical properties :
#
#
# Convention : Reuss Voigt Hill
#
# Bulk Modulus (GPa) = 42.69070 55.04230 48.86650
# Shear Modulus (GPa) = 31.43975 35.45643 33.44809
#
# Velocity S-wave (km/s) = 4.00795 4.25628 4.13398
# Velocity P-wave (km/s) = 6.57498 7.23033 6.91043
#
# Compressibility (1/GPa) = 0.02342431
#
# Stress axis : x y z
#
# Youngs Moduli (GPa) = 90.47573 87.69560 47.50212
#
# Poissons Ratio (x) = 0.22130 0.14672
# Poissons Ratio (y) = 0.22832 0.21041
# Poissons Ratio (z) = 0.27945 0.38844
#
# Static dielectric constant tensor:
#      x y z
#    x 3.704290 0.000000 0.020360 
#    y 0.000000 3.626930 0.000000 
#    z 0.020360 0.000000 3.873000 
# 
# 
# High freq. dielectric constant tensor:
#      x y z
#    x 1.771650 0.000000 0.000090 
#    y 0.000000 1.762250 0.000000 
#    z 0.000090 0.000000 1.770150 
# 
# From -- ./inp_files/208948.got.cif
#   From: 2010.06.25/outbox.cif.g09.slc.cpg/sg15_105_cif.got.tgz:208948.got - 2010.06.28 07:06:18.
