data_PCOD8143600
_publ_section_title
;
Structure prediction by ZEFSAII (Michael W. Deem and Ramdas Pophale) SiO2 
 PCOD8143600
Probable space group: C 2/C
;
_chemical_formula_sum "Si O2"
_cell_formula_units_Z 40
_cell_length_a 24.020289
_cell_length_b 9.340530
_cell_length_c 8.991403
_cell_angle_alpha 90.000000
_cell_angle_beta 80.617672
_cell_angle_gamma 90.000000
_cell_volume 1990.344359
_symmetry_space_group_name_H-M "C 2/C"
_symmetry_group_IT_number 15
_symmetry_cell_setting 'monoclinic'
loop_
_space_group_symop_operation_xyz
x,y,z
-x,y,1/2-z
-x,-y,-z
x,-y,1/2+z
1/2+x,1/2+y,z
1/2-x,1/2+y,1/2-z
1/2-x,1/2-y,-z
1/2+x,1/2-y,1/2+z
loop_
_atom_site_type_symbol
_atom_site_label
_atom_site_fract_x
_atom_site_fract_y
_atom_site_fract_z
Si Si1 0.855258 0.382217 0.796352
Si Si2 0.065331 0.136716 0.689278
Si Si3 0.824298 0.641978 0.647058
Si Si4 0.218571 0.181937 0.873180
Si Si5 0.630422 0.448705 0.887309
O O1 0.914595 0.298268 0.782867
O O2 0.867003 0.539212 0.722084
O O3 0.814355 0.306033 0.697549
O O4 0.825872 0.391248 0.970789
O O5 0.078539 0.097744 0.514315
O O6 0.000000 0.121667 0.750000
O O7 0.102514 0.023276 0.760244
O O8 0.761930 0.610444 0.737397
O O9 0.838445 0.805383 0.679052
O O10 0.175814 0.055850 0.943815
O O11 0.250000 0.250000 0.000000
#
# Coordination Sequence:
#
# PCOD8143600 Si02
#       5
#     8   8   8   8   8
#     4  10  23  37  55  83 116 152 195 231 279 344
#     4  10  21  41  61  81 110 147 191 246 289 328
#     4  11  21  37  55  83 121 155 185 233 282 344
#     4  11  21  36  59  87 119 153 183 229 292 349
#     4  10  22  37  59  88 112 145 194 231 280 349
#
# _framework density 20.097024999999999
#
# number of rings (size 3 to 8) (size 9 to 14) (size 15 to 20)
#    0.000    1.600    0.000    4.800    0.000    8.000 
#    0.000    5.000    0.000    0.000    0.000    0.000 
#    0.000    0.000    0.000    0.000    0.000    0.000 
#
# Total GULP energy -247989.375228 kJ/mol
# GULP energy per Si atom -12399.468761 kJ/mol
# Density = 2.005128 g / cm^3
# Si number density = 20.097025 Si / 1000 Ang^3
#
#
#
# Elastic Constant Matrix: (Units=GPa)
#
#
# Indices 1 2 3 4 5 6 
#
# 1 75.2864 31.0467 28.6766 0.0000 -15.4305 0.0000
# 2 31.0467 128.8293 37.1857 0.0000 2.7602 0.0000
# 3 28.6766 37.1857 81.2574 0.0000 -2.9664 0.0000
# 4 0.0000 0.0000 0.0000 23.2377 0.0000 -7.5918
# 5 -15.4305 2.7602 -2.9664 0.0000 31.6504 0.0000
# 6 0.0000 0.0000 0.0000 -7.5918 0.0000 1.6651
#
#
#
# Elastic Compliance Matrix: (Units=1/GPa)
#
#
# Indices 1 2 3 4 5 6 
#
# 1 0.018154 -0.003231 -0.004611 0.000000 0.008700 0.000000
# 2 -0.003231 0.009562 -0.003335 0.000000 -0.002721 0.000000
# 3 -0.004611 -0.003335 0.015441 0.000000 -0.000510 0.000000
# 4 0.000000 0.000000 0.000000 -0.087911 0.000000 -0.400807
# 5 0.008700 -0.002721 -0.000510 0.000000 0.036026 0.000000
# 6 0.000000 0.000000 0.000000 -0.400807 0.000000 -1.226829
#
#
# Mechanical properties :
#
#
# Convention : Reuss Voigt Hill
#
# Bulk Modulus (GPa) = 48.06621 53.24346 50.65483
# Shear Modulus (GPa) = -4.14501 23.87494 9.86496
#
# Velocity S-wave (km/s) = -1.43770 3.45045 2.21795
# Velocity P-wave (km/s) = 4.60576 6.51344 5.64083
#
# Compressibility (1/GPa) = 0.02080464
#
# Stress axis : x y z
#
# Youngs Moduli (GPa) = 55.08348 104.58438 64.76123
#
# Poissons Ratio (x) = 0.33786 0.29860
# Poissons Ratio (y) = 0.17795 0.21598
# Poissons Ratio (z) = 0.25398 0.34878
#
# Static dielectric constant tensor:
#      x y z
#    x 3.414760 0.000000 -0.021120 
#    y 0.000000 3.876680 0.000000 
#    z -0.021120 0.000000 3.680880 
# 
# 
# High freq. dielectric constant tensor:
#      x y z
#    x 1.756830 0.000000 -0.000550 
#    y 0.000000 1.800640 0.000000 
#    z -0.000550 0.000000 1.797430 
# 
# From -- ./inp_files/59893.got.cif
#   From: 2010.06.25/outbox.cif.g09.slc.cpg/sg15_30_cif.got.tgz:59893.got - 2010.06.28 07:06:18.
