data_PCOD8143149
_publ_section_title
;
Structure prediction by ZEFSAII (Michael W. Deem and Ramdas Pophale) SiO2 
 PCOD8143149
Probable space group: C 2/C
;
_chemical_formula_sum "Si O2"
_cell_formula_units_Z 40
_cell_length_a 18.562481
_cell_length_b 14.086789
_cell_length_c 8.387225
_cell_angle_alpha 90.000000
_cell_angle_beta 129.805896
_cell_angle_gamma 90.000000
_cell_volume 1684.808737
_symmetry_space_group_name_H-M "C 2/C"
_symmetry_group_IT_number 15
_symmetry_cell_setting 'monoclinic'
loop_
_space_group_symop_operation_xyz
x,y,z
-x,y,1/2-z
-x,-y,-z
x,-y,1/2+z
1/2+x,1/2+y,z
1/2-x,1/2+y,1/2-z
1/2-x,1/2-y,-z
1/2+x,1/2-y,1/2+z
loop_
_atom_site_type_symbol
_atom_site_label
_atom_site_fract_x
_atom_site_fract_y
_atom_site_fract_z
Si Si1 0.163150 0.108283 0.584632
Si Si2 0.500000 0.039030 0.250000
Si Si3 0.107048 0.079786 0.868736
Si Si4 0.000000 0.229362 0.250000
Si Si5 0.581567 0.878462 0.570592
Si Si6 0.232910 0.227928 0.156910
O O1 0.119678 0.099387 0.700048
O O2 0.259150 0.172750 0.730810
O O3 0.091600 0.163930 0.367941
O O4 0.176820 0.006063 0.522290
O O5 0.431938 0.105256 0.259695
O O6 0.567058 0.976907 0.457195
O O7 0.000000 0.051606 0.750000
O O8 0.134269 0.170672 0.019820
O O9 0.005675 0.298374 0.412292
O O10 0.684657 0.842769 0.669962
O O11 0.250000 0.250000 0.000000
#
# Coordination Sequence:
#
# PCOD8143149 Si02
#       6
#     8   4   8   4   8   8
#     4  10  21  40  63  89 125 160 202 265 308 361
#     4   9  18  34  60  91 110 162 214 247 296 377
#     4  11  22  39  67  92 119 166 211 249 311 374
#     4   9  18  36  56  83 124 156 190 257 310 349
#     4   9  18  35  59  83 123 160 200 254 309 359
#     4   9  21  40  57  86 130 160 194 260 314 352
#
# _framework density 23.741567
#
# number of rings (size 3 to 8) (size 9 to 14) (size 15 to 20)
#    0.000    2.400    1.000    0.600    0.000    3.200 
#   16.200    1.000    4.400    0.000    0.000    0.000 
#    0.000    0.000    0.000    0.000    0.000    0.000 
#
# Total GULP energy -247803.674418 kJ/mol
# GULP energy per Si atom -12390.183721 kJ/mol
# Density = 2.368753 g / cm^3
# Si number density = 23.741567 Si / 1000 Ang^3
#
#
#
# Elastic Constant Matrix: (Units=GPa)
#
#
# Indices 1 2 3 4 5 6 
#
# 1 27.7420 11.8183 10.3779 0.0000 -9.1347 0.0000
# 2 11.8183 122.4806 41.4926 0.0000 5.6251 0.0000
# 3 10.3779 41.4926 97.6473 0.0000 0.6710 0.0000
# 4 0.0000 0.0000 0.0000 48.5234 0.0000 4.1202
# 5 -9.1347 5.6251 0.6710 0.0000 23.3303 0.0000
# 6 0.0000 0.0000 0.0000 4.1202 0.0000 27.1981
#
#
#
# Elastic Compliance Matrix: (Units=1/GPa)
#
#
# Indices 1 2 3 4 5 6 
#
# 1 0.045184 -0.004149 -0.003168 0.000000 0.018783 0.000000
# 2 -0.004149 0.010031 -0.003794 0.000000 -0.003934 0.000000
# 3 -0.003168 -0.003794 0.012195 0.000000 -0.000676 0.000000
# 4 0.000000 0.000000 0.000000 0.020877 0.000000 -0.003163
# 5 0.018783 -0.003934 -0.000676 0.000000 0.051185 0.000000
# 6 0.000000 0.000000 0.000000 -0.003163 0.000000 0.037246
#
#
# Mechanical properties :
#
#
# Convention : Reuss Voigt Hill
#
# Bulk Modulus (GPa) = 22.13074 41.69418 31.91246
# Shear Modulus (GPa) = 23.36415 32.08911 27.72663
#
# Velocity S-wave (km/s) = 3.14045 3.68040 3.42109
# Velocity P-wave (km/s) = 4.74253 5.97162 5.39221
#
# Compressibility (1/GPa) = 0.04518602
#
# Stress axis : x y z
#
# Youngs Moduli (GPa) = 22.13182 99.69077 82.00333
#
# Poissons Ratio (x) = 0.41364 0.25980
# Poissons Ratio (y) = 0.09183 0.31115
# Poissons Ratio (z) = 0.07012 0.37827
#
# Static dielectric constant tensor:
#      x y z
#    x 3.209310 0.000000 -0.040420 
#    y 0.000000 4.865600 0.000000 
#    z -0.040420 0.000000 4.698090 
# 
# 
# High freq. dielectric constant tensor:
#      x y z
#    x 1.868200 0.000000 -0.000260 
#    y 0.000000 1.965280 0.000000 
#    z -0.000260 0.000000 1.963160 
# 
# From -- ./inp_files/37893.got.cif
#   From: 2010.06.25/outbox.cif.g09.slc.cpg/sg15_19_cif.got.tgz:37893.got - 2010.06.28 07:06:18.
