data_PCOD8143571
_publ_section_title
;
Structure prediction by ZEFSAII (Michael W. Deem and Ramdas Pophale) SiO2 
 PCOD8143571
Probable space group: C 2/C
;
_chemical_formula_sum "Si O2"
_cell_formula_units_Z 32
_cell_length_a 22.967877
_cell_length_b 11.305156
_cell_length_c 10.824576
_cell_angle_alpha 90.000000
_cell_angle_beta 26.983526
_cell_angle_gamma 90.000000
_cell_volume 1275.292813
_symmetry_space_group_name_H-M "C 2/C"
_symmetry_group_IT_number 15
_symmetry_cell_setting 'monoclinic'
loop_
_space_group_symop_operation_xyz
x,y,z
-x,y,1/2-z
-x,-y,-z
x,-y,1/2+z
1/2+x,1/2+y,z
1/2-x,1/2+y,1/2-z
1/2-x,1/2-y,-z
1/2+x,1/2-y,1/2+z
loop_
_atom_site_type_symbol
_atom_site_label
_atom_site_fract_x
_atom_site_fract_y
_atom_site_fract_z
Si Si1 0.576975 0.999260 0.227499
Si Si2 0.840439 0.888629 0.727611
Si Si3 0.187041 0.243607 0.461815
Si Si4 0.079331 0.143912 0.903330
O O1 0.500000 0.958739 0.250000
O O2 0.500000 0.000000 0.500000
O O3 0.690786 0.904833 0.038892
O O4 0.630703 0.129134 0.101370
O O5 0.863663 0.796446 0.573938
O O6 0.925091 0.834496 0.681924
O O7 0.901093 0.014807 0.574718
O O8 0.145114 0.146610 0.642015
O O9 0.344502 0.256454 0.161574
#
# Coordination Sequence:
#
# PCOD8143571 Si02
#       4
#     8   8   8   8
#     4  11  26  45  73 106 153 202 249 310 380 453
#     4  10  21  40  73 104 138 190 250 305 372 450
#     4  10  21  43  75 100 149 193 239 317 377 442
#     4   9  20  38  72 105 136 186 247 305 375 441
#
# _framework density 25.092275000000001
#
# number of rings (size 3 to 8) (size 9 to 14) (size 15 to 20)
#    0.000    2.000    0.000    2.250   10.500    0.000 
#    0.000    5.000   16.500    0.000    0.000    0.000 
#    0.000    0.000    0.000    0.000    0.000    0.000 
#
# Total GULP energy -198229.134982 kJ/mol
# GULP energy per Si atom -12389.320936 kJ/mol
# Density = 2.503516 g / cm^3
# Si number density = 25.092275 Si / 1000 Ang^3
#
#
#
# Elastic Constant Matrix: (Units=GPa)
#
#
# Indices 1 2 3 4 5 6 
#
# 1 176.4302 25.9808 68.8863 0.0000 -36.9808 0.0000
# 2 25.9808 80.0661 42.8728 0.0000 -4.1009 0.0000
# 3 68.8863 42.8728 108.1478 0.0000 -12.4612 0.0000
# 4 0.0000 0.0000 0.0000 35.0275 0.0000 0.0858
# 5 -36.9808 -4.1009 -12.4612 0.0000 43.6255 0.0000
# 6 0.0000 0.0000 0.0000 0.0858 0.0000 50.6239
#
#
#
# Elastic Compliance Matrix: (Units=1/GPa)
#
#
# Indices 1 2 3 4 5 6 
#
# 1 0.008885 0.000106 -0.004997 0.000000 0.006114 0.000000
# 2 0.000106 0.015861 -0.006383 0.000000 -0.000243 0.000000
# 3 -0.004997 -0.006383 0.014893 0.000000 -0.000582 0.000000
# 4 0.000000 0.000000 0.000000 0.028549 0.000000 -0.000048
# 5 0.006114 -0.000243 -0.000582 0.000000 0.027916 0.000000
# 6 0.000000 0.000000 0.000000 -0.000048 0.000000 0.019754
#
#
# Mechanical properties :
#
#
# Convention : Reuss Voigt Hill
#
# Bulk Modulus (GPa) = 58.51236 71.12487 64.81862
# Shear Modulus (GPa) = 34.69753 40.98234 37.83993
#
# Velocity S-wave (km/s) = 3.72263 4.04575 3.88755
# Velocity P-wave (km/s) = 6.46891 7.08738 6.78520
#
# Compressibility (1/GPa) = 0.01709040
#
# Stress axis : x y z
#
# Youngs Moduli (GPa) = 112.54967 63.04848 67.14685
#
# Poissons Ratio (x) = -0.00666 0.33552
# Poissons Ratio (y) = -0.01190 0.42860
# Poissons Ratio (z) = 0.56239 0.40244
#
# Static dielectric constant tensor:
#      x y z
#    x 5.271310 0.000000 -0.693650 
#    y 0.000000 4.376480 0.000000 
#    z -0.693650 0.000000 4.334460 
# 
# 
# High freq. dielectric constant tensor:
#      x y z
#    x 2.026990 0.000000 -0.035730 
#    y 0.000000 1.996280 0.000000 
#    z -0.035730 0.000000 1.966700 
# 
# From -- ./inp_files/54822.got.cif
#   From: 2010.06.25/outbox.cif.g09.slc.cpg/sg15_28_cif.got.tgz:54822.got - 2010.06.28 07:06:18.
