data_PCOD8143148
_publ_section_title
;
Structure prediction by ZEFSAII (Michael W. Deem and Ramdas Pophale) SiO2 
 PCOD8143148
Probable space group: C 2/C
;
_chemical_formula_sum "Si O2"
_cell_formula_units_Z 56
_cell_length_a 10.318264
_cell_length_b 9.446994
_cell_length_c 30.469266
_cell_angle_alpha 90.000000
_cell_angle_beta 68.778803
_cell_angle_gamma 90.000000
_cell_volume 2768.641245
_symmetry_space_group_name_H-M "C 2/C"
_symmetry_group_IT_number 15
_symmetry_cell_setting 'monoclinic'
loop_
_space_group_symop_operation_xyz
x,y,z
-x,y,1/2-z
-x,-y,-z
x,-y,1/2+z
1/2+x,1/2+y,z
1/2-x,1/2+y,1/2-z
1/2-x,1/2-y,-z
1/2+x,1/2-y,1/2+z
loop_
_atom_site_type_symbol
_atom_site_label
_atom_site_fract_x
_atom_site_fract_y
_atom_site_fract_z
Si Si1 0.036419 0.869261 0.194142
Si Si2 0.972263 0.622033 0.946755
Si Si3 0.850165 0.630399 0.658885
Si Si4 0.154959 0.042326 0.348571
Si Si5 0.533153 0.050038 0.195862
Si Si6 0.470980 0.555947 0.454149
Si Si7 0.707526 0.903494 0.488815
O O1 0.194475 0.924438 0.168083
O O2 0.024221 0.708824 0.177587
O O3 0.000000 0.886192 0.250000
O O4 0.934489 0.957778 0.175813
O O5 0.043414 0.590385 0.892217
O O6 0.919597 0.781991 0.959278
O O7 0.845497 0.509802 0.966149
O O8 0.087628 0.601941 0.968940
O O9 0.912506 0.551128 0.692972
O O10 0.845460 0.797188 0.668622
O O11 0.312917 0.984709 0.330881
O O12 0.099926 0.031842 0.405516
O O13 0.500000 0.064678 0.250000
O O14 0.500000 0.500000 0.500000
O O15 0.344068 0.467570 0.449617
O O16 0.750000 0.750000 0.500000
#
# Coordination Sequence:
#
# PCOD8143148 Si02
#       7
#     8   8   8   8   8   8   8
#     4  10  21  40  63  89 122 156 197 253 303 360
#     4  10  23  39  57  87 117 157 202 249 297 354
#     4  10  22  38  60  86 123 155 197 251 296 359
#     4  10  23  39  59  90 121 156 205 246 297 364
#     4  10  22  40  62  90 121 157 198 247 307 360
#     4  11  22  39  59  84 123 161 196 248 298 351
#     4  11  22  39  61  83 115 158 202 245 296 353
#
# _framework density 20.226527000000001
#
# number of rings (size 3 to 8) (size 9 to 14) (size 15 to 20)
#    0.000    1.714    1.429    2.143    2.000    4.000 
#    0.000    0.000    0.000    0.000    0.000    0.000 
#    0.000    0.000    0.000    0.000    0.000    0.000 
#
# Total GULP energy -347120.070732 kJ/mol
# GULP energy per Si atom -12397.145383 kJ/mol
# Density = 2.018049 g / cm^3
# Si number density = 20.226527 Si / 1000 Ang^3
#
#
#
# Elastic Constant Matrix: (Units=GPa)
#
#
# Indices 1 2 3 4 5 6 
#
# 1 105.5816 47.0950 19.2111 0.0000 -11.7998 0.0000
# 2 47.0950 95.4807 31.0052 0.0000 -6.0014 0.0000
# 3 19.2111 31.0052 53.5713 0.0000 0.9577 0.0000
# 4 0.0000 0.0000 0.0000 14.0199 0.0000 1.3562
# 5 -11.7998 -6.0014 0.9577 0.0000 30.0039 0.0000
# 6 0.0000 0.0000 0.0000 1.3562 0.0000 33.4682
#
#
#
# Elastic Compliance Matrix: (Units=1/GPa)
#
#
# Indices 1 2 3 4 5 6 
#
# 1 0.012629 -0.005529 -0.001398 0.000000 0.003905 0.000000
# 2 -0.005529 0.015561 -0.007044 0.000000 0.001163 0.000000
# 3 -0.001398 -0.007044 0.023293 0.000000 -0.002702 0.000000
# 4 0.000000 0.000000 0.000000 0.071608 0.000000 -0.002902
# 5 0.003905 0.001163 -0.002702 0.000000 0.035184 0.000000
# 6 0.000000 0.000000 0.000000 -0.002902 0.000000 0.029997
#
#
# Mechanical properties :
#
#
# Convention : Reuss Voigt Hill
#
# Bulk Modulus (GPa) = 42.48195 49.91736 46.19965
# Shear Modulus (GPa) = 22.31528 25.98655 24.15092
#
# Velocity S-wave (km/s) = 3.32515 3.58827 3.45921
# Velocity P-wave (km/s) = 5.98255 6.47304 6.23262
#
# Compressibility (1/GPa) = 0.02353941
#
# Stress axis : x y z
#
# Youngs Moduli (GPa) = 79.18509 64.26245 42.93063
#
# Poissons Ratio (x) = 0.35534 0.06003
# Poissons Ratio (y) = 0.43785 0.30241
# Poissons Ratio (z) = 0.11072 0.45268
#
# Static dielectric constant tensor:
#      x y z
#    x 3.853770 0.000000 -0.344800 
#    y 0.000000 3.836310 0.000000 
#    z -0.344800 0.000000 3.797600 
# 
# 
# High freq. dielectric constant tensor:
#      x y z
#    x 1.800870 0.000000 -0.012450 
#    y 0.000000 1.791700 0.000000 
#    z -0.012450 0.000000 1.792810 
# 
# From -- ./inp_files/309924.got.cif
#   From: 2010.06.25/outbox.cif.g09.slc.cpg/sg15_155_cif.got.tgz:309924.got - 2010.06.28 07:06:18.
