data_PCOD8143095
_publ_section_title
;
Structure prediction by ZEFSAII (Michael W. Deem and Ramdas Pophale) SiO2 
 PCOD8143095
Probable space group: C 2/C
;
_chemical_formula_sum "Si O2"
_cell_formula_units_Z 40
_cell_length_a 7.158488
_cell_length_b 8.329247
_cell_length_c 23.635535
_cell_angle_alpha 90.000000
_cell_angle_beta 82.674097
_cell_angle_gamma 90.000000
_cell_volume 1397.760423
_symmetry_space_group_name_H-M "C 2/C"
_symmetry_group_IT_number 15
_symmetry_cell_setting 'monoclinic'
loop_
_space_group_symop_operation_xyz
x,y,z
-x,y,1/2-z
-x,-y,-z
x,-y,1/2+z
1/2+x,1/2+y,z
1/2-x,1/2+y,1/2-z
1/2-x,1/2-y,-z
1/2+x,1/2-y,1/2+z
loop_
_atom_site_type_symbol
_atom_site_label
_atom_site_fract_x
_atom_site_fract_y
_atom_site_fract_z
Si Si1 0.682562 0.211424 0.092802
Si Si2 0.272695 0.163205 0.892245
Si Si3 0.967527 0.310991 0.495174
Si Si4 0.129900 0.668481 0.810868
Si Si5 0.356646 0.203081 0.210045
O O1 0.861255 0.243882 0.047074
O O2 0.694099 0.304065 0.152155
O O3 0.688087 0.024088 0.106757
O O4 0.496873 0.261514 0.059234
O O5 0.284118 0.229937 0.958569
O O6 0.449268 0.240545 0.850844
O O7 0.108305 0.218028 0.854164
O O8 0.000000 0.500000 0.500000
O O9 0.157693 0.755529 0.748549
O O10 0.107950 0.482872 0.798661
O O11 0.500000 0.279274 0.250000
#
# Coordination Sequence:
#
# PCOD8143095 Si02
#       5
#     8   8   8   8   8
#     4   9  17  35  63  90 118 156 199 245 299 359
#     4  10  21  40  62  87 119 157 199 247 300 357
#     4   8  16  32  61  93 121 156 196 242 301 359
#     4  11  23  40  60  84 119 156 199 249 302 360
#     4  12  25  39  57  85 118 155 200 249 300 355
#
# _framework density 28.617208000000002
#
# number of rings (size 3 to 8) (size 9 to 14) (size 15 to 20)
#    0.000    2.000    0.000    4.200    0.000    4.800 
#    0.000    2.000    0.000   49.200    0.000    0.000 
#    0.000    0.000    0.000    0.000    0.000    0.000 
#
# Total GULP energy -247799.057121 kJ/mol
# GULP energy per Si atom -12389.952856 kJ/mol
# Density = 2.855207 g / cm^3
# Si number density = 28.617208 Si / 1000 Ang^3
#
#
#
# Elastic Constant Matrix: (Units=GPa)
#
#
# Indices 1 2 3 4 5 6 
#
# 1 132.5346 12.0979 98.6566 0.0000 36.9446 0.0000
# 2 12.0979 46.4540 61.1309 0.0000 12.3296 0.0000
# 3 98.6566 61.1309 358.0523 0.0000 7.6522 0.0000
# 4 0.0000 0.0000 0.0000 57.9779 0.0000 2.3410
# 5 36.9446 12.3296 7.6522 0.0000 65.0050 0.0000
# 6 0.0000 0.0000 0.0000 2.3410 0.0000 19.5863
#
#
#
# Elastic Compliance Matrix: (Units=1/GPa)
#
#
# Indices 1 2 3 4 5 6 
#
# 1 0.012005 0.003751 -0.003797 0.000000 -0.007087 0.000000
# 2 0.003751 0.030461 -0.006080 0.000000 -0.007193 0.000000
# 3 -0.003797 -0.006080 0.004818 0.000000 0.002744 0.000000
# 4 0.000000 0.000000 0.000000 0.017332 0.000000 -0.002071
# 5 -0.007087 -0.007193 0.002744 0.000000 0.020453 0.000000
# 6 0.000000 0.000000 0.000000 -0.002071 0.000000 0.051304
#
#
# Mechanical properties :
#
#
# Convention : Reuss Voigt Hill
#
# Bulk Modulus (GPa) = 28.54592 97.86798 63.20695
# Shear Modulus (GPa) = 31.19137 52.85753 42.02445
#
# Velocity S-wave (km/s) = 3.30502 4.30240 3.83626
# Velocity P-wave (km/s) = 4.95590 7.67816 6.46201
#
# Compressibility (1/GPa) = 0.03503127
#
# Stress axis : x y z
#
# Youngs Moduli (GPa) = 83.30199 32.82939 207.53506
#
# Poissons Ratio (x) = -0.12314 0.78793
# Poissons Ratio (y) = -0.31245 1.26188
# Poissons Ratio (z) = 0.31627 0.19961
#
# Static dielectric constant tensor:
#      x y z
#    x 6.598210 0.000000 0.655910 
#    y 0.000000 3.420280 0.000000 
#    z 0.655910 0.000000 6.398540 
# 
# 
# High freq. dielectric constant tensor:
#      x y z
#    x 2.242610 0.000000 -0.001500 
#    y 0.000000 2.096330 0.000000 
#    z -0.001500 0.000000 2.261850 
# 
# From -- ./inp_files/262513.got.cif
#   From: 2010.06.25/outbox.cif.g09.slc.cpg/sg15_132_cif.got.tgz:262513.got - 2010.06.28 07:06:18.
