data_PCOD8143810
_publ_section_title
;
Structure prediction by ZEFSAII (Michael W. Deem and Ramdas Pophale) SiO2 
 PCOD8143810
Probable space group: C 2/C
;
_chemical_formula_sum "Si O2"
_cell_formula_units_Z 52
_cell_length_a 11.353869
_cell_length_b 8.044311
_cell_length_c 23.445675
_cell_angle_alpha 90.000000
_cell_angle_beta 84.629452
_cell_angle_gamma 90.000000
_cell_volume 2131.988280
_symmetry_space_group_name_H-M "C 2/C"
_symmetry_group_IT_number 15
_symmetry_cell_setting 'monoclinic'
loop_
_space_group_symop_operation_xyz
x,y,z
-x,y,1/2-z
-x,-y,-z
x,-y,1/2+z
1/2+x,1/2+y,z
1/2-x,1/2+y,1/2-z
1/2-x,1/2-y,-z
1/2+x,1/2-y,1/2+z
loop_
_atom_site_type_symbol
_atom_site_label
_atom_site_fract_x
_atom_site_fract_y
_atom_site_fract_z
Si Si1 0.000000 0.569103 0.250000
Si Si2 0.578640 0.644016 0.160277
Si Si3 0.375078 0.725969 0.839325
Si Si4 0.619896 0.939973 0.466076
Si Si5 0.350398 0.773011 0.226422
Si Si6 0.217101 0.111956 0.436447
Si Si7 0.233543 0.247256 0.932810
O O1 0.986752 0.680474 0.307129
O O2 0.884365 0.456713 0.246121
O O3 0.581778 0.452607 0.141281
O O4 0.443978 0.707282 0.174471
O O5 0.647840 0.657434 0.217479
O O6 0.642386 0.749290 0.107214
O O7 0.278026 0.718630 0.793880
O O8 0.328556 0.829328 0.894649
O O9 0.730648 0.919083 0.503271
O O10 0.612803 0.754094 0.438085
O O11 0.500000 0.000000 0.500000
O O12 0.655862 0.088196 0.419879
O O13 0.169870 0.929072 0.418417
O O14 0.250000 0.250000 0.000000
#
# Coordination Sequence:
#
# PCOD8143810 Si02
#       7
#     4   8   8   8   8   8   8
#     4  10  22  38  60  94 126 168 218 262 318 398
#     4  10  21  42  63  95 132 170 218 277 321 391
#     4  12  22  40  65  95 131 169 218 268 328 394
#     4  10  22  42  63  93 124 167 219 264 325 394
#     4  10  23  41  65  91 132 173 216 268 333 389
#     4  10  22  40  64  89 128 167 212 271 323 384
#     4  10  21  41  65  89 133 168 209 280 320 380
#
# _framework density 24.390377000000001
#
# number of rings (size 3 to 8) (size 9 to 14) (size 15 to 20)
#    0.000    1.846    1.538    3.692    0.000    4.308 
#    5.538    0.000    0.000    0.000    0.000    0.000 
#    0.000    0.000    0.000    0.000    0.000    0.000 
#
# Total GULP energy -322204.996623 kJ/mol
# GULP energy per Si atom -12392.499870 kJ/mol
# Density = 2.433486 g / cm^3
# Si number density = 24.390377 Si / 1000 Ang^3
#
#
#
# Elastic Constant Matrix: (Units=GPa)
#
#
# Indices 1 2 3 4 5 6 
#
# 1 28.4627 7.6559 -7.9610 0.0000 -10.9523 0.0000
# 2 7.6559 239.7098 41.6305 0.0000 -30.2895 0.0000
# 3 -7.9610 41.6305 129.2432 0.0000 -33.7823 0.0000
# 4 0.0000 0.0000 0.0000 47.6525 0.0000 -13.2560
# 5 -10.9523 -30.2895 -33.7823 0.0000 36.7791 0.0000
# 6 0.0000 0.0000 0.0000 -13.2560 0.0000 14.7905
#
#
#
# Elastic Compliance Matrix: (Units=1/GPa)
#
#
# Indices 1 2 3 4 5 6 
#
# 1 0.045687 -0.000251 0.008418 0.000000 0.021130 0.000000
# 2 -0.000251 0.004700 -0.000707 0.000000 0.003147 0.000000
# 3 0.008418 -0.000707 0.011826 0.000000 0.012787 0.000000
# 4 0.000000 0.000000 0.000000 0.027955 0.000000 0.025055
# 5 0.021130 0.003147 0.012787 0.000000 0.047818 0.000000
# 6 0.000000 0.000000 0.000000 0.025055 0.000000 0.090067
#
#
# Mechanical properties :
#
#
# Convention : Reuss Voigt Hill
#
# Bulk Modulus (GPa) = 12.96464 53.34073 33.15269
# Shear Modulus (GPa) = 20.93424 43.58376 32.25900
#
# Velocity S-wave (km/s) = 2.93285 4.23179 3.64072
# Velocity P-wave (km/s) = 4.09827 6.76716 5.59421
#
# Compressibility (1/GPa) = 0.07713287
#
# Stress axis : x y z
#
# Youngs Moduli (GPa) = 21.88825 212.76065 84.56009
#
# Poissons Ratio (x) = 0.05343 -0.71184
# Poissons Ratio (y) = 0.00550 0.05978
# Poissons Ratio (z) = -0.18426 0.15041
#
# Static dielectric constant tensor:
#      x y z
#    x 3.779310 0.000000 -0.077560 
#    y 0.000000 5.829480 0.000000 
#    z -0.077560 0.000000 4.438810 
# 
# 
# High freq. dielectric constant tensor:
#      x y z
#    x 1.920870 0.000000 -0.012070 
#    y 0.000000 2.000830 0.000000 
#    z -0.012070 0.000000 1.974510 
# 
# From -- ./inp_files/291463.got.cif
#   From: 2010.06.25/outbox.cif.g09.slc.cpg/sg15_146_cif.got.tgz:291463.got - 2010.06.28 07:06:18.
