data_PCOD8143551
_publ_section_title
;
Structure prediction by ZEFSAII (Michael W. Deem and Ramdas Pophale) SiO2 
 PCOD8143551
Probable space group: C 2/C
;
_chemical_formula_sum "Si O2"
_cell_formula_units_Z 48
_cell_length_a 26.240309
_cell_length_b 14.120126
_cell_length_c 11.992595
_cell_angle_alpha 90.000000
_cell_angle_beta 28.484951
_cell_angle_gamma 90.000000
_cell_volume 2119.207247
_symmetry_space_group_name_H-M "C 2/C"
_symmetry_group_IT_number 15
_symmetry_cell_setting 'monoclinic'
loop_
_space_group_symop_operation_xyz
x,y,z
-x,y,1/2-z
-x,-y,-z
x,-y,1/2+z
1/2+x,1/2+y,z
1/2-x,1/2+y,1/2-z
1/2-x,1/2-y,-z
1/2+x,1/2-y,1/2+z
loop_
_atom_site_type_symbol
_atom_site_label
_atom_site_fract_x
_atom_site_fract_y
_atom_site_fract_z
Si Si1 0.603124 0.440248 0.268885
Si Si2 0.122140 0.738320 0.499700
Si Si3 0.185991 0.562938 0.003254
Si Si4 0.859095 0.629859 0.829292
Si Si5 0.282476 0.420352 0.096907
Si Si6 0.920925 0.276119 0.660797
O O1 0.500000 0.500000 0.500000
O O2 0.691041 0.448525 0.196512
O O3 0.570082 0.331307 0.312833
O O4 0.653618 0.484601 0.058908
O O5 0.186065 0.675618 0.468047
O O6 0.137464 0.848876 0.495158
O O7 0.150734 0.716976 0.315225
O O8 0.000000 0.710502 0.750000
O O9 0.186174 0.555075 0.868119
O O10 0.113251 0.480186 0.196900
O O11 0.138759 0.663777 0.130356
O O12 0.764957 0.633141 0.919725
O O13 0.960541 0.685187 0.586930
#
# Coordination Sequence:
#
# PCOD8143551 Si02
#       6
#     8   8   8   8   8   8
#     4  11  24  43  68  98 133 176 224 277 331 396
#     4  10  21  40  70  97 132 180 224 272 331 402
#     4  11  25  42  68 100 135 177 220 281 332 404
#     4  10  24  41  66 101 137 175 220 282 332 397
#     4  11  24  41  67 100 140 168 228 275 344 389
#     4  11  23  46  71  98 133 181 229 267 337 406
#
# _framework density 22.649978000000001
#
# number of rings (size 3 to 8) (size 9 to 14) (size 15 to 20)
#    0.000    1.333    1.667    3.500    4.667    2.000 
#    3.000    1.667    0.000    0.000    0.000    0.000 
#    0.000    0.000    0.000    0.000    0.000    0.000 
#
# Total GULP energy -297551.045243 kJ/mol
# GULP energy per Si atom -12397.960218 kJ/mol
# Density = 2.259843 g / cm^3
# Si number density = 22.649978 Si / 1000 Ang^3
#
#
#
# Elastic Constant Matrix: (Units=GPa)
#
#
# Indices 1 2 3 4 5 6 
#
# 1 53.9083 39.6256 36.8611 0.0000 20.4103 0.0000
# 2 39.6256 177.2528 72.4893 0.0000 13.0805 0.0000
# 3 36.8611 72.4893 106.8536 0.0000 22.5516 0.0000
# 4 0.0000 0.0000 0.0000 46.9583 0.0000 3.0509
# 5 20.4103 13.0805 22.5516 0.0000 38.9499 0.0000
# 6 0.0000 0.0000 0.0000 3.0509 0.0000 38.0220
#
#
#
# Elastic Compliance Matrix: (Units=1/GPa)
#
#
# Indices 1 2 3 4 5 6 
#
# 1 0.028849 -0.003481 -0.005293 0.000000 -0.010883 0.000000
# 2 -0.003481 0.008237 -0.004771 0.000000 0.001821 0.000000
# 3 -0.005293 -0.004771 0.015377 0.000000 -0.004527 0.000000
# 4 0.000000 0.000000 0.000000 0.021407 0.000000 -0.001718
# 5 -0.010883 0.001821 -0.004527 0.000000 0.033387 0.000000
# 6 0.000000 0.000000 0.000000 -0.001718 0.000000 0.026438
#
#
# Mechanical properties :
#
#
# Convention : Reuss Voigt Hill
#
# Bulk Modulus (GPa) = 39.41503 70.66298 55.03901
# Shear Modulus (GPa) = 29.54327 37.38861 33.46594
#
# Velocity S-wave (km/s) = 3.61548 4.06730 3.84803
# Velocity P-wave (km/s) = 5.90496 7.30225 6.64046
#
# Compressibility (1/GPa) = 0.02537103
#
# Stress axis : x y z
#
# Youngs Moduli (GPa) = 34.66315 121.40676 65.03348
#
# Poissons Ratio (x) = 0.42267 0.34424
# Poissons Ratio (y) = 0.12068 0.31028
# Poissons Ratio (z) = 0.18348 0.57924
#
# Static dielectric constant tensor:
#      x y z
#    x 4.255690 0.000000 0.299260 
#    y 0.000000 4.310730 0.000000 
#    z 0.299260 0.000000 3.938400 
# 
# 
# High freq. dielectric constant tensor:
#      x y z
#    x 1.886440 0.000000 0.015840 
#    y 0.000000 1.906680 0.000000 
#    z 0.015840 0.000000 1.882120 
# 
# From -- ./inp_files/123433.got.cif
#   From: 2010.06.25/outbox.cif.g09.slc.cpg/sg15_62_cif.got.tgz:123433.got - 2010.06.28 07:06:18.
