data_PCOD8143791
_publ_section_title
;
Structure prediction by ZEFSAII (Michael W. Deem and Ramdas Pophale) SiO2 
 PCOD8143791
Probable space group: C 2/C
;
_chemical_formula_sum "Si O2"
_cell_formula_units_Z 64
_cell_length_a 16.826159
_cell_length_b 18.702581
_cell_length_c 13.876071
_cell_angle_alpha 90.000000
_cell_angle_beta 42.702196
_cell_angle_gamma 90.000000
_cell_volume 2961.440713
_symmetry_space_group_name_H-M "C 2/C"
_symmetry_group_IT_number 15
_symmetry_cell_setting 'monoclinic'
loop_
_space_group_symop_operation_xyz
x,y,z
-x,y,1/2-z
-x,-y,-z
x,-y,1/2+z
1/2+x,1/2+y,z
1/2-x,1/2+y,1/2-z
1/2-x,1/2-y,-z
1/2+x,1/2-y,1/2+z
loop_
_atom_site_type_symbol
_atom_site_label
_atom_site_fract_x
_atom_site_fract_y
_atom_site_fract_z
Si Si1 0.668027 0.647730 0.321543
Si Si2 0.555731 0.630178 0.099868
Si Si3 0.256878 0.641424 0.041161
Si Si4 0.858853 0.557277 0.057322
Si Si5 0.610156 0.264462 0.215310
Si Si6 0.381880 0.078162 0.654463
Si Si7 0.287690 0.707752 0.681002
Si Si8 0.744759 0.975454 0.048329
O O1 0.547469 0.619003 0.384788
O O2 0.651603 0.653937 0.451729
O O3 0.768674 0.589420 0.214490
O O4 0.709219 0.721844 0.236114
O O5 0.500000 0.656910 0.250000
O O6 0.648271 0.688604 0.976689
O O7 0.623711 0.554713 0.051175
O O8 0.135243 0.679242 0.183159
O O9 0.247517 0.559064 0.022692
O O10 0.288585 0.685038 0.917312
O O11 0.875100 0.473800 0.068167
O O12 0.807751 0.566278 0.996004
O O13 0.982132 0.599826 0.952289
O O14 0.500000 0.286675 0.250000
O O15 0.609728 0.282226 0.329899
O O16 0.302810 0.146832 0.705142
O O17 0.339362 0.036412 0.786809
#
# Coordination Sequence:
#
# PCOD8143791 Si02
#       8
#     8   8   8   8   8   8   8   8
#     4  11  23  43  64  96 126 172 215 266 328 383
#     4  11  24  43  64  93 130 173 221 270 316 382
#     4  10  22  40  64  94 130 163 209 262 324 393
#     4  11  22  41  66  91 129 166 215 268 319 383
#     4  10  21  41  64  99 129 165 209 261 329 389
#     4  10  23  42  63  95 126 170 213 263 324 380
#     4  10  24  43  66  94 134 167 219 266 324 391
#     4  11  22  42  63  95 129 165 219 265 322 386
#
# _framework density 21.611103
#
# number of rings (size 3 to 8) (size 9 to 14) (size 15 to 20)
#    0.000    1.500    2.500    1.875    1.750    2.500 
#    9.000    0.000    0.000    0.000    0.000    0.000 
#    0.000    0.000    0.000    0.000    0.000    0.000 
#
# Total GULP energy -396752.391350 kJ/mol
# GULP energy per Si atom -12398.512230 kJ/mol
# Density = 2.156192 g / cm^3
# Si number density = 21.611103 Si / 1000 Ang^3
#
#
#
# Elastic Constant Matrix: (Units=GPa)
#
#
# Indices 1 2 3 4 5 6 
#
# 1 101.8837 22.5064 28.2334 0.0001 -8.0193 -0.0001
# 2 22.5064 99.3161 13.8441 0.0000 -9.5999 0.0000
# 3 28.2334 13.8441 75.1372 0.0001 -1.8281 -0.0001
# 4 0.0001 0.0000 0.0001 23.3716 -0.0001 1.0046
# 5 -8.0193 -9.5999 -1.8281 -0.0001 39.4067 0.0001
# 6 -0.0001 0.0000 -0.0001 1.0046 0.0001 27.9657
#
#
#
# Elastic Compliance Matrix: (Units=1/GPa)
#
#
# Indices 1 2 3 4 5 6 
#
# 1 0.011449 -0.001886 -0.003914 0.000000 0.001689 0.000000
# 2 -0.001886 0.010883 -0.001243 0.000000 0.002210 0.000000
# 3 -0.003914 -0.001243 0.014999 0.000000 -0.000403 0.000000
# 4 0.000000 0.000000 0.000000 0.042853 0.000000 -0.001539
# 5 0.001689 0.002210 -0.000403 0.000000 0.026240 0.000000
# 6 0.000000 0.000000 0.000000 -0.001539 0.000000 0.035813
#
#
# Mechanical properties :
#
#
# Convention : Reuss Voigt Hill
#
# Bulk Modulus (GPa) = 43.01710 45.05607 44.03659
# Shear Modulus (GPa) = 30.47474 32.26567 31.37021
#
# Velocity S-wave (km/s) = 3.75926 3.86815 3.81409
# Velocity P-wave (km/s) = 6.22824 6.39092 6.31011
#
# Compressibility (1/GPa) = 0.02324657
#
# Stress axis : x y z
#
# Youngs Moduli (GPa) = 87.34296 91.88609 66.67235
#
# Poissons Ratio (x) = 0.17327 0.26093
# Poissons Ratio (y) = 0.16471 0.08286
# Poissons Ratio (z) = 0.34182 0.11420
#
# Static dielectric constant tensor:
#      x y z
#    x 3.855140 0.000000 0.043640 
#    y 0.000000 3.748370 0.000000 
#    z 0.043640 0.000000 3.867190 
# 
# 
# High freq. dielectric constant tensor:
#      x y z
#    x 1.855480 0.000000 0.007270 
#    y 0.000000 1.839810 0.000000 
#    z 0.007270 0.000000 1.848090 
# 
# From -- ./inp_files/163249.got.cif
#   From: 2010.06.25/outbox.cif.g09.slc.cpg/sg15_82_cif.got.tgz:163249.got - 2010.06.28 07:06:18.
