data_PCOD8143860
_publ_section_title
;
Structure prediction by ZEFSAII (Michael W. Deem and Ramdas Pophale) SiO2 
 PCOD8143860
Probable space group: C 2/C
;
_chemical_formula_sum "Si O2"
_cell_formula_units_Z 56
_cell_length_a 8.531202
_cell_length_b 17.525500
_cell_length_c 17.906306
_cell_angle_alpha 90.000000
_cell_angle_beta 73.934944
_cell_angle_gamma 90.000000
_cell_volume 2572.684793
_symmetry_space_group_name_H-M "C 2/C"
_symmetry_group_IT_number 15
_symmetry_cell_setting 'monoclinic'
loop_
_space_group_symop_operation_xyz
x,y,z
-x,y,1/2-z
-x,-y,-z
x,-y,1/2+z
1/2+x,1/2+y,z
1/2-x,1/2+y,1/2-z
1/2-x,1/2-y,-z
1/2+x,1/2-y,1/2+z
loop_
_atom_site_type_symbol
_atom_site_label
_atom_site_fract_x
_atom_site_fract_y
_atom_site_fract_z
Si Si1 0.763863 0.340291 0.502557
Si Si2 0.573067 0.833208 0.373235
Si Si3 0.435851 0.349992 0.465682
Si Si4 0.500000 0.276303 0.750000
Si Si5 0.748146 0.602072 0.169354
Si Si6 0.000000 0.639685 0.250000
Si Si7 0.814656 0.283474 0.902756
Si Si8 0.134215 0.935296 0.173823
O O1 0.750000 0.250000 0.500000
O O2 0.594791 0.373845 0.492187
O O3 0.798490 0.371153 0.580654
O O4 0.916831 0.370436 0.434174
O O5 0.506716 0.777465 0.319582
O O6 0.676057 0.781960 0.416522
O O7 0.689865 0.900235 0.326694
O O8 0.273672 0.352479 0.540742
O O9 0.456071 0.262981 0.429299
O O10 0.416731 0.412390 0.403085
O O11 0.344039 0.330093 0.776626
O O12 0.641129 0.526361 0.178084
O O13 0.906719 0.587858 0.200991
O O14 0.123701 0.692551 0.186601
O O15 0.000000 0.904480 0.250000
#
# Coordination Sequence:
#
# PCOD8143860 Si02
#       8
#     8   8   8   4   8   4   8   8
#     4  12  23  43  72 108 137 180 237 298 349 423
#     4  11  25  41  70 107 140 180 239 295 347 425
#     4  10  23  41  68 101 141 180 223 294 348 425
#     4  12  22  43  75 104 142 182 244 292 350 419
#     4  12  27  47  70 100 143 190 235 293 361 430
#     4  12  26  41  71  98 132 184 236 290 346 417
#     4  10  21  41  66 103 138 178 234 288 353 411
#     4  11  28  48  68 101 146 191 233 290 367 434
#
# _framework density 21.767143999999998
#
# number of rings (size 3 to 8) (size 9 to 14) (size 15 to 20)
#    0.000    0.857    5.000    0.857   10.000    1.714 
#    0.000    0.000    0.000    0.000    0.000    0.000 
#    0.000    0.000    0.000    0.000    0.000    0.000 
#
# Total GULP energy -347124.190239 kJ/mol
# GULP energy per Si atom -12397.292509 kJ/mol
# Density = 2.171760 g / cm^3
# Si number density = 21.767144 Si / 1000 Ang^3
#
#
#
# Elastic Constant Matrix: (Units=GPa)
#
#
# Indices 1 2 3 4 5 6 
#
# 1 115.1128 26.7918 67.6478 0.0000 -0.6744 0.0000
# 2 26.7918 58.8592 44.7760 0.0000 2.6661 0.0000
# 3 67.6478 44.7760 166.6976 0.0000 -9.3225 0.0000
# 4 0.0000 0.0000 0.0000 24.7636 0.0000 -2.9849
# 5 -0.6744 2.6661 -9.3225 0.0000 44.2920 0.0000
# 6 0.0000 0.0000 0.0000 -2.9849 0.0000 26.3740
#
#
#
# Elastic Compliance Matrix: (Units=1/GPa)
#
#
# Indices 1 2 3 4 5 6 
#
# 1 0.011633 -0.002077 -0.004195 0.000000 -0.000581 0.000000
# 2 -0.002077 0.022006 -0.005205 0.000000 -0.002452 0.000000
# 3 -0.004195 -0.005205 0.009222 0.000000 0.002190 0.000000
# 4 0.000000 0.000000 0.000000 0.040940 0.000000 0.004633
# 5 -0.000581 -0.002452 0.002190 0.000000 0.023177 0.000000
# 6 0.000000 0.000000 0.000000 0.004633 0.000000 0.038440
#
#
# Mechanical properties :
#
#
# Convention : Reuss Voigt Hill
#
# Bulk Modulus (GPa) = 50.23741 68.78896 59.51319
# Shear Modulus (GPa) = 28.57004 32.51620 30.54312
#
# Velocity S-wave (km/s) = 3.62682 3.86919 3.74996
# Velocity P-wave (km/s) = 6.37714 7.18552 6.79337
#
# Compressibility (1/GPa) = 0.01990548
#
# Stress axis : x y z
#
# Youngs Moduli (GPa) = 85.96588 45.44223 108.43719
#
# Poissons Ratio (x) = 0.09440 0.45491
# Poissons Ratio (y) = 0.17857 0.56442
# Poissons Ratio (z) = 0.36064 0.23653
#
# Static dielectric constant tensor:
#      x y z
#    x 4.064750 0.000000 -0.270570 
#    y 0.000000 3.555770 0.000000 
#    z -0.270570 0.000000 3.813250 
# 
# 
# High freq. dielectric constant tensor:
#      x y z
#    x 1.865770 0.000000 0.002450 
#    y 0.000000 1.817380 0.000000 
#    z 0.002450 0.000000 1.873640 
# 
# From -- ./inp_files/190953.got.cif
#   From: 2010.06.25/outbox.cif.g09.slc.cpg/sg15_96_cif.got.tgz:190953.got - 2010.06.28 07:06:18.
