data_PCOD8143816
_publ_section_title
;
Structure prediction by ZEFSAII (Michael W. Deem and Ramdas Pophale) SiO2 
 PCOD8143816
Probable space group: C 2/C
;
_chemical_formula_sum "Si O2"
_cell_formula_units_Z 52
_cell_length_a 15.960037
_cell_length_b 26.129150
_cell_length_c 10.762286
_cell_angle_alpha 90.000000
_cell_angle_beta 144.902761
_cell_angle_gamma 90.000000
_cell_volume 2580.511134
_symmetry_space_group_name_H-M "C 2/C"
_symmetry_group_IT_number 15
_symmetry_cell_setting 'monoclinic'
loop_
_space_group_symop_operation_xyz
x,y,z
-x,y,1/2-z
-x,-y,-z
x,-y,1/2+z
1/2+x,1/2+y,z
1/2-x,1/2+y,1/2-z
1/2-x,1/2-y,-z
1/2+x,1/2-y,1/2+z
loop_
_atom_site_type_symbol
_atom_site_label
_atom_site_fract_x
_atom_site_fract_y
_atom_site_fract_z
Si Si1 0.013713 0.714819 0.513573
Si Si2 0.409608 0.947253 0.263500
Si Si3 0.500000 0.727026 0.750000
Si Si4 0.773620 0.854417 0.424637
Si Si5 0.726083 0.657469 0.108207
Si Si6 0.410321 0.936596 0.765561
Si Si7 0.444897 0.675528 0.359361
O O1 0.140260 0.675817 0.702407
O O2 0.010473 0.764747 0.595650
O O3 0.040206 0.734643 0.407845
O O4 0.861349 0.685666 0.336419
O O5 0.500000 0.932141 0.250000
O O6 0.266508 0.912961 0.095850
O O7 0.497039 0.935163 0.495825
O O8 0.353541 0.005498 0.182679
O O9 0.354854 0.691433 0.596902
O O10 0.812791 0.829308 0.603314
O O11 0.912795 0.856742 0.503870
O O12 0.774354 0.602514 0.112350
O O13 0.602651 0.653707 0.064912
O O14 0.500000 0.920766 0.750000
#
# Coordination Sequence:
#
# PCOD8143816 Si02
#       7
#     8   8   4   8   8   8   8
#     4  11  22  38  61  85 117 168 206 240 289 361
#     4  10  21  41  65  92 118 154 206 258 300 358
#     4  10  24  38  54  84 132 154 202 244 298 364
#     4  11  22  39  62  87 122 161 199 249 306 356
#     4  11  22  40  61  87 120 165 199 251 303 352
#     4  10  22  39  65  94 117 152 210 258 298 356
#     4  10  23  38  56  91 128 154 197 249 305 363
#
# _framework density 20.151046000000001
#
# number of rings (size 3 to 8) (size 9 to 14) (size 15 to 20)
#    0.000    1.538    1.538    3.692    1.077    4.923 
#    0.000    2.308    0.000    0.000    0.000    0.000 
#    0.000    0.000    0.000    0.000    0.000    0.000 
#
# Total GULP energy -322291.942756 kJ/mol
# GULP energy per Si atom -12395.843952 kJ/mol
# Density = 2.010518 g / cm^3
# Si number density = 20.151046 Si / 1000 Ang^3
#
#
#
# Elastic Constant Matrix: (Units=GPa)
#
#
# Indices 1 2 3 4 5 6 
#
# 1 111.7856 59.2820 33.7768 0.0000 3.4275 0.0000
# 2 59.2820 138.8782 44.3078 0.0000 18.3777 0.0000
# 3 33.7768 44.3078 105.8945 0.0000 6.6980 0.0000
# 4 0.0000 0.0000 0.0000 14.6472 0.0000 2.0946
# 5 3.4275 18.3777 6.6980 0.0000 33.3436 0.0000
# 6 0.0000 0.0000 0.0000 2.0946 0.0000 22.7508
#
#
#
# Elastic Compliance Matrix: (Units=1/GPa)
#
#
# Indices 1 2 3 4 5 6 
#
# 1 0.011990 -0.004727 -0.001958 0.000000 0.001766 0.000000
# 2 -0.004727 0.010716 -0.002667 0.000000 -0.004884 0.000000
# 3 -0.001958 -0.002667 0.011221 0.000000 -0.000583 0.000000
# 4 0.000000 0.000000 0.000000 0.069184 0.000000 -0.006370
# 5 0.001766 -0.004884 -0.000583 0.000000 0.032618 0.000000
# 6 0.000000 0.000000 0.000000 -0.006370 0.000000 0.044541
#
#
# Mechanical properties :
#
#
# Convention : Reuss Voigt Hill
#
# Bulk Modulus (GPa) = 65.69452 70.14351 67.91901
# Shear Modulus (GPa) = 24.50409 28.76109 26.63259
#
# Velocity S-wave (km/s) = 3.49093 3.78203 3.63939
# Velocity P-wave (km/s) = 6.99433 7.34548 7.17205
#
# Compressibility (1/GPa) = 0.01522197
#
# Stress axis : x y z
#
# Youngs Moduli (GPa) = 83.40207 93.32233 89.12113
#
# Poissons Ratio (x) = 0.44114 0.17452
# Poissons Ratio (y) = 0.39425 0.23767
# Poissons Ratio (z) = 0.16332 0.24887
#
# Static dielectric constant tensor:
#      x y z
#    x 3.648330 0.000000 -0.122240 
#    y 0.000000 3.849220 0.000000 
#    z -0.122240 0.000000 3.863580 
# 
# 
# High freq. dielectric constant tensor:
#      x y z
#    x 1.787120 0.000000 -0.011060 
#    y 0.000000 1.788400 0.000000 
#    z -0.011060 0.000000 1.789680 
# 
# From -- ./inp_files/108372.got.cif
#   From: 2010.06.25/outbox.cif.g09.slc.cpg/sg15_55_cif.got.tgz:108372.got - 2010.06.28 07:06:18.
