data_PCOD8143002
_publ_section_title
;
Structure prediction by ZEFSAII (Michael W. Deem and Ramdas Pophale) SiO2 
 PCOD8143002
Probable space group: C 2/C
;
_chemical_formula_sum "Si O2"
_cell_formula_units_Z 64
_cell_length_a 9.131256
_cell_length_b 28.028465
_cell_length_c 24.335248
_cell_angle_alpha 90.000000
_cell_angle_beta 149.649743
_cell_angle_gamma 90.000000
_cell_volume 3147.036690
_symmetry_space_group_name_H-M "C 2/C"
_symmetry_group_IT_number 15
_symmetry_cell_setting 'monoclinic'
loop_
_space_group_symop_operation_xyz
x,y,z
-x,y,1/2-z
-x,-y,-z
x,-y,1/2+z
1/2+x,1/2+y,z
1/2-x,1/2+y,1/2-z
1/2-x,1/2-y,-z
1/2+x,1/2-y,1/2+z
loop_
_atom_site_type_symbol
_atom_site_label
_atom_site_fract_x
_atom_site_fract_y
_atom_site_fract_z
Si Si1 0.053292 0.559229 0.179800
Si Si2 0.223898 0.214628 0.194527
Si Si3 0.721313 0.136510 0.548191
Si Si4 0.626142 0.970004 0.990141
Si Si5 0.715594 0.674159 0.773277
Si Si6 0.224151 0.354473 0.499069
Si Si7 0.450905 0.546701 0.404756
Si Si8 0.200706 0.345813 0.682725
O O1 0.261580 0.533087 0.289899
O O2 0.134399 0.614908 0.207887
O O3 0.105108 0.542331 0.133195
O O4 0.726071 0.552380 0.096106
O O5 0.500000 0.196705 0.250000
O O6 0.205467 0.271293 0.189013
O O7 0.255286 0.202551 0.269225
O O8 0.946773 0.189613 0.076386
O O9 0.762000 0.079176 0.556741
O O10 0.498539 0.150651 0.523194
O O11 0.578619 0.158224 0.447051
O O12 0.040137 0.161141 0.660254
O O13 0.500000 0.000000 0.000000
O O14 0.846697 0.000989 0.025603
O O15 0.500000 0.653943 0.750000
O O16 0.030006 0.648334 0.880118
O O17 0.374455 0.405262 0.550047
O O18 0.500000 0.359577 0.750000
#
# Coordination Sequence:
#
# PCOD8143002 Si02
#       8
#     8   8   8   8   8   8   8   8
#     4  10  23  38  59  90 124 155 204 259 314 367
#     4  11  21  37  63  94 118 159 211 256 317 371
#     4  10  21  40  58  90 129 162 206 259 315 364
#     4  11  23  38  60  92 121 165 211 251 312 382
#     4   9  22  38  59  89 126 166 202 256 312 384
#     4  11  19  37  63  88 124 160 212 257 312 366
#     4  11  21  39  62  89 121 162 206 258 314 367
#     4  11  20  36  65  89 124 158 202 268 304 367
#
# _framework density 20.336592
#
# number of rings (size 3 to 8) (size 9 to 14) (size 15 to 20)
#    0.000    1.500    3.750    1.500    1.750    1.500 
#    2.250    0.000    5.500    0.000    0.000    0.000 
#    0.000    0.000    0.000    0.000    0.000    0.000 
#
# Total GULP energy -396530.267101 kJ/mol
# GULP energy per Si atom -12391.570847 kJ/mol
# Density = 2.029030 g / cm^3
# Si number density = 20.336592 Si / 1000 Ang^3
#
#
#
# Elastic Constant Matrix: (Units=GPa)
#
#
# Indices 1 2 3 4 5 6 
#
# 1 74.8474 16.4128 26.7957 0.0020 1.6638 0.0017
# 2 16.4128 66.9768 48.6222 -0.0015 13.5506 -0.0002
# 3 26.7957 48.6222 145.2787 -0.0159 -5.9269 -0.0082
# 4 0.0020 -0.0015 -0.0159 27.3908 -0.0047 -2.8001
# 5 1.6638 13.5506 -5.9269 -0.0047 31.2440 -0.0036
# 6 0.0017 -0.0002 -0.0082 -2.8001 -0.0036 23.6495
#
#
#
# Elastic Compliance Matrix: (Units=1/GPa)
#
#
# Indices 1 2 3 4 5 6 
#
# 1 0.014534 -0.002053 -0.002004 -0.000003 -0.000264 -0.000002
# 2 -0.002053 0.023589 -0.007991 -0.000006 -0.011637 -0.000005
# 3 -0.002004 -0.007991 0.010152 0.000007 0.005498 0.000005
# 4 -0.000003 -0.000006 0.000007 0.036956 0.000010 0.004376
# 5 -0.000264 -0.011637 0.005498 0.000010 0.038110 0.000009
# 6 -0.000002 -0.000005 0.000005 0.004376 0.000009 0.042802
#
#
# Mechanical properties :
#
#
# Convention : Reuss Voigt Hill
#
# Bulk Modulus (GPa) = 41.35969 52.30713 46.83341
# Shear Modulus (GPa) = 25.21433 29.47500 27.34467
#
# Velocity S-wave (km/s) = 3.52497 3.81117 3.67086
# Velocity P-wave (km/s) = 6.07856 6.71887 6.40672
#
# Compressibility (1/GPa) = 0.02417813
#
# Stress axis : x y z
#
# Youngs Moduli (GPa) = 68.80333 42.39226 98.50528
#
# Poissons Ratio (x) = 0.08704 0.19743
# Poissons Ratio (y) = 0.14127 0.78715
# Poissons Ratio (z) = 0.13790 0.33875
#
# Static dielectric constant tensor:
#      x y z
#    x 3.584700 0.000000 0.027030 
#    y 0.000000 3.584600 -0.000010 
#    z 0.027030 -0.000010 4.093560 
# 
# 
# High freq. dielectric constant tensor:
#      x y z
#    x 1.780160 0.000000 -0.004780 
#    y 0.000000 1.788830 0.000000 
#    z -0.004780 0.000000 1.805880 
# 
# From -- ./inp_files/266752.got.cif
#   From: 2010.06.25/outbox.cif.g09.slc.cpg/sg15_134_cif.got.tgz:266752.got - 2010.06.28 07:06:18.
