data_PCOD8143925
_publ_section_title
;
Structure prediction by ZEFSAII (Michael W. Deem and Ramdas Pophale) SiO2 
 PCOD8143925
Probable space group: C 2/C
;
_chemical_formula_sum "Si O2"
_cell_formula_units_Z 60
_cell_length_a 14.096622
_cell_length_b 19.395724
_cell_length_c 14.550026
_cell_angle_alpha 90.000000
_cell_angle_beta 44.902187
_cell_angle_gamma 90.000000
_cell_volume 2808.194242
_symmetry_space_group_name_H-M "C 2/C"
_symmetry_group_IT_number 15
_symmetry_cell_setting 'monoclinic'
loop_
_space_group_symop_operation_xyz
x,y,z
-x,y,1/2-z
-x,-y,-z
x,-y,1/2+z
1/2+x,1/2+y,z
1/2-x,1/2+y,1/2-z
1/2-x,1/2-y,-z
1/2+x,1/2-y,1/2+z
loop_
_atom_site_type_symbol
_atom_site_label
_atom_site_fract_x
_atom_site_fract_y
_atom_site_fract_z
Si Si1 0.000000 0.774653 0.250000
Si Si2 0.124166 0.988098 0.105559
Si Si3 0.713836 0.207586 0.223976
Si Si4 0.944764 0.135789 0.962573
Si Si5 0.265932 0.341334 0.180503
Si Si6 0.136937 0.591782 0.609740
Si Si7 0.692032 0.047433 0.871147
Si Si8 0.405692 0.902591 0.566973
O O1 0.878282 0.727759 0.298569
O O2 0.943678 0.819913 0.371168
O O3 0.065625 0.944511 0.059848
O O4 0.198652 0.935346 0.125108
O O5 0.000000 0.022459 0.250000
O O6 0.237094 0.039591 0.987972
O O7 0.778156 0.274550 0.230132
O O8 0.627526 0.166827 0.357653
O O9 0.824388 0.155854 0.111248
O O10 0.073705 0.153181 0.936408
O O11 0.193213 0.343386 0.131017
O O12 0.220412 0.411676 0.259869
O O13 0.090056 0.619123 0.542966
O O14 0.000000 0.559832 0.750000
O O15 0.699973 0.965071 0.845755
O O16 0.546582 0.069050 0.009191
#
# Coordination Sequence:
#
# PCOD8143925 Si02
#       8
#     4   8   8   8   8   8   8   8
#     4  10  22  42  64  98 132 174 210 266 336 408
#     4  11  22  40  66 102 138 169 211 279 344 407
#     4  11  26  40  67  99 135 170 226 273 327 409
#     4  11  23  41  64 101 133 175 212 262 351 407
#     4  11  24  42  66  91 131 180 215 273 337 389
#     4  11  25  43  69  95 127 180 237 275 329 395
#     4  10  21  41  67  88 136 167 207 276 332 381
#     4  10  24  43  65  98 128 168 231 274 325 384
#
# _framework density 21.366043999999999
#
# number of rings (size 3 to 8) (size 9 to 14) (size 15 to 20)
#    0.000    1.333    3.333    1.200    7.467    3.200 
#    0.000    0.000    0.000    0.000    0.000    0.000 
#    0.000    0.000    0.000    0.000    0.000    0.000 
#
# Total GULP energy -371866.008144 kJ/mol
# GULP energy per Si atom -12395.533605 kJ/mol
# Density = 2.131741 g / cm^3
# Si number density = 21.366044 Si / 1000 Ang^3
#
#
#
# Elastic Constant Matrix: (Units=GPa)
#
#
# Indices 1 2 3 4 5 6 
#
# 1 90.4301 27.7944 30.5155 -0.0001 0.1073 0.0002
# 2 27.7944 62.3952 30.3411 0.0002 1.4907 0.0002
# 3 30.5155 30.3411 115.8410 0.0012 -14.6982 0.0001
# 4 -0.0001 0.0002 0.0012 16.1185 -0.0006 -4.0596
# 5 0.1073 1.4907 -14.6982 -0.0006 26.5457 0.0000
# 6 0.0002 0.0002 0.0001 -4.0596 0.0000 21.5279
#
#
#
# Elastic Compliance Matrix: (Units=1/GPa)
#
#
# Indices 1 2 3 4 5 6 
#
# 1 0.013330 -0.004738 -0.002413 0.000000 -0.001124 0.000000
# 2 -0.004738 0.020448 -0.004572 0.000000 -0.003661 0.000000
# 3 -0.002413 -0.004572 0.011293 -0.000001 0.006519 0.000000
# 4 0.000000 0.000000 -0.000001 0.065134 0.000001 0.012283
# 5 -0.001124 -0.003661 0.006519 0.000001 0.041491 0.000000
# 6 0.000000 0.000000 0.000000 0.012283 0.000000 0.048767
#
#
# Mechanical properties :
#
#
# Convention : Reuss Voigt Hill
#
# Bulk Modulus (GPa) = 46.24285 49.55203 47.89744
# Shear Modulus (GPa) = 21.63397 24.83945 23.23671
#
# Velocity S-wave (km/s) = 3.18550 3.41334 3.30139
# Velocity P-wave (km/s) = 5.93464 6.22711 6.08263
#
# Compressibility (1/GPa) = 0.02162496
#
# Stress axis : x y z
#
# Youngs Moduli (GPa) = 75.01829 48.90428 88.55058
#
# Poissons Ratio (x) = 0.23169 0.21369
# Poissons Ratio (y) = 0.35541 0.40487
# Poissons Ratio (z) = 0.18104 0.22360
#
# Static dielectric constant tensor:
#      x y z
#    x 4.344290 0.000000 -0.137950 
#    y 0.000000 3.683250 0.000000 
#    z -0.137950 0.000000 3.827140 
# 
# 
# High freq. dielectric constant tensor:
#      x y z
#    x 1.851690 0.000000 -0.009560 
#    y 0.000000 1.814010 0.000000 
#    z -0.009560 0.000000 1.839550 
# 
# From -- ./inp_files/156346.got.cif
#   From: 2010.06.25/outbox.cif.g09.slc.cpg/sg15_79_cif.got.tgz:156346.got - 2010.06.28 07:06:18.
