data_PCOD8143969
_publ_section_title
;
Structure prediction by ZEFSAII (Michael W. Deem and Ramdas Pophale) SiO2 
 PCOD8143969
Probable space group: C 2/C
;
_chemical_formula_sum "Si O2"
_cell_formula_units_Z 48
_cell_length_a 9.121258
_cell_length_b 29.188500
_cell_length_c 16.095835
_cell_angle_alpha 90.000000
_cell_angle_beta 32.957768
_cell_angle_gamma 90.000000
_cell_volume 2331.285511
_symmetry_space_group_name_H-M "C 2/C"
_symmetry_group_IT_number 15
_symmetry_cell_setting 'monoclinic'
loop_
_space_group_symop_operation_xyz
x,y,z
-x,y,1/2-z
-x,-y,-z
x,-y,1/2+z
1/2+x,1/2+y,z
1/2-x,1/2+y,1/2-z
1/2-x,1/2-y,-z
1/2+x,1/2-y,1/2+z
loop_
_atom_site_type_symbol
_atom_site_label
_atom_site_fract_x
_atom_site_fract_y
_atom_site_fract_z
Si Si1 0.325578 0.779021 0.096236
Si Si2 0.088521 0.885317 0.347857
Si Si3 0.250637 0.717270 0.689492
Si Si4 0.105465 0.381654 0.464374
Si Si5 0.778252 0.462524 0.581539
Si Si6 0.781264 0.037280 0.584642
O O1 0.377176 0.762893 0.165281
O O2 0.462055 0.828004 0.011492
O O3 0.000000 0.783556 0.250000
O O4 0.470308 0.742875 0.967311
O O5 0.165523 0.835025 0.341239
O O6 0.254273 0.899572 0.187149
O O7 0.146577 0.916840 0.399199
O O8 0.778207 0.888525 0.466468
O O9 0.000000 0.725254 0.750000
O O10 0.844035 0.414047 0.596022
O O11 0.500000 0.481654 0.750000
O O12 0.742902 0.452875 0.501024
O O13 0.000000 0.500000 0.500000
O O14 0.500000 0.017089 0.750000
O O15 0.000000 0.000000 0.500000
#
# Coordination Sequence:
#
# PCOD8143969 Si02
#       6
#     8   8   8   8   8   8
#     4  11  22  41  67  93 131 177 217 264 328 391
#     4  10  21  41  68  91 126 177 216 263 323 392
#     4  11  23  40  65  97 129 170 222 269 325 382
#     4  10  21  42  67  91 128 176 217 255 330 389
#     4  12  27  44  68  99 134 170 212 270 330 387
#     4  12  24  42  68  96 127 166 216 264 315 388
#
# _framework density 20.589499
#
# number of rings (size 3 to 8) (size 9 to 14) (size 15 to 20)
#    0.000    1.000    5.000    3.500    4.667    0.667 
#    3.000    0.833    0.000    0.000    0.000    0.000 
#    0.000    0.000    0.000    0.000    0.000    0.000 
#
# Total GULP energy -297461.415243 kJ/mol
# GULP energy per Si atom -12394.225635 kJ/mol
# Density = 2.054264 g / cm^3
# Si number density = 20.589499 Si / 1000 Ang^3
#
#
#
# Elastic Constant Matrix: (Units=GPa)
#
#
# Indices 1 2 3 4 5 6 
#
# 1 106.3705 32.8488 31.7010 0.0000 5.4053 0.0000
# 2 32.8488 108.2189 46.7314 0.0000 -6.7004 0.0000
# 3 31.7010 46.7314 94.3638 0.0000 -9.2570 0.0000
# 4 0.0000 0.0000 0.0000 29.8317 0.0000 -9.2440
# 5 5.4053 -6.7004 -9.2570 0.0000 35.9842 0.0000
# 6 0.0000 0.0000 0.0000 -9.2440 0.0000 -5.5945
#
#
#
# Elastic Compliance Matrix: (Units=1/GPa)
#
#
# Indices 1 2 3 4 5 6 
#
# 1 0.011113 -0.002311 -0.002867 0.000000 -0.002837 0.000000
# 2 -0.002311 0.012252 -0.005164 0.000000 0.001300 0.000000
# 3 -0.002867 -0.005164 0.014430 0.000000 0.003181 0.000000
# 4 0.000000 0.000000 0.000000 0.022170 0.000000 -0.036633
# 5 -0.002837 0.001300 0.003181 0.000000 0.029277 0.000000
# 6 0.000000 0.000000 0.000000 -0.036633 0.000000 -0.118218
#
#
# Mechanical properties :
#
#
# Convention : Reuss Voigt Hill
#
# Bulk Modulus (GPa) = 58.44019 59.05729 58.74874
# Shear Modulus (GPa) = -1932.20357 25.22243 -953.49057
#
# Velocity S-wave (km/s) = -30.66722 3.50382 -21.54300
# Velocity P-wave (km/s) = 35.00752 6.71673 24.29415
#
# Compressibility (1/GPa) = 0.01711151
#
# Stress axis : x y z
#
# Youngs Moduli (GPa) = 89.98089 81.61735 69.30045
#
# Poissons Ratio (x) = 0.18860 0.19872
# Poissons Ratio (y) = 0.20793 0.35785
# Poissons Ratio (z) = 0.25802 0.42146
#
# Static dielectric constant tensor:
#      x y z
#    x 3.750700 0.000000 -0.196100 
#    y 0.000000 3.712920 0.000000 
#    z -0.196100 0.000000 3.435980 
# 
# 
# High freq. dielectric constant tensor:
#      x y z
#    x 1.833480 0.000000 0.002680 
#    y 0.000000 1.806770 0.000000 
#    z 0.002680 0.000000 1.786220 
# 
# From -- ./inp_files/138920.got.cif
#   From: 2010.06.25/outbox.cif.g09.slc.cpg/sg15_70_cif.got.tgz:138920.got - 2010.06.28 07:06:18.
