data_PCOD8143661
_publ_section_title
;
Structure prediction by ZEFSAII (Michael W. Deem and Ramdas Pophale) SiO2 
 PCOD8143661
Probable space group: C 2/C
;
_chemical_formula_sum "Si O2"
_cell_formula_units_Z 52
_cell_length_a 12.894465
_cell_length_b 14.631668
_cell_length_c 26.049421
_cell_angle_alpha 90.000000
_cell_angle_beta 146.923864
_cell_angle_gamma 90.000000
_cell_volume 2682.201319
_symmetry_space_group_name_H-M "C 2/C"
_symmetry_group_IT_number 15
_symmetry_cell_setting 'monoclinic'
loop_
_space_group_symop_operation_xyz
x,y,z
-x,y,1/2-z
-x,-y,-z
x,-y,1/2+z
1/2+x,1/2+y,z
1/2-x,1/2+y,1/2-z
1/2-x,1/2-y,-z
1/2+x,1/2-y,1/2+z
loop_
_atom_site_type_symbol
_atom_site_label
_atom_site_fract_x
_atom_site_fract_y
_atom_site_fract_z
Si Si1 0.388474 0.953120 0.409081
Si Si2 0.725711 0.982368 0.416480
Si Si3 0.081821 0.318789 0.419602
Si Si4 0.869658 0.422678 0.802512
Si Si5 0.500000 0.638663 0.750000
Si Si6 0.104619 0.036735 0.624663
Si Si7 0.828713 0.783062 0.280663
O O1 0.519851 0.868526 0.446432
O O2 0.179602 0.923013 0.341333
O O3 0.500000 0.000000 0.500000
O O4 0.363359 0.021751 0.352044
O O5 0.651083 0.885995 0.404441
O O6 0.788716 0.965591 0.384933
O O7 0.555689 0.055119 0.346146
O O8 0.884569 0.018741 0.521897
O O9 0.250000 0.250000 0.500000
O O10 0.895162 0.270314 0.320506
O O11 0.684696 0.454555 0.693344
O O12 0.886077 0.316499 0.824796
O O13 0.560436 0.699810 0.726610
O O14 0.127488 0.135776 0.661025
#
# Coordination Sequence:
#
# PCOD8143661 Si02
#       7
#     8   8   8   8   4   8   8
#     4  10  23  41  63  91 127 166 208 256 322 371
#     4  10  23  39  67  89 127 168 203 273 313 371
#     4  10  21  41  62  92 125 166 212 259 314 374
#     4  11  23  42  64  95 122 171 207 265 315 375
#     4  10  22  42  60  90 128 168 202 268 306 376
#     4  11  22  43  62  95 127 162 217 257 321 378
#     4  11  24  39  66  93 129 167 215 261 317 381
#
# _framework density 19.387062
#
# number of rings (size 3 to 8) (size 9 to 14) (size 15 to 20)
#    0.000    1.538    4.615    1.385    6.462    3.077 
#    2.769    0.000    0.000    0.000    0.000    0.000 
#    0.000    0.000    0.000    0.000    0.000    0.000 
#
# Total GULP energy -322323.113656 kJ/mol
# GULP energy per Si atom -12397.042833 kJ/mol
# Density = 1.934294 g / cm^3
# Si number density = 19.387062 Si / 1000 Ang^3
#
#
#
# Elastic Constant Matrix: (Units=GPa)
#
#
# Indices 1 2 3 4 5 6 
#
# 1 79.8563 46.0166 48.4056 0.0006 7.0492 0.0003
# 2 46.0166 121.1048 51.8021 0.0001 13.1210 0.0001
# 3 48.4056 51.8021 112.1245 0.0009 -0.0065 0.0006
# 4 0.0006 0.0001 0.0009 26.8497 0.0004 8.7461
# 5 7.0492 13.1210 -0.0065 0.0004 28.9592 0.0002
# 6 0.0003 0.0001 0.0006 8.7461 0.0002 12.6382
#
#
#
# Elastic Compliance Matrix: (Units=1/GPa)
#
#
# Indices 1 2 3 4 5 6 
#
# 1 0.018992 -0.004259 -0.006232 0.000000 -0.002695 0.000000
# 2 -0.004259 0.011917 -0.003667 0.000000 -0.004364 0.000000
# 3 -0.006232 -0.003667 0.013303 0.000000 0.003181 0.000000
# 4 0.000000 0.000000 0.000000 0.048084 -0.000001 -0.033276
# 5 -0.002695 -0.004364 0.003181 -0.000001 0.037165 0.000000
# 6 0.000000 0.000000 0.000000 -0.033276 0.000000 0.102153
#
#
# Mechanical properties :
#
#
# Convention : Reuss Voigt Hill
#
# Bulk Modulus (GPa) = 62.90623 67.28157 65.09390
# Shear Modulus (GPa) = 18.85162 24.81349 21.83256
#
# Velocity S-wave (km/s) = 3.12169 3.58145 3.35944
# Velocity P-wave (km/s) = 6.74620 7.20292 6.97830
#
# Compressibility (1/GPa) = 0.01589668
#
# Stress axis : x y z
#
# Youngs Moduli (GPa) = 52.65421 83.91332 75.16869
#
# Poissons Ratio (x) = 0.35738 0.46842
# Poissons Ratio (y) = 0.22425 0.27567
# Poissons Ratio (z) = 0.32812 0.30774
#
# Static dielectric constant tensor:
#      x y z
#    x 3.639690 0.000000 0.281130 
#    y 0.000000 3.386530 0.000000 
#    z 0.281130 0.000000 3.535450 
# 
# 
# High freq. dielectric constant tensor:
#      x y z
#    x 1.766150 0.000000 0.010540 
#    y 0.000000 1.752540 0.000000 
#    z 0.010540 0.000000 1.764480 
# 
# From -- ./inp_files/270000.got.cif
#   From: 2010.06.25/outbox.cif.g09.slc.cpg/sg15_135_cif.got.tgz:270000.got - 2010.06.28 07:06:18.
