data_PCOD8143286
_publ_section_title
;
Structure prediction by ZEFSAII (Michael W. Deem and Ramdas Pophale) SiO2 
 PCOD8143286
Probable space group: C 2/C
;
_chemical_formula_sum "Si O2"
_cell_formula_units_Z 40
_cell_length_a 11.837760
_cell_length_b 13.229894
_cell_length_c 11.408038
_cell_angle_alpha 90.000000
_cell_angle_beta 110.500835
_cell_angle_gamma 90.000000
_cell_volume 1673.486117
_symmetry_space_group_name_H-M "C 2/C"
_symmetry_group_IT_number 15
_symmetry_cell_setting 'monoclinic'
loop_
_space_group_symop_operation_xyz
x,y,z
-x,y,1/2-z
-x,-y,-z
x,-y,1/2+z
1/2+x,1/2+y,z
1/2-x,1/2+y,1/2-z
1/2-x,1/2-y,-z
1/2+x,1/2-y,1/2+z
loop_
_atom_site_type_symbol
_atom_site_label
_atom_site_fract_x
_atom_site_fract_y
_atom_site_fract_z
Si Si1 0.255966 0.175846 0.836561
Si Si2 0.986362 0.381871 0.991680
Si Si3 0.136006 0.973737 0.839594
Si Si4 0.711465 0.908149 0.404261
Si Si5 0.326394 0.112367 0.227199
O O1 0.389492 0.171994 0.936424
O O2 0.167236 0.092772 0.859745
O O3 0.259044 0.160508 0.696770
O O4 0.210774 0.287049 0.856244
O O5 0.886243 0.348995 0.051769
O O6 0.945149 0.356066 0.844335
O O7 0.000000 0.500000 0.000000
O O8 0.000000 0.955597 0.750000
O O9 0.220940 0.921112 0.776386
O O10 0.164080 0.925861 0.977732
O O11 0.651904 0.017683 0.350960
#
# Coordination Sequence:
#
# PCOD8143286 Si02
#       5
#     8   8   8   8   8
#     4  11  23  39  62  96 119 159 213 253 300 369
#     4  11  20  41  65  91 122 161 210 251 301 371
#     4  10  23  41  57  86 128 163 201 249 311 367
#     4  10  21  40  65  83 125 166 201 257 307 352
#     4  10  24  39  62  95 120 161 211 250 306 365
#
# _framework density 23.902200000000001
#
# number of rings (size 3 to 8) (size 9 to 14) (size 15 to 20)
#    0.000    1.600    6.000    0.600    0.000   12.000 
#    3.600    0.000    0.000    0.000    0.000    0.000 
#    0.000    0.000    0.000    0.000    0.000    0.000 
#
# Total GULP energy -248016.088987 kJ/mol
# GULP energy per Si atom -12400.804449 kJ/mol
# Density = 2.384780 g / cm^3
# Si number density = 23.902200 Si / 1000 Ang^3
#
#
#
# Elastic Constant Matrix: (Units=GPa)
#
#
# Indices 1 2 3 4 5 6 
#
# 1 40.6163 -6.8692 48.9124 0.0000 34.5324 0.0000
# 2 -6.8692 79.3759 -0.2167 0.0000 15.8208 0.0000
# 3 48.9124 -0.2167 130.1653 0.0000 39.7041 0.0000
# 4 0.0000 0.0000 0.0000 30.6115 0.0000 11.7712
# 5 34.5324 15.8208 39.7041 0.0000 51.7431 0.0000
# 6 0.0000 0.0000 0.0000 11.7712 0.0000 15.3739
#
#
#
# Elastic Compliance Matrix: (Units=1/GPa)
#
#
# Indices 1 2 3 4 5 6 
#
# 1 0.104263 0.020922 -0.020848 0.000000 -0.059983 0.000000
# 2 0.020922 0.017895 -0.002486 0.000000 -0.017527 0.000000
# 3 -0.020848 -0.002486 0.014409 0.000000 0.003617 0.000000
# 4 0.000000 0.000000 0.000000 0.046299 0.000000 -0.035449
# 5 -0.059983 -0.017527 0.003617 0.000000 0.061942 0.000000
# 6 0.000000 0.000000 0.000000 -0.035449 0.000000 0.092188
#
#
# Mechanical properties :
#
#
# Convention : Reuss Voigt Hill
#
# Bulk Modulus (GPa) = 7.59049 37.09007 22.34028
# Shear Modulus (GPa) = 12.96228 33.43441 23.19835
#
# Velocity S-wave (km/s) = 2.33127 3.74411 3.11875
# Velocity P-wave (km/s) = 3.22939 5.85169 4.72606
#
# Compressibility (1/GPa) = 0.13174386
#
# Stress axis : x y z
#
# Youngs Moduli (GPa) = 9.59111 55.88024 69.40021
#
# Poissons Ratio (x) = -1.16910 1.44684
# Poissons Ratio (y) = -0.20066 0.17251
# Poissons Ratio (z) = 0.19995 0.13890
#
# Static dielectric constant tensor:
#      x y z
#    x 3.953680 0.000000 -0.187490 
#    y 0.000000 4.071020 0.000000 
#    z -0.187490 0.000000 4.635380 
# 
# 
# High freq. dielectric constant tensor:
#      x y z
#    x 1.937360 0.000000 0.002830 
#    y 0.000000 1.928680 0.000000 
#    z 0.002830 0.000000 1.970880 
# 
# From -- ./inp_files/85998.got.cif
#   From: 2010.06.25/outbox.cif.g09.slc.cpg/sg15_43_cif.got.tgz:85998.got - 2010.06.28 07:06:18.
