data_PCOD8143428
_publ_section_title
;
Structure prediction by ZEFSAII (Michael W. Deem and Ramdas Pophale) SiO2 
 PCOD8143428
Probable space group: C 2/C
;
_chemical_formula_sum "Si O2"
_cell_formula_units_Z 56
_cell_length_a 13.100785
_cell_length_b 22.040406
_cell_length_c 13.989030
_cell_angle_alpha 90.000000
_cell_angle_beta 35.892402
_cell_angle_gamma 90.000000
_cell_volume 2368.091224
_symmetry_space_group_name_H-M "C 2/C"
_symmetry_group_IT_number 15
_symmetry_cell_setting 'monoclinic'
loop_
_space_group_symop_operation_xyz
x,y,z
-x,y,1/2-z
-x,-y,-z
x,-y,1/2+z
1/2+x,1/2+y,z
1/2-x,1/2+y,1/2-z
1/2-x,1/2-y,-z
1/2+x,1/2-y,1/2+z
loop_
_atom_site_type_symbol
_atom_site_label
_atom_site_fract_x
_atom_site_fract_y
_atom_site_fract_z
Si Si1 0.658456 0.606859 0.468200
Si Si2 0.253678 0.817206 0.616736
Si Si3 0.561584 0.433222 0.843743
Si Si4 0.000000 0.667713 0.250000
Si Si5 0.634206 0.210743 0.818781
Si Si6 0.000000 0.967741 0.250000
Si Si7 0.027108 0.781713 0.330819
Si Si8 0.694362 0.121562 0.615146
O O1 0.605506 0.560538 0.422924
O O2 0.859602 0.622592 0.313183
O O3 0.628023 0.574128 0.591900
O O4 0.560333 0.672174 0.526829
O O5 0.180503 0.878925 0.715600
O O6 0.445673 0.798385 0.511592
O O7 0.121510 0.764487 0.749039
O O8 0.274387 0.825140 0.486982
O O9 0.610734 0.491646 0.742438
O O10 0.352536 0.425748 0.986972
O O11 0.061074 0.714251 0.117592
O O12 0.769089 0.227574 0.799771
O O13 0.699066 0.150046 0.716991
O O14 0.000000 0.816522 0.250000
O O15 0.500000 0.091902 0.750000
#
# Coordination Sequence:
#
# PCOD8143428 Si02
#       8
#     8   8   8   4   8   4   8   8
#     4  12  25  49  74 106 139 192 235 299 357 430
#     4  11  23  38  65 102 148 183 230 287 349 431
#     4  12  24  47  74 100 139 188 245 300 360 410
#     4  10  25  44  72 112 148 179 232 284 360 434
#     4  11  22  37  65 106 145 190 230 272 359 439
#     4  12  27  52  76  94 136 193 252 308 360 400
#     4  10  23  40  71 101 148 180 217 276 356 436
#     4  10  21  40  67 102 142 186 232 293 353 424
#
# _framework density 23.647738
#
# number of rings (size 3 to 8) (size 9 to 14) (size 15 to 20)
#    0.429    0.571    3.571    3.000    2.000    3.429 
#    1.286    0.714    0.000    0.000    0.000    0.000 
#    0.000    0.000    0.000    0.000    0.000    0.000 
#
# Total GULP energy -346941.881698 kJ/mol
# GULP energy per Si atom -12390.781489 kJ/mol
# Density = 2.359391 g / cm^3
# Si number density = 23.647738 Si / 1000 Ang^3
#
#
#
# Elastic Constant Matrix: (Units=GPa)
#
#
# Indices 1 2 3 4 5 6 
#
# 1 130.6177 28.4699 41.9027 0.0085 -6.8296 -0.0081
# 2 28.4699 81.9440 33.5850 0.0405 -0.4062 -0.0163
# 3 41.9027 33.5850 109.5414 0.0714 -5.6395 -0.0141
# 4 0.0085 0.0405 0.0714 14.2652 -0.0185 6.6762
# 5 -6.8296 -0.4062 -5.6395 -0.0185 41.5816 0.0026
# 6 -0.0081 -0.0163 -0.0141 6.6762 0.0026 22.0138
#
#
#
# Elastic Compliance Matrix: (Units=1/GPa)
#
#
# Indices 1 2 3 4 5 6 
#
# 1 0.009043 -0.001992 -0.002792 0.000018 0.001087 -0.000006
# 2 -0.001992 0.014404 -0.003690 -0.000030 -0.000687 0.000017
# 3 -0.002792 -0.003690 0.011382 -0.000053 0.001049 0.000019
# 4 0.000018 -0.000030 -0.000053 0.081697 0.000033 -0.024777
# 5 0.001087 -0.000687 0.001049 0.000033 0.024363 -0.000012
# 6 -0.000006 0.000017 0.000019 -0.024777 -0.000012 0.052940
#
#
# Mechanical properties :
#
#
# Convention : Reuss Voigt Hill
#
# Bulk Modulus (GPa) = 55.92378 58.89092 57.40735
# Shear Modulus (GPa) = 23.06933 30.11518 26.59226
#
# Velocity S-wave (km/s) = 3.12675 3.57247 3.35702
# Velocity P-wave (km/s) = 6.06098 6.47875 6.27334
#
# Compressibility (1/GPa) = 0.01788148
#
# Stress axis : x y z
#
# Youngs Moduli (GPa) = 110.58580 69.42353 87.85448
#
# Poissons Ratio (x) = 0.13828 0.24533
# Poissons Ratio (y) = 0.22027 0.32416
# Poissons Ratio (z) = 0.30881 0.25615
#
# Static dielectric constant tensor:
#      x y z
#    x 4.401350 -0.000020 0.156670 
#    y -0.000020 3.974000 0.000090 
#    z 0.156670 0.000090 4.280440 
# 
# 
# High freq. dielectric constant tensor:
#      x y z
#    x 1.942110 0.000000 0.012010 
#    y 0.000000 1.911930 0.000010 
#    z 0.012010 0.000010 1.935940 
# 
# From -- ./inp_files/156926.got.cif
#   From: 2010.06.25/outbox.cif.g09.slc.cpg/sg15_79_cif.got.tgz:156926.got - 2010.06.28 07:06:18.
