data_PCOD8143448
_publ_section_title
;
Structure prediction by ZEFSAII (Michael W. Deem and Ramdas Pophale) SiO2 
 PCOD8143448
Probable space group: C 2/C
;
_chemical_formula_sum "Si O2"
_cell_formula_units_Z 44
_cell_length_a 24.487826
_cell_length_b 13.212595
_cell_length_c 17.731025
_cell_angle_alpha 90.000000
_cell_angle_beta 157.495618
_cell_angle_gamma 90.000000
_cell_volume 2195.796233
_symmetry_space_group_name_H-M "C 2/C"
_symmetry_group_IT_number 15
_symmetry_cell_setting 'monoclinic'
loop_
_space_group_symop_operation_xyz
x,y,z
-x,y,1/2-z
-x,-y,-z
x,-y,1/2+z
1/2+x,1/2+y,z
1/2-x,1/2+y,1/2-z
1/2-x,1/2-y,-z
1/2+x,1/2-y,1/2+z
loop_
_atom_site_type_symbol
_atom_site_label
_atom_site_fract_x
_atom_site_fract_y
_atom_site_fract_z
Si Si1 0.479949 0.067043 0.568722
Si Si2 0.762381 0.730255 0.249161
Si Si3 0.753469 0.173217 0.573556
Si Si4 0.500000 0.018906 0.250000
Si Si5 0.772516 0.433141 0.216865
Si Si6 0.462373 0.568205 0.524613
O O1 0.407866 0.166417 0.440828
O O2 0.648459 0.066528 0.762900
O O3 0.471244 0.060542 0.646897
O O4 0.395506 0.967846 0.432280
O O5 0.735755 0.764932 0.129003
O O6 0.784223 0.824556 0.331488
O O7 0.630679 0.666650 0.115793
O O8 0.750000 0.250000 0.500000
O O9 0.631880 0.092004 0.403942
O O10 0.897139 0.107410 0.755479
O O11 0.634818 0.506030 0.039999
O O12 0.500000 0.500000 0.500000
#
# Coordination Sequence:
#
# PCOD8143448 Si02
#       6
#     8   8   8   4   8   8
#     4  10  23  40  67  91 136 168 222 262 333 385
#     4  11  21  42  68  97 126 179 222 264 321 397
#     4  12  25  39  67 100 136 165 216 274 330 379
#     4  12  24  46  60  98 136 166 202 286 330 370
#     4  10  21  40  67  94 121 183 220 262 313 409
#     4  11  22  40  63  96 132 169 221 268 319 388
#
# _framework density 20.038288999999999
#
# number of rings (size 3 to 8) (size 9 to 14) (size 15 to 20)
#    0.000    1.091    3.636    3.273    7.636    0.000 
#    0.000    0.909    0.000    0.000    0.000    0.000 
#    0.000    0.000    0.000    0.000    0.000    0.000 
#
# Total GULP energy -272754.941793 kJ/mol
# GULP energy per Si atom -12397.951900 kJ/mol
# Density = 1.999268 g / cm^3
# Si number density = 20.038289 Si / 1000 Ang^3
#
#
#
# Elastic Constant Matrix: (Units=GPa)
#
#
# Indices 1 2 3 4 5 6 
#
# 1 78.6606 20.7032 26.3322 0.0000 3.3426 0.0000
# 2 20.7032 100.2619 39.7056 0.0000 6.2325 0.0000
# 3 26.3322 39.7056 110.9461 -0.0001 24.4173 0.0000
# 4 0.0000 0.0000 -0.0001 32.0931 -0.0001 -3.2267
# 5 3.3426 6.2325 24.4173 -0.0001 37.9914 0.0000
# 6 0.0000 0.0000 0.0000 -3.2267 0.0000 38.0457
#
#
#
# Elastic Compliance Matrix: (Units=1/GPa)
#
#
# Indices 1 2 3 4 5 6 
#
# 1 0.014126 -0.001825 -0.002902 0.000000 0.000922 0.000000
# 2 -0.001825 0.011883 -0.003990 0.000000 0.000776 0.000000
# 3 -0.002902 -0.003990 0.012731 0.000000 -0.007272 0.000000
# 4 0.000000 0.000000 0.000000 0.031427 0.000000 0.002665
# 5 0.000922 0.000776 -0.007272 0.000000 0.030787 0.000000
# 6 0.000000 0.000000 0.000000 0.002665 0.000000 0.026510
#
#
# Mechanical properties :
#
#
# Convention : Reuss Voigt Hill
#
# Bulk Modulus (GPa) = 46.93914 51.48341 49.21128
# Shear Modulus (GPa) = 32.89475 35.16788 34.03131
#
# Velocity S-wave (km/s) = 4.05606 4.19386 4.12553
# Velocity P-wave (km/s) = 6.73877 7.01424 6.87788
#
# Compressibility (1/GPa) = 0.02130418
#
# Stress axis : x y z
#
# Youngs Moduli (GPa) = 70.79374 84.15636 78.54975
#
# Poissons Ratio (x) = 0.15356 0.22799
# Poissons Ratio (y) = 0.12918 0.31343
# Poissons Ratio (z) = 0.20548 0.33580
#
# Static dielectric constant tensor:
#      x y z
#    x 3.697900 0.000000 0.329310 
#    y 0.000000 3.751990 0.000000 
#    z 0.329310 0.000000 3.668840 
# 
# 
# High freq. dielectric constant tensor:
#      x y z
#    x 1.778010 0.000000 0.028020 
#    y 0.000000 1.793140 0.000000 
#    z 0.028020 0.000000 1.776350 
# 
# From -- ./inp_files/219778.got.cif
#   From: 2010.06.25/outbox.cif.g09.slc.cpg/sg15_110_cif.got.tgz:219778.got - 2010.06.28 07:06:18.
