data_PCOD8143329
_publ_section_title
;
Structure prediction by ZEFSAII (Michael W. Deem and Ramdas Pophale) SiO2 
 PCOD8143329
Probable space group: C 2/C
;
_chemical_formula_sum "Si O2"
_cell_formula_units_Z 48
_cell_length_a 11.071659
_cell_length_b 8.395518
_cell_length_c 27.414069
_cell_angle_alpha 90.000000
_cell_angle_beta 62.617447
_cell_angle_gamma 90.000000
_cell_volume 2262.689132
_symmetry_space_group_name_H-M "C 2/C"
_symmetry_group_IT_number 15
_symmetry_cell_setting 'monoclinic'
loop_
_space_group_symop_operation_xyz
x,y,z
-x,y,1/2-z
-x,-y,-z
x,-y,1/2+z
1/2+x,1/2+y,z
1/2-x,1/2+y,1/2-z
1/2-x,1/2-y,-z
1/2+x,1/2-y,1/2+z
loop_
_atom_site_type_symbol
_atom_site_label
_atom_site_fract_x
_atom_site_fract_y
_atom_site_fract_z
Si Si1 0.994719 0.738268 0.667000
Si Si2 0.030373 0.330423 0.520052
Si Si3 0.500000 0.009035 0.250000
Si Si4 0.000000 0.986074 0.750000
Si Si5 0.763101 0.823461 0.944531
Si Si6 0.798975 0.237088 0.815231
Si Si7 0.203989 0.202708 0.573024
O O1 0.999228 0.891057 0.700162
O O2 0.862161 0.738228 0.658116
O O3 0.993716 0.586407 0.701373
O O4 0.121064 0.733197 0.607021
O O5 0.102458 0.314251 0.559862
O O6 0.138688 0.239044 0.464547
O O7 0.000000 0.500000 0.500000
O O8 0.877863 0.265520 0.555066
O O9 0.638223 0.109378 0.222391
O O10 0.861747 0.087239 0.775192
O O11 0.795954 0.013284 0.941010
O O12 0.750000 0.750000 0.000000
O O13 0.843076 0.229132 0.863361
#
# Coordination Sequence:
#
# PCOD8143329 Si02
#       7
#     8   8   4   4   8   8   8
#     4  11  23  43  65  96 134 169 215 272 334 388
#     4   9  21  40  62  92 131 169 216 268 329 392
#     4  10  26  40  62 102 124 174 222 270 326 396
#     4  10  22  44  64  92 130 172 218 268 332 384
#     4  11  23  39  63  98 132 172 216 273 334 396
#     4  11  22  42  67  93 127 170 225 270 326 391
#     4  10  21  40  65  93 126 180 218 268 334 394
#
# _framework density 21.213695000000001
#
# number of rings (size 3 to 8) (size 9 to 14) (size 15 to 20)
#    0.000    1.667    1.667    2.000    0.000    8.667 
#   12.000    0.000    0.000    0.000    0.000    0.000 
#    0.000    0.000    0.000    0.000    0.000    0.000 
#
# Total GULP energy -297329.266452 kJ/mol
# GULP energy per Si atom -12388.719435 kJ/mol
# Density = 2.116541 g / cm^3
# Si number density = 21.213695 Si / 1000 Ang^3
#
#
#
# Elastic Constant Matrix: (Units=GPa)
#
#
# Indices 1 2 3 4 5 6 
#
# 1 170.0598 50.6781 71.5056 0.0000 -20.3235 0.0000
# 2 50.6781 99.2348 58.1352 0.0000 3.1011 0.0000
# 3 71.5056 58.1352 177.6812 0.0000 -10.4055 0.0000
# 4 0.0000 0.0000 0.0000 64.7469 0.0000 -7.3943
# 5 -20.3235 3.1011 -10.4055 0.0000 43.0116 0.0000
# 6 0.0000 0.0000 0.0000 -7.3943 0.0000 23.6640
#
#
#
# Elastic Compliance Matrix: (Units=1/GPa)
#
#
# Indices 1 2 3 4 5 6 
#
# 1 0.008067 -0.003030 -0.002048 0.000000 0.003535 0.000000
# 2 -0.003030 0.013762 -0.003474 0.000000 -0.003265 0.000000
# 3 -0.002048 -0.003474 0.007655 0.000000 0.001135 0.000000
# 4 0.000000 0.000000 0.000000 0.016016 0.000000 0.005005
# 5 0.003535 -0.003265 0.001135 0.000000 0.025430 0.000000
# 6 0.000000 0.000000 0.000000 0.005005 0.000000 0.043822
#
#
# Mechanical properties :
#
#
# Convention : Reuss Voigt Hill
#
# Bulk Modulus (GPa) = 80.78190 89.73484 85.25837
# Shear Modulus (GPa) = 36.76890 44.06162 40.41526
#
# Velocity S-wave (km/s) = 4.16776 4.56240 4.36954
# Velocity P-wave (km/s) = 7.83090 8.37533 8.10769
#
# Compressibility (1/GPa) = 0.01237901
#
# Stress axis : x y z
#
# Youngs Moduli (GPa) = 123.96397 72.66290 130.62549
#
# Poissons Ratio (x) = 0.22020 0.26751
# Poissons Ratio (y) = 0.37566 0.45385
# Poissons Ratio (z) = 0.25387 0.25247
#
# Static dielectric constant tensor:
#      x y z
#    x 4.193510 0.000000 -0.317040 
#    y 0.000000 3.850250 0.000000 
#    z -0.317040 0.000000 3.985110 
# 
# 
# High freq. dielectric constant tensor:
#      x y z
#    x 1.834100 0.000000 -0.011980 
#    y 0.000000 1.820530 0.000000 
#    z -0.011980 0.000000 1.852350 
# 
# From -- ./inp_files/291070.got.cif
#   From: 2010.06.25/outbox.cif.g09.slc.cpg/sg15_146_cif.got.tgz:291070.got - 2010.06.28 07:06:18.
