data_PCOD8143379
_publ_section_title
;
Structure prediction by ZEFSAII (Michael W. Deem and Ramdas Pophale) SiO2 
 PCOD8143379
Probable space group: C 2/C
;
_chemical_formula_sum "Si O2"
_cell_formula_units_Z 48
_cell_length_a 12.544352
_cell_length_b 12.550015
_cell_length_c 21.238964
_cell_angle_alpha 90.000000
_cell_angle_beta 138.620275
_cell_angle_gamma 90.000000
_cell_volume 2210.333167
_symmetry_space_group_name_H-M "C 2/C"
_symmetry_group_IT_number 15
_symmetry_cell_setting 'monoclinic'
loop_
_space_group_symop_operation_xyz
x,y,z
-x,y,1/2-z
-x,-y,-z
x,-y,1/2+z
1/2+x,1/2+y,z
1/2-x,1/2+y,1/2-z
1/2-x,1/2-y,-z
1/2+x,1/2-y,1/2+z
loop_
_atom_site_type_symbol
_atom_site_label
_atom_site_fract_x
_atom_site_fract_y
_atom_site_fract_z
Si Si1 0.348270 0.505408 0.016786
Si Si2 0.059738 0.851627 0.842364
Si Si3 0.930021 0.179185 0.845534
Si Si4 0.649539 0.281917 0.054182
Si Si5 0.641251 0.249201 0.645392
Si Si6 0.633359 0.156119 0.356595
O O1 0.319171 0.565114 0.070326
O O2 0.504806 0.433262 0.101375
O O3 0.384029 0.593676 0.978579
O O4 0.192127 0.435766 0.930003
O O5 0.164263 0.744408 0.877905
O O6 0.000000 0.900212 0.750000
O O7 0.904300 0.828689 0.817380
O O8 0.880653 0.243437 0.886127
O O9 0.770652 0.164024 0.730210
O O10 0.064147 0.245139 0.866234
O O11 0.528795 0.206642 0.958454
O O12 0.715042 0.310137 0.618046
O O13 0.500000 0.108872 0.250000
#
# Coordination Sequence:
#
# PCOD8143379 Si02
#       6
#     8   8   8   8   8   8
#     4  11  23  41  67  99 122 172 218 258 312 386
#     4  11  24  44  65  93 132 169 211 265 321 377
#     4  11  22  41  69  93 130 164 211 268 313 377
#     4  11  23  43  66  92 129 169 211 260 322 376
#     4  10  21  40  66  90 125 170 209 251 325 370
#     4  10  23  41  66  95 132 167 211 263 321 375
#
# _framework density 21.716183000000001
#
# number of rings (size 3 to 8) (size 9 to 14) (size 15 to 20)
#    0.000    1.333    3.333    3.000    2.333    2.667 
#    3.000    0.833    3.667    0.000    0.000    0.000 
#    0.000    0.000    0.000    0.000    0.000    0.000 
#
# Total GULP energy -297325.712174 kJ/mol
# GULP energy per Si atom -12388.571341 kJ/mol
# Density = 2.166676 g / cm^3
# Si number density = 21.716183 Si / 1000 Ang^3
#
#
#
# Elastic Constant Matrix: (Units=GPa)
#
#
# Indices 1 2 3 4 5 6 
#
# 1 130.7808 35.7842 33.5905 0.0000 -19.2535 0.0000
# 2 35.7842 78.9656 49.0139 0.0000 2.2347 0.0000
# 3 33.5905 49.0139 129.8340 0.0000 -6.7231 0.0000
# 4 0.0000 0.0000 0.0000 33.2539 0.0000 -2.4703
# 5 -19.2535 2.2347 -6.7231 0.0000 39.2682 0.0000
# 6 0.0000 0.0000 0.0000 -2.4703 0.0000 13.9798
#
#
#
# Elastic Compliance Matrix: (Units=1/GPa)
#
#
# Indices 1 2 3 4 5 6 
#
# 1 0.009656 -0.004072 -0.000710 0.000000 0.004845 0.000000
# 2 -0.004072 0.018418 -0.006111 0.000000 -0.004091 0.000000
# 3 -0.000710 -0.006111 0.010284 0.000000 0.001760 0.000000
# 4 0.000000 0.000000 0.000000 0.030472 0.000000 0.005385
# 5 0.004845 -0.004091 0.001760 0.000000 0.028375 0.000000
# 6 0.000000 0.000000 0.000000 0.005385 0.000000 0.072483
#
#
# Mechanical properties :
#
#
# Convention : Reuss Voigt Hill
#
# Bulk Modulus (GPa) = 60.34547 64.03974 62.19260
# Shear Modulus (GPa) = 25.38070 32.04650 28.71360
#
# Velocity S-wave (km/s) = 3.42240 3.84565 3.64018
# Velocity P-wave (km/s) = 6.59285 7.01941 6.80947
#
# Compressibility (1/GPa) = 0.01657125
#
# Stress axis : x y z
#
# Youngs Moduli (GPa) = 103.56005 54.29412 97.23718
#
# Poissons Ratio (x) = 0.22110 0.06905
# Poissons Ratio (y) = 0.42172 0.59425
# Poissons Ratio (z) = 0.07354 0.33181
#
# Static dielectric constant tensor:
#      x y z
#    x 4.006550 0.000000 -0.138160 
#    y 0.000000 3.488640 0.000000 
#    z -0.138160 0.000000 4.400430 
# 
# 
# High freq. dielectric constant tensor:
#      x y z
#    x 1.859240 0.000000 -0.010880 
#    y 0.000000 1.800430 0.000000 
#    z -0.010880 0.000000 1.885620 
# 
# From -- ./inp_files/237761.got.cif
#   From: 2010.06.25/outbox.cif.g09.slc.cpg/sg15_119_cif.got.tgz:237761.got - 2010.06.28 07:06:18.
