data_PCOD8143254
_publ_section_title
;
Structure prediction by ZEFSAII (Michael W. Deem and Ramdas Pophale) SiO2 
 PCOD8143254
Probable space group: C 2/C
;
_chemical_formula_sum "Si O2"
_cell_formula_units_Z 60
_cell_length_a 20.060322
_cell_length_b 17.700252
_cell_length_c 12.084653
_cell_angle_alpha 90.000000
_cell_angle_beta 40.728276
_cell_angle_gamma 90.000000
_cell_volume 2799.714370
_symmetry_space_group_name_H-M "C 2/C"
_symmetry_group_IT_number 15
_symmetry_cell_setting 'monoclinic'
loop_
_space_group_symop_operation_xyz
x,y,z
-x,y,1/2-z
-x,-y,-z
x,-y,1/2+z
1/2+x,1/2+y,z
1/2-x,1/2+y,1/2-z
1/2-x,1/2-y,-z
1/2+x,1/2-y,1/2+z
loop_
_atom_site_type_symbol
_atom_site_label
_atom_site_fract_x
_atom_site_fract_y
_atom_site_fract_z
Si Si1 0.345429 0.067163 0.684421
Si Si2 0.663770 0.456451 0.937735
Si Si3 0.716107 0.770650 0.166895
Si Si4 0.522629 0.966055 0.832192
Si Si5 0.666338 0.287862 0.264591
Si Si6 0.795537 0.644717 0.426072
Si Si7 0.450305 0.353587 0.590758
Si Si8 0.000000 0.062370 0.250000
O O1 0.310060 0.140929 0.794696
O O2 0.416059 0.080473 0.488869
O O3 0.252870 0.009687 0.776047
O O4 0.436075 0.027579 0.637567
O O5 0.706517 0.390100 0.961114
O O6 0.600153 0.420268 0.917553
O O7 0.593751 0.510157 0.098939
O O8 0.804207 0.758022 0.149197
O O9 0.619562 0.720548 0.321069
O O10 0.750000 0.750000 0.000000
O O11 0.500000 0.013731 0.750000
O O12 0.606908 0.905779 0.695603
O O13 0.664196 0.222364 0.177108
O O14 0.558607 0.330561 0.402884
O O15 0.751496 0.346038 0.107775
O O16 0.463702 0.383480 0.697511
#
# Coordination Sequence:
#
# PCOD8143254 Si02
#       8
#     8   8   8   8   8   8   8   4
#     4  10  23  41  63  95 132 172 224 278 331 416
#     4  11  23  44  68  97 136 177 234 281 355 406
#     4  12  25  44  65  96 137 181 222 277 346 409
#     4  10  21  40  64  94 127 171 225 272 339 388
#     4  11  23  42  67  98 137 173 231 282 349 405
#     4  10  22  42  67 100 132 177 225 291 336 412
#     4  12  25  44  68 101 136 185 229 288 350 417
#     4  12  26  42  66 102 134 182 234 286 340 420
#
# _framework density 21.430757
#
# number of rings (size 3 to 8) (size 9 to 14) (size 15 to 20)
#    0.000    1.067    1.333    5.200    0.000    4.267 
#    6.000    0.000    0.000    0.000    0.000    0.000 
#    0.000    0.000    0.000    0.000    0.000    0.000 
#
# Total GULP energy -371788.551546 kJ/mol
# GULP energy per Si atom -12392.951718 kJ/mol
# Density = 2.138198 g / cm^3
# Si number density = 21.430757 Si / 1000 Ang^3
#
#
#
# Elastic Constant Matrix: (Units=GPa)
#
#
# Indices 1 2 3 4 5 6 
#
# 1 97.5129 30.1677 63.7076 0.0000 2.1209 0.0000
# 2 30.1677 90.4192 23.2815 0.0000 -1.1523 0.0000
# 3 63.7076 23.2815 75.6999 0.0000 4.5396 0.0000
# 4 0.0000 0.0000 0.0000 34.2278 0.0000 1.5721
# 5 2.1209 -1.1523 4.5396 0.0000 32.4123 0.0000
# 6 0.0000 0.0000 0.0000 1.5721 0.0000 70.3346
#
#
#
# Elastic Compliance Matrix: (Units=1/GPa)
#
#
# Indices 1 2 3 4 5 6 
#
# 1 0.023532 -0.002958 -0.018955 0.000000 0.001010 0.000000
# 2 -0.002958 0.012412 -0.001378 0.000000 0.000828 0.000000
# 3 -0.018955 -0.001378 0.029764 0.000000 -0.002977 0.000000
# 4 0.000000 0.000000 0.000000 0.029246 0.000000 -0.000654
# 5 0.001010 0.000828 -0.002977 0.000000 0.031233 0.000000
# 6 0.000000 0.000000 0.000000 -0.000654 0.000000 0.014232
#
#
# Mechanical properties :
#
#
# Convention : Reuss Voigt Hill
#
# Bulk Modulus (GPa) = 52.28117 55.32729 53.80423
# Shear Modulus (GPa) = 25.85649 37.15995 31.50822
#
# Velocity S-wave (km/s) = 3.47726 4.16860 3.83852
# Velocity P-wave (km/s) = 6.36947 7.00303 6.69375
#
# Compressibility (1/GPa) = 0.01912735
#
# Stress axis : x y z
#
# Youngs Moduli (GPa) = 42.49583 80.56904 33.59738
#
# Poissons Ratio (x) = 0.23831 0.63683
# Poissons Ratio (y) = 0.12569 0.04629
# Poissons Ratio (z) = 0.80550 0.11100
#
# Static dielectric constant tensor:
#      x y z
#    x 4.451420 0.000000 0.009500 
#    y 0.000000 3.633470 0.000000 
#    z 0.009500 0.000000 3.918560 
# 
# 
# High freq. dielectric constant tensor:
#      x y z
#    x 1.855720 0.000000 -0.001320 
#    y 0.000000 1.842990 0.000000 
#    z -0.001320 0.000000 1.861230 
# 
# From -- ./inp_files/107626.got.cif
#   From: 2010.06.25/outbox.cif.g09.slc.cpg/sg15_54_cif.got.tgz:107626.got - 2010.06.28 07:06:18.
