data_PCOD8143482
_publ_section_title
;
Structure prediction by ZEFSAII (Michael W. Deem and Ramdas Pophale) SiO2 
 PCOD8143482
Probable space group: C 2/C
;
_chemical_formula_sum "Si O2"
_cell_formula_units_Z 40
_cell_length_a 16.412902
_cell_length_b 19.636403
_cell_length_c 7.838180
_cell_angle_alpha 90.000000
_cell_angle_beta 46.680259
_cell_angle_gamma 90.000000
_cell_volume 1837.880558
_symmetry_space_group_name_H-M "C 2/C"
_symmetry_group_IT_number 15
_symmetry_cell_setting 'monoclinic'
loop_
_space_group_symop_operation_xyz
x,y,z
-x,y,1/2-z
-x,-y,-z
x,-y,1/2+z
1/2+x,1/2+y,z
1/2-x,1/2+y,1/2-z
1/2-x,1/2-y,-z
1/2+x,1/2-y,1/2+z
loop_
_atom_site_type_symbol
_atom_site_label
_atom_site_fract_x
_atom_site_fract_y
_atom_site_fract_z
Si Si1 0.000000 0.140505 0.750000
Si Si2 0.500000 0.109103 0.250000
Si Si3 0.908588 0.651964 0.022673
Si Si4 0.735192 0.921189 0.328156
Si Si5 0.831626 0.214098 0.748789
Si Si6 0.796153 0.062494 0.119958
O O1 0.937319 0.187174 0.702922
O O2 0.082425 0.094023 0.511452
O O3 0.452822 0.150863 0.155749
O O4 0.398398 0.064262 0.473102
O O5 0.868819 0.729675 0.055555
O O6 0.806399 0.599199 0.134055
O O7 0.000000 0.632322 0.750000
O O8 0.768111 0.844124 0.224153
O O9 0.788560 0.921283 0.434915
O O10 0.792821 0.980721 0.137945
O O11 0.750000 0.250000 0.000000
#
# Coordination Sequence:
#
# PCOD8143482 Si02
#       6
#     4   4   8   8   8   8
#     4  10  21  42  72  82 133 180 208 276 333 384
#     4  10  21  40  68  90 131 182 204 282 335 370
#     4  11  24  41  66 102 130 166 227 274 327 396
#     4  10  23  39  64  93 128 171 222 264 328 394
#     4  11  20  42  64  94 128 175 221 259 335 398
#     4  10  23  41  62  95 127 171 219 268 330 396
#
# _framework density 21.764202000000001
#
# number of rings (size 3 to 8) (size 9 to 14) (size 15 to 20)
#    0.000    1.600    6.000    0.600    4.200    4.800 
#    5.400    2.000    0.000    0.000    0.000    0.000 
#    0.000    0.000    0.000    0.000    0.000    0.000 
#
# Total GULP energy -247788.847815 kJ/mol
# GULP energy per Si atom -12389.442391 kJ/mol
# Density = 2.171467 g / cm^3
# Si number density = 21.764202 Si / 1000 Ang^3
#
#
#
# Elastic Constant Matrix: (Units=GPa)
#
#
# Indices 1 2 3 4 5 6 
#
# 1 52.1500 21.1706 24.4852 0.0000 -29.2721 0.0000
# 2 21.1706 150.0920 45.7562 0.0000 -21.3297 0.0000
# 3 24.4852 45.7562 115.5560 0.0000 -23.5561 0.0000
# 4 0.0000 0.0000 0.0000 53.8790 0.0000 5.8232
# 5 -29.2721 -21.3297 -23.5561 0.0000 29.3162 0.0000
# 6 0.0000 0.0000 0.0000 5.8232 0.0000 22.2449
#
#
#
# Elastic Compliance Matrix: (Units=1/GPa)
#
#
# Indices 1 2 3 4 5 6 
#
# 1 0.043647 0.000143 -0.000478 0.000000 0.043301 0.000000
# 2 0.000143 0.007931 -0.002350 0.000000 0.004024 0.000000
# 3 -0.000478 -0.002350 0.011050 0.000000 0.006691 0.000000
# 4 0.000000 0.000000 0.000000 0.019101 0.000000 -0.005000
# 5 0.043301 0.004024 0.006691 0.000000 0.085652 0.000000
# 6 0.000000 0.000000 0.000000 -0.005000 0.000000 0.046263
#
#
# Mechanical properties :
#
#
# Convention : Reuss Voigt Hill
#
# Bulk Modulus (GPa) = 17.46517 55.62467 36.54492
# Shear Modulus (GPa) = 20.99966 36.18043 28.59004
#
# Velocity S-wave (km/s) = 3.10961 4.08166 3.62833
# Velocity P-wave (km/s) = 4.57548 6.91568 5.86351
#
# Compressibility (1/GPa) = 0.05725681
#
# Stress axis : x y z
#
# Youngs Moduli (GPa) = 22.91104 126.09031 90.49979
#
# Poissons Ratio (x) = -0.01801 0.04326
# Poissons Ratio (y) = -0.00327 0.21269
# Poissons Ratio (z) = 0.01095 0.29634
#
# Static dielectric constant tensor:
#      x y z
#    x 3.846430 0.000000 -0.486430 
#    y 0.000000 1.387720 0.000000 
#    z -0.486430 0.000000 4.035670 
# 
# 
# High freq. dielectric constant tensor:
#      x y z
#    x 1.836580 0.000000 -0.030590 
#    y 0.000000 1.865690 0.000000 
#    z -0.030590 0.000000 1.845760 
# 
# From -- ./inp_files/30530.got.cif
#   From: 2010.06.25/outbox.cif.g09.slc.cpg/sg15_16_cif.got.tgz:30530.got - 2010.06.28 07:06:18.
