data_PCOD8143220
_publ_section_title
;
Structure prediction by ZEFSAII (Michael W. Deem and Ramdas Pophale) SiO2 
 PCOD8143220
Probable space group: C 2/C
;
_chemical_formula_sum "Si O2"
_cell_formula_units_Z 40
_cell_length_a 15.702312
_cell_length_b 22.934654
_cell_length_c 9.175032
_cell_angle_alpha 90.000000
_cell_angle_beta 34.990182
_cell_angle_gamma 90.000000
_cell_volume 1894.734588
_symmetry_space_group_name_H-M "C 2/C"
_symmetry_group_IT_number 15
_symmetry_cell_setting 'monoclinic'
loop_
_space_group_symop_operation_xyz
x,y,z
-x,y,1/2-z
-x,-y,-z
x,-y,1/2+z
1/2+x,1/2+y,z
1/2-x,1/2+y,1/2-z
1/2-x,1/2-y,-z
1/2+x,1/2-y,1/2+z
loop_
_atom_site_type_symbol
_atom_site_label
_atom_site_fract_x
_atom_site_fract_y
_atom_site_fract_z
Si Si1 0.519574 0.203191 0.066678
Si Si2 0.174266 0.486083 0.007061
Si Si3 0.220040 0.811641 0.822426
Si Si4 0.348727 0.863934 0.372819
Si Si5 0.831024 0.939744 0.502844
O O1 0.589228 0.265298 0.011699
O O2 0.631053 0.164167 0.814057
O O3 0.500000 0.170514 0.250000
O O4 0.366977 0.214177 0.193900
O O5 0.212545 0.429815 0.056349
O O6 0.252132 0.543310 0.962387
O O7 0.000000 0.499083 0.250000
O O8 0.240915 0.473229 0.754798
O O9 0.241915 0.823515 0.619445
O O10 0.174899 0.870375 0.969186
O O11 0.500000 0.870471 0.250000
O O12 0.000000 0.960912 0.250000
#
# Coordination Sequence:
#
# PCOD8143220 Si02
#       5
#     8   8   8   8   8
#     4  11  21  36  57  85 115 151 195 244 290 342
#     4  10  21  40  64  90 117 154 200 241 290 354
#     4  10  22  39  58  81 117 156 193 237 291 349
#     4   8  18  37  59  83 114 151 192 238 291 348
#     4  11  23  40  61  89 123 156 192 244 299 349
#
# _framework density 21.111135000000001
#
# number of rings (size 3 to 8) (size 9 to 14) (size 15 to 20)
#    0.000    2.000    0.000    4.200    0.000    2.400 
#    0.000    4.000    0.000    0.000    0.000    0.000 
#    0.000    0.000    0.000    0.000    0.000    0.000 
#
# Total GULP energy -247954.905735 kJ/mol
# GULP energy per Si atom -12397.745287 kJ/mol
# Density = 2.106309 g / cm^3
# Si number density = 21.111135 Si / 1000 Ang^3
#
#
#
# Elastic Constant Matrix: (Units=GPa)
#
#
# Indices 1 2 3 4 5 6 
#
# 1 83.7055 40.5263 27.9770 -0.0002 -8.2920 -0.0001
# 2 40.5263 65.5032 13.2989 -0.0001 1.0705 0.0000
# 3 27.9770 13.2989 91.7210 -0.0002 -17.1856 0.0001
# 4 -0.0002 -0.0001 -0.0002 -2.4014 0.0002 -3.6406
# 5 -8.2920 1.0705 -17.1856 0.0002 35.8405 0.0002
# 6 -0.0001 0.0000 0.0001 -3.6406 0.0002 34.8753
#
#
#
# Elastic Compliance Matrix: (Units=1/GPa)
#
#
# Indices 1 2 3 4 5 6 
#
# 1 0.018709 -0.010897 -0.003576 0.000000 0.002939 0.000000
# 2 -0.010897 0.022173 -0.000536 0.000000 -0.003440 0.000000
# 3 -0.003576 -0.000536 0.013096 0.000000 0.005468 0.000000
# 4 0.000000 0.000000 0.000000 -0.359521 0.000002 -0.037530
# 5 0.002939 -0.003440 0.005468 0.000002 0.031306 0.000000
# 6 0.000000 0.000000 0.000000 -0.037530 0.000000 0.024756
#
#
# Mechanical properties :
#
#
# Convention : Reuss Voigt Hill
#
# Bulk Modulus (GPa) = 41.73553 44.94822 43.34187
# Shear Modulus (GPa) = -23.64327 24.27136 0.31405
#
# Velocity S-wave (km/s) = -3.35019 3.39439 0.38611
# Velocity P-wave (km/s) = 2.20167 6.05805 4.55782
#
# Compressibility (1/GPa) = 0.02396040
#
# Stress axis : x y z
#
# Youngs Moduli (GPa) = 53.45066 45.09920 76.36166
#
# Poissons Ratio (x) = 0.49145 0.27306
# Poissons Ratio (y) = 0.58245 0.04091
# Poissons Ratio (z) = 0.19113 0.02416
#
# Static dielectric constant tensor:
#      x y z
#    x 3.553610 0.000000 0.183640 
#    y 0.000000 3.817270 0.000000 
#    z 0.183640 0.000000 4.134680 
# 
# 
# High freq. dielectric constant tensor:
#      x y z
#    x 1.804130 0.000000 0.011430 
#    y 0.000000 1.825980 0.000000 
#    z 0.011430 0.000000 1.845710 
# 
# From -- ./inp_files/32272.got.cif
#   From: 2010.06.25/outbox.cif.g09.slc.cpg/sg15_17_cif.got.tgz:32272.got - 2010.06.28 07:06:18.
