data_PCOD8143545
_publ_section_title
;
Structure prediction by ZEFSAII (Michael W. Deem and Ramdas Pophale) SiO2 
 PCOD8143545
Probable space group: C 2/C
;
_chemical_formula_sum "Si O2"
_cell_formula_units_Z 60
_cell_length_a 11.288320
_cell_length_b 10.881974
_cell_length_c 27.145972
_cell_angle_alpha 90.000000
_cell_angle_beta 63.751584
_cell_angle_gamma 90.000000
_cell_volume 2990.743300
_symmetry_space_group_name_H-M "C 2/C"
_symmetry_group_IT_number 15
_symmetry_cell_setting 'monoclinic'
loop_
_space_group_symop_operation_xyz
x,y,z
-x,y,1/2-z
-x,-y,-z
x,-y,1/2+z
1/2+x,1/2+y,z
1/2-x,1/2+y,1/2-z
1/2-x,1/2-y,-z
1/2+x,1/2-y,1/2+z
loop_
_atom_site_type_symbol
_atom_site_label
_atom_site_fract_x
_atom_site_fract_y
_atom_site_fract_z
Si Si1 0.443286 0.559407 0.059243
Si Si2 0.032869 0.598510 0.154917
Si Si3 0.131046 0.982433 0.273217
Si Si4 0.763563 0.256203 0.939450
Si Si5 0.271789 0.073979 0.839339
Si Si6 0.000000 0.772187 0.250000
Si Si7 0.621975 0.503335 0.112393
Si Si8 0.245637 0.139656 0.172379
O O1 0.370988 0.689921 0.061196
O O2 0.342900 0.461989 0.101573
O O3 0.566356 0.573966 0.074326
O O4 0.500000 0.500000 0.000000
O O5 0.118459 0.648964 0.093615
O O6 0.087607 0.466000 0.163581
O O7 0.054516 0.691755 0.195541
O O8 0.883924 0.584811 0.165353
O O9 0.251026 0.992475 0.290102
O O10 0.126448 0.854374 0.243690
O O11 0.994769 0.980005 0.327892
O O12 0.139535 0.093297 0.232416
O O13 0.799342 0.121244 0.913691
O O14 0.750000 0.250000 0.000000
O O15 0.261593 0.215789 0.829169
O O16 0.724383 0.592212 0.120912
#
# Coordination Sequence:
#
# PCOD8143545 Si02
#       8
#     8   8   8   8   8   4   8   8
#     4  10  21  40  70  94 119 167 229 273 327 387
#     4  11  23  40  62  96 130 168 222 268 330 403
#     4  11  21  41  64  88 125 175 217 268 323 385
#     4  11  21  40  74  92 121 172 225 274 323 397
#     4  10  24  40  62  94 131 169 216 275 321 399
#     4  12  18  40  64  88 120 168 224 262 312 388
#     4  11  22  41  62  96 125 167 219 268 329 399
#     4  12  23  41  62  92 141 171 208 276 340 399
#
# _framework density 20.061902
#
# number of rings (size 3 to 8) (size 9 to 14) (size 15 to 20)
#    0.000    1.067    5.333    1.600    0.000    1.067 
#    9.600    1.333    0.000    0.000    0.000    0.000 
#    0.000    0.000    0.000    0.000    0.000    0.000 
#
# Total GULP energy -371889.212449 kJ/mol
# GULP energy per Si atom -12396.307082 kJ/mol
# Density = 2.001624 g / cm^3
# Si number density = 20.061902 Si / 1000 Ang^3
#
#
#
# Elastic Constant Matrix: (Units=GPa)
#
#
# Indices 1 2 3 4 5 6 
#
# 1 126.6421 59.0458 54.9862 0.0000 26.1920 0.0000
# 2 59.0458 89.0682 44.8479 0.0000 12.4652 0.0000
# 3 54.9862 44.8479 127.0700 0.0000 21.2196 0.0000
# 4 0.0000 0.0000 0.0000 26.2605 0.0000 1.6893
# 5 26.1920 12.4652 21.2196 0.0000 28.4052 0.0000
# 6 0.0000 0.0000 0.0000 1.6893 0.0000 34.7258
#
#
#
# Elastic Compliance Matrix: (Units=1/GPa)
#
#
# Indices 1 2 3 4 5 6 
#
# 1 0.013692 -0.006867 -0.002166 0.000000 -0.007993 0.000000
# 2 -0.006867 0.017286 -0.003336 0.000000 0.001239 0.000000
# 3 -0.002166 -0.003336 0.010747 0.000000 -0.004567 0.000000
# 4 0.000000 0.000000 0.000000 0.038200 0.000000 -0.001858
# 5 -0.007993 0.001239 -0.004567 0.000000 0.045443 0.000000
# 6 0.000000 0.000000 0.000000 -0.001858 0.000000 0.028887
#
#
# Mechanical properties :
#
#
# Convention : Reuss Voigt Hill
#
# Bulk Modulus (GPa) = 58.87252 73.39334 66.13293
# Shear Modulus (GPa) = 27.07722 30.13832 28.60777
#
# Velocity S-wave (km/s) = 3.67779 3.88011 3.78031
# Velocity P-wave (km/s) = 6.88796 7.53237 7.21736
#
# Compressibility (1/GPa) = 0.01698585
#
# Stress axis : x y z
#
# Youngs Moduli (GPa) = 73.03669 57.84902 93.04763
#
# Poissons Ratio (x) = 0.39726 0.20156
# Poissons Ratio (y) = 0.50156 0.31043
# Poissons Ratio (z) = 0.15822 0.19300
#
# Static dielectric constant tensor:
#      x y z
#    x 4.014850 0.000000 0.241400 
#    y 0.000000 3.606540 0.000000 
#    z 0.241400 0.000000 3.899180 
# 
# 
# High freq. dielectric constant tensor:
#      x y z
#    x 1.785660 0.000000 0.016540 
#    y 0.000000 1.771060 0.000000 
#    z 0.016540 0.000000 1.792950 
# 
# From -- ./inp_files/310287.got.cif
#   From: 2010.06.25/outbox.cif.g09.slc.cpg/sg15_156_cif.got.tgz:310287.got - 2010.06.28 07:06:18.
