data_PCOD8143215
_publ_section_title
;
Structure prediction by ZEFSAII (Michael W. Deem and Ramdas Pophale) SiO2 
 PCOD8143215
Probable space group: C 2/C
;
_chemical_formula_sum "Si O2"
_cell_formula_units_Z 44
_cell_length_a 20.968109
_cell_length_b 8.494668
_cell_length_c 17.950774
_cell_angle_alpha 90.000000
_cell_angle_beta 137.787813
_cell_angle_gamma 90.000000
_cell_volume 2148.223037
_symmetry_space_group_name_H-M "C 2/C"
_symmetry_group_IT_number 15
_symmetry_cell_setting 'monoclinic'
loop_
_space_group_symop_operation_xyz
x,y,z
-x,y,1/2-z
-x,-y,-z
x,-y,1/2+z
1/2+x,1/2+y,z
1/2-x,1/2+y,1/2-z
1/2-x,1/2-y,-z
1/2+x,1/2-y,1/2+z
loop_
_atom_site_type_symbol
_atom_site_label
_atom_site_fract_x
_atom_site_fract_y
_atom_site_fract_z
Si Si1 0.666758 0.053430 0.894266
Si Si2 0.831943 0.898878 0.645172
Si Si3 0.729032 0.906745 0.172246
Si Si4 0.500000 0.609833 0.750000
Si Si5 0.647364 0.891325 0.728444
Si Si6 0.436960 0.859955 0.579833
O O1 0.638119 0.216304 0.829446
O O2 0.668784 0.916675 0.834272
O O3 0.589978 0.010350 0.891699
O O4 0.771965 0.063793 0.019043
O O5 0.771795 0.941900 0.666479
O O6 0.925623 0.002816 0.728944
O O7 0.808999 0.776244 0.257120
O O8 0.690535 0.967523 0.217560
O O9 0.644726 0.827840 0.051326
O O10 0.445638 0.710256 0.640877
O O11 0.533940 0.891215 0.618982
#
# Coordination Sequence:
#
# PCOD8143215 Si02
#       6
#     8   8   8   4   8   8
#     4  10  21  40  64  89 120 160 203 247 301 352
#     4  10  22  38  62  93 120 155 204 252 294 361
#     4  11  24  41  62  88 126 158 206 244 307 358
#     4  12  20  36  66  92 124 150 204 252 300 352
#     4  12  22  41  61  87 123 165 196 251 302 361
#     4  11  22  40  64  92 118 163 200 249 297 367
#
# _framework density 20.482043999999998
#
# number of rings (size 3 to 8) (size 9 to 14) (size 15 to 20)
#    0.000    1.091    3.636    2.727    2.545    2.909 
#    0.000    0.909    0.000    0.000    0.000    0.000 
#    0.000    0.000    0.000    0.000    0.000    0.000 
#
# Total GULP energy -272895.253180 kJ/mol
# GULP energy per Si atom -12404.329690 kJ/mol
# Density = 2.043543 g / cm^3
# Si number density = 20.482044 Si / 1000 Ang^3
#
#
#
# Elastic Constant Matrix: (Units=GPa)
#
#
# Indices 1 2 3 4 5 6 
#
# 1 122.3737 39.1037 33.4802 0.0000 14.7869 0.0000
# 2 39.1037 93.4591 19.5893 0.0000 12.7181 0.0000
# 3 33.4802 19.5893 61.2286 0.0000 7.1569 0.0000
# 4 0.0000 0.0000 0.0000 25.7335 0.0000 7.1747
# 5 14.7869 12.7181 7.1569 0.0000 30.8525 0.0000
# 6 0.0000 0.0000 0.0000 7.1747 0.0000 37.8651
#
#
#
# Elastic Compliance Matrix: (Units=1/GPa)
#
#
# Indices 1 2 3 4 5 6 
#
# 1 0.010767 -0.003171 -0.004546 0.000000 -0.002799 0.000000
# 2 -0.003171 0.012900 -0.002004 0.000000 -0.003333 0.000000
# 3 -0.004546 -0.002004 0.019640 0.000000 -0.001551 0.000000
# 4 0.000000 0.000000 0.000000 0.041027 0.000000 -0.007774
# 5 -0.002799 -0.003333 -0.001551 0.000000 0.035487 0.000000
# 6 0.000000 0.000000 0.000000 -0.007774 0.000000 0.027883
#
#
# Mechanical properties :
#
#
# Convention : Reuss Voigt Hill
#
# Bulk Modulus (GPa) = 41.90015 51.26755 46.58385
# Shear Modulus (GPa) = 28.55491 31.21608 29.88550
#
# Velocity S-wave (km/s) = 3.73787 3.90817 3.82397
# Velocity P-wave (km/s) = 6.25543 6.74165 6.50309
#
# Compressibility (1/GPa) = 0.02386626
#
# Stress axis : x y z
#
# Youngs Moduli (GPa) = 92.87757 77.51766 50.91597
#
# Poissons Ratio (x) = 0.24583 0.23145
# Poissons Ratio (y) = 0.29454 0.10202
# Poissons Ratio (z) = 0.42219 0.15531
#
# Static dielectric constant tensor:
#      x y z
#    x 3.780740 0.000000 0.111330 
#    y 0.000000 3.662850 0.000000 
#    z 0.111330 0.000000 3.576750 
# 
# 
# High freq. dielectric constant tensor:
#      x y z
#    x 1.808290 0.000000 0.008960 
#    y 0.000000 1.798970 0.000000 
#    z 0.008960 0.000000 1.792070 
# 
# From -- ./inp_files/110177.got.cif
#   From: 2010.06.25/outbox.cif.g09.slc.cpg/sg15_56_cif.got.tgz:110177.got - 2010.06.28 07:06:18.
