data_PCOD8143765
_publ_section_title
;
Structure prediction by ZEFSAII (Michael W. Deem and Ramdas Pophale) SiO2 
 PCOD8143765
Probable space group: C 2/C
;
_chemical_formula_sum "Si O2"
_cell_formula_units_Z 56
_cell_length_a 8.970909
_cell_length_b 20.929614
_cell_length_c 28.985837
_cell_angle_alpha 90.000000
_cell_angle_beta 149.953383
_cell_angle_gamma 90.000000
_cell_volume 2724.990340
_symmetry_space_group_name_H-M "C 2/C"
_symmetry_group_IT_number 15
_symmetry_cell_setting 'monoclinic'
loop_
_space_group_symop_operation_xyz
x,y,z
-x,y,1/2-z
-x,-y,-z
x,-y,1/2+z
1/2+x,1/2+y,z
1/2-x,1/2+y,1/2-z
1/2-x,1/2-y,-z
1/2+x,1/2-y,1/2+z
loop_
_atom_site_type_symbol
_atom_site_label
_atom_site_fract_x
_atom_site_fract_y
_atom_site_fract_z
Si Si1 0.185823 0.530715 0.091043
Si Si2 0.800386 0.313930 0.984642
Si Si3 0.209094 0.886837 0.696564
Si Si4 0.797532 0.703090 0.304513
Si Si5 0.193275 0.099350 0.844038
Si Si6 0.381708 0.839104 0.524260
Si Si7 0.820416 0.845692 0.321956
O O1 0.510616 0.555133 0.162202
O O2 0.226526 0.475578 0.140375
O O3 0.000635 0.588893 0.062564
O O4 0.000000 0.500000 0.000000
O O5 0.480543 0.346100 0.891231
O O6 0.954147 0.304569 0.975427
O O7 0.750000 0.250000 0.000000
O O8 0.007831 0.359454 0.071298
O O9 0.500000 0.916196 0.750000
O O10 0.336737 0.840138 0.770341
O O11 0.500000 0.679557 0.250000
O O12 0.778213 0.777469 0.284793
O O13 0.064467 0.697030 0.413168
O O14 0.000000 0.125057 0.750000
O O15 0.988518 0.104594 0.834451
O O16 0.025795 0.837982 0.422397
O O17 0.500000 0.873857 0.250000
#
# Coordination Sequence:
#
# PCOD8143765 Si02
#       7
#     8   8   8   8   8   8   8
#     4  11  20  45  66  84 126 171 222 248 318 386
#     4  10  22  38  64  92 133 168 206 260 324 382
#     4  11  25  40  64  99 124 166 213 276 316 367
#     4  11  21  39  65  92 127 164 214 252 319 393
#     4  11  25  41  67  94 121 175 215 258 311 385
#     4  10  21  41  64  92 118 177 210 257 310 385
#     4  10  23  39  59  92 130 164 196 265 321 371
#
# _framework density 20.550530999999999
#
# number of rings (size 3 to 8) (size 9 to 14) (size 15 to 20)
#    0.000    1.429    7.143    0.429    8.000    0.571 
#    2.571    0.000    0.000    2.571    0.000    0.000 
#    0.000    0.000    0.000    0.000    0.000    0.000 
#
# Total GULP energy -347157.153100 kJ/mol
# GULP energy per Si atom -12398.469754 kJ/mol
# Density = 2.050376 g / cm^3
# Si number density = 20.550531 Si / 1000 Ang^3
#
#
#
# Elastic Constant Matrix: (Units=GPa)
#
#
# Indices 1 2 3 4 5 6 
#
# 1 39.2201 30.1256 42.9966 -0.0045 6.6947 0.0016
# 2 30.1256 108.5424 22.1303 -0.0038 2.6212 -0.0013
# 3 42.9966 22.1303 148.4836 -0.0250 2.7298 0.0001
# 4 -0.0045 -0.0038 -0.0250 28.6323 -0.0028 -3.0137
# 5 6.6947 2.6212 2.7298 -0.0028 44.5775 0.0029
# 6 0.0016 -0.0013 0.0001 -3.0137 0.0029 27.7455
#
#
#
# Elastic Compliance Matrix: (Units=1/GPa)
#
#
# Indices 1 2 3 4 5 6 
#
# 1 0.048151 -0.010728 -0.012237 -0.000005 -0.005851 -0.000003
# 2 -0.010728 0.011902 0.001317 0.000001 0.000831 0.000001
# 3 -0.012237 0.001317 0.010061 0.000007 0.001144 0.000001
# 4 -0.000005 0.000001 0.000007 0.035329 0.000002 0.003838
# 5 -0.005851 0.000831 0.001144 0.000002 0.023193 -0.000002
# 6 -0.000003 0.000001 0.000001 0.003838 -0.000002 0.036459
#
#
# Mechanical properties :
#
#
# Convention : Reuss Voigt Hill
#
# Bulk Modulus (GPa) = 37.28672 54.08346 45.68509
# Shear Modulus (GPa) = 23.00655 33.59065 28.29860
#
# Velocity S-wave (km/s) = 3.34954 4.04733 3.71485
# Velocity P-wave (km/s) = 5.75695 6.94375 6.37801
#
# Compressibility (1/GPa) = 0.02681920
#
# Stress axis : x y z
#
# Youngs Moduli (GPa) = 20.76783 84.02052 99.39572
#
# Poissons Ratio (x) = 0.90137 1.21628
# Poissons Ratio (y) = 0.22280 -0.13094
# Poissons Ratio (z) = 0.25413 -0.11069
#
# Static dielectric constant tensor:
#      x y z
#    x 3.355800 -0.000010 -0.015380 
#    y -0.000010 3.831450 -0.000050 
#    z -0.015380 -0.000050 4.150150 
# 
# 
# High freq. dielectric constant tensor:
#      x y z
#    x 1.764980 0.000000 -0.000380 
#    y 0.000000 1.802660 0.000000 
#    z -0.000380 0.000000 1.828120 
# 
# From -- ./inp_files/309008.got.cif
#   From: 2010.06.25/outbox.cif.g09.slc.cpg/sg15_155_cif.got.tgz:309008.got - 2010.06.28 07:06:18.
