data_PCOD8143550
_publ_section_title
;
Structure prediction by ZEFSAII (Michael W. Deem and Ramdas Pophale) SiO2 
 PCOD8143550
Probable space group: C 2/C
;
_chemical_formula_sum "Si O2"
_cell_formula_units_Z 40
_cell_length_a 24.957153
_cell_length_b 6.943447
_cell_length_c 14.203755
_cell_angle_alpha 90.000000
_cell_angle_beta 139.979788
_cell_angle_gamma 90.000000
_cell_volume 1582.790198
_symmetry_space_group_name_H-M "C 2/C"
_symmetry_group_IT_number 15
_symmetry_cell_setting 'monoclinic'
loop_
_space_group_symop_operation_xyz
x,y,z
-x,y,1/2-z
-x,-y,-z
x,-y,1/2+z
1/2+x,1/2+y,z
1/2-x,1/2+y,1/2-z
1/2-x,1/2-y,-z
1/2+x,1/2-y,1/2+z
loop_
_atom_site_type_symbol
_atom_site_label
_atom_site_fract_x
_atom_site_fract_y
_atom_site_fract_z
Si Si1 0.906649 0.645203 0.131837
Si Si2 0.815993 0.027334 0.429992
Si Si3 0.588347 0.736660 0.310042
Si Si4 0.950436 0.148781 0.998220
Si Si5 0.870577 0.463427 0.779266
O O1 0.909162 0.415523 0.112448
O O2 0.868105 0.677308 0.184507
O O3 0.000000 0.730420 0.250000
O O4 0.847958 0.751981 0.977986
O O5 0.717445 0.023505 0.286368
O O6 0.845297 0.922234 0.567273
O O7 0.857367 0.930837 0.393819
O O8 0.494686 0.653687 0.162382
O O9 0.607318 0.820576 0.228592
O O10 0.939755 0.364092 0.940197
O O11 0.000000 0.000000 0.000000
#
# Coordination Sequence:
#
# PCOD8143550 Si02
#       5
#     8   8   8   8   8
#     4  10  21  40  70  97 128 176 231 270 327 412
#     4  12  23  45  69  99 138 177 227 283 343 401
#     4  10  24  44  71  94 132 179 240 267 333 414
#     4  12  25  45  68 101 142 182 223 280 348 409
#     4  10  25  43  66 103 137 171 223 291 342 391
#
# _framework density 25.271827999999999
#
# number of rings (size 3 to 8) (size 9 to 14) (size 15 to 20)
#    1.200    0.000    0.000    7.200    0.000    1.600 
#   10.800    0.000    0.000    0.000    0.000    0.000 
#    0.000    0.000    0.000    0.000    0.000    0.000 
#
# Total GULP energy -247853.316742 kJ/mol
# GULP energy per Si atom -12392.665837 kJ/mol
# Density = 2.521431 g / cm^3
# Si number density = 25.271828 Si / 1000 Ang^3
#
#
#
# Elastic Constant Matrix: (Units=GPa)
#
#
# Indices 1 2 3 4 5 6 
#
# 1 109.5657 12.0300 3.4305 0.0000 19.3623 0.0000
# 2 12.0300 102.4047 28.5322 0.0000 0.5160 0.0000
# 3 3.4305 28.5322 73.4756 0.0000 5.1434 0.0000
# 4 0.0000 0.0000 0.0000 38.5167 0.0000 -4.5134
# 5 19.3623 0.5160 5.1434 0.0000 40.4242 0.0000
# 6 0.0000 0.0000 0.0000 -4.5134 0.0000 31.8929
#
#
#
# Elastic Compliance Matrix: (Units=1/GPa)
#
#
# Indices 1 2 3 4 5 6 
#
# 1 0.010116 -0.001264 0.000360 0.000000 -0.004875 0.000000
# 2 -0.001264 0.011114 -0.004328 0.000000 0.001014 0.000000
# 3 0.000360 -0.004328 0.015419 0.000000 -0.002079 0.000000
# 4 0.000000 0.000000 0.000000 0.026401 0.000000 0.003736
# 5 -0.004875 0.001014 -0.002079 0.000000 0.027324 0.000000
# 6 0.000000 0.000000 0.000000 0.003736 0.000000 0.031884
#
#
# Mechanical properties :
#
#
# Convention : Reuss Voigt Hill
#
# Bulk Modulus (GPa) = 38.18935 41.49237 39.84086
# Shear Modulus (GPa) = 35.34791 38.26364 36.80578
#
# Velocity S-wave (km/s) = 3.74399 3.89534 3.82042
# Velocity P-wave (km/s) = 5.81671 6.05687 5.93801
#
# Compressibility (1/GPa) = 0.02618531
#
# Stress axis : x y z
#
# Youngs Moduli (GPa) = 98.85362 89.97321 64.85362
#
# Poissons Ratio (x) = 0.11373 -0.02333
# Poissons Ratio (y) = 0.12496 0.28068
# Poissons Ratio (z) = -0.03557 0.38940
#
# Static dielectric constant tensor:
#      x y z
#    x 4.433350 0.000000 0.007340 
#    y 0.000000 4.418820 0.000000 
#    z 0.007340 0.000000 4.029610 
# 
# 
# High freq. dielectric constant tensor:
#      x y z
#    x 2.018410 0.000000 0.003850 
#    y 0.000000 2.008490 0.000000 
#    z 0.003850 0.000000 1.981520 
# 
# From -- ./inp_files/172146.got.cif
#   From: 2010.06.25/outbox.cif.g09.slc.cpg/sg15_87_cif.got.tgz:172146.got - 2010.06.28 07:06:18.
