data_PCOD8143427
_publ_section_title
;
Structure prediction by ZEFSAII (Michael W. Deem and Ramdas Pophale) SiO2 
 PCOD8143427
Probable space group: C 2/C
;
_chemical_formula_sum "Si O2"
_cell_formula_units_Z 40
_cell_length_a 13.250971
_cell_length_b 19.577073
_cell_length_c 8.143154
_cell_angle_alpha 90.000000
_cell_angle_beta 53.761863
_cell_angle_gamma 90.000000
_cell_volume 1703.839060
_symmetry_space_group_name_H-M "C 2/C"
_symmetry_group_IT_number 15
_symmetry_cell_setting 'monoclinic'
loop_
_space_group_symop_operation_xyz
x,y,z
-x,y,1/2-z
-x,-y,-z
x,-y,1/2+z
1/2+x,1/2+y,z
1/2-x,1/2+y,1/2-z
1/2-x,1/2-y,-z
1/2+x,1/2-y,1/2+z
loop_
_atom_site_type_symbol
_atom_site_label
_atom_site_fract_x
_atom_site_fract_y
_atom_site_fract_z
Si Si1 0.391762 0.066282 0.457331
Si Si2 0.636541 0.413550 0.575335
Si Si3 0.957024 0.717349 0.465719
Si Si4 0.295283 0.724256 0.627253
Si Si5 0.758024 0.034799 0.194543
O O1 0.500000 0.028152 0.250000
O O2 0.449485 0.135457 0.476293
O O3 0.350909 0.017053 0.643202
O O4 0.283903 0.080564 0.421762
O O5 0.500000 0.387486 0.750000
O O6 0.697510 0.358304 0.393085
O O7 0.631938 0.485610 0.482702
O O8 0.705653 0.418521 0.685859
O O9 0.816884 0.745446 0.639677
O O10 0.000000 0.747173 0.250000
O O11 0.068871 0.742069 0.475993
O O12 0.250000 0.750000 0.500000
#
# Coordination Sequence:
#
# PCOD8143427 Si02
#       5
#     8   8   8   8   8
#     4  10  21  40  67 102 136 177 227 283 355 411
#     4  11  23  43  68 102 137 181 239 285 358 412
#     4  11  25  47  73 101 143 186 240 290 353 418
#     4  12  26  48  71 104 141 192 236 293 348 423
#     4  10  22  42  69 100 139 176 232 287 351 422
#
# _framework density 23.476396999999999
#
# number of rings (size 3 to 8) (size 9 to 14) (size 15 to 20)
#    0.000    1.200    2.000    3.600    5.600    0.000 
#    3.600    1.000    0.000    0.000    0.000    0.000 
#    0.000    0.000    0.000    0.000    0.000    0.000 
#
# Total GULP energy -247804.216857 kJ/mol
# GULP energy per Si atom -12390.210843 kJ/mol
# Density = 2.342296 g / cm^3
# Si number density = 23.476397 Si / 1000 Ang^3
#
#
#
# Elastic Constant Matrix: (Units=GPa)
#
#
# Indices 1 2 3 4 5 6 
#
# 1 129.4113 58.9207 27.6473 0.0000 -1.0878 0.0000
# 2 58.9207 89.2453 18.3773 0.0000 0.4598 0.0000
# 3 27.6473 18.3773 117.3834 0.0000 -17.1470 0.0000
# 4 0.0000 0.0000 0.0000 4.9285 0.0000 29.3869
# 5 -1.0878 0.4598 -17.1470 0.0000 46.1205 0.0000
# 6 0.0000 0.0000 0.0000 29.3869 0.0000 14.7598
#
#
#
# Elastic Compliance Matrix: (Units=1/GPa)
#
#
# Indices 1 2 3 4 5 6 
#
# 1 0.011316 -0.007144 -0.001583 0.000000 -0.000251 0.000000
# 2 -0.007144 0.016118 -0.000940 0.000000 -0.000679 0.000000
# 3 -0.001583 -0.000940 0.009554 0.000000 0.003524 0.000000
# 4 0.000000 0.000000 0.000000 -0.018663 0.000000 0.037159
# 5 -0.000251 -0.000679 0.003524 0.000000 0.022993 0.000000
# 6 0.000000 0.000000 0.000000 0.037159 0.000000 -0.006232
#
#
# Mechanical properties :
#
#
# Convention : Reuss Voigt Hill
#
# Bulk Modulus (GPa) = 56.64390 60.65893 58.65142
# Shear Modulus (GPa) = 82.91147 28.56808 55.73978
#
# Velocity S-wave (km/s) = 5.94925 3.49217 4.87796
# Velocity P-wave (km/s) = 8.44819 6.49267 7.53414
#
# Compressibility (1/GPa) = 0.01765415
#
# Stress axis : x y z
#
# Youngs Moduli (GPa) = 88.37103 62.04093 104.66815
#
# Poissons Ratio (x) = 0.44319 0.16574
# Poissons Ratio (y) = 0.63128 0.09840
# Poissons Ratio (z) = 0.13993 0.05832
#
# Static dielectric constant tensor:
#      x y z
#    x 4.368680 0.000000 -0.325700 
#    y 0.000000 4.618350 0.000000 
#    z -0.325700 0.000000 4.850230 
# 
# 
# High freq. dielectric constant tensor:
#      x y z
#    x 1.924740 0.000000 -0.000110 
#    y 0.000000 1.906940 0.000000 
#    z -0.000110 0.000000 1.951790 
# 
# From -- ./inp_files/40536.got.cif
#   From: 2010.06.25/outbox.cif.g09.slc.cpg/sg15_21_cif.got.tgz:40536.got - 2010.06.28 07:06:18.
