data_PCOD8143116
_publ_section_title
;
Structure prediction by ZEFSAII (Michael W. Deem and Ramdas Pophale) SiO2 
 PCOD8143116
Probable space group: C 2/C
;
_chemical_formula_sum "Si O2"
_cell_formula_units_Z 44
_cell_length_a 10.349567
_cell_length_b 12.422747
_cell_length_c 22.655446
_cell_angle_alpha 90.000000
_cell_angle_beta 50.133098
_cell_angle_gamma 90.000000
_cell_volume 2235.686724
_symmetry_space_group_name_H-M "C 2/C"
_symmetry_group_IT_number 15
_symmetry_cell_setting 'monoclinic'
loop_
_space_group_symop_operation_xyz
x,y,z
-x,y,1/2-z
-x,-y,-z
x,-y,1/2+z
1/2+x,1/2+y,z
1/2-x,1/2+y,1/2-z
1/2-x,1/2-y,-z
1/2+x,1/2-y,1/2+z
loop_
_atom_site_type_symbol
_atom_site_label
_atom_site_fract_x
_atom_site_fract_y
_atom_site_fract_z
Si Si1 0.879658 0.587970 0.561252
Si Si2 0.389839 0.297491 0.501639
Si Si3 0.000367 0.071782 0.869060
Si Si4 0.293219 0.606792 0.148637
Si Si5 0.203201 0.662288 0.791724
Si Si6 0.000000 0.434443 0.250000
O O1 0.970073 0.698595 0.514295
O O2 0.693332 0.576144 0.590707
O O3 0.863906 0.585320 0.636365
O O4 0.000000 0.500000 0.500000
O O5 0.250000 0.250000 0.500000
O O6 0.528068 0.359127 0.421495
O O7 0.308684 0.375216 0.574336
O O8 0.115403 0.121451 0.783858
O O9 0.041847 0.947426 0.870757
O O10 0.263410 0.716034 0.194845
O O11 0.151841 0.515398 0.193406
O O12 0.058460 0.647899 0.784564
#
# Coordination Sequence:
#
# PCOD8143116 Si02
#       6
#     8   8   8   8   8   4
#     4  10  22  39  62  93 124 164 210 263 318 386
#     4   9  20  35  61  87 117 162 209 248 314 390
#     4  10  21  40  62  92 123 166 207 264 320 380
#     4  10  22  40  63  89 125 168 204 270 319 383
#     4  10  23  42  61  95 124 164 219 258 319 386
#     4  10  24  40  66  90 130 166 210 270 322 380
#
# _framework density 19.680752999999999
#
# number of rings (size 3 to 8) (size 9 to 14) (size 15 to 20)
#    0.000    2.182    0.000    1.091   12.727    1.455 
#   13.091    1.818    0.000    0.000    0.000    0.000 
#    0.000    0.000    0.000    0.000    0.000    0.000 
#
# Total GULP energy -272576.772389 kJ/mol
# GULP energy per Si atom -12389.853290 kJ/mol
# Density = 1.963596 g / cm^3
# Si number density = 19.680753 Si / 1000 Ang^3
#
#
#
# Elastic Constant Matrix: (Units=GPa)
#
#
# Indices 1 2 3 4 5 6 
#
# 1 87.5974 30.0954 47.3081 0.0000 5.4652 0.0000
# 2 30.0954 92.1408 64.3075 0.0000 3.8401 0.0000
# 3 47.3081 64.3075 145.1076 -0.0001 21.9747 0.0000
# 4 0.0000 0.0000 -0.0001 33.5336 0.0000 3.0385
# 5 5.4652 3.8401 21.9747 0.0000 29.7648 0.0000
# 6 0.0000 0.0000 0.0000 3.0385 0.0000 24.6726
#
#
#
# Elastic Compliance Matrix: (Units=1/GPa)
#
#
# Indices 1 2 3 4 5 6 
#
# 1 0.014117 -0.001982 -0.003794 0.000000 0.000465 0.000000
# 2 -0.001982 0.016323 -0.007120 0.000000 0.003515 0.000000
# 3 -0.003794 -0.007120 0.012429 0.000000 -0.007561 0.000000
# 4 0.000000 0.000000 0.000000 0.030157 0.000000 -0.003714
# 5 0.000465 0.003515 -0.007561 0.000000 0.038640 0.000000
# 6 0.000000 0.000000 0.000000 -0.003714 0.000000 0.040988
#
#
# Mechanical properties :
#
#
# Convention : Reuss Voigt Hill
#
# Bulk Modulus (GPa) = 58.56183 67.58531 63.07357
# Shear Modulus (GPa) = 27.15337 29.80320 28.47829
#
# Velocity S-wave (km/s) = 3.71845 3.89566 3.80809
# Velocity P-wave (km/s) = 6.94668 7.39258 7.17310
#
# Compressibility (1/GPa) = 0.01707597
#
# Stress axis : x y z
#
# Youngs Moduli (GPa) = 70.83615 61.26299 80.45813
#
# Poissons Ratio (x) = 0.12143 0.30530
# Poissons Ratio (y) = 0.14040 0.57286
# Poissons Ratio (z) = 0.26879 0.43619
#
# Static dielectric constant tensor:
#      x y z
#    x 3.828810 0.000000 0.233220 
#    y 0.000000 -32.973590 0.000000 
#    z 0.233220 0.000000 3.959370 
# 
# 
# High freq. dielectric constant tensor:
#      x y z
#    x 1.759080 0.000000 0.017440 
#    y 0.000000 1.774850 0.000000 
#    z 0.017440 0.000000 1.778020 
# 
# From -- ./inp_files/142217.got.cif
#   From: 2010.06.25/outbox.cif.g09.slc.cpg/sg15_72_cif.got.tgz:142217.got - 2010.06.28 07:06:18.
