data_PCOD8143283
_publ_section_title
;
Structure prediction by ZEFSAII (Michael W. Deem and Ramdas Pophale) SiO2 
 PCOD8143283
Probable space group: C 2/C
;
_chemical_formula_sum "Si O2"
_cell_formula_units_Z 40
_cell_length_a 11.089638
_cell_length_b 14.292180
_cell_length_c 15.098357
_cell_angle_alpha 90.000000
_cell_angle_beta 38.212775
_cell_angle_gamma 90.000000
_cell_volume 1480.280227
_symmetry_space_group_name_H-M "C 2/C"
_symmetry_group_IT_number 15
_symmetry_cell_setting 'monoclinic'
loop_
_space_group_symop_operation_xyz
x,y,z
-x,y,1/2-z
-x,-y,-z
x,-y,1/2+z
1/2+x,1/2+y,z
1/2-x,1/2+y,1/2-z
1/2-x,1/2-y,-z
1/2+x,1/2-y,1/2+z
loop_
_atom_site_type_symbol
_atom_site_label
_atom_site_fract_x
_atom_site_fract_y
_atom_site_fract_z
Si Si1 0.278314 0.884802 0.354682
Si Si2 0.298771 0.416433 0.906688
Si Si3 0.717547 0.908293 0.659062
Si Si4 0.901261 0.702991 0.112027
Si Si5 0.687518 0.629085 0.584514
O O1 0.500000 0.859796 0.250000
O O2 0.168982 0.890475 0.510649
O O3 0.174759 0.808304 0.353707
O O4 0.245535 0.985734 0.326971
O O5 0.500000 0.383949 0.750000
O O6 0.125284 0.356391 0.962725
O O7 0.251166 0.525761 0.918242
O O8 0.500000 0.907356 0.750000
O O9 0.736580 0.839534 0.731148
O O10 0.857473 0.877605 0.495830
O O11 0.131596 0.700387 0.004278
O O12 0.500000 0.665802 0.750000
#
# Coordination Sequence:
#
# PCOD8143283 Si02
#       5
#     8   8   8   8   8
#     4  10  21  40  66 104 142 173 221 286 343 404
#     4  10  21  40  65 102 139 171 222 287 346 407
#     4   8  18  38  64  97 137 177 224 280 340 407
#     4  11  20  36  67 102 136 182 226 278 343 405
#     4   9  19  38  63  95 136 181 229 277 334 409
#
# _framework density 27.021909000000001
#
# number of rings (size 3 to 8) (size 9 to 14) (size 15 to 20)
#    0.000    2.400    0.000    3.000    0.000    0.000 
#    0.000   13.000    0.000    7.200    0.000   95.200 
#    0.000    3.200    0.000    0.000    0.000    0.000 
#
# Total GULP energy -247986.020048 kJ/mol
# GULP energy per Si atom -12399.301002 kJ/mol
# Density = 2.696041 g / cm^3
# Si number density = 27.021909 Si / 1000 Ang^3
#
#
#
# Elastic Constant Matrix: (Units=GPa)
#
#
# Indices 1 2 3 4 5 6 
#
# 1 80.9918 84.4602 32.2277 0.0026 -7.2590 0.0002
# 2 84.4602 177.0399 61.6642 0.0045 3.0794 0.0008
# 3 32.2277 61.6642 172.1542 0.0069 -2.6190 0.0027
# 4 0.0026 0.0045 0.0069 4.5442 -0.0008 -4.9735
# 5 -7.2590 3.0794 -2.6190 -0.0008 45.6718 -0.0019
# 6 0.0002 0.0008 0.0027 -4.9735 -0.0019 55.0317
#
#
#
# Elastic Compliance Matrix: (Units=1/GPa)
#
#
# Indices 1 2 3 4 5 6 
#
# 1 0.025642 -0.012193 -0.000359 -0.000001 0.004877 0.000000
# 2 -0.012193 0.012266 -0.002155 -0.000003 -0.002889 0.000000
# 3 -0.000359 -0.002155 0.006655 -0.000009 0.000470 -0.000001
# 4 -0.000001 -0.000003 -0.000009 0.244217 0.000005 0.022071
# 5 0.004877 -0.002889 0.000470 0.000005 0.022892 0.000001
# 6 0.000000 0.000000 -0.000001 0.022071 0.000001 0.020166
#
#
# Mechanical properties :
#
#
# Convention : Reuss Voigt Hill
#
# Bulk Modulus (GPa) = 66.00746 87.43222 76.71984
# Shear Modulus (GPa) = 13.65000 37.83847 25.74423
#
# Velocity S-wave (km/s) = 2.24998 3.74610 3.08996
# Velocity P-wave (km/s) = 5.58841 7.15104 6.41746
#
# Compressibility (1/GPa) = 0.01514980
#
# Stress axis : x y z
#
# Youngs Moduli (GPa) = 38.99920 81.52588 150.26408
#
# Poissons Ratio (x) = 0.99402 0.05389
# Poissons Ratio (y) = 0.47550 0.32382
# Poissons Ratio (z) = 0.01399 0.17569
#
# Static dielectric constant tensor:
#      x y z
#    x 4.680080 0.000000 0.238860 
#    y 0.000000 5.050580 0.000000 
#    z 0.238860 0.000000 5.492130 
# 
# 
# High freq. dielectric constant tensor:
#      x y z
#    x 2.078330 0.000000 0.001070 
#    y 0.000000 2.102340 0.000000 
#    z 0.001070 0.000000 2.092940 
# 
# From -- ./inp_files/143299.got.cif
#   From: 2010.06.25/outbox.cif.g09.slc.cpg/sg15_72_cif.got.tgz:143299.got - 2010.06.28 07:06:18.
