data_PCOD8143383
_publ_section_title
;
Structure prediction by ZEFSAII (Michael W. Deem and Ramdas Pophale) SiO2 
 PCOD8143383
Probable space group: C 2/C
;
_chemical_formula_sum "Si O2"
_cell_formula_units_Z 64
_cell_length_a 15.575865
_cell_length_b 31.239514
_cell_length_c 8.989621
_cell_angle_alpha 90.000000
_cell_angle_beta 46.808693
_cell_angle_gamma 90.000000
_cell_volume 3189.102887
_symmetry_space_group_name_H-M "C 2/C"
_symmetry_group_IT_number 15
_symmetry_cell_setting 'monoclinic'
loop_
_space_group_symop_operation_xyz
x,y,z
-x,y,1/2-z
-x,-y,-z
x,-y,1/2+z
1/2+x,1/2+y,z
1/2-x,1/2+y,1/2-z
1/2-x,1/2-y,-z
1/2+x,1/2-y,1/2+z
loop_
_atom_site_type_symbol
_atom_site_label
_atom_site_fract_x
_atom_site_fract_y
_atom_site_fract_z
Si Si1 0.889352 0.394137 0.990211
Si Si2 0.020958 0.824013 0.558814
Si Si3 0.307352 0.458713 0.342171
Si Si4 0.515100 0.953573 0.056215
Si Si5 0.728655 0.458010 0.784343
Si Si6 0.620269 0.717886 0.520070
Si Si7 0.261000 0.806503 0.126131
Si Si8 0.991939 0.077082 0.091895
O O1 0.000000 0.396486 0.750000
O O2 0.776322 0.417641 0.057211
O O3 0.848239 0.345390 0.063314
O O4 0.922707 0.418272 0.104516
O O5 0.144815 0.804563 0.363677
O O6 0.000000 0.807993 0.750000
O O7 0.909620 0.809449 0.591337
O O8 0.035425 0.874711 0.531669
O O9 0.329484 0.469473 0.488304
O O10 0.245501 0.498644 0.337442
O O11 0.430029 0.450886 0.112740
O O12 0.500000 0.957768 0.250000
O O13 0.643960 0.935639 0.858009
O O14 0.500000 0.000000 0.000000
O O15 0.643092 0.426320 0.797224
O O16 0.500000 0.724773 0.750000
O O17 0.667719 0.764053 0.417658
O O18 0.718266 0.692950 0.503556
O O19 0.000000 0.059090 0.250000
#
# Coordination Sequence:
#
# PCOD8143383 Si02
#       8
#     8   8   8   8   8   8   8   8
#     4  12  24  41  64  94 124 166 218 262 321 383
#     4  10  22  38  62  95 128 164 205 259 323 379
#     4  12  24  41  63  90 124 165 211 270 312 378
#     4  12  25  41  62  88 124 167 217 266 318 381
#     4  12  25  40  63  89 122 167 212 263 319 369
#     4   9  20  39  65  96 126 164 207 258 317 385
#     4  10  21  40  66  91 129 167 208 262 315 384
#     4  11  25  42  63  92 128 165 212 265 318 377
#
# _framework density 20.068339999999999
#
# number of rings (size 3 to 8) (size 9 to 14) (size 15 to 20)
#    0.000    1.000    3.750    3.000    3.500    1.500 
#    0.000    0.625    0.000    0.000    0.000    0.000 
#    0.000    0.000    0.000    0.000    0.000    0.000 
#
# Total GULP energy -396851.889704 kJ/mol
# GULP energy per Si atom -12401.621553 kJ/mol
# Density = 2.002266 g / cm^3
# Si number density = 20.068340 Si / 1000 Ang^3
#
#
#
# Elastic Constant Matrix: (Units=GPa)
#
#
# Indices 1 2 3 4 5 6 
#
# 1 108.8967 31.7105 52.9638 0.0000 11.3521 0.0000
# 2 31.7105 76.6801 25.0556 0.0000 7.7504 0.0000
# 3 52.9638 25.0556 94.3549 0.0000 21.2224 0.0000
# 4 0.0000 0.0000 0.0000 30.5149 0.0000 -7.6856
# 5 11.3521 7.7504 21.2224 0.0000 44.5443 0.0000
# 6 0.0000 0.0000 0.0000 -7.6856 0.0000 37.3080
#
#
#
# Elastic Compliance Matrix: (Units=1/GPa)
#
#
# Indices 1 2 3 4 5 6 
#
# 1 0.013389 -0.003385 -0.006699 0.000000 0.000369 0.000000
# 2 -0.003385 0.015159 -0.001933 0.000000 -0.000854 0.000000
# 3 -0.006699 -0.001933 0.016142 0.000000 -0.005647 0.000000
# 4 0.000000 0.000000 0.000000 0.034564 0.000000 0.007120
# 5 0.000369 -0.000854 -0.005647 0.000000 0.025195 0.000000
# 6 0.000000 0.000000 0.000000 0.007120 0.000000 0.028271
#
#
# Mechanical properties :
#
#
# Convention : Reuss Voigt Hill
#
# Bulk Modulus (GPa) = 48.41538 55.48794 51.95166
# Shear Modulus (GPa) = 30.55487 33.82023 32.18755
#
# Velocity S-wave (km/s) = 3.90621 4.10964 4.00921
# Velocity P-wave (km/s) = 6.67250 7.08720 6.88297
#
# Compressibility (1/GPa) = 0.02065459
#
# Stress axis : x y z
#
# Youngs Moduli (GPa) = 74.68996 65.96721 61.94875
#
# Poissons Ratio (x) = 0.22330 0.41502
# Poissons Ratio (y) = 0.25282 0.11977
# Poissons Ratio (z) = 0.50038 0.12754
#
# Static dielectric constant tensor:
#      x y z
#    x 3.864490 0.000000 0.013610 
#    y 0.000000 3.479210 0.000000 
#    z 0.013610 0.000000 3.681310 
# 
# 
# High freq. dielectric constant tensor:
#      x y z
#    x 1.795120 0.000000 -0.005770 
#    y 0.000000 1.770890 0.000000 
#    z -0.005770 0.000000 1.788410 
# 
# From -- ./inp_files/44849.got.cif
#   From: 2010.06.25/outbox.cif.g09.slc.cpg/sg15_23_cif.got.tgz:44849.got - 2010.06.28 07:06:18.
