data_PCOD8143539
_publ_section_title
;
Structure prediction by ZEFSAII (Michael W. Deem and Ramdas Pophale) SiO2 
 PCOD8143539
Probable space group: C 2/C
;
_chemical_formula_sum "Si O2"
_cell_formula_units_Z 48
_cell_length_a 11.840930
_cell_length_b 13.703280
_cell_length_c 19.127895
_cell_angle_alpha 90.000000
_cell_angle_beta 129.467221
_cell_angle_gamma 90.000000
_cell_volume 2396.008066
_symmetry_space_group_name_H-M "C 2/C"
_symmetry_group_IT_number 15
_symmetry_cell_setting 'monoclinic'
loop_
_space_group_symop_operation_xyz
x,y,z
-x,y,1/2-z
-x,-y,-z
x,-y,1/2+z
1/2+x,1/2+y,z
1/2-x,1/2+y,1/2-z
1/2-x,1/2-y,-z
1/2+x,1/2-y,1/2+z
loop_
_atom_site_type_symbol
_atom_site_label
_atom_site_fract_x
_atom_site_fract_y
_atom_site_fract_z
Si Si1 0.435462 0.472227 0.115349
Si Si2 0.229218 0.958849 0.309929
Si Si3 0.836272 0.663961 0.356059
Si Si4 0.144492 0.186600 0.411320
Si Si5 0.618390 0.712287 0.994781
Si Si6 0.835891 0.749820 0.830190
O O1 0.603147 0.488037 0.205008
O O2 0.341115 0.432300 0.143002
O O3 0.367617 0.575605 0.064106
O O4 0.431520 0.394448 0.050910
O O5 0.319714 0.865903 0.322416
O O6 0.346900 0.046527 0.359255
O O7 0.703816 0.690357 0.356021
O O8 0.800278 0.704006 0.264937
O O9 0.988291 0.708986 0.441082
O O10 0.250000 0.250000 0.500000
O O11 0.984737 0.232038 0.347600
O O12 0.750000 0.750000 0.000000
O O13 0.666483 0.702456 0.093943
#
# Coordination Sequence:
#
# PCOD8143539 Si02
#       6
#     8   8   8   8   8   8
#     4  10  21  41  66  95 131 172 216 257 335 396
#     4  10  21  40  70  90 128 184 209 256 331 397
#     4  11  24  44  67  95 133 170 222 266 320 396
#     4  11  23  43  69  99 126 171 219 274 324 386
#     4  12  25  41  68 100 131 170 218 276 322 386
#     4  12  23  41  69  95 131 169 220 267 325 380
#
# _framework density 20.033321999999998
#
# number of rings (size 3 to 8) (size 9 to 14) (size 15 to 20)
#    0.000    1.000    6.667    0.500    0.000    3.333 
#    3.000    0.000    3.667    0.000    0.000    0.000 
#    0.000    0.000    0.000    0.000    0.000    0.000 
#
# Total GULP energy -297681.572789 kJ/mol
# GULP energy per Si atom -12403.398866 kJ/mol
# Density = 1.998773 g / cm^3
# Si number density = 20.033322 Si / 1000 Ang^3
#
#
#
# Elastic Constant Matrix: (Units=GPa)
#
#
# Indices 1 2 3 4 5 6 
#
# 1 94.4991 41.8880 17.4675 0.0000 0.2585 0.0000
# 2 41.8880 141.4271 34.0438 0.0000 -6.4649 0.0000
# 3 17.4675 34.0438 78.7603 0.0000 -22.3117 0.0000
# 4 0.0000 0.0000 0.0000 37.9754 0.0000 5.1642
# 5 0.2585 -6.4649 -22.3117 0.0000 30.6616 0.0000
# 6 0.0000 0.0000 0.0000 5.1642 0.0000 35.2805
#
#
#
# Elastic Compliance Matrix: (Units=1/GPa)
#
#
# Indices 1 2 3 4 5 6 
#
# 1 0.012416 -0.003309 -0.001953 0.000000 -0.002224 0.000000
# 2 -0.003309 0.008800 -0.003195 0.000000 -0.000442 0.000000
# 3 -0.001953 -0.003195 0.018044 0.000000 0.012473 0.000000
# 4 0.000000 0.000000 0.000000 0.026868 0.000000 -0.003933
# 5 -0.002224 -0.000442 0.012473 0.000000 0.041616 0.000000
# 6 0.000000 0.000000 0.000000 -0.003933 0.000000 0.028920
#
#
# Mechanical properties :
#
#
# Convention : Reuss Voigt Hill
#
# Bulk Modulus (GPa) = 44.75074 55.72058 50.23566
# Shear Modulus (GPa) = 31.05076 35.53599 33.29337
#
# Velocity S-wave (km/s) = 3.94122 4.21627 4.08106
# Velocity P-wave (km/s) = 6.56488 7.18171 6.88021
#
# Compressibility (1/GPa) = 0.02234600
#
# Stress axis : x y z
#
# Youngs Moduli (GPa) = 80.54170 113.64071 55.41858
#
# Poissons Ratio (x) = 0.37602 0.10825
# Poissons Ratio (y) = 0.26650 0.17706
# Poissons Ratio (z) = 0.15733 0.36307
#
# Static dielectric constant tensor:
#      x y z
#    x 3.648280 0.000000 -0.017820 
#    y 0.000000 3.713850 0.000000 
#    z -0.017820 0.000000 3.750980 
# 
# 
# High freq. dielectric constant tensor:
#      x y z
#    x 1.775700 0.000000 -0.000050 
#    y 0.000000 1.792590 0.000000 
#    z -0.000050 0.000000 1.783020 
# 
# From -- ./inp_files/237405.got.cif
#   From: 2010.06.25/outbox.cif.g09.slc.cpg/sg15_119_cif.got.tgz:237405.got - 2010.06.28 07:06:18.
