data_PCOD8143540
_publ_section_title
;
Structure prediction by ZEFSAII (Michael W. Deem and Ramdas Pophale) SiO2 
 PCOD8143540
Probable space group: C 2/C
;
_chemical_formula_sum "Si O2"
_cell_formula_units_Z 64
_cell_length_a 12.426913
_cell_length_b 28.341592
_cell_length_c 17.267524
_cell_angle_alpha 90.000000
_cell_angle_beta 31.724994
_cell_angle_gamma 90.000000
_cell_volume 3197.963164
_symmetry_space_group_name_H-M "C 2/C"
_symmetry_group_IT_number 15
_symmetry_cell_setting 'monoclinic'
loop_
_space_group_symop_operation_xyz
x,y,z
-x,y,1/2-z
-x,-y,-z
x,-y,1/2+z
1/2+x,1/2+y,z
1/2-x,1/2+y,1/2-z
1/2-x,1/2-y,-z
1/2+x,1/2-y,1/2+z
loop_
_atom_site_type_symbol
_atom_site_label
_atom_site_fract_x
_atom_site_fract_y
_atom_site_fract_z
Si Si1 0.684690 0.702491 0.577269
Si Si2 0.948194 0.858697 0.117497
Si Si3 0.178981 0.469234 0.086952
Si Si4 0.260743 0.132737 0.909787
Si Si5 0.040818 0.451455 0.432999
Si Si6 0.497942 0.547890 0.844373
Si Si7 0.207190 0.202546 0.076336
Si Si8 0.551084 0.151916 0.963195
O O1 0.500000 0.708561 0.750000
O O2 0.750000 0.750000 0.500000
O O3 0.609506 0.679629 0.544052
O O4 0.871356 0.674111 0.503434
O O5 0.896006 0.850545 0.060110
O O6 0.072658 0.905429 0.067911
O O7 0.732608 0.853392 0.291749
O O8 0.273160 0.423544 0.070704
O O9 0.000000 0.492175 0.250000
O O10 0.091734 0.447479 0.062166
O O11 0.355772 0.505843 0.959740
O O12 0.500000 0.145859 0.750000
O O13 0.181252 0.158009 0.035569
O O14 0.273652 0.458176 0.264898
O O15 0.985470 0.403637 0.516350
O O16 0.000000 0.500000 0.500000
O O17 0.500000 0.554079 0.750000
O O18 0.000000 0.211600 0.250000
O O19 0.250000 0.250000 0.000000
O O20 0.382284 0.187658 0.031058
#
# Coordination Sequence:
#
# PCOD8143540 Si02
#       8
#     8   8   8   8   8   8   8   8
#     4  10  23  41  66  90 120 162 208 259 316 378
#     4  10  21  40  70  91 122 169 219 258 322 382
#     4  11  23  38  61  94 134 166 212 270 331 381
#     4  11  21  43  67  90 128 168 210 271 325 382
#     4  11  21  38  65  94 124 171 214 271 314 375
#     4  11  21  38  65  91 124 174 223 252 317 395
#     4  12  27  42  67  99 129 167 215 266 333 388
#     4  10  21  43  66  93 129 165 218 262 315 390
#
# _framework density 20.012739
#
# number of rings (size 3 to 8) (size 9 to 14) (size 15 to 20)
#    0.000    1.250    3.750    4.500    1.750    4.500 
#    0.000    0.625    0.000    0.000    0.000    0.000 
#    0.000    0.000    0.000    0.000    0.000    0.000 
#
# Total GULP energy -396458.772653 kJ/mol
# GULP energy per Si atom -12389.336645 kJ/mol
# Density = 1.996719 g / cm^3
# Si number density = 20.012739 Si / 1000 Ang^3
#
#
#
# Elastic Constant Matrix: (Units=GPa)
#
#
# Indices 1 2 3 4 5 6 
#
# 1 143.5454 60.6660 38.8427 0.0034 -13.3228 -0.0003
# 2 60.6660 138.0770 56.8268 -0.0075 -14.7169 0.0014
# 3 38.8427 56.8268 75.1980 0.0523 -5.7739 -0.0121
# 4 0.0034 -0.0075 0.0523 26.5455 -0.0273 1.1431
# 5 -13.3228 -14.7169 -5.7739 -0.0273 28.0136 0.0028
# 6 -0.0003 0.0014 -0.0121 1.1431 0.0028 35.6406
#
#
#
# Elastic Compliance Matrix: (Units=1/GPa)
#
#
# Indices 1 2 3 4 5 6 
#
# 1 0.008980 -0.002700 -0.002418 0.000005 0.002354 -0.000001
# 2 -0.002700 0.011771 -0.007239 0.000022 0.003408 -0.000004
# 3 -0.002418 -0.007239 0.019953 -0.000042 -0.000840 0.000008
# 4 0.000005 0.000022 -0.000042 0.037723 0.000042 -0.001210
# 5 0.002354 0.003408 -0.000840 0.000042 0.038434 -0.000005
# 6 -0.000001 -0.000004 0.000008 -0.001210 -0.000005 0.028097
#
#
# Mechanical properties :
#
#
# Convention : Reuss Voigt Hill
#
# Bulk Modulus (GPa) = 62.53414 74.38794 68.46104
# Shear Modulus (GPa) = 28.57114 31.40559 29.98836
#
# Velocity S-wave (km/s) = 3.78252 3.96571 3.87520
# Velocity P-wave (km/s) = 7.09871 7.63021 7.36925
#
# Compressibility (1/GPa) = 0.01599126
#
# Stress axis : x y z
#
# Youngs Moduli (GPa) = 111.35766 84.95434 50.11712
#
# Poissons Ratio (x) = 0.22934 0.12117
# Poissons Ratio (y) = 0.30061 0.36281
# Poissons Ratio (z) = 0.26924 0.61500
#
# Static dielectric constant tensor:
#      x y z
#    x 4.071350 0.000080 -0.147470 
#    y 0.000080 4.240600 -0.000100 
#    z -0.147470 -0.000100 3.475740 
# 
# 
# High freq. dielectric constant tensor:
#      x y z
#    x 1.800800 0.000000 -0.010520 
#    y 0.000000 1.794130 0.000000 
#    z -0.010520 0.000000 1.750460 
# 
# From -- ./inp_files/201451.got.cif
#   From: 2010.06.25/outbox.cif.g09.slc.cpg/sg15_101_cif.got.tgz:201451.got - 2010.06.28 07:06:18.
