data_PCOD8143580
_publ_section_title
;
Structure prediction by ZEFSAII (Michael W. Deem and Ramdas Pophale) SiO2 
 PCOD8143580
Probable space group: C 2/C
;
_chemical_formula_sum "Si O2"
_cell_formula_units_Z 48
_cell_length_a 16.833958
_cell_length_b 25.480858
_cell_length_c 10.018767
_cell_angle_alpha 90.000000
_cell_angle_beta 147.806913
_cell_angle_gamma 90.000000
_cell_volume 2289.590049
_symmetry_space_group_name_H-M "C 2/C"
_symmetry_group_IT_number 15
_symmetry_cell_setting 'monoclinic'
loop_
_space_group_symop_operation_xyz
x,y,z
-x,y,1/2-z
-x,-y,-z
x,-y,1/2+z
1/2+x,1/2+y,z
1/2-x,1/2+y,1/2-z
1/2-x,1/2-y,-z
1/2+x,1/2-y,1/2+z
loop_
_atom_site_type_symbol
_atom_site_label
_atom_site_fract_x
_atom_site_fract_y
_atom_site_fract_z
Si Si1 0.709590 0.486990 0.430133
Si Si2 0.969827 0.340692 0.515172
Si Si3 0.658942 0.201624 0.920094
Si Si4 0.000000 0.427330 0.750000
Si Si5 0.608127 0.549383 0.059086
Si Si6 0.500000 0.745558 0.750000
Si Si7 0.286756 0.341160 0.863866
O O1 0.873305 0.462259 0.640270
O O2 0.701887 0.541307 0.330990
O O3 0.675907 0.491067 0.541508
O O4 0.568685 0.456387 0.164119
O O5 0.978919 0.282406 0.591470
O O6 0.136776 0.358417 0.721918
O O7 0.867187 0.338916 0.238523
O O8 0.909817 0.387801 0.522338
O O9 0.500000 0.221141 0.750000
O O10 0.750000 0.250000 0.000000
O O11 0.758723 0.174799 0.172438
O O12 0.614612 0.607087 0.004946
O O13 0.358685 0.706132 0.553013
#
# Coordination Sequence:
#
# PCOD8143580 Si02
#       7
#     8   8   8   4   8   4   8
#     4  10  22  42  65  90 129 158 213 272 322 381
#     4  10  22  38  58  94 126 160 210 259 308 380
#     4  10  21  41  57  83 126 162 204 254 310 372
#     4  11  22  40  64  94 124 158 214 275 316 376
#     4  10  22  43  65  91 124 170 212 262 326 389
#     4  11  20  34  64  88 128 160 210 249 310 360
#     4  11  21  38  64  88 122 170 208 255 314 377
#
# _framework density 20.964452000000001
#
# number of rings (size 3 to 8) (size 9 to 14) (size 15 to 20)
#    0.000    1.667    3.333    1.500    0.000    2.000 
#    7.500    0.000    0.000    0.000    0.000    0.000 
#    0.000    0.000    0.000    0.000    0.000    0.000 
#
# Total GULP energy -297316.481072 kJ/mol
# GULP energy per Si atom -12388.186711 kJ/mol
# Density = 2.091674 g / cm^3
# Si number density = 20.964452 Si / 1000 Ang^3
#
#
#
# Elastic Constant Matrix: (Units=GPa)
#
#
# Indices 1 2 3 4 5 6 
#
# 1 80.6898 8.0631 13.4855 0.0000 -1.8886 0.0000
# 2 8.0631 60.0684 4.4274 0.0000 6.6202 0.0000
# 3 13.4855 4.4274 62.5666 0.0000 -0.6681 0.0000
# 4 0.0000 0.0000 0.0000 10.6348 0.0000 3.5849
# 5 -1.8886 6.6202 -0.6681 0.0000 32.5167 0.0000
# 6 0.0000 0.0000 0.0000 3.5849 0.0000 28.6114
#
#
#
# Elastic Compliance Matrix: (Units=1/GPa)
#
#
# Indices 1 2 3 4 5 6 
#
# 1 0.013032 -0.001667 -0.002680 0.000000 0.001041 0.000000
# 2 -0.001667 0.017340 -0.000907 0.000000 -0.003646 0.000000
# 3 -0.002680 -0.000907 0.016629 0.000000 0.000371 0.000000
# 4 0.000000 0.000000 0.000000 0.098178 0.000000 -0.012301
# 5 0.001041 -0.003646 0.000371 0.000000 0.031564 0.000000
# 6 0.000000 0.000000 0.000000 -0.012301 0.000000 0.036492
#
#
# Mechanical properties :
#
#
# Convention : Reuss Voigt Hill
#
# Bulk Modulus (GPa) = 27.40149 28.36411 27.88280
# Shear Modulus (GPa) = 21.19491 26.17583 23.68537
#
# Velocity S-wave (km/s) = 3.18306 3.53736 3.36488
# Velocity P-wave (km/s) = 5.15829 5.49935 5.33155
#
# Compressibility (1/GPa) = 0.03649436
#
# Stress axis : x y z
#
# Youngs Moduli (GPa) = 76.73466 57.67007 60.13703
#
# Poissons Ratio (x) = 0.09611 0.16116
# Poissons Ratio (y) = 0.12788 0.05453
# Poissons Ratio (z) = 0.20564 0.05229
#
# Static dielectric constant tensor:
#      x y z
#    x 3.990990 0.000000 -0.171090 
#    y 0.000000 3.115040 0.000000 
#    z -0.171090 0.000000 3.774770 
# 
# 
# High freq. dielectric constant tensor:
#      x y z
#    x 1.828260 0.000000 -0.007610 
#    y 0.000000 1.803370 0.000000 
#    z -0.007610 0.000000 1.821200 
# 
# From -- ./inp_files/108152.got.cif
#   From: 2010.06.25/outbox.cif.g09.slc.cpg/sg15_55_cif.got.tgz:108152.got - 2010.06.28 07:06:18.
