data_PCOD8143566
_publ_section_title
;
Structure prediction by ZEFSAII (Michael W. Deem and Ramdas Pophale) SiO2 
 PCOD8143566
Probable space group: C 2/C
;
_chemical_formula_sum "Si O2"
_cell_formula_units_Z 40
_cell_length_a 8.478428
_cell_length_b 22.606800
_cell_length_c 11.104946
_cell_angle_alpha 90.000000
_cell_angle_beta 54.572564
_cell_angle_gamma 90.000000
_cell_volume 1734.397812
_symmetry_space_group_name_H-M "C 2/C"
_symmetry_group_IT_number 15
_symmetry_cell_setting 'monoclinic'
loop_
_space_group_symop_operation_xyz
x,y,z
-x,y,1/2-z
-x,-y,-z
x,-y,1/2+z
1/2+x,1/2+y,z
1/2-x,1/2+y,1/2-z
1/2-x,1/2-y,-z
1/2+x,1/2-y,1/2+z
loop_
_atom_site_type_symbol
_atom_site_label
_atom_site_fract_x
_atom_site_fract_y
_atom_site_fract_z
Si Si1 0.441622 0.568022 0.907235
Si Si2 0.284303 0.849781 0.548501
Si Si3 0.985588 0.753309 0.618849
Si Si4 0.802511 0.467247 0.399159
Si Si5 0.722864 0.153199 0.180667
O O1 0.500000 0.591901 0.750000
O O2 0.638515 0.541346 0.872395
O O3 0.276259 0.516970 0.973339
O O4 0.357617 0.620898 0.024528
O O5 0.462136 0.803127 0.486370
O O6 0.349675 0.906387 0.445472
O O7 0.224500 0.871748 0.708496
O O8 0.123411 0.811695 0.547510
O O9 0.777526 0.776635 0.664122
O O10 0.000000 0.730962 0.750000
O O11 0.000000 0.490354 0.250000
O O12 0.500000 0.144140 0.250000
#
# Coordination Sequence:
#
# PCOD8143566 Si02
#       5
#     8   8   8   8   8
#     4  11  27  45  65 103 145 178 226 287 353 413
#     4  10  21  40  72  96 132 177 237 282 329 407
#     4   9  19  40  67 100 132 175 233 282 334 399
#     4  11  25  43  73 100 130 185 235 285 338 410
#     4  11  24  43  68 103 143 182 222 287 353 407
#
# _framework density 23.062760000000001
#
# number of rings (size 3 to 8) (size 9 to 14) (size 15 to 20)
#    0.000    1.600    2.000    1.200    8.400    1.600 
#    0.000    1.000    0.000    0.000    0.000    0.000 
#    0.000    0.000    0.000    0.000    0.000    0.000 
#
# Total GULP energy -247875.707381 kJ/mol
# GULP energy per Si atom -12393.785369 kJ/mol
# Density = 2.301027 g / cm^3
# Si number density = 23.062760 Si / 1000 Ang^3
#
#
#
# Elastic Constant Matrix: (Units=GPa)
#
#
# Indices 1 2 3 4 5 6 
#
# 1 75.1582 29.2020 39.3336 0.0000 -18.2169 0.0000
# 2 29.2020 100.4123 61.4825 0.0000 3.5327 0.0000
# 3 39.3336 61.4825 164.0813 0.0000 -6.6566 0.0000
# 4 0.0000 0.0000 0.0000 37.9233 0.0000 -7.9919
# 5 -18.2169 3.5327 -6.6566 0.0000 33.1368 0.0000
# 6 0.0000 0.0000 0.0000 -7.9919 0.0000 20.5813
#
#
#
# Elastic Compliance Matrix: (Units=1/GPa)
#
#
# Indices 1 2 3 4 5 6 
#
# 1 0.018761 -0.004307 -0.002466 0.000000 0.010277 0.000000
# 2 -0.004307 0.014100 -0.004444 0.000000 -0.004764 0.000000
# 3 -0.002466 -0.004444 0.008384 0.000000 0.000802 0.000000
# 4 0.000000 0.000000 0.000000 0.028719 0.000000 0.011152
# 5 0.010277 -0.004764 0.000802 0.000000 0.036497 0.000000
# 6 0.000000 0.000000 0.000000 0.011152 0.000000 0.052918
#
#
# Mechanical properties :
#
#
# Convention : Reuss Voigt Hill
#
# Bulk Modulus (GPa) = 53.16691 66.63202 59.89947
# Shear Modulus (GPa) = 26.58378 32.30385 29.44381
#
# Velocity S-wave (km/s) = 3.39878 3.74664 3.57695
# Velocity P-wave (km/s) = 6.20528 6.90440 6.56416
#
# Compressibility (1/GPa) = 0.01880869
#
# Stress axis : x y z
#
# Youngs Moduli (GPa) = 53.30298 70.91974 119.28049
#
# Poissons Ratio (x) = 0.30548 0.29419
# Poissons Ratio (y) = 0.22960 0.53011
# Poissons Ratio (z) = 0.13146 0.31518
#
# Static dielectric constant tensor:
#      x y z
#    x 4.118120 0.000000 -0.307220 
#    y 0.000000 4.058440 0.000000 
#    z -0.307220 0.000000 4.218630 
# 
# 
# High freq. dielectric constant tensor:
#      x y z
#    x 1.896970 0.000000 -0.016050 
#    y 0.000000 1.901820 0.000000 
#    z -0.016050 0.000000 1.917770 
# 
# From -- ./inp_files/25332.got.cif
#   From: 2010.06.25/outbox.cif.g09.slc.cpg/sg15_13_cif.got.tgz:25332.got - 2010.06.28 07:06:18.
