data_PCOD8143042
_publ_section_title
;
Structure prediction by ZEFSAII (Michael W. Deem and Ramdas Pophale) SiO2 
 PCOD8143042
Probable space group: C 2/C
;
_chemical_formula_sum "Si O2"
_cell_formula_units_Z 28
_cell_length_a 6.819144
_cell_length_b 8.034600
_cell_length_c 19.171597
_cell_angle_alpha 90.000000
_cell_angle_beta 98.331395
_cell_angle_gamma 90.000000
_cell_volume 1039.309143
_symmetry_space_group_name_H-M "C 2/C"
_symmetry_group_IT_number 15
_symmetry_cell_setting 'monoclinic'
loop_
_space_group_symop_operation_xyz
x,y,z
-x,y,1/2-z
-x,-y,-z
x,-y,1/2+z
1/2+x,1/2+y,z
1/2-x,1/2+y,1/2-z
1/2-x,1/2-y,-z
1/2+x,1/2-y,1/2+z
loop_
_atom_site_type_symbol
_atom_site_label
_atom_site_fract_x
_atom_site_fract_y
_atom_site_fract_z
Si Si1 0.942389 0.543067 0.918650
Si Si2 0.099805 0.128446 0.452480
Si Si3 0.166830 0.385353 0.809272
Si Si4 0.500000 0.434331 0.250000
O O1 0.720096 0.468605 0.897230
O O2 0.938898 0.746348 0.907685
O O3 0.111116 0.452560 0.882646
O O4 0.000000 0.500000 0.000000
O O5 0.250000 0.250000 0.500000
O O6 0.000000 0.000000 0.500000
O O7 0.382763 0.452123 0.799105
O O8 0.000000 0.465488 0.750000
O O9 0.154313 0.183742 0.801333
#
# Coordination Sequence:
#
# PCOD8143042 Si02
#       4
#     8   8   8   4
#     4  10  21  43  66  98 130 170 216 275 328 389
#     4  10  21  40  60  93 128 164 205 259 323 384
#     4  10  24  46  67  99 133 177 225 273 332 399
#     4  10  24  44  68  94 134 176 224 270 330 398
#
# _framework density 26.940975999999999
#
# number of rings (size 3 to 8) (size 9 to 14) (size 15 to 20)
#    0.857    1.143    0.000    2.571    2.000    0.000 
#   30.857    0.000    0.000    0.000    0.000    0.000 
#    0.000    0.000    0.000    0.000    0.000    0.000 
#
# Total GULP energy -173558.048553 kJ/mol
# GULP energy per Si atom -12397.003468 kJ/mol
# Density = 2.687966 g / cm^3
# Si number density = 26.940976 Si / 1000 Ang^3
#
#
#
# Elastic Constant Matrix: (Units=GPa)
#
#
# Indices 1 2 3 4 5 6 
#
# 1 131.5413 80.4912 39.4514 0.0000 -55.6500 0.0000
# 2 80.4912 219.6460 56.4657 0.0000 -50.3114 0.0000
# 3 39.4514 56.4657 136.2512 0.0000 -65.0360 0.0000
# 4 0.0000 0.0000 0.0000 32.4783 0.0000 -43.5808
# 5 -55.6500 -50.3114 -65.0360 0.0000 69.2814 0.0000
# 6 0.0000 0.0000 0.0000 -43.5808 0.0000 36.8993
#
#
#
# Elastic Compliance Matrix: (Units=1/GPa)
#
#
# Indices 1 2 3 4 5 6 
#
# 1 0.013310 -0.003046 0.002638 0.000000 0.010955 0.000000
# 2 -0.003046 0.006192 -0.001279 0.000000 0.000850 0.000000
# 3 0.002638 -0.001279 0.013903 0.000000 0.014242 0.000000
# 4 0.000000 0.000000 0.000000 -0.052649 0.000000 -0.062182
# 5 0.010955 0.000850 0.014242 0.000000 0.037219 0.000000
# 6 0.000000 0.000000 0.000000 -0.062182 0.000000 -0.046341
#
#
# Mechanical properties :
#
#
# Convention : Reuss Voigt Hill
#
# Bulk Modulus (GPa) = 33.29906 93.36168 63.33037
# Shear Modulus (GPa) = -333.78379 48.46715 -142.65832
#
# Velocity S-wave (km/s) = -11.14286 4.24608 -7.28472
# Velocity P-wave (km/s) = 12.37596 7.66605 6.87008
#
# Compressibility (1/GPa) = 0.03003088
#
# Stress axis : x y z
#
# Youngs Moduli (GPa) = 75.13337 161.48709 71.92477
#
# Poissons Ratio (x) = 0.49193 -0.18971
# Poissons Ratio (y) = 0.22887 0.09197
# Poissons Ratio (z) = -0.19817 0.20649
#
# Static dielectric constant tensor:
#      x y z
#    x 5.340710 0.000000 0.142060 
#    y 0.000000 7.309560 0.000000 
#    z 0.142060 0.000000 4.513000 
# 
# 
# High freq. dielectric constant tensor:
#      x y z
#    x 2.102960 0.000000 0.004380 
#    y 0.000000 2.102300 0.000000 
#    z 0.004380 0.000000 2.080520 
# 
# From -- ./inp_files/187108.got.cif
#   From: 2010.06.25/outbox.cif.g09.slc.cpg/sg15_94_cif.got.tgz:187108.got - 2010.06.28 07:06:18.
