data_PCOD8143536
_publ_section_title
;
Structure prediction by ZEFSAII (Michael W. Deem and Ramdas Pophale) SiO2 
 PCOD8143536
Probable space group: C 2/C
;
_chemical_formula_sum "Si O2"
_cell_formula_units_Z 56
_cell_length_a 7.899095
_cell_length_b 21.093734
_cell_length_c 15.224433
_cell_angle_alpha 90.000000
_cell_angle_beta 99.184756
_cell_angle_gamma 90.000000
_cell_volume 2504.192643
_symmetry_space_group_name_H-M "C 2/C"
_symmetry_group_IT_number 15
_symmetry_cell_setting 'monoclinic'
loop_
_space_group_symop_operation_xyz
x,y,z
-x,y,1/2-z
-x,-y,-z
x,-y,1/2+z
1/2+x,1/2+y,z
1/2-x,1/2+y,1/2-z
1/2-x,1/2-y,-z
1/2+x,1/2-y,1/2+z
loop_
_atom_site_type_symbol
_atom_site_label
_atom_site_fract_x
_atom_site_fract_y
_atom_site_fract_z
Si Si1 0.396901 0.519128 0.868048
Si Si2 0.754299 0.610931 0.162284
Si Si3 0.318092 0.375813 0.480079
Si Si4 0.374796 0.087185 0.364700
Si Si5 0.762435 0.453921 0.320552
Si Si6 0.994255 0.662410 0.649626
Si Si7 0.604515 0.278906 0.549741
O O1 0.385777 0.442582 0.878162
O O2 0.382881 0.552933 0.961948
O O3 0.243835 0.537422 0.786112
O O4 0.572374 0.543893 0.842052
O O5 0.782937 0.609710 0.268347
O O6 0.683447 0.679681 0.134449
O O7 0.925568 0.603577 0.118935
O O8 0.219991 0.376016 0.564696
O O9 0.192361 0.363857 0.388008
O O10 0.467233 0.322913 0.487090
O O11 0.367294 0.011451 0.373119
O O12 0.856832 0.389352 0.355105
O O13 0.000000 0.685698 0.750000
O O14 0.010906 0.720694 0.585892
O O15 0.750000 0.250000 0.500000
#
# Coordination Sequence:
#
# PCOD8143536 Si02
#       7
#     8   8   8   8   8   8   8
#     4  10  21  40  70 104 135 177 222 292 341 407
#     4  10  23  45  68  98 144 179 226 278 355 401
#     4  12  25  44  72 102 135 176 238 285 340 402
#     4  10  23  41  72 104 134 178 224 291 343 411
#     4  10  21  42  68 100 139 176 226 272 357 406
#     4  12  26  45  69  98 138 185 226 282 344 413
#     4  12  28  47  67  98 139 181 234 283 335 417
#
# _framework density 22.362496
#
# number of rings (size 3 to 8) (size 9 to 14) (size 15 to 20)
#    0.000    1.143    1.429    3.857    4.000    6.857 
#    2.571    0.000    0.000    0.000    0.000    0.000 
#    0.000    0.000    0.000    0.000    0.000    0.000 
#
# Total GULP energy -347231.336627 kJ/mol
# GULP energy per Si atom -12401.119165 kJ/mol
# Density = 2.231160 g / cm^3
# Si number density = 22.362496 Si / 1000 Ang^3
#
#
#
# Elastic Constant Matrix: (Units=GPa)
#
#
# Indices 1 2 3 4 5 6 
#
# 1 76.7075 13.2655 21.7625 0.0000 -3.7719 0.0000
# 2 13.2655 104.5273 16.4539 0.0000 -0.2701 0.0000
# 3 21.7625 16.4539 89.1888 0.0000 -16.9107 0.0000
# 4 0.0000 0.0000 0.0000 33.7613 0.0000 -6.8000
# 5 -3.7719 -0.2701 -16.9107 0.0000 32.8410 0.0000
# 6 0.0000 0.0000 0.0000 -6.8000 0.0000 36.9062
#
#
#
# Elastic Compliance Matrix: (Units=1/GPa)
#
#
# Indices 1 2 3 4 5 6 
#
# 1 0.014174 -0.001291 -0.003229 0.000000 -0.000045 0.000000
# 2 -0.001291 0.009997 -0.001709 0.000000 -0.000946 0.000000
# 3 -0.003229 -0.001709 0.013567 0.000000 0.006601 0.000000
# 4 0.000000 0.000000 0.000000 0.030761 0.000000 0.005668
# 5 -0.000045 -0.000946 0.006601 0.000000 0.033836 0.000000
# 6 0.000000 0.000000 0.000000 0.005668 0.000000 0.028140
#
#
# Mechanical properties :
#
#
# Convention : Reuss Voigt Hill
#
# Bulk Modulus (GPa) = 39.55531 41.48750 40.52141
# Shear Modulus (GPa) = 33.03417 35.29781 34.16599
#
# Velocity S-wave (km/s) = 3.84762 3.97727 3.91298
# Velocity P-wave (km/s) = 6.12091 6.29953 6.21086
#
# Compressibility (1/GPa) = 0.02528105
#
# Stress axis : x y z
#
# Youngs Moduli (GPa) = 70.55384 100.02802 73.70893
#
# Poissons Ratio (x) = 0.12910 0.23800
# Poissons Ratio (y) = 0.09106 0.12595
# Poissons Ratio (z) = 0.22781 0.17092
#
# Static dielectric constant tensor:
#      x y z
#    x 4.073440 0.000000 0.055360 
#    y 0.000000 4.007710 0.000000 
#    z 0.055360 0.000000 4.114490 
# 
# 
# High freq. dielectric constant tensor:
#      x y z
#    x 1.891120 0.000000 0.003150 
#    y 0.000000 1.880720 0.000000 
#    z 0.003150 0.000000 1.884500 
# 
# From -- ./inp_files/136428.got.cif
#   From: 2010.06.25/outbox.cif.g09.slc.cpg/sg15_69_cif.got.tgz:136428.got - 2010.06.28 07:06:18.
