data_PCOD8143355
_publ_section_title
;
Structure prediction by ZEFSAII (Michael W. Deem and Ramdas Pophale) SiO2 
 PCOD8143355
Probable space group: C 2/C
;
_chemical_formula_sum "Si O2"
_cell_formula_units_Z 60
_cell_length_a 18.202026
_cell_length_b 12.225860
_cell_length_c 21.748541
_cell_angle_alpha 90.000000
_cell_angle_beta 37.072417
_cell_angle_gamma 90.000000
_cell_volume 2917.559854
_symmetry_space_group_name_H-M "C 2/C"
_symmetry_group_IT_number 15
_symmetry_cell_setting 'monoclinic'
loop_
_space_group_symop_operation_xyz
x,y,z
-x,y,1/2-z
-x,-y,-z
x,-y,1/2+z
1/2+x,1/2+y,z
1/2-x,1/2+y,1/2-z
1/2-x,1/2-y,-z
1/2+x,1/2-y,1/2+z
loop_
_atom_site_type_symbol
_atom_site_label
_atom_site_fract_x
_atom_site_fract_y
_atom_site_fract_z
Si Si1 0.832853 0.370490 0.883268
Si Si2 0.401398 0.844831 0.138221
Si Si3 0.450906 0.051835 0.184892
Si Si4 0.400779 0.640086 0.885925
Si Si5 0.865539 0.123524 0.225097
Si Si6 0.500000 0.454682 0.750000
Si Si7 0.628557 0.615184 0.812552
Si Si8 0.907030 0.683006 0.093422
O O1 0.848317 0.412924 0.803317
O O2 0.872985 0.244508 0.862528
O O3 0.915726 0.444688 0.873143
O O4 0.691746 0.378154 0.995783
O O5 0.419341 0.723487 0.151296
O O6 0.266912 0.858324 0.199316
O O7 0.422989 0.930460 0.178991
O O8 0.499190 0.860824 0.019337
O O9 0.448299 0.137495 0.131512
O O10 0.393457 0.532446 0.848460
O O11 0.537782 0.653251 0.819551
O O12 0.724440 0.136867 0.337054
O O13 0.940585 0.120874 0.238063
O O14 0.884367 0.015513 0.170197
O O15 0.598750 0.684199 0.894895
#
# Coordination Sequence:
#
# PCOD8143355 Si02
#       8
#     8   8   8   8   8   4   8   8
#     4  10  23  39  64 100 131 171 215 267 340 378
#     4  11  25  43  66  95 132 176 223 264 322 392
#     4  11  22  41  63  96 133 163 215 274 315 393
#     4  10  21  40  65  99 129 168 212 273 334 387
#     4  10  24  44  64  96 131 173 216 271 324 386
#     4  10  22  40  66  90 134 170 214 268 318 388
#     4  10  22  43  65  96 128 164 215 280 317 381
#     4  11  23  42  68  96 124 180 217 265 330 382
#
# _framework density 20.56513
#
# number of rings (size 3 to 8) (size 9 to 14) (size 15 to 20)
#    0.000    1.600    2.667    1.200    3.733    4.800 
#    9.600    0.667    0.000    0.000    0.000    0.000 
#    0.000    0.000    0.000    0.000    0.000    0.000 
#
# Total GULP energy -371961.933675 kJ/mol
# GULP energy per Si atom -12398.731122 kJ/mol
# Density = 2.051832 g / cm^3
# Si number density = 20.565130 Si / 1000 Ang^3
#
#
#
# Elastic Constant Matrix: (Units=GPa)
#
#
# Indices 1 2 3 4 5 6 
#
# 1 97.7171 48.4814 51.7650 0.0000 4.0604 0.0000
# 2 48.4814 138.0350 51.7623 0.0000 11.6016 0.0000
# 3 51.7650 51.7623 141.0309 0.0001 11.8294 0.0001
# 4 0.0000 0.0000 0.0001 -2.7389 0.0000 -11.3145
# 5 4.0604 11.6016 11.8294 0.0000 29.9385 0.0000
# 6 0.0000 0.0000 0.0001 -11.3145 0.0000 19.8162
#
#
#
# Elastic Compliance Matrix: (Units=1/GPa)
#
#
# Indices 1 2 3 4 5 6 
#
# 1 0.014032 -0.003538 -0.003938 0.000000 0.001024 0.000000
# 2 -0.003538 0.009423 -0.001959 0.000000 -0.002398 0.000000
# 3 -0.003938 -0.001959 0.009460 0.000000 -0.002445 0.000000
# 4 0.000000 0.000000 0.000000 -0.108706 0.000000 -0.062068
# 5 0.001024 -0.002398 -0.002445 0.000000 0.035158 0.000000
# 6 0.000000 0.000000 0.000000 -0.062068 0.000000 0.015025
#
#
# Mechanical properties :
#
#
# Convention : Reuss Voigt Hill
#
# Bulk Modulus (GPa) = 71.19303 75.64449 73.41876
# Shear Modulus (GPa) = -2432.57152 24.38812 -1204.09170
#
# Velocity S-wave (km/s) = -34.43008 3.44742 -24.22339
# Velocity P-wave (km/s) = 39.31768 7.26010 27.32372
#
# Compressibility (1/GPa) = 0.01404632
#
# Stress axis : x y z
#
# Youngs Moduli (GPa) = 71.26322 106.12050 105.70733
#
# Poissons Ratio (x) = 0.37544 0.41627
# Poissons Ratio (y) = 0.25212 0.20707
# Poissons Ratio (z) = 0.28063 0.20788
#
# Static dielectric constant tensor:
#      x y z
#    x 3.671520 0.000000 -0.095970 
#    y 0.000000 3.925250 0.000000 
#    z -0.095970 0.000000 3.769610 
# 
# 
# High freq. dielectric constant tensor:
#      x y z
#    x 1.801540 0.000000 -0.008230 
#    y 0.000000 1.809610 0.000000 
#    z -0.008230 0.000000 1.798400 
# 
# From -- ./inp_files/248758.got.cif
#   From: 2010.06.25/outbox.cif.g09.slc.cpg/sg15_125_cif.got.tgz:248758.got - 2010.06.28 07:06:18.
