data_PCOD8143403
_publ_section_title
;
Structure prediction by ZEFSAII (Michael W. Deem and Ramdas Pophale) SiO2 
 PCOD8143403
Probable space group: C 2/C
;
_chemical_formula_sum "Si O2"
_cell_formula_units_Z 64
_cell_length_a 18.083424
_cell_length_b 16.361122
_cell_length_c 18.713425
_cell_angle_alpha 90.000000
_cell_angle_beta 33.581346
_cell_angle_gamma 90.000000
_cell_volume 3062.433455
_symmetry_space_group_name_H-M "C 2/C"
_symmetry_group_IT_number 15
_symmetry_cell_setting 'monoclinic'
loop_
_space_group_symop_operation_xyz
x,y,z
-x,y,1/2-z
-x,-y,-z
x,-y,1/2+z
1/2+x,1/2+y,z
1/2-x,1/2+y,1/2-z
1/2-x,1/2-y,-z
1/2+x,1/2-y,1/2+z
loop_
_atom_site_type_symbol
_atom_site_label
_atom_site_fract_x
_atom_site_fract_y
_atom_site_fract_z
Si Si1 0.739941 0.894784 0.433429
Si Si2 0.935585 0.943628 0.993312
Si Si3 0.274514 0.930365 0.889487
Si Si4 0.126395 0.394335 0.945746
Si Si5 0.895686 0.956290 0.774682
Si Si6 0.798165 0.760418 0.615981
Si Si7 0.467396 0.966694 0.618910
Si Si8 0.895943 0.772020 0.096196
O O1 0.712488 0.908292 0.538721
O O2 0.760720 0.799421 0.398254
O O3 0.610690 0.923302 0.492675
O O4 0.871570 0.945392 0.301762
O O5 0.051922 0.925740 0.843500
O O6 0.881457 0.860519 0.071801
O O7 0.820105 0.991332 0.044058
O O8 0.000000 0.000000 0.000000
O O9 0.222442 0.853417 0.887873
O O10 0.416464 0.953927 0.740506
O O11 0.249572 0.416465 0.898944
O O12 0.137170 0.429704 0.855105
O O13 0.122962 0.296488 0.949552
O O14 0.991856 0.436083 0.086444
O O15 0.000000 0.925203 0.750000
O O16 0.720350 0.737622 0.751257
O O17 0.957982 0.752450 0.490297
#
# Coordination Sequence:
#
# PCOD8143403 Si02
#       8
#     8   8   8   8   8   8   8   8
#     4  11  23  40  68  94 140 180 215 274 346 423
#     4  12  24  41  67  96 133 180 227 279 335 409
#     4  12  23  40  62 101 138 179 220 275 342 421
#     4  10  21  41  69  94 126 181 225 288 332 405
#     4  11  23  45  66  96 134 175 227 281 343 406
#     4  12  24  42  64 103 142 178 224 285 340 418
#     4  10  21  40  66  94 131 175 229 269 344 402
#     4  12  25  43  68 102 137 176 239 288 342 401
#
# _framework density 20.898413000000001
#
# number of rings (size 3 to 8) (size 9 to 14) (size 15 to 20)
#    0.000    0.750    5.000    3.000    1.750    0.000 
#    0.000    1.875    0.000    0.000    0.000    0.000 
#    0.000    0.000    0.000    0.000    0.000    0.000 
#
# Total GULP energy -396674.661108 kJ/mol
# GULP energy per Si atom -12396.083160 kJ/mol
# Density = 2.085085 g / cm^3
# Si number density = 20.898413 Si / 1000 Ang^3
#
#
#
# Elastic Constant Matrix: (Units=GPa)
#
#
# Indices 1 2 3 4 5 6 
#
# 1 95.8599 33.3781 21.4269 0.0027 -2.0228 -0.0013
# 2 33.3781 139.1323 20.8378 0.0040 6.6549 -0.0024
# 3 21.4269 20.8378 74.8199 0.0059 5.3258 -0.0034
# 4 0.0027 0.0040 0.0059 29.8405 -0.0033 4.8017
# 5 -2.0228 6.6549 5.3258 -0.0033 31.3507 0.0021
# 6 -0.0013 -0.0024 -0.0034 4.8017 0.0021 29.6754
#
#
#
# Elastic Compliance Matrix: (Units=1/GPa)
#
#
# Indices 1 2 3 4 5 6 
#
# 1 0.011991 -0.002535 -0.002856 0.000000 0.001797 0.000000
# 2 -0.002535 0.008085 -0.001409 -0.000001 -0.001640 0.000001
# 3 -0.002856 -0.001409 0.014746 -0.000003 -0.002390 0.000002
# 4 0.000000 -0.000001 -0.000003 0.034407 0.000005 -0.005567
# 5 0.001797 -0.001640 -0.002390 0.000005 0.032767 -0.000003
# 6 0.000000 0.000001 0.000002 -0.005567 -0.000003 0.034599
#
#
# Mechanical properties :
#
#
# Convention : Reuss Voigt Hill
#
# Bulk Modulus (GPa) = 47.12047 51.23306 49.17677
# Shear Modulus (GPa) = 31.79271 33.78460 32.78866
#
# Velocity S-wave (km/s) = 3.90461 4.02507 3.96530
# Velocity P-wave (km/s) = 6.55167 6.79486 6.67437
#
# Compressibility (1/GPa) = 0.02122220
#
# Stress axis : x y z
#
# Youngs Moduli (GPa) = 83.39741 123.68566 67.81568
#
# Poissons Ratio (x) = 0.31352 0.19367
# Poissons Ratio (y) = 0.21140 0.09555
# Poissons Ratio (z) = 0.23817 0.17428
#
# Static dielectric constant tensor:
#      x y z
#    x 3.668160 0.000000 -0.078040 
#    y 0.000000 4.088280 0.000000 
#    z -0.078040 0.000000 3.840640 
# 
# 
# High freq. dielectric constant tensor:
#      x y z
#    x 1.810300 0.000000 -0.005870 
#    y 0.000000 1.818470 0.000000 
#    z -0.005870 0.000000 1.820780 
# 
# From -- ./inp_files/211380.got.cif
#   From: 2010.06.25/outbox.cif.g09.slc.cpg/sg15_106_cif.got.tgz:211380.got - 2010.06.28 07:06:18.
