data_PCOD8143032
_publ_section_title
;
Structure prediction by ZEFSAII (Michael W. Deem and Ramdas Pophale) SiO2 
 PCOD8143032
Probable space group: C 2/C
;
_chemical_formula_sum "Si O2"
_cell_formula_units_Z 32
_cell_length_a 9.163915
_cell_length_b 5.157421
_cell_length_c 26.476414
_cell_angle_alpha 90.000000
_cell_angle_beta 101.216250
_cell_angle_gamma 90.000000
_cell_volume 1227.432298
_symmetry_space_group_name_H-M "C 2/C"
_symmetry_group_IT_number 15
_symmetry_cell_setting 'monoclinic'
loop_
_space_group_symop_operation_xyz
x,y,z
-x,y,1/2-z
-x,-y,-z
x,-y,1/2+z
1/2+x,1/2+y,z
1/2-x,1/2+y,1/2-z
1/2-x,1/2-y,-z
1/2+x,1/2-y,1/2+z
loop_
_atom_site_type_symbol
_atom_site_label
_atom_site_fract_x
_atom_site_fract_y
_atom_site_fract_z
Si Si1 0.722792 0.838161 0.846577
Si Si2 0.163260 0.938113 0.458132
Si Si3 0.966273 0.159053 0.190155
Si Si4 0.351403 0.647659 0.939857
O O1 0.634150 0.083076 0.818407
O O2 0.760187 0.899833 0.909274
O O3 0.623277 0.583874 0.838283
O O4 0.877890 0.799639 0.828015
O O5 0.250000 0.750000 0.500000
O O6 0.011309 0.829636 0.422553
O O7 0.257876 0.090557 0.421566
O O8 0.114442 0.151903 0.497677
O O9 0.000000 0.092479 0.250000
#
# Coordination Sequence:
#
# PCOD8143032 Si02
#       4
#     8   8   8   8
#     4  12  26  44  74 106 138 183 233 289 338 426
#     4  10  21  40  60  87 132 174 218 275 328 396
#     4  12  26  49  73 104 140 181 227 291 359 415
#     4  10  23  37  60  94 126 175 226 270 334 390
#
# _framework density 26.070682999999999
#
# number of rings (size 3 to 8) (size 9 to 14) (size 15 to 20)
#    0.000    1.000    0.000    6.000    7.000    0.000 
#    0.000    0.000    0.000    0.000    0.000    0.000 
#    0.000    0.000    0.000    0.000    0.000    0.000 
#
# Total GULP energy -198301.927714 kJ/mol
# GULP energy per Si atom -12393.870482 kJ/mol
# Density = 2.601134 g / cm^3
# Si number density = 26.070683 Si / 1000 Ang^3
#
#
#
# Elastic Constant Matrix: (Units=GPa)
#
#
# Indices 1 2 3 4 5 6 
#
# 1 193.9201 52.8723 16.9100 0.0000 18.6441 0.0000
# 2 52.8723 107.0212 -10.2996 0.0000 12.4878 0.0000
# 3 16.9100 -10.2996 121.7681 0.0000 -8.3798 0.0000
# 4 0.0000 0.0000 0.0000 25.4729 0.0000 -4.0197
# 5 18.6441 12.4878 -8.3798 0.0000 39.3014 0.0000
# 6 0.0000 0.0000 0.0000 -4.0197 0.0000 49.0603
#
#
#
# Elastic Compliance Matrix: (Units=1/GPa)
#
#
# Indices 1 2 3 4 5 6 
#
# 1 0.006301 -0.002966 -0.001286 0.000000 -0.002321 0.000000
# 2 -0.002966 0.011146 0.001226 0.000000 -0.001873 0.000000
# 3 -0.001286 0.001226 0.008636 0.000000 0.002062 0.000000
# 4 0.000000 0.000000 0.000000 0.039772 0.000000 0.003259
# 5 -0.002321 -0.001873 0.002062 0.000000 0.027580 0.000000
# 6 0.000000 0.000000 0.000000 0.003259 0.000000 0.020650
#
#
# Mechanical properties :
#
#
# Convention : Reuss Voigt Hill
#
# Bulk Modulus (GPa) = 49.92105 60.18609 55.05357
# Shear Modulus (GPa) = 39.42826 46.98203 43.20514
#
# Velocity S-wave (km/s) = 3.89313 4.24972 4.07533
# Velocity P-wave (km/s) = 6.27682 6.87139 6.58083
#
# Compressibility (1/GPa) = 0.02003163
#
# Stress axis : x y z
#
# Youngs Moduli (GPa) = 158.71616 89.72144 115.78879
#
# Poissons Ratio (x) = 0.26608 0.14885
# Poissons Ratio (y) = 0.47069 -0.14192
# Poissons Ratio (z) = 0.20403 -0.10997
#
# Static dielectric constant tensor:
#      x y z
#    x 7.766440 0.000000 -0.020030 
#    y 0.000000 5.690400 0.000000 
#    z -0.020030 0.000000 7.466320 
# 
# 
# High freq. dielectric constant tensor:
#      x y z
#    x 2.070370 0.000000 0.004590 
#    y 0.000000 2.055750 0.000000 
#    z 0.004590 0.000000 2.051810 
# 
# From -- ./inp_files/306161.got.cif
#   From: 2010.06.25/outbox.cif.g09.slc.cpg/sg15_154_cif.got.tgz:306161.got - 2010.06.28 07:06:18.
