data_PCOD8143078
_publ_section_title
;
Structure prediction by ZEFSAII (Michael W. Deem and Ramdas Pophale) SiO2 
 PCOD8143078
Probable space group: C 2/C
;
_chemical_formula_sum "Si O2"
_cell_formula_units_Z 64
_cell_length_a 29.715265
_cell_length_b 9.572546
_cell_length_c 23.145327
_cell_angle_alpha 90.000000
_cell_angle_beta 26.850358
_cell_angle_gamma 90.000000
_cell_volume 2973.608712
_symmetry_space_group_name_H-M "C 2/C"
_symmetry_group_IT_number 15
_symmetry_cell_setting 'monoclinic'
loop_
_space_group_symop_operation_xyz
x,y,z
-x,y,1/2-z
-x,-y,-z
x,-y,1/2+z
1/2+x,1/2+y,z
1/2-x,1/2+y,1/2-z
1/2-x,1/2-y,-z
1/2+x,1/2-y,1/2+z
loop_
_atom_site_type_symbol
_atom_site_label
_atom_site_fract_x
_atom_site_fract_y
_atom_site_fract_z
Si Si1 0.388661 0.078572 0.068162
Si Si2 0.670250 0.406083 0.534121
Si Si3 0.165885 0.805763 0.662507
Si Si4 0.449367 0.340031 0.936263
Si Si5 0.933294 0.382022 0.645175
Si Si6 0.253525 0.540510 0.859111
Si Si7 0.750202 0.699647 0.433433
Si Si8 0.983071 0.084058 0.576751
O O1 0.373169 0.078070 0.155117
O O2 0.298608 0.991916 0.142179
O O3 0.385175 0.240017 0.051567
O O4 0.492105 0.009694 0.927370
O O5 0.782785 0.344630 0.402451
O O6 0.630290 0.376901 0.643680
O O7 0.595072 0.329741 0.576744
O O8 0.674698 0.570263 0.515743
O O9 0.063092 0.786723 0.814325
O O10 0.248935 0.903053 0.598033
O O11 0.447907 0.504009 0.955653
O O12 0.858544 0.351349 0.784312
O O13 0.007010 0.249055 0.547580
O O14 0.204089 0.673824 0.948069
O O15 0.367034 0.581691 0.722667
O O16 0.750000 0.750000 0.500000
O O17 0.000000 0.000000 0.500000
#
# Coordination Sequence:
#
# PCOD8143078 Si02
#       8
#     8   8   8   8   8   8   8   8
#     4  11  22  44  63  96 128 168 218 267 330 396
#     4  11  22  38  64  91 127 169 216 262 323 387
#     4  10  21  40  61  93 124 164 215 272 317 380
#     4  11  22  37  64  91 126 166 216 263 327 389
#     4  10  24  43  65  93 130 169 216 273 329 386
#     4  10  22  41  64  90 129 167 211 266 327 388
#     4  11  23  44  65  93 133 176 217 269 329 392
#     4  10  21  41  61  91 125 163 207 269 324 386
#
# _framework density 21.522672
#
# number of rings (size 3 to 8) (size 9 to 14) (size 15 to 20)
#    0.000    1.500    3.750    1.125    1.750    1.000 
#    2.250    0.625    0.000    0.000    0.000    0.000 
#    0.000    0.000    0.000    0.000    0.000    0.000 
#
# Total GULP energy -396596.960147 kJ/mol
# GULP energy per Si atom -12393.655005 kJ/mol
# Density = 2.147369 g / cm^3
# Si number density = 21.522672 Si / 1000 Ang^3
#
#
#
# Elastic Constant Matrix: (Units=GPa)
#
#
# Indices 1 2 3 4 5 6 
#
# 1 111.1577 29.1094 14.5498 -0.0016 4.8209 0.0000
# 2 29.1094 110.7451 12.3986 -0.0126 -0.3942 0.0048
# 3 14.5498 12.3986 39.1491 -0.0138 12.7128 0.0059
# 4 -0.0016 -0.0126 -0.0138 25.5607 0.0041 0.4775
# 5 4.8209 -0.3942 12.7128 0.0041 28.5703 -0.0012
# 6 0.0000 0.0048 0.0059 0.4775 -0.0012 37.6830
#
#
#
# Elastic Compliance Matrix: (Units=1/GPa)
#
#
# Indices 1 2 3 4 5 6 
#
# 1 0.009992 -0.002311 -0.002833 -0.000002 -0.000457 0.000001
# 2 -0.002311 0.009967 -0.002886 0.000003 0.001812 -0.000001
# 3 -0.002833 -0.002886 0.031990 0.000018 -0.013796 -0.000005
# 4 -0.000002 0.000003 0.000018 0.039132 -0.000013 -0.000496
# 5 -0.000457 0.001812 -0.013796 -0.000013 0.041242 0.000003
# 6 0.000001 -0.000001 -0.000005 -0.000496 0.000003 0.026543
#
#
# Mechanical properties :
#
#
# Convention : Reuss Voigt Hill
#
# Bulk Modulus (GPa) = 27.86356 41.46306 34.66331
# Shear Modulus (GPa) = 26.75372 32.02907 29.39139
#
# Velocity S-wave (km/s) = 3.52951 3.86185 3.69941
# Velocity P-wave (km/s) = 5.43914 6.26033 5.86413
#
# Compressibility (1/GPa) = 0.03588917
#
# Stress axis : x y z
#
# Youngs Moduli (GPa) = 100.07949 100.33408 31.25940
#
# Poissons Ratio (x) = 0.23186 0.08856
# Poissons Ratio (y) = 0.23127 0.09021
# Poissons Ratio (z) = 0.28355 0.28956
#
# Static dielectric constant tensor:
#      x y z
#    x 3.886500 0.000010 0.142350 
#    y 0.000010 4.304020 0.000000 
#    z 0.142350 0.000000 3.412920 
# 
# 
# High freq. dielectric constant tensor:
#      x y z
#    x 1.841590 0.000000 0.011080 
#    y 0.000000 1.863840 0.000000 
#    z 0.011080 0.000000 1.818630 
# 
# From -- ./inp_files/284426.got.cif
#   From: 2010.06.25/outbox.cif.g09.slc.cpg/sg15_143_cif.got.tgz:284426.got - 2010.06.28 07:06:18.
