data_PCOD8143701
_publ_section_title
;
Structure prediction by ZEFSAII (Michael W. Deem and Ramdas Pophale) SiO2 
 PCOD8143701
Probable space group: C 2/C
;
_chemical_formula_sum "Si O2"
_cell_formula_units_Z 52
_cell_length_a 16.886603
_cell_length_b 10.281368
_cell_length_c 24.902395
_cell_angle_alpha 90.000000
_cell_angle_beta 145.954808
_cell_angle_gamma 90.000000
_cell_volume 2420.490514
_symmetry_space_group_name_H-M "C 2/C"
_symmetry_group_IT_number 15
_symmetry_cell_setting 'monoclinic'
loop_
_space_group_symop_operation_xyz
x,y,z
-x,y,1/2-z
-x,-y,-z
x,-y,1/2+z
1/2+x,1/2+y,z
1/2-x,1/2+y,1/2-z
1/2-x,1/2-y,-z
1/2+x,1/2-y,1/2+z
loop_
_atom_site_type_symbol
_atom_site_label
_atom_site_fract_x
_atom_site_fract_y
_atom_site_fract_z
Si Si1 0.627523 0.704104 0.240431
Si Si2 0.153995 0.929976 0.312085
Si Si3 0.961729 0.945040 0.903170
Si Si4 0.834523 0.708156 0.995675
Si Si5 0.000000 0.400378 0.250000
Si Si6 0.214192 0.042600 0.100056
Si Si7 0.883341 0.208454 0.815130
O O1 0.672196 0.576500 0.299627
O O2 0.529883 0.670177 0.134881
O O3 0.533511 0.807643 0.219092
O O4 0.766734 0.772009 0.295304
O O5 0.267608 0.913474 0.424850
O O6 0.175406 0.814978 0.278738
O O7 0.000000 0.910002 0.250000
O O8 0.809654 0.938589 0.849201
O O9 0.969884 0.076870 0.874250
O O10 0.098101 0.932216 0.018241
O O11 0.826508 0.823014 0.948718
O O12 0.750000 0.750000 0.000000
O O13 0.995831 0.679723 0.107480
O O14 0.867201 0.495197 0.166770
#
# Coordination Sequence:
#
# PCOD8143701 Si02
#       7
#     8   8   8   8   4   8   8
#     4  11  23  40  64  92 132 165 211 264 318 383
#     4  11  22  40  67  92 125 172 209 259 326 376
#     4   9  20  41  64  84 121 170 202 255 325 378
#     4  11  23  39  65  93 125 163 214 269 313 381
#     4  12  24  40  64  98 124 166 214 268 308 390
#     4  10  22  39  65  89 120 165 215 259 317 381
#     4  10  21  41  63  91 124 165 213 259 320 378
#
# _framework density 21.483249000000001
#
# number of rings (size 3 to 8) (size 9 to 14) (size 15 to 20)
#    0.000    1.538    3.846    0.923    1.077    2.462 
#    0.000    0.000    0.000    0.000    0.000    0.000 
#    0.000    0.000    0.000    0.000    0.000    0.000 
#
# Total GULP energy -322128.817923 kJ/mol
# GULP energy per Si atom -12389.569920 kJ/mol
# Density = 2.143435 g / cm^3
# Si number density = 21.483249 Si / 1000 Ang^3
#
#
#
# Elastic Constant Matrix: (Units=GPa)
#
#
# Indices 1 2 3 4 5 6 
#
# 1 114.7378 -3.8697 13.2785 0.0000 7.8202 0.0000
# 2 -3.8697 28.8680 -8.5236 0.0000 -0.5427 0.0000
# 3 13.2785 -8.5236 50.6410 0.0001 4.6660 0.0000
# 4 0.0000 0.0000 0.0001 17.3004 0.0000 -2.5803
# 5 7.8202 -0.5427 4.6660 0.0000 42.5939 0.0000
# 6 0.0000 0.0000 0.0000 -2.5803 0.0000 31.9236
#
#
#
# Elastic Compliance Matrix: (Units=1/GPa)
#
#
# Indices 1 2 3 4 5 6 
#
# 1 0.009081 0.000554 -0.002157 0.000000 -0.001424 0.000000
# 2 0.000554 0.036488 0.006024 0.000000 -0.000297 0.000000
# 3 -0.002157 0.006024 0.021500 0.000000 -0.001883 0.000000
# 4 0.000000 0.000000 0.000000 0.058507 0.000000 0.004729
# 5 -0.001424 -0.000297 -0.001883 0.000000 0.023941 0.000000
# 6 0.000000 0.000000 0.000000 0.004729 0.000000 0.031707
#
#
# Mechanical properties :
#
#
# Convention : Reuss Voigt Hill
#
# Bulk Modulus (GPa) = 13.17363 21.77969 17.47666
# Shear Modulus (GPa) = 25.29266 31.25436 28.27351
#
# Velocity S-wave (km/s) = 3.43493 3.81835 3.63171
# Velocity P-wave (km/s) = 4.67729 5.44057 5.07330
#
# Compressibility (1/GPa) = 0.07590920
#
# Stress axis : x y z
#
# Youngs Moduli (GPa) = 110.12197 27.40658 46.51238
#
# Poissons Ratio (x) = -0.01518 0.10031
# Poissons Ratio (y) = -0.06098 -0.28017
# Poissons Ratio (z) = 0.23750 -0.16508
#
# Static dielectric constant tensor:
#      x y z
#    x 6.984530 0.000000 -0.261450 
#    y 0.000000 4.012780 0.000000 
#    z -0.261450 0.000000 4.397370 
# 
# 
# High freq. dielectric constant tensor:
#      x y z
#    x 1.863150 0.000000 -0.009270 
#    y 0.000000 1.822930 0.000000 
#    z -0.009270 0.000000 1.837370 
# 
# From -- ./inp_files/273888.got.cif
#   From: 2010.06.25/outbox.cif.g09.slc.cpg/sg15_137_cif.got.tgz:273888.got - 2010.06.28 07:06:18.
