data_PCOD8143082
_publ_section_title
;
Structure prediction by ZEFSAII (Michael W. Deem and Ramdas Pophale) SiO2 
 PCOD8143082
Probable space group: C 2/C
;
_chemical_formula_sum "Si O2"
_cell_formula_units_Z 48
_cell_length_a 15.746807
_cell_length_b 8.514863
_cell_length_c 28.048805
_cell_angle_alpha 90.000000
_cell_angle_beta 143.554982
_cell_angle_gamma 90.000000
_cell_volume 2234.129537
_symmetry_space_group_name_H-M "C 2/C"
_symmetry_group_IT_number 15
_symmetry_cell_setting 'monoclinic'
loop_
_space_group_symop_operation_xyz
x,y,z
-x,y,1/2-z
-x,-y,-z
x,-y,1/2+z
1/2+x,1/2+y,z
1/2-x,1/2+y,1/2-z
1/2-x,1/2-y,-z
1/2+x,1/2-y,1/2+z
loop_
_atom_site_type_symbol
_atom_site_label
_atom_site_fract_x
_atom_site_fract_y
_atom_site_fract_z
Si Si1 0.617831 0.505624 0.657313
Si Si2 0.066087 0.689744 0.082265
Si Si3 0.440881 0.947079 0.816551
Si Si4 0.477140 0.364209 0.184538
Si Si5 0.584983 0.789795 0.430859
Si Si6 0.178363 0.500436 0.054342
O O1 0.583165 0.624116 0.598016
O O2 0.782621 0.462782 0.723837
O O3 0.598029 0.574989 0.702256
O O4 0.514800 0.358139 0.604278
O O5 0.070759 0.620472 0.136530
O O6 0.192903 0.602733 0.109489
O O7 0.918032 0.658164 0.986014
O O8 0.530579 0.825206 0.824085
O O9 0.524323 0.114415 0.857200
O O10 0.500000 0.409244 0.250000
O O11 0.331528 0.450928 0.102824
O O12 0.750000 0.750000 0.500000
O O13 0.580137 0.898451 0.474650
#
# Coordination Sequence:
#
# PCOD8143082 Si02
#       6
#     8   8   8   8   8   8
#     4  11  22  41  66  92 127 170 210 267 330 383
#     4   9  21  38  65  87 122 163 205 261 318 389
#     4  10  23  40  61  88 128 166 209 257 323 389
#     4  11  23  40  65  87 123 171 216 263 317 389
#     4  11  22  38  62  95 126 161 208 268 321 379
#     4  10  21  40  61  94 121 163 213 261 320 390
#
# _framework density 21.484877999999998
#
# number of rings (size 3 to 8) (size 9 to 14) (size 15 to 20)
#    0.000    1.667    1.667    3.000    2.333    5.333 
#    3.000    0.833    0.000    0.000    0.000    0.000 
#    0.000    0.000    0.000    0.000    0.000    0.000 
#
# Total GULP energy -297354.578216 kJ/mol
# GULP energy per Si atom -12389.774092 kJ/mol
# Density = 2.143598 g / cm^3
# Si number density = 21.484878 Si / 1000 Ang^3
#
#
#
# Elastic Constant Matrix: (Units=GPa)
#
#
# Indices 1 2 3 4 5 6 
#
# 1 71.5081 31.7461 33.6710 0.0000 6.0947 0.0000
# 2 31.7461 141.4224 69.1471 0.0000 13.0061 0.0000
# 3 33.6710 69.1471 110.3544 0.0000 16.1152 0.0000
# 4 0.0000 0.0000 0.0000 35.0328 0.0000 6.8787
# 5 6.0947 13.0061 16.1152 0.0000 36.4034 0.0000
# 6 0.0000 0.0000 0.0000 6.8787 0.0000 32.3938
#
#
#
# Elastic Compliance Matrix: (Units=1/GPa)
#
#
# Indices 1 2 3 4 5 6 
#
# 1 0.016651 -0.001795 -0.003894 0.000000 -0.000423 0.000000
# 2 -0.001795 0.010414 -0.005857 0.000000 -0.000827 0.000000
# 3 -0.003894 -0.005857 0.014453 0.000000 -0.003654 0.000000
# 4 0.000000 0.000000 0.000000 0.029787 0.000000 -0.006325
# 5 -0.000423 -0.000827 -0.003654 0.000000 0.029454 0.000000
# 6 0.000000 0.000000 0.000000 -0.006325 0.000000 0.032213
#
#
# Mechanical properties :
#
#
# Convention : Reuss Voigt Hill
#
# Bulk Modulus (GPa) = 54.26980 65.82371 60.04675
# Shear Modulus (GPa) = 30.82530 33.34738 32.08634
#
# Velocity S-wave (km/s) = 3.79191 3.94399 3.86870
# Velocity P-wave (km/s) = 6.66977 7.17243 6.92566
#
# Compressibility (1/GPa) = 0.01842646
#
# Stress axis : x y z
#
# Youngs Moduli (GPa) = 60.05678 96.02901 69.18927
#
# Poissons Ratio (x) = 0.17236 0.26943
# Poissons Ratio (y) = 0.10780 0.40521
# Poissons Ratio (z) = 0.23387 0.56240
#
# Static dielectric constant tensor:
#      x y z
#    x 3.776140 0.000000 -0.039300 
#    y 0.000000 4.956350 0.000000 
#    z -0.039300 0.000000 3.962880 
# 
# 
# High freq. dielectric constant tensor:
#      x y z
#    x 1.829840 0.000000 0.004120 
#    y 0.000000 1.852150 0.000000 
#    z 0.004120 0.000000 1.838170 
# 
# From -- ./inp_files/315778.got.cif
#   From: 2010.06.25/outbox.cif.g09.slc.cpg/sg15_158_cif.got.tgz:315778.got - 2010.06.28 07:06:18.
