data_PCOD8143688
_publ_section_title
;
Structure prediction by ZEFSAII (Michael W. Deem and Ramdas Pophale) SiO2 
 PCOD8143688
Probable space group: C 2/C
;
_chemical_formula_sum "Si O2"
_cell_formula_units_Z 40
_cell_length_a 16.517995
_cell_length_b 9.076671
_cell_length_c 16.123394
_cell_angle_alpha 90.000000
_cell_angle_beta 55.708200
_cell_angle_gamma 90.000000
_cell_volume 1997.167588
_symmetry_space_group_name_H-M "C 2/C"
_symmetry_group_IT_number 15
_symmetry_cell_setting 'monoclinic'
loop_
_space_group_symop_operation_xyz
x,y,z
-x,y,1/2-z
-x,-y,-z
x,-y,1/2+z
1/2+x,1/2+y,z
1/2-x,1/2+y,1/2-z
1/2-x,1/2-y,-z
1/2+x,1/2-y,1/2+z
loop_
_atom_site_type_symbol
_atom_site_label
_atom_site_fract_x
_atom_site_fract_y
_atom_site_fract_z
Si Si1 0.295135 0.822182 0.893328
Si Si2 0.432375 0.374740 0.213757
Si Si3 0.192629 0.896426 0.800086
Si Si4 0.454145 0.897406 0.914507
Si Si5 0.133097 0.421620 0.359088
O O1 0.333139 0.696372 0.808121
O O2 0.216949 0.917010 0.885055
O O3 0.387523 0.921578 0.870343
O O4 0.250000 0.750000 0.000000
O O5 0.500000 0.433914 0.250000
O O6 0.401690 0.507677 0.170955
O O7 0.490891 0.258489 0.124095
O O8 0.169245 0.726299 0.792235
O O9 0.288775 0.946503 0.693907
O O10 0.530481 0.030611 0.876786
O O11 0.382803 0.888670 0.034821
#
# Coordination Sequence:
#
# PCOD8143688 Si02
#       5
#     8   8   8   8   8
#     4  11  20  39  65  88 118 170 208 240 310 379
#     4  10  22  40  61  88 123 165 207 256 307 368
#     4  12  21  40  62  92 124 163 209 257 306 367
#     4  10  21  41  63  89 119 166 208 250 309 375
#     4  11  22  37  66  89 123 159 208 255 311 359
#
# _framework density 20.028364
#
# number of rings (size 3 to 8) (size 9 to 14) (size 15 to 20)
#    0.000    1.200    6.000    0.000    0.000    0.800 
#    3.600    0.000    0.000    4.800    0.000    0.000 
#    0.000    0.000    0.000    0.000    0.000    0.000 
#
# Total GULP energy -247967.128493 kJ/mol
# GULP energy per Si atom -12398.356425 kJ/mol
# Density = 1.998278 g / cm^3
# Si number density = 20.028364 Si / 1000 Ang^3
#
#
#
# Elastic Constant Matrix: (Units=GPa)
#
#
# Indices 1 2 3 4 5 6 
#
# 1 152.2741 69.7140 34.0012 0.0000 21.4185 0.0000
# 2 69.7140 114.7754 54.6540 0.0000 4.4508 0.0001
# 3 34.0012 54.6540 110.1148 0.0000 -3.0396 0.0000
# 4 0.0000 0.0000 0.0000 32.2378 0.0000 3.8750
# 5 21.4185 4.4508 -3.0396 0.0000 23.3224 0.0000
# 6 0.0000 0.0001 0.0000 3.8750 0.0000 37.0178
#
#
#
# Elastic Compliance Matrix: (Units=1/GPa)
#
#
# Indices 1 2 3 4 5 6 
#
# 1 0.010582 -0.005788 -0.000635 0.000000 -0.008696 0.000000
# 2 -0.005788 0.014777 -0.005498 0.000000 0.001779 0.000000
# 3 -0.000635 -0.005498 0.012095 0.000000 0.003209 0.000000
# 4 0.000000 0.000000 0.000000 0.031415 0.000000 -0.003288
# 5 -0.008696 0.001779 0.003209 0.000000 0.050942 0.000000
# 6 0.000000 0.000000 0.000000 -0.003288 0.000000 0.027358
#
#
# Mechanical properties :
#
#
# Convention : Reuss Voigt Hill
#
# Bulk Modulus (GPa) = 73.46252 77.10030 75.28141
# Shear Modulus (GPa) = 28.48214 33.10195 30.79204
#
# Velocity S-wave (km/s) = 3.77515 4.06982 3.92525
# Velocity P-wave (km/s) = 7.46734 7.78869 7.62971
#
# Compressibility (1/GPa) = 0.01361238
#
# Stress axis : x y z
#
# Youngs Moduli (GPa) = 94.50186 67.67094 82.67873
#
# Poissons Ratio (x) = 0.39167 0.05248
# Poissons Ratio (y) = 0.54696 0.45459
# Poissons Ratio (z) = 0.05999 0.37207
#
# Static dielectric constant tensor:
#      x y z
#    x 4.186930 0.000000 -0.062490 
#    y 0.000000 3.426770 0.000000 
#    z -0.062490 0.000000 3.629660 
# 
# 
# High freq. dielectric constant tensor:
#      x y z
#    x 1.808910 0.000000 -0.010040 
#    y 0.000000 1.748670 0.000000 
#    z -0.010040 0.000000 1.779480 
# 
# From -- ./inp_files/159101.got.cif
#   From: 2010.06.25/outbox.cif.g09.slc.cpg/sg15_80_cif.got.tgz:159101.got - 2010.06.28 07:06:18.
