data_PCOD8143649
_publ_section_title
;
Structure prediction by ZEFSAII (Michael W. Deem and Ramdas Pophale) SiO2 
 PCOD8143649
Probable space group: C 2/C
;
_chemical_formula_sum "Si O2"
_cell_formula_units_Z 64
_cell_length_a 22.597749
_cell_length_b 18.946538
_cell_length_c 14.582979
_cell_angle_alpha 90.000000
_cell_angle_beta 30.054780
_cell_angle_gamma 90.000000
_cell_volume 3127.013085
_symmetry_space_group_name_H-M "C 2/C"
_symmetry_group_IT_number 15
_symmetry_cell_setting 'monoclinic'
loop_
_space_group_symop_operation_xyz
x,y,z
-x,y,1/2-z
-x,-y,-z
x,-y,1/2+z
1/2+x,1/2+y,z
1/2-x,1/2+y,1/2-z
1/2-x,1/2-y,-z
1/2+x,1/2-y,1/2+z
loop_
_atom_site_type_symbol
_atom_site_label
_atom_site_fract_x
_atom_site_fract_y
_atom_site_fract_z
Si Si1 0.363255 0.552073 0.409618
Si Si2 0.097769 0.310226 0.689808
Si Si3 0.026965 0.389655 0.960011
Si Si4 0.125285 0.021673 0.790988
Si Si5 0.845488 0.211182 0.427940
Si Si6 0.190150 0.514865 0.791312
Si Si7 0.940880 0.749216 0.975545
Si Si8 0.144328 0.178611 0.731395
O O1 0.500000 0.540094 0.250000
O O2 0.338051 0.532041 0.338186
O O3 0.317155 0.630809 0.491677
O O4 0.281657 0.504643 0.585110
O O5 0.097327 0.364283 0.775429
O O6 0.072387 0.230283 0.759369
O O7 0.218526 0.313320 0.473114
O O8 0.000000 0.334428 0.750000
O O9 0.107366 0.445866 0.906257
O O10 0.009350 0.324288 0.052873
O O11 0.897961 0.418717 0.105136
O O12 0.233141 0.023601 0.718863
O O13 0.104492 0.098254 0.773020
O O14 0.000000 0.000000 0.000000
O O15 0.750000 0.250000 0.500000
O O16 0.849964 0.260403 0.513329
O O17 0.958936 0.205590 0.209930
O O18 0.879135 0.797767 0.133509
#
# Coordination Sequence:
#
# PCOD8143649 Si02
#       8
#     8   8   8   8   8   8   8   8
#     4  12  23  42  62  93 133 168 214 263 330 393
#     4  10  21  41  66  93 123 164 214 266 321 379
#     4  10  23  43  65  94 127 170 218 266 325 386
#     4  12  24  40  64  93 129 172 210 261 325 393
#     4  11  23  39  64  91 124 165 215 268 319 377
#     4  11  24  43  65  93 133 171 216 269 322 394
#     4  10  21  41  62  90 126 162 212 268 321 379
#     4  10  22  40  61  92 126 159 214 258 319 383
#
# _framework density 20.466815
#
# number of rings (size 3 to 8) (size 9 to 14) (size 15 to 20)
#    0.000    1.250    2.500    3.750    1.750    2.500 
#    6.750    1.250    0.000    0.000    0.000    0.000 
#    0.000    0.000    0.000    0.000    0.000    0.000 
#
# Total GULP energy -396728.095285 kJ/mol
# GULP energy per Si atom -12397.752978 kJ/mol
# Density = 2.042023 g / cm^3
# Si number density = 20.466815 Si / 1000 Ang^3
#
#
#
# Elastic Constant Matrix: (Units=GPa)
#
#
# Indices 1 2 3 4 5 6 
#
# 1 123.1249 38.6337 26.7503 0.0000 4.2047 0.0000
# 2 38.6337 100.3035 19.3561 0.0001 -0.7984 0.0000
# 3 26.7503 19.3561 77.1186 0.0002 19.6736 -0.0001
# 4 0.0000 0.0001 0.0002 27.7290 -0.0001 0.7286
# 5 4.2047 -0.7984 19.6736 -0.0001 34.7221 0.0000
# 6 0.0000 0.0000 -0.0001 0.7286 0.0000 27.8938
#
#
#
# Elastic Compliance Matrix: (Units=1/GPa)
#
#
# Indices 1 2 3 4 5 6 
#
# 1 0.009694 -0.003228 -0.002611 0.000000 0.000232 0.000000
# 2 -0.003228 0.011675 -0.002313 0.000000 0.001970 0.000000
# 3 -0.002611 -0.002313 0.016817 0.000000 -0.009266 0.000000
# 4 0.000000 0.000000 0.000000 0.036088 0.000000 -0.000943
# 5 0.000232 0.001970 -0.009266 0.000000 0.034067 0.000000
# 6 0.000000 0.000000 0.000000 -0.000943 0.000000 0.035875
#
#
# Mechanical properties :
#
#
# Convention : Reuss Voigt Hill
#
# Bulk Modulus (GPa) = 45.70169 52.22525 48.96347
# Shear Modulus (GPa) = 29.79451 32.45610 31.12530
#
# Velocity S-wave (km/s) = 3.81956 3.98652 3.90393
# Velocity P-wave (km/s) = 6.46763 6.83829 6.65554
#
# Compressibility (1/GPa) = 0.02188103
#
# Stress axis : x y z
#
# Youngs Moduli (GPa) = 103.15434 85.65180 59.46278
#
# Poissons Ratio (x) = 0.27649 0.15529
# Poissons Ratio (y) = 0.33299 0.13755
# Poissons Ratio (z) = 0.26939 0.19813
#
# Static dielectric constant tensor:
#      x y z
#    x 3.876060 0.000000 0.233630 
#    y 0.000000 3.502680 0.000000 
#    z 0.233630 0.000000 3.794010 
# 
# 
# High freq. dielectric constant tensor:
#      x y z
#    x 1.803850 0.000000 0.008260 
#    y 0.000000 1.801500 0.000000 
#    z 0.008260 0.000000 1.811100 
# 
# From -- ./inp_files/174216.got.cif
#   From: 2010.06.25/outbox.cif.g09.slc.cpg/sg15_88_cif.got.tgz:174216.got - 2010.06.28 07:06:18.
