data_PCOD8143973
_publ_section_title
;
Structure prediction by ZEFSAII (Michael W. Deem and Ramdas Pophale) SiO2 
 PCOD8143973
Probable space group: C 2/C
;
_chemical_formula_sum "Si O2"
_cell_formula_units_Z 48
_cell_length_a 16.226897
_cell_length_b 11.941580
_cell_length_c 25.316602
_cell_angle_alpha 90.000000
_cell_angle_beta 28.747850
_cell_angle_gamma 90.000000
_cell_volume 2359.434446
_symmetry_space_group_name_H-M "C 2/C"
_symmetry_group_IT_number 15
_symmetry_cell_setting 'monoclinic'
loop_
_space_group_symop_operation_xyz
x,y,z
-x,y,1/2-z
-x,-y,-z
x,-y,1/2+z
1/2+x,1/2+y,z
1/2-x,1/2+y,1/2-z
1/2-x,1/2-y,-z
1/2+x,1/2-y,1/2+z
loop_
_atom_site_type_symbol
_atom_site_label
_atom_site_fract_x
_atom_site_fract_y
_atom_site_fract_z
Si Si1 0.322808 0.023130 0.371158
Si Si2 0.254246 0.778753 0.829582
Si Si3 0.147388 0.436733 0.447579
Si Si4 0.413272 0.666007 0.461917
Si Si5 0.406271 0.167006 0.416484
Si Si6 0.644011 0.640072 0.127171
O O1 0.500000 0.969561 0.250000
O O2 0.269155 0.133879 0.369268
O O3 0.360692 0.054816 0.410230
O O4 0.171678 0.933144 0.455989
O O5 0.236335 0.652439 0.859463
O O6 0.426433 0.772908 0.699386
O O7 0.102963 0.816112 0.876298
O O8 0.054845 0.368162 0.545833
O O9 0.291750 0.519067 0.389505
O O10 0.000000 0.500000 0.500000
O O11 0.431421 0.635109 0.389827
O O12 0.304529 0.776627 0.534914
O O13 0.250000 0.250000 0.500000
O O14 0.500000 0.681681 0.250000
#
# Coordination Sequence:
#
# PCOD8143973 Si02
#       6
#     8   8   8   8   8   8
#     4  10  21  41  68  93 129 175 221 274 333 400
#     4  11  25  41  68  99 133 172 226 277 333 397
#     4  12  25  46  68 103 136 174 227 283 329 401
#     4  11  23  45  63  99 133 175 223 274 339 399
#     4  11  24  44  66  98 132 177 225 274 336 399
#     4  11  26  42  69  93 136 182 218 272 343 402
#
# _framework density 20.343858999999998
#
# number of rings (size 3 to 8) (size 9 to 14) (size 15 to 20)
#    0.000    1.000    5.000    1.000    4.667    0.000 
#    0.000    1.667    0.000    0.000    0.000    0.000 
#    0.000    0.000    0.000    0.000    0.000    0.000 
#
# Total GULP energy -297659.198212 kJ/mol
# GULP energy per Si atom -12402.466592 kJ/mol
# Density = 2.029756 g / cm^3
# Si number density = 20.343859 Si / 1000 Ang^3
#
#
#
# Elastic Constant Matrix: (Units=GPa)
#
#
# Indices 1 2 3 4 5 6 
#
# 1 129.9797 49.7215 72.6363 -0.0013 -5.4074 0.0002
# 2 49.7215 114.6024 65.0848 -0.0026 -3.5454 0.0000
# 3 72.6363 65.0848 148.9235 -0.0074 -1.9899 0.0001
# 4 -0.0013 -0.0026 -0.0074 30.1094 0.0006 -5.9319
# 5 -5.4074 -3.5454 -1.9899 0.0006 33.2092 -0.0001
# 6 0.0002 0.0000 0.0001 -5.9319 -0.0001 36.4880
#
#
#
# Elastic Compliance Matrix: (Units=1/GPa)
#
#
# Indices 1 2 3 4 5 6 
#
# 1 0.011068 -0.002269 -0.004390 -0.000001 0.001297 0.000000
# 2 -0.002269 0.012101 -0.004173 0.000000 0.000672 0.000000
# 3 -0.004390 -0.004173 0.010673 0.000002 -0.000521 0.000000
# 4 -0.000001 0.000000 0.000002 0.034311 -0.000001 0.005578
# 5 0.001297 0.000672 -0.000521 -0.000001 0.030364 0.000000
# 6 0.000000 0.000000 0.000000 0.005578 0.000000 0.028313
#
#
# Mechanical properties :
#
#
# Convention : Reuss Voigt Hill
#
# Bulk Modulus (GPa) = 82.10876 85.37676 83.74276
# Shear Modulus (GPa) = 32.77554 33.69883 33.23719
#
# Velocity S-wave (km/s) = 4.01818 4.07438 4.04638
# Velocity P-wave (km/s) = 7.87247 8.01199 7.94254
#
# Compressibility (1/GPa) = 0.01217897
#
# Stress axis : x y z
#
# Youngs Moduli (GPa) = 90.34654 82.63836 93.69866
#
# Poissons Ratio (x) = 0.18752 0.41129
# Poissons Ratio (y) = 0.20501 0.39098
# Poissons Ratio (z) = 0.39658 0.34483
#
# Static dielectric constant tensor:
#      x y z
#    x 3.681030 0.000000 0.027690 
#    y 0.000000 3.629330 0.000000 
#    z 0.027690 0.000000 3.556650 
# 
# 
# High freq. dielectric constant tensor:
#      x y z
#    x 1.802670 0.000000 0.005630 
#    y 0.000000 1.800110 0.000000 
#    z 0.005630 0.000000 1.805120 
# 
# From -- ./inp_files/298748.got.cif
#   From: 2010.06.25/outbox.cif.g09.slc.cpg/sg15_150_cif.got.tgz:298748.got - 2010.06.28 07:06:18.
