data_PCOD8143033
_publ_section_title
;
Structure prediction by ZEFSAII (Michael W. Deem and Ramdas Pophale) SiO2 
 PCOD8143033
Probable space group: C 2/C
;
_chemical_formula_sum "Si O2"
_cell_formula_units_Z 52
_cell_length_a 11.278090
_cell_length_b 8.992067
_cell_length_c 28.738172
_cell_angle_alpha 90.000000
_cell_angle_beta 120.046093
_cell_angle_gamma 90.000000
_cell_volume 2522.800801
_symmetry_space_group_name_H-M "C 2/C"
_symmetry_group_IT_number 15
_symmetry_cell_setting 'monoclinic'
loop_
_space_group_symop_operation_xyz
x,y,z
-x,y,1/2-z
-x,-y,-z
x,-y,1/2+z
1/2+x,1/2+y,z
1/2-x,1/2+y,1/2-z
1/2-x,1/2-y,-z
1/2+x,1/2-y,1/2+z
loop_
_atom_site_type_symbol
_atom_site_label
_atom_site_fract_x
_atom_site_fract_y
_atom_site_fract_z
Si Si1 0.812963 0.785472 0.216412
Si Si2 0.502619 0.789768 0.331277
Si Si3 0.503634 0.123127 0.317716
Si Si4 0.108057 0.689685 0.952183
Si Si5 0.080959 0.153833 0.015713
Si Si6 0.500000 0.557397 0.250000
Si Si7 0.106230 0.359738 0.935391
O O1 0.651771 0.785227 0.180738
O O2 0.873987 0.716806 0.181245
O O3 0.868077 0.953889 0.233996
O O4 0.859831 0.681820 0.268904
O O5 0.600111 0.771556 0.395618
O O6 0.534268 0.658924 0.301388
O O7 0.527733 0.948677 0.311529
O O8 0.499515 0.150922 0.372069
O O9 0.096319 0.515164 0.960068
O O10 0.979028 0.753294 0.953886
O O11 0.250000 0.750000 0.000000
O O12 0.242062 0.144355 0.056862
O O13 0.064117 0.228443 0.961743
O O14 0.000000 0.000000 0.000000
#
# Coordination Sequence:
#
# PCOD8143033 Si02
#       7
#     8   8   8   8   8   4   8
#     4  10  21  40  60  88 123 149 200 244 303 358
#     4  11  22  40  63  85 122 158 197 245 297 357
#     4   9  20  39  61  86 119 156 193 247 298 357
#     4  11  23  43  59  90 125 163 205 246 303 361
#     4  11  22  39  63  86 120 160 205 248 300 356
#     4  10  22  38  60  96 112 152 202 244 298 358
#     4  10  22  41  61  89 121 158 205 251 302 359
#
# _framework density 20.612010999999999
#
# number of rings (size 3 to 8) (size 9 to 14) (size 15 to 20)
#    0.000    1.846    1.538    3.231    0.000    2.462 
#   11.077    3.077    0.000    0.000    0.000    0.000 
#    0.000    0.000    0.000    0.000    0.000    0.000 
#
# Total GULP energy -322393.023687 kJ/mol
# GULP energy per Si atom -12399.731680 kJ/mol
# Density = 2.056510 g / cm^3
# Si number density = 20.612011 Si / 1000 Ang^3
#
#
#
# Elastic Constant Matrix: (Units=GPa)
#
#
# Indices 1 2 3 4 5 6 
#
# 1 61.3069 44.7044 20.7552 0.0000 -7.5620 0.0000
# 2 44.7044 145.6064 61.2573 0.0000 -8.6473 0.0000
# 3 20.7552 61.2573 119.8399 0.0000 2.3386 0.0000
# 4 0.0000 0.0000 0.0000 31.5635 0.0000 -9.6446
# 5 -7.5620 -8.6473 2.3386 0.0000 21.5367 0.0000
# 6 0.0000 0.0000 0.0000 -9.6446 0.0000 36.2732
#
#
#
# Elastic Compliance Matrix: (Units=1/GPa)
#
#
# Indices 1 2 3 4 5 6 
#
# 1 0.021591 -0.005988 -0.000781 0.000000 0.005262 0.000000
# 2 -0.005988 0.010769 -0.004521 0.000000 0.002712 0.000000
# 3 -0.000781 -0.004521 0.010854 0.000000 -0.003268 0.000000
# 4 0.000000 0.000000 0.000000 0.034484 0.000000 0.009169
# 5 0.005262 0.002712 -0.003268 0.000000 0.049724 0.000000
# 6 0.000000 0.000000 0.000000 0.009169 0.000000 0.030006
#
#
# Mechanical properties :
#
#
# Convention : Reuss Voigt Hill
#
# Bulk Modulus (GPa) = 48.46120 64.46524 56.46322
# Shear Modulus (GPa) = 26.75416 31.21043 28.98229
#
# Velocity S-wave (km/s) = 3.60667 3.89548 3.75385
# Velocity P-wave (km/s) = 6.39580 7.18167 6.80010
#
# Compressibility (1/GPa) = 0.02063507
#
# Stress axis : x y z
#
# Youngs Moduli (GPa) = 46.31529 92.85779 92.12892
#
# Poissons Ratio (x) = 0.55601 0.07199
# Poissons Ratio (y) = 0.27732 0.41648
# Poissons Ratio (z) = 0.03619 0.41978
#
# Static dielectric constant tensor:
#      x y z
#    x 3.574900 0.000000 0.002730 
#    y 0.000000 3.964140 0.000000 
#    z 0.002730 0.000000 3.669970 
# 
# 
# High freq. dielectric constant tensor:
#      x y z
#    x 1.797480 0.000000 -0.000950 
#    y 0.000000 1.820780 0.000000 
#    z -0.000950 0.000000 1.811600 
# 
# From -- ./inp_files/291702.got.cif
#   From: 2010.06.25/outbox.cif.g09.slc.cpg/sg15_146_cif.got.tgz:291702.got - 2010.06.28 07:06:18.
