data_PCOD8143025
_publ_section_title
;
Structure prediction by ZEFSAII (Michael W. Deem and Ramdas Pophale) SiO2 
 PCOD8143025
Probable space group: C 2/C
;
_chemical_formula_sum "Si O2"
_cell_formula_units_Z 40
_cell_length_a 23.923422
_cell_length_b 6.852576
_cell_length_c 14.158216
_cell_angle_alpha 90.000000
_cell_angle_beta 117.580008
_cell_angle_gamma 90.000000
_cell_volume 2057.303587
_symmetry_space_group_name_H-M "C 2/C"
_symmetry_group_IT_number 15
_symmetry_cell_setting 'monoclinic'
loop_
_space_group_symop_operation_xyz
x,y,z
-x,y,1/2-z
-x,-y,-z
x,-y,1/2+z
1/2+x,1/2+y,z
1/2-x,1/2+y,1/2-z
1/2-x,1/2-y,-z
1/2+x,1/2-y,1/2+z
loop_
_atom_site_type_symbol
_atom_site_label
_atom_site_fract_x
_atom_site_fract_y
_atom_site_fract_z
Si Si1 0.744592 0.934433 0.881470
Si Si2 0.331909 0.094204 0.999597
Si Si3 0.974335 0.478329 0.626965
Si Si4 0.961553 0.198498 0.964686
Si Si5 0.320269 0.238634 0.342298
O O1 0.704786 0.002738 0.941178
O O2 0.699090 0.804896 0.780129
O O3 0.766970 0.126687 0.845870
O O4 0.805365 0.810010 0.960342
O O5 0.405205 0.114409 0.081029
O O6 0.323182 0.964018 0.900240
O O7 0.974809 0.680912 0.570270
O O8 0.000000 0.527486 0.750000
O O9 0.018952 0.321440 0.611693
O O10 0.887414 0.151689 0.896527
O O11 0.000000 0.000000 0.000000
#
# Coordination Sequence:
#
# PCOD8143025 Si02
#       5
#     8   8   8   8   8
#     4  11  21  37  59  87 115 155 187 236 294 346
#     4  10  22  38  57  84 120 150 193 239 283 353
#     4  10  21  40  60  85 117 156 197 241 296 344
#     4  10  22  39  60  87 117 154 198 247 290 350
#     4  11  21  38  59  86 118 151 193 237 296 346
#
# _framework density 19.442924999999999
#
# number of rings (size 3 to 8) (size 9 to 14) (size 15 to 20)
#    0.000    1.600    2.000    3.000    0.000    0.800 
#    3.600    4.000    0.000    0.000    0.000    0.000 
#    0.000    0.000    0.000    0.000    0.000    0.000 
#
# Total GULP energy -248112.443017 kJ/mol
# GULP energy per Si atom -12405.622151 kJ/mol
# Density = 1.939867 g / cm^3
# Si number density = 19.442925 Si / 1000 Ang^3
#
#
#
# Elastic Constant Matrix: (Units=GPa)
#
#
# Indices 1 2 3 4 5 6 
#
# 1 99.4573 12.4991 36.7662 0.0000 -1.8839 0.0000
# 2 12.4991 35.8389 15.1590 0.0000 -0.4416 0.0000
# 3 36.7662 15.1590 113.8618 0.0000 2.1782 0.0000
# 4 0.0000 0.0000 0.0000 16.7308 0.0000 0.4082
# 5 -1.8839 -0.4416 2.1782 0.0000 21.1565 0.0000
# 6 0.0000 0.0000 0.0000 0.4082 0.0000 34.8637
#
#
#
# Elastic Compliance Matrix: (Units=1/GPa)
#
#
# Indices 1 2 3 4 5 6 
#
# 1 0.011683 -0.002598 -0.003452 0.000000 0.001341 0.000000
# 2 -0.002598 0.030167 -0.003191 0.000000 0.000727 0.000000
# 3 -0.003452 -0.003191 0.010350 0.000000 -0.001440 0.000000
# 4 0.000000 0.000000 0.000000 0.059787 0.000000 -0.000700
# 5 0.001341 0.000727 -0.001440 0.000000 0.047550 0.000000
# 6 0.000000 0.000000 0.000000 -0.000700 0.000000 0.028691
#
#
# Mechanical properties :
#
#
# Convention : Reuss Voigt Hill
#
# Bulk Modulus (GPa) = 29.65845 42.00073 35.82959
# Shear Modulus (GPa) = 22.94107 26.86577 24.90342
#
# Velocity S-wave (km/s) = 3.43872 3.72126 3.58278
# Velocity P-wave (km/s) = 5.57258 6.33345 5.96516
#
# Compressibility (1/GPa) = 0.03371720
#
# Stress axis : x y z
#
# Youngs Moduli (GPa) = 85.59752 33.14827 96.62093
#
# Poissons Ratio (x) = 0.08611 0.33355
# Poissons Ratio (y) = 0.22235 0.30836
# Poissons Ratio (z) = 0.29550 0.10579
#
# Static dielectric constant tensor:
#      x y z
#    x 3.797420 0.000000 0.008290 
#    y 0.000000 3.316430 0.000000 
#    z 0.008290 0.000000 3.596710 
# 
# 
# High freq. dielectric constant tensor:
#      x y z
#    x 1.773630 0.000000 -0.001140 
#    y 0.000000 1.745260 0.000000 
#    z -0.001140 0.000000 1.764820 
# 
# From -- ./inp_files/170914.got.cif
#   From: 2010.06.25/outbox.cif.g09.slc.cpg/sg15_86_cif.got.tgz:170914.got - 2010.06.28 07:06:18.
