data_PCOD8143990
_publ_section_title
;
Structure prediction by ZEFSAII (Michael W. Deem and Ramdas Pophale) SiO2 
 PCOD8143990
Probable space group: C 2/C
;
_chemical_formula_sum "Si O2"
_cell_formula_units_Z 48
_cell_length_a 11.140829
_cell_length_b 26.188298
_cell_length_c 13.712042
_cell_angle_alpha 90.000000
_cell_angle_beta 146.496662
_cell_angle_gamma 90.000000
_cell_volume 2208.282539
_symmetry_space_group_name_H-M "C 2/C"
_symmetry_group_IT_number 15
_symmetry_cell_setting 'monoclinic'
loop_
_space_group_symop_operation_xyz
x,y,z
-x,y,1/2-z
-x,-y,-z
x,-y,1/2+z
1/2+x,1/2+y,z
1/2-x,1/2+y,1/2-z
1/2-x,1/2-y,-z
1/2+x,1/2-y,1/2+z
loop_
_atom_site_type_symbol
_atom_site_label
_atom_site_fract_x
_atom_site_fract_y
_atom_site_fract_z
Si Si1 0.985449 0.180978 0.952483
Si Si2 0.215093 0.949789 0.839687
Si Si3 0.887056 0.290713 0.435051
Si Si4 0.000681 0.472867 0.635749
Si Si5 0.851810 0.834225 0.731273
Si Si6 0.306859 0.130497 0.042962
O O1 0.141616 0.231228 0.056311
O O2 0.996307 0.160401 0.070208
O O3 0.082008 0.135444 0.950236
O O4 0.742115 0.195008 0.752027
O O5 0.261407 0.962795 0.755058
O O6 0.226722 0.889368 0.859022
O O7 0.000000 0.971102 0.750000
O O8 0.414971 0.975016 0.031559
O O9 0.790837 0.324321 0.455512
O O10 0.143315 0.298987 0.599283
O O11 0.842219 0.423545 0.511272
O O12 0.000000 0.482028 0.750000
O O13 0.000000 0.807871 0.750000
O O14 0.500000 0.139039 0.250000
#
# Coordination Sequence:
#
# PCOD8143990 Si02
#       6
#     8   8   8   8   8   8
#     4  12  24  41  67  97 132 171 217 272 340 390
#     4  10  22  43  65  92 135 176 216 281 332 394
#     4  12  23  42  65 100 131 172 217 272 334 402
#     4  10  21  41  68  97 132 172 221 276 336 397
#     4  11  24  46  64  90 136 177 227 274 322 393
#     4  11  20  40  68  96 137 169 210 276 335 398
#
# _framework density 21.736349000000001
#
# number of rings (size 3 to 8) (size 9 to 14) (size 15 to 20)
#    0.000    1.000    5.000    2.000    0.000    3.333 
#    6.000    0.000    0.000    0.000    0.000    0.000 
#    0.000    0.000    0.000    0.000    0.000    0.000 
#
# Total GULP energy -297343.963889 kJ/mol
# GULP energy per Si atom -12389.331829 kJ/mol
# Density = 2.168688 g / cm^3
# Si number density = 21.736349 Si / 1000 Ang^3
#
#
#
# Elastic Constant Matrix: (Units=GPa)
#
#
# Indices 1 2 3 4 5 6 
#
# 1 158.0096 10.4160 32.3643 0.0000 -9.5787 0.0000
# 2 10.4160 77.9007 10.8906 0.0000 -18.5167 0.0000
# 3 32.3643 10.8906 83.4817 0.0000 -2.2850 0.0000
# 4 0.0000 0.0000 0.0000 21.2177 0.0000 -5.8397
# 5 -9.5787 -18.5167 -2.2850 0.0000 22.3428 0.0000
# 6 0.0000 0.0000 0.0000 -5.8397 0.0000 25.3290
#
#
#
# Elastic Compliance Matrix: (Units=1/GPa)
#
#
# Indices 1 2 3 4 5 6 
#
# 1 0.007039 0.000105 -0.002665 0.000000 0.002832 0.000000
# 2 0.000105 0.016240 -0.001794 0.000000 0.013320 0.000000
# 3 -0.002665 -0.001794 0.013211 0.000000 -0.001279 0.000000
# 4 0.000000 0.000000 0.000000 0.050324 0.000000 0.011602
# 5 0.002832 0.013320 -0.001279 0.000000 0.056880 0.000000
# 6 0.000000 0.000000 0.000000 0.011602 0.000000 0.042155
#
#
# Mechanical properties :
#
#
# Convention : Reuss Voigt Hill
#
# Bulk Modulus (GPa) = 35.99708 47.41485 41.70597
# Shear Modulus (GPa) = 24.53150 31.49263 28.01206
#
# Velocity S-wave (km/s) = 3.36310 3.81050 3.59377
# Velocity P-wave (km/s) = 5.62826 6.42035 6.03731
#
# Compressibility (1/GPa) = 0.02778003
#
# Stress axis : x y z
#
# Youngs Moduli (GPa) = 142.05744 61.57662 75.69442
#
# Poissons Ratio (x) = -0.00643 0.20174
# Poissons Ratio (y) = -0.01485 0.13583
# Poissons Ratio (z) = 0.37861 0.11050
#
# Static dielectric constant tensor:
#      x y z
#    x 4.393940 0.000000 -0.023330 
#    y 0.000000 3.975170 0.000000 
#    z -0.023330 0.000000 3.722110 
# 
# 
# High freq. dielectric constant tensor:
#      x y z
#    x 1.865980 0.000000 -0.007990 
#    y 0.000000 1.855790 0.000000 
#    z -0.007990 0.000000 1.828790 
# 
# From -- ./inp_files/148819.got.cif
#   From: 2010.06.25/outbox.cif.g09.slc.cpg/sg15_75_cif.got.tgz:148819.got - 2010.06.28 07:06:18.
