data_PCOD8143714
_publ_section_title
;
Structure prediction by ZEFSAII (Michael W. Deem and Ramdas Pophale) SiO2 
 PCOD8143714
Probable space group: C 2/C
;
_chemical_formula_sum "Si O2"
_cell_formula_units_Z 56
_cell_length_a 12.444030
_cell_length_b 16.603906
_cell_length_c 17.136688
_cell_angle_alpha 90.000000
_cell_angle_beta 131.659786
_cell_angle_gamma 90.000000
_cell_volume 2645.329596
_symmetry_space_group_name_H-M "C 2/C"
_symmetry_group_IT_number 15
_symmetry_cell_setting 'monoclinic'
loop_
_space_group_symop_operation_xyz
x,y,z
-x,y,1/2-z
-x,-y,-z
x,-y,1/2+z
1/2+x,1/2+y,z
1/2-x,1/2+y,1/2-z
1/2-x,1/2-y,-z
1/2+x,1/2-y,1/2+z
loop_
_atom_site_type_symbol
_atom_site_label
_atom_site_fract_x
_atom_site_fract_y
_atom_site_fract_z
Si Si1 0.659555 0.170233 0.292465
Si Si2 0.615573 0.892789 0.606585
Si Si3 0.140525 0.899758 0.078715
Si Si4 0.340740 0.438640 0.990485
Si Si5 0.307760 0.823113 0.295049
Si Si6 0.895121 0.255000 0.021025
Si Si7 0.693301 0.049546 0.574558
O O1 0.500000 0.175561 0.250000
O O2 0.670945 0.114813 0.221408
O O3 0.764838 0.134246 0.408384
O O4 0.708483 0.258882 0.291154
O O5 0.622902 0.807163 0.566627
O O6 0.457796 0.930331 0.538599
O O7 0.712341 0.955439 0.604779
O O8 0.256792 0.849234 0.184533
O O9 0.214803 0.974606 0.069065
O O10 0.068483 0.836874 0.983722
O O11 0.012874 0.934747 0.069867
O O12 0.312718 0.428808 0.068683
O O13 0.471854 0.791379 0.365444
O O14 0.293932 0.902660 0.339452
O O15 0.750000 0.250000 0.000000
#
# Coordination Sequence:
#
# PCOD8143714 Si02
#       7
#     8   8   8   8   8   8   8
#     4  12  23  40  68  99 130 177 216 272 333 390
#     4  10  21  41  63  93 132 160 223 274 319 393
#     4  11  24  44  64  96 137 171 223 275 331 399
#     4  11  24  42  67  95 134 176 220 275 333 398
#     4  11  25  42  66  98 134 169 222 273 325 409
#     4  11  23  43  69  94 131 176 219 273 336 390
#     4  10  22  40  64  95 125 171 214 274 328 383
#
# _framework density 21.169385999999999
#
# number of rings (size 3 to 8) (size 9 to 14) (size 15 to 20)
#    0.000    1.143    4.286    1.714    2.000    1.143 
#    2.571    0.000    0.000    0.000    0.000    0.000 
#    0.000    0.000    0.000    0.000    0.000    0.000 
#
# Total GULP energy -347240.901029 kJ/mol
# GULP energy per Si atom -12401.460751 kJ/mol
# Density = 2.112120 g / cm^3
# Si number density = 21.169386 Si / 1000 Ang^3
#
#
#
# Elastic Constant Matrix: (Units=GPa)
#
#
# Indices 1 2 3 4 5 6 
#
# 1 104.3679 8.3773 19.9764 0.0000 7.1143 0.0000
# 2 8.3773 93.4848 11.1259 0.0000 4.6507 0.0000
# 3 19.9764 11.1259 69.5032 0.0000 9.3889 0.0000
# 4 0.0000 0.0000 0.0000 24.9734 0.0000 -0.4257
# 5 7.1143 4.6507 9.3889 0.0000 19.6336 0.0000
# 6 0.0000 0.0000 0.0000 -0.4257 0.0000 28.7393
#
#
#
# Elastic Compliance Matrix: (Units=1/GPa)
#
#
# Indices 1 2 3 4 5 6 
#
# 1 0.010272 -0.000498 -0.002551 0.000000 -0.002384 0.000000
# 2 -0.000498 0.010993 -0.001378 0.000000 -0.001764 0.000000
# 3 -0.002551 -0.001378 0.016220 0.000000 -0.006506 0.000000
# 4 0.000000 0.000000 0.000000 0.040053 0.000000 0.000593
# 5 -0.002384 -0.001764 -0.006506 0.000000 0.055326 0.000000
# 6 0.000000 0.000000 0.000000 0.000593 0.000000 0.034804
#
#
# Mechanical properties :
#
#
# Convention : Reuss Voigt Hill
#
# Bulk Modulus (GPa) = 34.92618 38.47945 36.70282
# Shear Modulus (GPa) = 26.87197 29.86101 28.36649
#
# Velocity S-wave (km/s) = 3.56670 3.75984 3.66454
# Velocity P-wave (km/s) = 5.78758 6.08809 5.93974
#
# Compressibility (1/GPa) = 0.02863181
#
# Stress axis : x y z
#
# Youngs Moduli (GPa) = 97.35008 90.96379 61.65080
#
# Poissons Ratio (x) = 0.04533 0.15724
# Poissons Ratio (y) = 0.04851 0.08497
# Poissons Ratio (z) = 0.24829 0.12537
#
# Static dielectric constant tensor:
#      x y z
#    x 3.693600 0.000000 0.036820 
#    y 0.000000 4.039250 0.000000 
#    z 0.036820 0.000000 3.719410 
# 
# 
# High freq. dielectric constant tensor:
#      x y z
#    x 1.827280 0.000000 -0.004200 
#    y 0.000000 1.846910 0.000000 
#    z -0.004200 0.000000 1.820190 
# 
# From -- ./inp_files/199602.got.cif
#   From: 2010.06.25/outbox.cif.g09.slc.cpg/sg15_100_cif.got.tgz:199602.got - 2010.06.28 07:06:18.
