data_PCOD8143582
_publ_section_title
;
Structure prediction by ZEFSAII (Michael W. Deem and Ramdas Pophale) SiO2 
 PCOD8143582
Probable space group: C 2/C
;
_chemical_formula_sum "Si O2"
_cell_formula_units_Z 40
_cell_length_a 18.287849
_cell_length_b 7.264314
_cell_length_c 33.551522
_cell_angle_alpha 90.000000
_cell_angle_beta 154.446198
_cell_angle_gamma 90.000000
_cell_volume 1922.683395
_symmetry_space_group_name_H-M "C 2/C"
_symmetry_group_IT_number 15
_symmetry_cell_setting 'monoclinic'
loop_
_space_group_symop_operation_xyz
x,y,z
-x,y,1/2-z
-x,-y,-z
x,-y,1/2+z
1/2+x,1/2+y,z
1/2-x,1/2+y,1/2-z
1/2-x,1/2-y,-z
1/2+x,1/2-y,1/2+z
loop_
_atom_site_type_symbol
_atom_site_label
_atom_site_fract_x
_atom_site_fract_y
_atom_site_fract_z
Si Si1 0.478504 0.222208 0.867912
Si Si2 0.192200 0.365835 0.351961
Si Si3 0.739203 0.589014 0.439233
Si Si4 0.235532 0.478014 0.790792
Si Si5 0.926393 0.270021 0.672376
O O1 0.581935 0.308926 0.882380
O O2 0.408015 0.379411 0.862445
O O3 0.320585 0.112089 0.772373
O O4 0.598133 0.085806 0.952117
O O5 0.285588 0.201504 0.421547
O O6 0.280416 0.405775 0.352796
O O7 0.192503 0.552726 0.378314
O O8 0.000000 0.302225 0.250000
O O9 0.689410 0.379657 0.406132
O O10 0.086156 0.329505 0.724162
O O11 0.000000 0.189651 0.750000
#
# Coordination Sequence:
#
# PCOD8143582 Si02
#       5
#     8   8   8   8   8
#     4  11  23  37  59  90 122 154 201 249 311 352
#     4   9  18  39  61  84 118 161 199 238 298 363
#     4  11  21  38  62  91 114 157 205 249 297 361
#     4  10  21  41  58  88 124 163 197 248 303 365
#     4   9  19  36  63  85 112 156 204 235 294 365
#
# _framework density 20.804255999999999
#
# number of rings (size 3 to 8) (size 9 to 14) (size 15 to 20)
#    0.000    2.400    4.000    1.800    0.000    1.600 
#    3.600    4.000    0.000    0.000    0.000    0.000 
#    0.000    0.000    0.000    0.000    0.000    0.000 
#
# Total GULP energy -248012.107662 kJ/mol
# GULP energy per Si atom -12400.605383 kJ/mol
# Density = 2.075691 g / cm^3
# Si number density = 20.804256 Si / 1000 Ang^3
#
#
#
# Elastic Constant Matrix: (Units=GPa)
#
#
# Indices 1 2 3 4 5 6 
#
# 1 86.4259 12.1772 18.5123 0.0045 -13.3504 -0.0016
# 2 12.1772 60.8553 20.7372 0.0073 -15.4808 0.0003
# 3 18.5123 20.7372 34.3164 0.0111 -10.5977 -0.0124
# 4 0.0045 0.0073 0.0111 32.2951 -0.0095 -5.1452
# 5 -13.3504 -15.4808 -10.5977 -0.0095 22.2753 0.0079
# 6 -0.0016 0.0003 -0.0124 -5.1452 0.0079 20.7134
#
#
#
# Elastic Compliance Matrix: (Units=1/GPa)
#
#
# Indices 1 2 3 4 5 6 
#
# 1 0.013659 0.000825 -0.006051 0.000001 0.005881 -0.000005
# 2 0.000825 0.022783 -0.010749 0.000000 0.011214 -0.000011
# 3 -0.006051 -0.010749 0.041583 -0.000005 0.008687 0.000020
# 4 0.000001 0.000000 -0.000005 0.032240 0.000009 0.008009
# 5 0.005881 0.011214 0.008687 0.000009 0.060343 -0.000015
# 6 -0.000005 -0.000011 0.000020 0.008009 -0.000015 0.050267
#
#
# Mechanical properties :
#
#
# Convention : Reuss Voigt Hill
#
# Bulk Modulus (GPa) = 21.70410 31.60564 26.65487
# Shear Modulus (GPa) = 18.64384 23.73482 21.18933
#
# Velocity S-wave (km/s) = 2.99683 3.38133 3.19487
# Velocity P-wave (km/s) = 4.73602 5.51991 5.14292
#
# Compressibility (1/GPa) = 0.04607424
#
# Stress axis : x y z
#
# Youngs Moduli (GPa) = 73.21258 43.89219 24.04820
#
# Poissons Ratio (x) = -0.03620 0.14551
# Poissons Ratio (y) = -0.06038 0.25851
# Poissons Ratio (z) = 0.44298 0.47182
#
# Static dielectric constant tensor:
#      x y z
#    x 3.749950 -0.000010 -0.238250 
#    y -0.000010 3.562970 0.000010 
#    z -0.238250 0.000010 3.464000 
# 
# 
# High freq. dielectric constant tensor:
#      x y z
#    x 1.812610 0.000000 -0.021920 
#    y 0.000000 1.804000 0.000000 
#    z -0.021920 0.000000 1.796330 
# 
# From -- ./inp_files/176035.got.cif
#   From: 2010.06.25/outbox.cif.g09.slc.cpg/sg15_89_cif.got.tgz:176035.got - 2010.06.28 07:06:18.
