data_PCOD8143388
_publ_section_title
;
Structure prediction by ZEFSAII (Michael W. Deem and Ramdas Pophale) SiO2 
 PCOD8143388
Probable space group: C 2/C
;
_chemical_formula_sum "Si O2"
_cell_formula_units_Z 56
_cell_length_a 11.785836
_cell_length_b 32.778296
_cell_length_c 8.608565
_cell_angle_alpha 90.000000
_cell_angle_beta 55.490349
_cell_angle_gamma 90.000000
_cell_volume 2740.444168
_symmetry_space_group_name_H-M "C 2/C"
_symmetry_group_IT_number 15
_symmetry_cell_setting 'monoclinic'
loop_
_space_group_symop_operation_xyz
x,y,z
-x,y,1/2-z
-x,-y,-z
x,-y,1/2+z
1/2+x,1/2+y,z
1/2-x,1/2+y,1/2-z
1/2-x,1/2-y,-z
1/2+x,1/2-y,1/2+z
loop_
_atom_site_type_symbol
_atom_site_label
_atom_site_fract_x
_atom_site_fract_y
_atom_site_fract_z
Si Si1 0.030963 0.544221 0.906612
Si Si2 0.229622 0.585620 0.308600
Si Si3 0.207178 0.910802 0.383906
Si Si4 0.962624 0.043026 0.958520
Si Si5 0.647370 0.245545 0.216115
Si Si6 0.876128 0.178436 0.551055
Si Si7 0.811371 0.176030 0.245592
O O1 0.185605 0.562646 0.804107
O O2 0.000000 0.543008 0.750000
O O3 0.000000 0.500000 0.000000
O O4 0.931826 0.575183 0.075206
O O5 0.278333 0.578197 0.446838
O O6 0.247100 0.632521 0.255414
O O7 0.306802 0.555847 0.124844
O O8 0.210608 0.862625 0.339724
O O9 0.052139 0.922283 0.467943
O O10 0.000000 0.041988 0.750000
O O11 0.000000 0.000000 0.000000
O O12 0.500000 0.240057 0.250000
O O13 0.671597 0.284914 0.304300
O O14 0.694055 0.206563 0.278186
O O15 0.750000 0.250000 0.000000
O O16 0.838652 0.187185 0.402604
O O17 0.040454 0.176172 0.453725
#
# Coordination Sequence:
#
# PCOD8143388 Si02
#       7
#     8   8   8   8   8   8   8
#     4  10  22  39  61  89 128 163 201 254 313 374
#     4  10  21  41  65  91 122 160 210 266 314 373
#     4  10  21  40  66  92 120 164 208 262 321 371
#     4  12  24  37  59  91 123 163 211 258 310 378
#     4  12  25  42  63  94 135 172 207 264 329 388
#     4  10  21  41  69  95 126 166 218 269 320 387
#     4  10  21  42  68  95 126 167 218 268 320 388
#
# _framework density 20.434643999999999
#
# number of rings (size 3 to 8) (size 9 to 14) (size 15 to 20)
#    0.000    1.429    2.857    2.571    0.000    6.286 
#    0.000    2.143    0.000    0.000    0.000    0.000 
#    0.000    0.000    0.000    0.000    0.000    0.000 
#
# Total GULP energy -346996.748177 kJ/mol
# GULP energy per Si atom -12392.741006 kJ/mol
# Density = 2.038813 g / cm^3
# Si number density = 20.434644 Si / 1000 Ang^3
#
#
#
# Elastic Constant Matrix: (Units=GPa)
#
#
# Indices 1 2 3 4 5 6 
#
# 1 64.3275 33.9855 20.6387 0.0000 -15.9703 0.0000
# 2 33.9855 146.2719 67.5294 0.0000 -4.5362 0.0000
# 3 20.6387 67.5294 117.4460 0.0000 -22.0108 0.0000
# 4 0.0000 0.0000 0.0000 38.0316 0.0000 -7.2866
# 5 -15.9703 -4.5362 -22.0108 0.0000 25.8024 0.0000
# 6 0.0000 0.0000 0.0000 -7.2866 0.0000 33.6655
#
#
#
# Elastic Compliance Matrix: (Units=1/GPa)
#
#
# Indices 1 2 3 4 5 6 
#
# 1 0.021213 -0.005415 0.001986 0.000000 0.013872 0.000000
# 2 -0.005415 0.010961 -0.006687 0.000000 -0.007129 0.000000
# 3 0.001986 -0.006687 0.014308 0.000000 0.012259 0.000000
# 4 0.000000 0.000000 0.000000 0.027431 0.000000 0.005937
# 5 0.013872 -0.007129 0.012259 0.000000 0.056546 0.000000
# 6 0.000000 0.000000 0.000000 0.005937 0.000000 0.030989
#
#
# Mechanical properties :
#
#
# Convention : Reuss Voigt Hill
#
# Bulk Modulus (GPa) = 38.09649 63.59471 50.84560
# Shear Modulus (GPa) = 26.25628 33.22602 29.74115
#
# Velocity S-wave (km/s) = 3.58843 4.03670 3.81915
# Velocity P-wave (km/s) = 5.98771 7.27428 6.66212
#
# Compressibility (1/GPa) = 0.02624914
#
# Stress axis : x y z
#
# Youngs Moduli (GPa) = 47.14027 91.23462 69.89219
#
# Poissons Ratio (x) = 0.49406 -0.13878
# Poissons Ratio (y) = 0.25528 0.46734
# Poissons Ratio (z) = -0.09360 0.61005
#
# Static dielectric constant tensor:
#      x y z
#    x 3.569170 0.000000 -0.064890 
#    y 0.000000 3.683840 0.000000 
#    z -0.064890 0.000000 3.800270 
# 
# 
# High freq. dielectric constant tensor:
#      x y z
#    x 1.793470 0.000000 -0.007220 
#    y 0.000000 1.809530 0.000000 
#    z -0.007220 0.000000 1.805150 
# 
# From -- ./inp_files/35578.got.cif
#   From: 2010.06.25/outbox.cif.g09.slc.cpg/sg15_18_cif.got.tgz:35578.got - 2010.06.28 07:06:18.
