data_PCOD8143083
_publ_section_title
;
Structure prediction by ZEFSAII (Michael W. Deem and Ramdas Pophale) SiO2 
 PCOD8143083
Probable space group: C 2/C
;
_chemical_formula_sum "Si O2"
_cell_formula_units_Z 40
_cell_length_a 11.386334
_cell_length_b 8.408821
_cell_length_c 26.369849
_cell_angle_alpha 90.000000
_cell_angle_beta 136.653797
_cell_angle_gamma 90.000000
_cell_volume 1733.034104
_symmetry_space_group_name_H-M "C 2/C"
_symmetry_group_IT_number 15
_symmetry_cell_setting 'monoclinic'
loop_
_space_group_symop_operation_xyz
x,y,z
-x,y,1/2-z
-x,-y,-z
x,-y,1/2+z
1/2+x,1/2+y,z
1/2-x,1/2+y,1/2-z
1/2-x,1/2-y,-z
1/2+x,1/2-y,1/2+z
loop_
_atom_site_type_symbol
_atom_site_label
_atom_site_fract_x
_atom_site_fract_y
_atom_site_fract_z
Si Si1 0.286425 0.290206 0.736851
Si Si2 0.900163 0.856891 0.494508
Si Si3 0.513955 0.145724 0.891173
Si Si4 0.300893 0.906538 0.890452
Si Si5 0.517338 0.405145 0.196780
O O1 0.418298 0.176893 0.808140
O O2 0.303813 0.286072 0.680496
O O3 0.330180 0.470338 0.766091
O O4 0.086636 0.249902 0.688520
O O5 0.705279 0.911536 0.439551
O O6 0.984018 0.809274 0.574795
O O7 0.909774 0.695091 0.464260
O O8 0.000000 0.000000 0.500000
O O9 0.426697 0.005999 0.894923
O O10 0.165520 0.020719 0.878039
O O11 0.500000 0.357939 0.250000
#
# Coordination Sequence:
#
# PCOD8143083 Si02
#       5
#     8   8   8   8   8
#     4  11  21  39  68  95 123 160 206 255 315 373
#     4  11  27  43  64  90 126 171 214 255 308 368
#     4  11  24  44  62  92 129 165 209 258 308 375
#     4  11  24  43  66  92 131 163 203 262 317 363
#     4  10  21  40  61  95 127 159 197 261 316 361
#
# _framework density 23.080905999999999
#
# number of rings (size 3 to 8) (size 9 to 14) (size 15 to 20)
#    0.000    1.200    6.000    0.600    2.800    2.400 
#    0.000    3.000    0.000    0.000    0.000    0.000 
#    0.000    0.000    0.000    0.000    0.000    0.000 
#
# Total GULP energy -247808.743126 kJ/mol
# GULP energy per Si atom -12390.437156 kJ/mol
# Density = 2.302837 g / cm^3
# Si number density = 23.080906 Si / 1000 Ang^3
#
#
#
# Elastic Constant Matrix: (Units=GPa)
#
#
# Indices 1 2 3 4 5 6 
#
# 1 113.9393 50.7229 23.8992 0.0000 25.5271 0.0000
# 2 50.7229 53.7344 11.0346 0.0000 18.4258 0.0000
# 3 23.8992 11.0346 89.3633 0.0000 2.5638 0.0000
# 4 0.0000 0.0000 0.0000 30.3345 0.0000 9.1563
# 5 25.5271 18.4258 2.5638 0.0000 25.5747 0.0000
# 6 0.0000 0.0000 0.0000 9.1563 0.0000 67.4695
#
#
#
# Elastic Compliance Matrix: (Units=1/GPa)
#
#
# Indices 1 2 3 4 5 6 
#
# 1 0.016564 -0.012632 -0.002665 0.000000 -0.007166 0.000000
# 2 -0.012632 0.034941 -0.000578 0.000000 -0.012508 0.000000
# 3 -0.002665 -0.000578 0.011920 0.000000 0.001881 0.000000
# 4 0.000000 0.000000 0.000000 0.034374 0.000000 -0.004665
# 5 -0.007166 -0.012508 0.001881 0.000000 0.055077 0.000000
# 6 0.000000 0.000000 0.000000 -0.004665 0.000000 0.015455
#
#
# Mechanical properties :
#
#
# Convention : Reuss Voigt Hill
#
# Bulk Modulus (GPa) = 31.56711 47.59449 39.58080
# Shear Modulus (GPa) = 23.73743 36.10109 29.91926
#
# Velocity S-wave (km/s) = 3.21042 3.95917 3.60429
# Velocity P-wave (km/s) = 5.23916 6.44714 5.87428
#
# Compressibility (1/GPa) = 0.03167854
#
# Stress axis : x y z
#
# Youngs Moduli (GPa) = 60.37151 28.61929 83.89092
#
# Poissons Ratio (x) = 0.36150 0.22353
# Poissons Ratio (y) = 0.76258 0.04845
# Poissons Ratio (z) = 0.16086 0.01653
#
# Static dielectric constant tensor:
#      x y z
#    x 4.293680 0.000000 -0.110220 
#    y 0.000000 4.047230 0.000000 
#    z -0.110220 0.000000 4.513330 
# 
# 
# High freq. dielectric constant tensor:
#      x y z
#    x 1.916330 0.000000 0.003580 
#    y 0.000000 1.890720 0.000000 
#    z 0.003580 0.000000 1.913430 
# 
# From -- ./inp_files/195228.got.cif
#   From: 2010.06.25/outbox.cif.g09.slc.cpg/sg15_98_cif.got.tgz:195228.got - 2010.06.28 07:06:18.
