data_PCOD8143664
_publ_section_title
;
Structure prediction by ZEFSAII (Michael W. Deem and Ramdas Pophale) SiO2 
 PCOD8143664
Probable space group: C 2/C
;
_chemical_formula_sum "Si O2"
_cell_formula_units_Z 56
_cell_length_a 16.857439
_cell_length_b 21.283693
_cell_length_c 13.360425
_cell_angle_alpha 90.000000
_cell_angle_beta 145.416728
_cell_angle_gamma 90.000000
_cell_volume 2720.845263
_symmetry_space_group_name_H-M "C 2/C"
_symmetry_group_IT_number 15
_symmetry_cell_setting 'monoclinic'
loop_
_space_group_symop_operation_xyz
x,y,z
-x,y,1/2-z
-x,-y,-z
x,-y,1/2+z
1/2+x,1/2+y,z
1/2-x,1/2+y,1/2-z
1/2-x,1/2-y,-z
1/2+x,1/2-y,1/2+z
loop_
_atom_site_type_symbol
_atom_site_label
_atom_site_fract_x
_atom_site_fract_y
_atom_site_fract_z
Si Si1 0.533563 0.781723 0.668818
Si Si2 0.343218 0.809996 0.121179
Si Si3 0.789682 0.603950 0.392128
Si Si4 0.082335 0.625250 0.607109
Si Si5 0.552800 0.551918 0.911370
Si Si6 0.672321 0.677073 0.090041
Si Si7 0.804748 0.025139 0.783793
O O1 0.500000 0.786799 0.750000
O O2 0.463182 0.839897 0.540368
O O3 0.468458 0.718298 0.554917
O O4 0.700734 0.782546 0.825512
O O5 0.500000 0.793406 0.250000
O O6 0.336164 0.827982 0.231723
O O7 0.250000 0.750000 0.000000
O O8 0.283704 0.870167 0.998769
O O9 0.708485 0.654816 0.239520
O O10 0.722076 0.535241 0.315208
O O11 0.949617 0.596765 0.525302
O O12 0.170703 0.567169 0.659947
O O13 0.500000 0.528033 0.750000
O O14 0.424731 0.565736 0.854394
O O15 0.642724 0.615585 0.991431
O O16 0.648105 0.497160 0.057085
#
# Coordination Sequence:
#
# PCOD8143664 Si02
#       7
#     8   8   8   8   8   8   8
#     4  11  23  37  60  90 119 161 199 247 309 362
#     4  10  21  41  62  94 124 164 206 257 312 369
#     4   9  20  41  62  89 124 155 203 261 307 364
#     4  10  22  38  62  90 124 155 211 253 304 374
#     4  10  23  40  60  86 125 158 205 255 302 364
#     4  10  22  39  60  86 123 153 202 252 297 369
#     4  10  22  40  61  90 119 166 207 250 316 367
#
# _framework density 20.581838999999999
#
# number of rings (size 3 to 8) (size 9 to 14) (size 15 to 20)
#    0.000    2.000    0.000    2.143    6.000    0.000 
#    7.714    2.143    0.000    0.000    0.000    0.000 
#    0.000    0.000    0.000    0.000    0.000    0.000 
#
# Total GULP energy -347255.717455 kJ/mol
# GULP energy per Si atom -12401.989909 kJ/mol
# Density = 2.053499 g / cm^3
# Si number density = 20.581839 Si / 1000 Ang^3
#
#
#
# Elastic Constant Matrix: (Units=GPa)
#
#
# Indices 1 2 3 4 5 6 
#
# 1 36.6721 29.5753 22.6303 0.0000 5.8011 0.0000
# 2 29.5753 80.9038 43.7727 0.0000 11.1727 0.0000
# 3 22.6303 43.7727 98.1794 0.0000 -4.7786 0.0000
# 4 0.0000 0.0000 0.0000 34.5146 0.0000 8.7483
# 5 5.8011 11.1727 -4.7786 0.0000 22.4263 0.0000
# 6 0.0000 0.0000 0.0000 8.7483 0.0000 20.7789
#
#
#
# Elastic Compliance Matrix: (Units=1/GPa)
#
#
# Indices 1 2 3 4 5 6 
#
# 1 0.040162 -0.011540 -0.004383 0.000000 -0.005574 0.000000
# 2 -0.011540 0.022038 -0.007634 0.000000 -0.009621 0.000000
# 3 -0.004383 -0.007634 0.014995 0.000000 0.008132 0.000000
# 4 0.000000 0.000000 0.000000 0.032434 0.000000 -0.013655
# 5 -0.005574 -0.009621 0.008132 0.000000 0.052558 0.000000
# 6 0.000000 0.000000 0.000000 -0.013655 0.000000 0.053875
#
#
# Mechanical properties :
#
#
# Convention : Reuss Voigt Hill
#
# Bulk Modulus (GPa) = 33.24440 45.30131 39.27286
# Shear Modulus (GPa) = 18.30132 23.52912 20.91522
#
# Velocity S-wave (km/s) = 2.98518 3.38479 3.19124
# Velocity P-wave (km/s) = 5.29803 6.11014 5.71852
#
# Compressibility (1/GPa) = 0.03008025
#
# Stress axis : x y z
#
# Youngs Moduli (GPa) = 24.89886 45.37653 66.68876
#
# Poissons Ratio (x) = 0.52367 0.29233
# Poissons Ratio (y) = 0.28734 0.50908
# Poissons Ratio (z) = 0.10914 0.34639
#
# Static dielectric constant tensor:
#      x y z
#    x 3.513680 0.000000 -0.060570 
#    y 0.000000 3.555610 0.000000 
#    z -0.060570 0.000000 4.090860 
# 
# 
# High freq. dielectric constant tensor:
#      x y z
#    x 1.787990 0.000000 -0.005810 
#    y 0.000000 1.800870 0.000000 
#    z -0.005810 0.000000 1.826230 
# 
# From -- ./inp_files/163843.got.cif
#   From: 2010.06.25/outbox.cif.g09.slc.cpg/sg15_82_cif.got.tgz:163843.got - 2010.06.28 07:06:18.
