data_PCOD8143177
_publ_section_title
;
Structure prediction by ZEFSAII (Michael W. Deem and Ramdas Pophale) SiO2 
 PCOD8143177
Probable space group: C 2/C
;
_chemical_formula_sum "Si O2"
_cell_formula_units_Z 56
_cell_length_a 20.018351
_cell_length_b 9.092098
_cell_length_c 29.041907
_cell_angle_alpha 90.000000
_cell_angle_beta 149.007106
_cell_angle_gamma 90.000000
_cell_volume 2721.869001
_symmetry_space_group_name_H-M "C 2/C"
_symmetry_group_IT_number 15
_symmetry_cell_setting 'monoclinic'
loop_
_space_group_symop_operation_xyz
x,y,z
-x,y,1/2-z
-x,-y,-z
x,-y,1/2+z
1/2+x,1/2+y,z
1/2-x,1/2+y,1/2-z
1/2-x,1/2-y,-z
1/2+x,1/2-y,1/2+z
loop_
_atom_site_type_symbol
_atom_site_label
_atom_site_fract_x
_atom_site_fract_y
_atom_site_fract_z
Si Si1 0.603074 0.579815 0.529318
Si Si2 0.252206 0.789908 0.815387
Si Si3 0.972224 0.611992 0.378372
Si Si4 0.422295 0.796080 0.367043
Si Si5 0.276349 0.383897 0.175759
Si Si6 0.513684 0.804476 0.808726
Si Si7 0.203228 0.790042 0.545836
O O1 0.500000 0.500000 0.500000
O O2 0.701573 0.670714 0.619872
O O3 0.523136 0.678628 0.446117
O O4 0.684436 0.460761 0.548471
O O5 0.356820 0.810578 0.837065
O O6 0.120836 0.742812 0.710802
O O7 0.231036 0.940602 0.830275
O O8 0.999847 0.450691 0.414719
O O9 0.949948 0.590544 0.310086
O O10 0.088825 0.728495 0.447032
O O11 0.290181 0.814650 0.318248
O O12 0.428576 0.344922 0.261226
O O13 0.197672 0.314146 0.087177
O O14 0.500000 0.878663 0.750000
O O15 0.665316 0.770925 0.905599
#
# Coordination Sequence:
#
# PCOD8143177 Si02
#       7
#     8   8   8   8   8   8   8
#     4  12  24  40  64 106 135 164 210 275 330 379
#     4  11  24  38  69  96 135 164 210 279 329 376
#     4  11  22  40  63  93 126 169 217 260 324 376
#     4  11  24  38  67  98 132 162 213 274 330 376
#     4  10  21  40  63  92 126 166 217 257 325 375
#     4  10  23  40  65  89 123 171 222 257 310 393
#     4  11  23  40  69  89 132 172 215 261 318 399
#
# _framework density 20.574099
#
# number of rings (size 3 to 8) (size 9 to 14) (size 15 to 20)
#    0.000    1.143    4.286    1.286   10.000    2.286 
#    0.000    0.714    9.429    0.000    0.000    0.000 
#    0.000    0.000    0.000    0.000    0.000    0.000 
#
# Total GULP energy -347029.618536 kJ/mol
# GULP energy per Si atom -12393.914948 kJ/mol
# Density = 2.052727 g / cm^3
# Si number density = 20.574099 Si / 1000 Ang^3
#
#
#
# Elastic Constant Matrix: (Units=GPa)
#
#
# Indices 1 2 3 4 5 6 
#
# 1 87.9254 51.9577 37.5810 -0.0002 5.0121 0.0001
# 2 51.9577 118.0408 49.6911 -0.0001 -13.0837 0.0001
# 3 37.5810 49.6911 100.8405 -0.0009 -12.0116 0.0000
# 4 -0.0002 -0.0001 -0.0009 38.0117 0.0000 -5.2393
# 5 5.0121 -13.0837 -12.0116 0.0000 30.0080 0.0000
# 6 0.0001 0.0001 0.0000 -5.2393 0.0000 15.8950
#
#
#
# Elastic Compliance Matrix: (Units=1/GPa)
#
#
# Indices 1 2 3 4 5 6 
#
# 1 0.017609 -0.006874 -0.004077 0.000000 -0.007570 0.000000
# 2 -0.006874 0.013581 -0.003453 0.000000 0.005687 0.000000
# 3 -0.004077 -0.003453 0.013692 0.000000 0.004656 0.000000
# 4 0.000000 0.000000 0.000000 0.027560 0.000000 0.009084
# 5 -0.007570 0.005687 0.004656 0.000000 0.038932 0.000000
# 6 0.000000 0.000000 0.000000 0.009084 0.000000 0.065907
#
#
# Mechanical properties :
#
#
# Convention : Reuss Voigt Hill
#
# Bulk Modulus (GPa) = 62.20987 65.02959 63.61973
# Shear Modulus (GPa) = 23.64632 27.95473 25.80053
#
# Velocity S-wave (km/s) = 3.39385 3.69010 3.54507
# Velocity P-wave (km/s) = 6.75723 7.05917 6.90985
#
# Compressibility (1/GPa) = 0.01607462
#
# Stress axis : x y z
#
# Youngs Moduli (GPa) = 56.78776 73.63002 73.03317
#
# Poissons Ratio (x) = 0.50612 0.29777
# Poissons Ratio (y) = 0.39035 0.25221
# Poissons Ratio (z) = 0.23153 0.25427
#
# Static dielectric constant tensor:
#      x y z
#    x 3.806820 0.000000 -0.144390 
#    y 0.000000 3.757310 0.000000 
#    z -0.144390 0.000000 3.789220 
# 
# 
# High freq. dielectric constant tensor:
#      x y z
#    x 1.799900 0.000000 -0.012180 
#    y 0.000000 1.796160 0.000000 
#    z -0.012180 0.000000 1.812850 
# 
# From -- ./inp_files/251829.got.cif
#   From: 2010.06.25/outbox.cif.g09.slc.cpg/sg15_126_cif.got.tgz:251829.got - 2010.06.28 07:06:18.
