data_PCOD8143656
_publ_section_title
;
Structure prediction by ZEFSAII (Michael W. Deem and Ramdas Pophale) SiO2 
 PCOD8143656
Probable space group: C 2/C
;
_chemical_formula_sum "Si O2"
_cell_formula_units_Z 56
_cell_length_a 18.333058
_cell_length_b 12.071825
_cell_length_c 12.052891
_cell_angle_alpha 90.000000
_cell_angle_beta 69.001449
_cell_angle_gamma 90.000000
_cell_volume 2490.319252
_symmetry_space_group_name_H-M "C 2/C"
_symmetry_group_IT_number 15
_symmetry_cell_setting 'monoclinic'
loop_
_space_group_symop_operation_xyz
x,y,z
-x,y,1/2-z
-x,-y,-z
x,-y,1/2+z
1/2+x,1/2+y,z
1/2-x,1/2+y,1/2-z
1/2-x,1/2-y,-z
1/2+x,1/2-y,1/2+z
loop_
_atom_site_type_symbol
_atom_site_label
_atom_site_fract_x
_atom_site_fract_y
_atom_site_fract_z
Si Si1 0.087074 0.613564 0.432725
Si Si2 0.583513 0.368217 0.455041
Si Si3 0.743220 0.595015 0.962892
Si Si4 0.813431 0.609940 0.316504
Si Si5 0.288694 0.298378 0.802354
Si Si6 0.944584 0.068796 0.176674
Si Si7 0.945554 0.445866 0.879029
O O1 0.107072 0.743178 0.411327
O O2 0.140586 0.551775 0.311504
O O3 0.099192 0.555689 0.546965
O O4 0.994702 0.606829 0.452076
O O5 0.649117 0.400223 0.508627
O O6 0.589866 0.450438 0.345426
O O7 0.496782 0.375165 0.552183
O O8 0.761975 0.471862 0.917092
O O9 0.789316 0.675473 0.852236
O O10 0.761953 0.625896 0.081603
O O11 0.755718 0.701602 0.293664
O O12 0.882794 0.645252 0.365315
O O13 0.375727 0.345222 0.741500
O O14 0.000000 0.045288 0.250000
O O15 0.000000 0.488544 0.750000
#
# Coordination Sequence:
#
# PCOD8143656 Si02
#       7
#     8   8   8   8   8   8   8
#     4  10  21  41  62  91 126 162 206 256 317 366
#     4  11  23  41  64  91 122 166 209 252 307 378
#     4  11  23  40  66  93 122 163 211 255 315 367
#     4  11  21  37  62  90 123 159 207 253 307 368
#     4  11  23  40  63  93 125 163 205 262 308 366
#     4  11  24  41  63  91 126 162 208 258 305 369
#     4   9  21  37  62  92 124 162 200 260 310 370
#
# _framework density 22.487075999999998
#
# number of rings (size 3 to 8) (size 9 to 14) (size 15 to 20)
#    0.000    1.429    4.286    0.857    2.000    5.714 
#    0.000    0.000    0.000    5.143    0.000    0.000 
#    0.000    0.000    0.000    0.000    0.000    0.000 
#
# Total GULP energy -346880.513357 kJ/mol
# GULP energy per Si atom -12388.589763 kJ/mol
# Density = 2.243589 g / cm^3
# Si number density = 22.487076 Si / 1000 Ang^3
#
#
#
# Elastic Constant Matrix: (Units=GPa)
#
#
# Indices 1 2 3 4 5 6 
#
# 1 67.5616 -0.3045 12.0549 0.0000 10.3088 0.0000
# 2 -0.3045 23.4112 -1.5548 0.0000 -3.7771 0.0000
# 3 12.0549 -1.5548 49.6092 0.0000 -0.8217 0.0000
# 4 0.0000 0.0000 0.0000 28.4870 0.0000 -1.1754
# 5 10.3088 -3.7771 -0.8217 0.0000 46.5316 0.0000
# 6 0.0000 0.0000 0.0000 -1.1754 0.0000 28.9822
#
#
#
# Elastic Compliance Matrix: (Units=1/GPa)
#
#
# Indices 1 2 3 4 5 6 
#
# 1 0.016072 -0.000650 -0.003987 0.000000 -0.003684 0.000000
# 2 -0.000650 0.043407 0.001580 0.000000 0.003695 0.000000
# 3 -0.003987 0.001580 0.021199 0.000000 0.001386 0.000000
# 4 0.000000 0.000000 0.000000 0.035163 0.000000 0.001426
# 5 -0.003684 0.003695 0.001386 0.000000 0.022631 0.000000
# 6 0.000000 0.000000 0.000000 0.001426 0.000000 0.034562
#
#
# Mechanical properties :
#
#
# Convention : Reuss Voigt Hill
#
# Bulk Modulus (GPa) = 13.41143 17.88592 15.64868
# Shear Modulus (GPa) = 24.50950 29.49259 27.00104
#
# Velocity S-wave (km/s) = 3.30500 3.62544 3.46892
# Velocity P-wave (km/s) = 4.53222 5.04938 4.79777
#
# Compressibility (1/GPa) = 0.07456326
#
# Stress axis : x y z
#
# Youngs Moduli (GPa) = 62.22075 23.03762 47.17253
#
# Poissons Ratio (x) = 0.01498 0.18807
# Poissons Ratio (y) = 0.04045 -0.07451
# Poissons Ratio (z) = 0.24806 -0.03639
#
# Static dielectric constant tensor:
#      x y z
#    x 4.577290 0.000000 0.080840 
#    y 0.000000 3.556350 0.000000 
#    z 0.080840 0.000000 4.034070 
# 
# 
# High freq. dielectric constant tensor:
#      x y z
#    x 1.926800 0.000000 0.001710 
#    y 0.000000 1.834940 0.000000 
#    z 0.001710 0.000000 1.883550 
# 
# From -- ./inp_files/111576.got.cif
#   From: 2010.06.25/outbox.cif.g09.slc.cpg/sg15_56_cif.got.tgz:111576.got - 2010.06.28 07:06:18.
