data_PCOD8143683
_publ_section_title
;
Structure prediction by ZEFSAII (Michael W. Deem and Ramdas Pophale) SiO2 
 PCOD8143683
Probable space group: C 2/C
;
_chemical_formula_sum "Si O2"
_cell_formula_units_Z 48
_cell_length_a 15.698016
_cell_length_b 11.856488
_cell_length_c 26.823319
_cell_angle_alpha 90.000000
_cell_angle_beta 150.593009
_cell_angle_gamma 90.000000
_cell_volume 2451.341011
_symmetry_space_group_name_H-M "C 2/C"
_symmetry_group_IT_number 15
_symmetry_cell_setting 'monoclinic'
loop_
_space_group_symop_operation_xyz
x,y,z
-x,y,1/2-z
-x,-y,-z
x,-y,1/2+z
1/2+x,1/2+y,z
1/2-x,1/2+y,1/2-z
1/2-x,1/2-y,-z
1/2+x,1/2-y,1/2+z
loop_
_atom_site_type_symbol
_atom_site_label
_atom_site_fract_x
_atom_site_fract_y
_atom_site_fract_z
Si Si1 0.417051 0.999782 0.759322
Si Si2 0.409153 0.335196 0.078497
Si Si3 0.600505 0.762993 0.492211
Si Si4 0.268514 0.782828 0.728625
Si Si5 0.257474 0.932789 0.012276
Si Si6 0.676767 0.711448 0.639266
O O1 0.500000 0.957277 0.750000
O O2 0.309021 0.111795 0.694124
O O3 0.287911 0.905869 0.714995
O O4 0.563766 0.020974 0.874880
O O5 0.558955 0.293214 0.193487
O O6 0.354864 0.461798 0.064082
O O7 0.490733 0.335398 0.064085
O O8 0.250000 0.250000 0.000000
O O9 0.395483 0.779506 0.379334
O O10 0.709487 0.856815 0.519047
O O11 0.653997 0.637982 0.501176
O O12 0.645224 0.781142 0.572936
O O13 0.241196 0.791048 0.775217
#
# Coordination Sequence:
#
# PCOD8143683 Si02
#       6
#     8   8   8   8   8   8
#     4  12  22  39  68  95 128 169 221 271 318 391
#     4  10  21  41  63  87 131 170 214 267 321 379
#     4  11  23  38  66  97 130 172 212 271 331 383
#     4  10  24  39  62  93 133 165 217 272 323 380
#     4  11  21  39  63  98 131 164 218 272 323 384
#     4  10  23  42  63  96 127 168 222 262 328 387
#
# _framework density 19.581119000000001
#
# number of rings (size 3 to 8) (size 9 to 14) (size 15 to 20)
#    1.000    0.333    5.000    1.000    2.333    1.333 
#    0.000    3.333    3.667    4.000    0.000    0.000 
#    0.000    0.000    0.000    0.000    0.000    0.000 
#
# Total GULP energy -297548.865675 kJ/mol
# GULP energy per Si atom -12397.869403 kJ/mol
# Density = 1.953655 g / cm^3
# Si number density = 19.581119 Si / 1000 Ang^3
#
#
#
# Elastic Constant Matrix: (Units=GPa)
#
#
# Indices 1 2 3 4 5 6 
#
# 1 102.6191 37.1726 33.2967 0.0000 -14.9831 0.0000
# 2 37.1726 69.8774 3.1552 -0.0001 -4.8387 0.0000
# 3 33.2967 3.1552 73.7810 0.0000 -6.2935 0.0001
# 4 0.0000 -0.0001 0.0000 29.0092 -0.0002 7.4289
# 5 -14.9831 -4.8387 -6.2935 -0.0002 39.1515 0.0000
# 6 0.0000 0.0000 0.0001 7.4289 0.0000 23.1759
#
#
#
# Elastic Compliance Matrix: (Units=1/GPa)
#
#
# Indices 1 2 3 4 5 6 
#
# 1 0.014979 -0.007427 -0.006115 0.000000 0.003831 0.000000
# 2 -0.007427 0.018133 0.002560 0.000000 -0.000190 0.000000
# 3 -0.006115 0.002560 0.016254 0.000000 0.000589 0.000000
# 4 0.000000 0.000000 0.000000 0.037555 0.000000 -0.012038
# 5 0.003831 -0.000190 0.000589 0.000000 0.027079 0.000000
# 6 0.000000 0.000000 0.000000 -0.012038 0.000000 0.047007
#
#
# Mechanical properties :
#
#
# Convention : Reuss Voigt Hill
#
# Bulk Modulus (GPa) = 36.49427 43.72517 40.10972
# Shear Modulus (GPa) = 26.02751 29.77752 27.90252
#
# Velocity S-wave (km/s) = 3.64980 3.90388 3.77897
# Velocity P-wave (km/s) = 6.03650 6.53446 6.29041
#
# Compressibility (1/GPa) = 0.02740156
#
# Stress axis : x y z
#
# Youngs Moduli (GPa) = 66.76165 55.14854 61.52260
#
# Poissons Ratio (x) = 0.40957 0.37623
# Poissons Ratio (y) = 0.49582 -0.15750
# Poissons Ratio (z) = 0.40827 -0.14118
#
# Static dielectric constant tensor:
#      x y z
#    x 3.542090 0.000000 0.162130 
#    y 0.000000 3.471950 0.000000 
#    z 0.162130 0.000000 3.586270 
# 
# 
# High freq. dielectric constant tensor:
#      x y z
#    x 1.757080 0.000000 0.014780 
#    y 0.000000 1.748730 0.000000 
#    z 0.014780 0.000000 1.769270 
# 
# From -- ./inp_files/209901.got.cif
#   From: 2010.06.25/outbox.cif.g09.slc.cpg/sg15_105_cif.got.tgz:209901.got - 2010.06.28 07:06:18.
