data_PCOD8143486
_publ_section_title
;
Structure prediction by ZEFSAII (Michael W. Deem and Ramdas Pophale) SiO2 
 PCOD8143486
Probable space group: C 2/C
;
_chemical_formula_sum "Si O2"
_cell_formula_units_Z 60
_cell_length_a 9.545131
_cell_length_b 17.188437
_cell_length_c 16.971067
_cell_angle_alpha 90.000000
_cell_angle_beta 96.591354
_cell_angle_gamma 90.000000
_cell_volume 2765.968658
_symmetry_space_group_name_H-M "C 2/C"
_symmetry_group_IT_number 15
_symmetry_cell_setting 'monoclinic'
loop_
_space_group_symop_operation_xyz
x,y,z
-x,y,1/2-z
-x,-y,-z
x,-y,1/2+z
1/2+x,1/2+y,z
1/2-x,1/2+y,1/2-z
1/2-x,1/2-y,-z
1/2+x,1/2-y,1/2+z
loop_
_atom_site_type_symbol
_atom_site_label
_atom_site_fract_x
_atom_site_fract_y
_atom_site_fract_z
Si Si1 0.000000 0.304426 0.250000
Si Si2 0.653816 0.187686 0.398509
Si Si3 0.285409 0.234969 0.267799
Si Si4 0.395026 0.906974 0.860142
Si Si5 0.238051 0.582753 0.980843
Si Si6 0.550534 0.076707 0.623021
Si Si7 0.037854 0.179238 0.594756
Si Si8 0.797072 0.086486 0.523248
O O1 0.128128 0.251880 0.288924
O O2 0.070494 0.356143 0.187162
O O3 0.703790 0.238637 0.326221
O O4 0.560058 0.113592 0.369323
O O5 0.551111 0.245783 0.442413
O O6 0.788840 0.152769 0.453810
O O7 0.314765 0.145704 0.291920
O O8 0.394545 0.295618 0.316390
O O9 0.388657 0.997138 0.835108
O O10 0.323100 0.890995 0.939674
O O11 0.339782 0.651902 0.957254
O O12 0.112010 0.569020 0.911359
O O13 0.322457 0.500909 0.993194
O O14 0.643770 0.094565 0.552766
O O15 0.924861 0.107920 0.591410
#
# Coordination Sequence:
#
# PCOD8143486 Si02
#       8
#     4   8   8   8   8   8   8   8
#     4  12  26  44  68  96 136 178 228 276 338 394
#     4  11  22  40  65  91 133 176 220 268 333 405
#     4  11  26  43  63  94 135 175 224 273 338 405
#     4  10  21  40  68  93 126 172 223 268 332 403
#     4  11  21  41  65 100 130 167 224 280 329 390
#     4  11  22  41  68  96 130 175 226 274 327 401
#     4  11  23  39  62  97 130 169 213 280 337 384
#     4  11  22  41  67  98 129 173 229 273 328 407
#
# _framework density 21.692219000000001
#
# number of rings (size 3 to 8) (size 9 to 14) (size 15 to 20)
#    0.000    1.067    4.000    4.000    1.867    4.267 
#    0.000    0.000    0.000    0.000    0.000    0.000 
#    0.000    0.000    0.000    0.000    0.000    0.000 
#
# Total GULP energy -371838.355967 kJ/mol
# GULP energy per Si atom -12394.611866 kJ/mol
# Density = 2.164285 g / cm^3
# Si number density = 21.692219 Si / 1000 Ang^3
#
#
#
# Elastic Constant Matrix: (Units=GPa)
#
#
# Indices 1 2 3 4 5 6 
#
# 1 85.5991 39.8802 24.7734 0.0000 3.5340 0.0000
# 2 39.8802 83.9763 39.2930 0.0000 1.1996 0.0000
# 3 24.7734 39.2930 73.4841 0.0000 0.2487 0.0000
# 4 0.0000 0.0000 0.0000 31.8059 0.0000 -1.1279
# 5 3.5340 1.1996 0.2487 0.0000 32.7600 0.0000
# 6 0.0000 0.0000 0.0000 -1.1279 0.0000 26.8901
#
#
#
# Elastic Compliance Matrix: (Units=1/GPa)
#
#
# Indices 1 2 3 4 5 6 
#
# 1 0.015219 -0.006414 -0.001696 0.000000 -0.001394 0.000000
# 2 -0.006414 0.018593 -0.007780 0.000000 0.000070 0.000000
# 3 -0.001696 -0.007780 0.018339 0.000000 0.000329 0.000000
# 4 0.000000 0.000000 0.000000 0.031488 0.000000 0.001321
# 5 -0.001394 0.000070 0.000329 0.000000 0.030670 0.000000
# 6 0.000000 0.000000 0.000000 0.001321 0.000000 0.037244
#
#
# Mechanical properties :
#
#
# Convention : Reuss Voigt Hill
#
# Bulk Modulus (GPa) = 49.08942 50.10586 49.59764
# Shear Modulus (GPa) = 26.29856 27.56541 26.93198
#
# Velocity S-wave (km/s) = 3.48566 3.56863 3.52739
# Velocity P-wave (km/s) = 6.23529 6.33473 6.28521
#
# Compressibility (1/GPa) = 0.02037099
#
# Stress axis : x y z
#
# Youngs Moduli (GPa) = 65.70716 53.78261 54.52766
#
# Poissons Ratio (x) = 0.34495 0.09250
# Poissons Ratio (y) = 0.42143 0.42423
# Poissons Ratio (z) = 0.11147 0.41843
#
# Static dielectric constant tensor:
#      x y z
#    x 3.923670 0.000000 0.035980 
#    y 0.000000 3.995310 0.000000 
#    z 0.035980 0.000000 3.711830 
# 
# 
# High freq. dielectric constant tensor:
#      x y z
#    x 1.851320 0.000000 0.002010 
#    y 0.000000 1.860540 0.000000 
#    z 0.002010 0.000000 1.830600 
# 
# From -- ./inp_files/190999.got.cif
#   From: 2010.06.25/outbox.cif.g09.slc.cpg/sg15_96_cif.got.tgz:190999.got - 2010.06.28 07:06:18.
