data_PCOD8143331
_publ_section_title
;
Structure prediction by ZEFSAII (Michael W. Deem and Ramdas Pophale) SiO2 
 PCOD8143331
Probable space group: C 2/C
;
_chemical_formula_sum "Si O2"
_cell_formula_units_Z 48
_cell_length_a 18.375252
_cell_length_b 27.282030
_cell_length_c 8.081428
_cell_angle_alpha 90.000000
_cell_angle_beta 144.838962
_cell_angle_gamma 90.000000
_cell_volume 2333.068335
_symmetry_space_group_name_H-M "C 2/C"
_symmetry_group_IT_number 15
_symmetry_cell_setting 'monoclinic'
loop_
_space_group_symop_operation_xyz
x,y,z
-x,y,1/2-z
-x,-y,-z
x,-y,1/2+z
1/2+x,1/2+y,z
1/2-x,1/2+y,1/2-z
1/2-x,1/2-y,-z
1/2+x,1/2-y,1/2+z
loop_
_atom_site_type_symbol
_atom_site_label
_atom_site_fract_x
_atom_site_fract_y
_atom_site_fract_z
Si Si1 0.607435 0.163454 0.334794
Si Si2 0.000000 0.503392 0.750000
Si Si3 0.199278 0.187763 0.542244
Si Si4 0.428992 0.211324 0.769849
Si Si5 0.000000 0.110343 0.250000
Si Si6 0.060898 0.048284 0.684979
Si Si7 0.153694 0.558257 0.303908
O O1 0.500000 0.138888 0.250000
O O2 0.722027 0.190981 0.640859
O O3 0.656438 0.117743 0.317330
O O4 0.535795 0.208211 0.109421
O O5 0.114649 0.468257 0.902831
O O6 0.949741 0.540444 0.518571
O O7 0.299652 0.183454 0.577869
O O8 0.105599 0.233174 0.342000
O O9 0.116725 0.139683 0.391617
O O10 0.500000 0.184895 0.750000
O O11 0.048488 0.083947 0.504672
O O12 0.000000 0.064560 0.750000
O O13 0.208342 0.040270 0.994978
O O14 0.000000 0.000000 0.500000
#
# Coordination Sequence:
#
# PCOD8143331 Si02
#       7
#     8   4   8   8   4   8   8
#     4  10  21  40  65  93 132 174 220 274 344 404
#     4  10  24  38  67  94 130 169 222 286 348 394
#     4  10  22  44  65  98 134 180 220 287 354 404
#     4  10  22  40  68  97 129 172 229 282 346 407
#     4  12  24  46  73  96 146 181 234 290 346 420
#     4  12  26  45  69 104 138 189 232 282 351 420
#     4  11  22  43  63  98 132 175 225 284 338 415
#
# _framework density 20.573765000000002
#
# number of rings (size 3 to 8) (size 9 to 14) (size 15 to 20)
#    0.000    1.333    4.167    1.000    1.167    2.000 
#    6.000    2.500    0.000    0.000    0.000    0.000 
#    0.000    0.000    0.000    0.000    0.000    0.000 
#
# Total GULP energy -297329.969096 kJ/mol
# GULP energy per Si atom -12388.748712 kJ/mol
# Density = 2.052694 g / cm^3
# Si number density = 20.573765 Si / 1000 Ang^3
#
#
#
# Elastic Constant Matrix: (Units=GPa)
#
#
# Indices 1 2 3 4 5 6 
#
# 1 141.7892 39.4223 33.7362 0.0000 10.9804 0.0000
# 2 39.4223 108.1114 55.7705 0.0000 -0.2521 0.0000
# 3 33.7362 55.7705 107.2173 0.0000 9.1977 0.0000
# 4 0.0000 0.0000 0.0000 30.3037 0.0000 -4.2734
# 5 10.9804 -0.2521 9.1977 0.0000 36.6115 0.0000
# 6 0.0000 0.0000 0.0000 -4.2734 0.0000 30.7427
#
#
#
# Elastic Compliance Matrix: (Units=1/GPa)
#
#
# Indices 1 2 3 4 5 6 
#
# 1 0.008157 -0.002394 -0.001134 0.000000 -0.002178 0.000000
# 2 -0.002394 0.013459 -0.006456 0.000000 0.002433 0.000000
# 3 -0.001134 -0.006456 0.013303 0.000000 -0.003046 0.000000
# 4 0.000000 0.000000 0.000000 0.033659 0.000000 0.004679
# 5 -0.002178 0.002433 -0.003046 0.000000 0.028749 0.000000
# 6 0.000000 0.000000 0.000000 0.004679 0.000000 0.033178
#
#
# Mechanical properties :
#
#
# Convention : Reuss Voigt Hill
#
# Bulk Modulus (GPa) = 66.89120 68.33066 67.61093
# Shear Modulus (GPa) = 32.16287 34.74418 33.45352
#
# Velocity S-wave (km/s) = 3.95814 4.11391 4.03678
# Velocity P-wave (km/s) = 7.31250 7.47331 7.39334
#
# Compressibility (1/GPa) = 0.01494965
#
# Stress axis : x y z
#
# Youngs Moduli (GPa) = 122.59433 74.29999 75.16897
#
# Poissons Ratio (x) = 0.17790 0.08527
# Poissons Ratio (y) = 0.29353 0.48530
# Poissons Ratio (z) = 0.13906 0.47969
#
# Static dielectric constant tensor:
#      x y z
#    x 4.072780 0.000000 0.086800 
#    y 0.000000 4.029850 0.000000 
#    z 0.086800 0.000000 3.787620 
# 
# 
# High freq. dielectric constant tensor:
#      x y z
#    x 1.817010 0.000000 0.009350 
#    y 0.000000 1.787880 0.000000 
#    z 0.009350 0.000000 1.816560 
# 
# From -- ./inp_files/59172.got.cif
#   From: 2010.06.25/outbox.cif.g09.slc.cpg/sg15_30_cif.got.tgz:59172.got - 2010.06.28 07:06:18.
