data_PCOD8143399
_publ_section_title
;
Structure prediction by ZEFSAII (Michael W. Deem and Ramdas Pophale) SiO2 
 PCOD8143399
Probable space group: C 2/C
;
_chemical_formula_sum "Si O2"
_cell_formula_units_Z 64
_cell_length_a 24.588306
_cell_length_b 18.776678
_cell_length_c 19.155810
_cell_angle_alpha 90.000000
_cell_angle_beta 21.470015
_cell_angle_gamma 90.000000
_cell_volume 3237.023768
_symmetry_space_group_name_H-M "C 2/C"
_symmetry_group_IT_number 15
_symmetry_cell_setting 'monoclinic'
loop_
_space_group_symop_operation_xyz
x,y,z
-x,y,1/2-z
-x,-y,-z
x,-y,1/2+z
1/2+x,1/2+y,z
1/2-x,1/2+y,1/2-z
1/2-x,1/2-y,-z
1/2+x,1/2-y,1/2+z
loop_
_atom_site_type_symbol
_atom_site_label
_atom_site_fract_x
_atom_site_fract_y
_atom_site_fract_z
Si Si1 0.746338 0.089772 0.588485
Si Si2 0.409758 0.473582 0.175028
Si Si3 0.614077 0.445864 0.051725
Si Si4 0.106324 0.816209 0.339511
Si Si5 0.790155 0.187812 0.148408
Si Si6 0.453786 0.162886 0.943204
Si Si7 0.965335 0.176306 0.421169
Si Si8 0.258148 0.903763 0.569955
O O1 0.886643 0.132597 0.452798
O O2 0.731799 0.103964 0.524257
O O3 0.760782 0.004173 0.577823
O O4 0.598065 0.121625 0.801501
O O5 0.525751 0.486842 0.097658
O O6 0.353749 0.392173 0.241272
O O7 0.264648 0.518053 0.369070
O O8 0.500000 0.500000 0.000000
O O9 0.500000 0.427109 0.250000
O O10 0.687418 0.373816 0.935694
O O11 0.227405 0.754691 0.178005
O O12 0.127993 0.825855 0.396351
O O13 0.942878 0.792815 0.506895
O O14 0.669968 0.161457 0.348553
O O15 0.406205 0.123269 0.929637
O O16 0.492847 0.241628 0.869071
O O17 0.120705 0.143574 0.258539
#
# Coordination Sequence:
#
# PCOD8143399 Si02
#       8
#     8   8   8   8   8   8   8   8
#     4  12  24  37  61  90 128 169 208 255 311 377
#     4  11  19  38  67  90 118 168 212 251 304 387
#     4  11  21  43  67  93 123 166 212 263 320 374
#     4  10  21  40  66  94 121 159 213 260 313 366
#     4  10  23  42  66  93 123 162 207 265 314 375
#     4  11  25  38  56  92 132 165 203 263 308 369
#     4  11  21  38  61  87 122 168 216 244 310 381
#     4  12  21  39  58  90 123 168 212 251 315 371
#
# _framework density 19.771248
#
# number of rings (size 3 to 8) (size 9 to 14) (size 15 to 20)
#    0.000    1.000    5.000    2.250    5.250    3.500 
#    2.250    2.500    0.000    0.000    0.000    0.000 
#    0.000    0.000    0.000    0.000    0.000    0.000 
#
# Total GULP energy -396628.785972 kJ/mol
# GULP energy per Si atom -12394.649562 kJ/mol
# Density = 1.972625 g / cm^3
# Si number density = 19.771248 Si / 1000 Ang^3
#
#
#
# Elastic Constant Matrix: (Units=GPa)
#
#
# Indices 1 2 3 4 5 6 
#
# 1 68.3872 44.0428 30.5387 0.0048 -3.3678 -0.0069
# 2 44.0428 144.1753 51.1413 0.0146 -9.0226 0.0076
# 3 30.5387 51.1413 61.4300 0.0144 -3.8143 0.0335
# 4 0.0048 0.0146 0.0144 18.1923 0.0020 -9.0478
# 5 -3.3678 -9.0226 -3.8143 0.0020 29.3082 -0.0103
# 6 -0.0069 0.0076 0.0335 -9.0478 -0.0103 32.1343
#
#
#
# Elastic Compliance Matrix: (Units=1/GPa)
#
#
# Indices 1 2 3 4 5 6 
#
# 1 0.020085 -0.003665 -0.006917 0.000011 0.000280 0.000015
# 2 -0.003665 0.010626 -0.006904 0.000000 0.001952 0.000004
# 3 -0.006917 -0.006904 0.025489 -0.000030 0.000397 -0.000035
# 4 0.000011 0.000000 -0.000030 0.063919 -0.000001 0.017997
# 5 0.000280 0.001952 0.000397 -0.000001 0.034805 0.000010
# 6 0.000015 0.000004 -0.000035 0.017997 0.000010 0.036187
#
#
# Mechanical properties :
#
#
# Convention : Reuss Voigt Hill
#
# Bulk Modulus (GPa) = 47.10129 58.38201 52.74165
# Shear Modulus (GPa) = 21.44462 25.81160 23.62811
#
# Velocity S-wave (km/s) = 3.29696 3.61711 3.46074
# Velocity P-wave (km/s) = 6.19420 6.85839 6.53473
#
# Compressibility (1/GPa) = 0.02123084
#
# Stress axis : x y z
#
# Youngs Moduli (GPa) = 49.78787 94.10459 39.23217
#
# Poissons Ratio (x) = 0.34486 0.27136
# Poissons Ratio (y) = 0.18246 0.27085
# Poissons Ratio (z) = 0.34437 0.64967
#
# Static dielectric constant tensor:
#      x y z
#    x 3.601730 -0.000060 -0.180590 
#    y -0.000060 3.932640 0.000030 
#    z -0.180590 0.000030 3.568090 
# 
# 
# High freq. dielectric constant tensor:
#      x y z
#    x 1.775920 0.000000 -0.005010 
#    y 0.000000 1.781820 0.000000 
#    z -0.005010 0.000000 1.748490 
# 
# From -- ./inp_files/258057.got.cif
#   From: 2010.06.25/outbox.cif.g09.slc.cpg/sg15_130_cif.got.tgz:258057.got - 2010.06.28 07:06:18.
