data_PCOD8143293
_publ_section_title
;
Structure prediction by ZEFSAII (Michael W. Deem and Ramdas Pophale) SiO2 
 PCOD8143293
Probable space group: C 2/C
;
_chemical_formula_sum "Si O2"
_cell_formula_units_Z 32
_cell_length_a 19.358036
_cell_length_b 16.147768
_cell_length_c 9.288433
_cell_angle_alpha 90.000000
_cell_angle_beta 30.817146
_cell_angle_gamma 90.000000
_cell_volume 1487.443606
_symmetry_space_group_name_H-M "C 2/C"
_symmetry_group_IT_number 15
_symmetry_cell_setting 'monoclinic'
loop_
_space_group_symop_operation_xyz
x,y,z
-x,y,1/2-z
-x,-y,-z
x,-y,1/2+z
1/2+x,1/2+y,z
1/2-x,1/2+y,1/2-z
1/2-x,1/2-y,-z
1/2+x,1/2-y,1/2+z
loop_
_atom_site_type_symbol
_atom_site_label
_atom_site_fract_x
_atom_site_fract_y
_atom_site_fract_z
Si Si1 0.352321 0.394817 0.499835
Si Si2 0.377674 0.557514 0.635523
Si Si3 0.160943 0.863942 0.573020
Si Si4 0.861306 0.322079 0.438574
O O1 0.344606 0.467656 0.631517
O O2 0.318485 0.428026 0.400473
O O3 0.244863 0.324823 0.738461
O O4 0.500000 0.353575 0.250000
O O5 0.306730 0.621360 0.652719
O O6 0.541563 0.572782 0.340006
O O7 0.109266 0.769406 0.676291
O O8 0.296670 0.875944 0.423667
O O9 0.000000 0.361633 0.250000
#
# Coordination Sequence:
#
# PCOD8143293 Si02
#       4
#     8   8   8   8
#     4  12  22  37  69  97 121 164 227 259 307 377
#     4  11  21  41  68  96 118 173 223 263 293 395
#     4  10  21  40  65  87 134 169 211 250 326 375
#     4  11  23  41  61  97 134 170 199 270 329 374
#
# _framework density 21.513421999999998
#
# number of rings (size 3 to 8) (size 9 to 14) (size 15 to 20)
#    0.000    1.000    7.500    2.250    0.000    1.000 
#    0.000    6.250    0.000    0.000    0.000    0.000 
#    0.000    0.000    0.000    0.000    0.000    0.000 
#
# Total GULP energy -198243.866443 kJ/mol
# GULP energy per Si atom -12390.241653 kJ/mol
# Density = 2.146446 g / cm^3
# Si number density = 21.513422 Si / 1000 Ang^3
#
#
#
# Elastic Constant Matrix: (Units=GPa)
#
#
# Indices 1 2 3 4 5 6 
#
# 1 187.3765 -4.1832 41.6365 0.0000 1.3683 0.0000
# 2 -4.1832 27.2590 4.0334 0.0000 -5.6559 0.0000
# 3 41.6365 4.0334 85.7226 0.0000 3.3347 0.0000
# 4 0.0000 0.0000 0.0000 16.4153 0.0000 0.0439
# 5 1.3683 -5.6559 3.3347 0.0000 52.0424 0.0000
# 6 0.0000 0.0000 0.0000 0.0439 0.0000 31.0408
#
#
#
# Elastic Compliance Matrix: (Units=1/GPa)
#
#
# Indices 1 2 3 4 5 6 
#
# 1 0.006035 0.001409 -0.003005 0.000000 0.000187 0.000000
# 2 0.001409 0.038182 -0.002648 0.000000 0.004282 0.000000
# 3 -0.003005 -0.002648 0.013291 0.000000 -0.001060 0.000000
# 4 0.000000 0.000000 0.000000 0.060919 0.000000 -0.000086
# 5 0.000187 0.004282 -0.001060 0.000000 0.019744 0.000000
# 6 0.000000 0.000000 0.000000 -0.000086 0.000000 0.032216
#
#
# Mechanical properties :
#
#
# Convention : Reuss Voigt Hill
#
# Bulk Modulus (GPa) = 20.39931 42.59237 31.49584
# Shear Modulus (GPa) = 25.61326 37.15781 31.38553
#
# Velocity S-wave (km/s) = 3.45421 4.16046 3.82367
# Velocity P-wave (km/s) = 5.04098 6.55135 5.84516
#
# Compressibility (1/GPa) = 0.04902127
#
# Stress axis : x y z
#
# Youngs Moduli (GPa) = 165.71076 26.19059 75.24021
#
# Poissons Ratio (x) = -0.03692 0.22607
# Poissons Ratio (y) = -0.23357 0.19921
# Poissons Ratio (z) = 0.49791 0.06934
#
# Static dielectric constant tensor:
#      x y z
#    x 4.630890 0.000000 0.212240 
#    y 0.000000 3.824460 0.000000 
#    z 0.212240 0.000000 3.631270 
# 
# 
# High freq. dielectric constant tensor:
#      x y z
#    x 1.879340 0.000000 0.025400 
#    y 0.000000 1.830280 0.000000 
#    z 0.025400 0.000000 1.799070 
# 
# From -- ./inp_files/56349.got.cif
#   From: 2010.06.25/outbox.cif.g09.slc.cpg/sg15_29_cif.got.tgz:56349.got - 2010.06.28 07:06:18.
