data_PCOD8143596
_publ_section_title
;
Structure prediction by ZEFSAII (Michael W. Deem and Ramdas Pophale) SiO2 
 PCOD8143596
Probable space group: C 2/C
;
_chemical_formula_sum "Si O2"
_cell_formula_units_Z 56
_cell_length_a 14.927516
_cell_length_b 17.485040
_cell_length_c 11.161330
_cell_angle_alpha 90.000000
_cell_angle_beta 114.107910
_cell_angle_gamma 90.000000
_cell_volume 2659.103193
_symmetry_space_group_name_H-M "C 2/C"
_symmetry_group_IT_number 15
_symmetry_cell_setting 'monoclinic'
loop_
_space_group_symop_operation_xyz
x,y,z
-x,y,1/2-z
-x,-y,-z
x,-y,1/2+z
1/2+x,1/2+y,z
1/2-x,1/2+y,1/2-z
1/2-x,1/2-y,-z
1/2+x,1/2-y,1/2+z
loop_
_atom_site_type_symbol
_atom_site_label
_atom_site_fract_x
_atom_site_fract_y
_atom_site_fract_z
Si Si1 0.525513 0.055604 0.900286
Si Si2 0.847291 0.205916 0.877201
Si Si3 0.046510 0.071740 0.654112
Si Si4 0.754002 0.095715 0.013898
Si Si5 0.348935 0.463073 0.936400
Si Si6 0.798774 0.823435 0.780868
Si Si7 0.984552 0.276011 0.378536
O O1 0.500000 0.022953 0.750000
O O2 0.639520 0.078890 0.967989
O O3 0.462897 0.133433 0.886131
O O4 0.500000 0.000000 0.000000
O O5 0.912655 0.157703 0.820014
O O6 0.772144 0.152586 0.911579
O O7 0.790517 0.264936 0.762173
O O8 0.915092 0.254204 0.001960
O O9 0.000000 0.043351 0.750000
O O10 0.958802 0.069241 0.510996
O O11 0.139020 0.018131 0.672184
O O12 0.806007 0.013012 0.022022
O O13 0.804868 0.136574 0.154305
O O14 0.279577 0.391001 0.867474
O O15 0.895041 0.776559 0.872508
O O16 0.000000 0.257328 0.250000
#
# Coordination Sequence:
#
# PCOD8143596 Si02
#       7
#     8   8   8   8   8   8   8
#     4  11  26  46  69  99 140 184 231 285 345 409
#     4  11  21  39  64  97 126 168 217 281 331 395
#     4  10  21  41  60  92 132 164 211 278 342 413
#     4  11  23  40  67  98 128 168 228 284 335 408
#     4  10  23  38  65  95 127 169 218 271 353 402
#     4  12  22  39  67  94 129 171 225 279 341 405
#     4  11  21  39  68  96 129 168 226 278 335 389
#
# _framework density 21.059733000000001
#
# number of rings (size 3 to 8) (size 9 to 14) (size 15 to 20)
#    0.000    1.143    4.286    3.000    2.000    0.571 
#    2.571    2.857    0.000    0.000    0.000    0.000 
#    0.000    0.000    0.000    0.000    0.000    0.000 
#
# Total GULP energy -346954.437302 kJ/mol
# GULP energy per Si atom -12391.229904 kJ/mol
# Density = 2.101180 g / cm^3
# Si number density = 21.059733 Si / 1000 Ang^3
#
#
#
# Elastic Constant Matrix: (Units=GPa)
#
#
# Indices 1 2 3 4 5 6 
#
# 1 74.2981 42.2831 29.3134 0.0000 9.1196 0.0000
# 2 42.2831 137.3563 42.8474 0.0000 9.4889 0.0000
# 3 29.3134 42.8474 61.1376 0.0000 6.1861 0.0000
# 4 0.0000 0.0000 0.0000 39.7140 0.0000 -0.8464
# 5 9.1196 9.4889 6.1861 0.0000 30.5848 0.0000
# 6 0.0000 0.0000 0.0000 -0.8464 0.0000 35.5026
#
#
#
# Elastic Compliance Matrix: (Units=1/GPa)
#
#
# Indices 1 2 3 4 5 6 
#
# 1 0.018195 -0.003535 -0.005930 0.000000 -0.003129 0.000000
# 2 -0.003535 0.010082 -0.005269 0.000000 -0.001008 0.000000
# 3 -0.005930 -0.005269 0.023019 0.000000 -0.001253 0.000000
# 4 0.000000 0.000000 0.000000 0.025193 0.000000 0.000601
# 5 -0.003129 -0.001008 -0.001253 0.000000 0.034195 0.000000
# 6 0.000000 0.000000 0.000000 0.000601 0.000000 0.028181
#
#
# Mechanical properties :
#
#
# Convention : Reuss Voigt Hill
#
# Bulk Modulus (GPa) = 45.81162 55.74221 50.77692
# Shear Modulus (GPa) = 28.47260 31.71682 30.09471
#
# Velocity S-wave (km/s) = 3.68093 3.88498 3.78433
# Velocity P-wave (km/s) = 6.31396 6.83010 6.57709
#
# Compressibility (1/GPa) = 0.02182852
#
# Stress axis : x y z
#
# Youngs Moduli (GPa) = 54.96122 99.18931 43.44265
#
# Poissons Ratio (x) = 0.35064 0.25760
# Poissons Ratio (y) = 0.19429 0.22888
# Poissons Ratio (z) = 0.32590 0.52260
#
# Static dielectric constant tensor:
#      x y z
#    x 1.605430 0.000000 -1.807340 
#    y 0.000000 4.164020 0.000000 
#    z -1.807340 0.000000 1.757720 
# 
# 
# High freq. dielectric constant tensor:
#      x y z
#    x 1.801990 0.000000 0.018830 
#    y 0.000000 1.841250 0.000000 
#    z 0.018830 0.000000 1.815430 
# 
# From -- ./inp_files/98250.got.cif
#   From: 2010.06.25/outbox.cif.g09.slc.cpg/sg15_50_cif.got.tgz:98250.got - 2010.06.28 07:06:18.
