data_PCOD8143004
_publ_section_title
;
Structure prediction by ZEFSAII (Michael W. Deem and Ramdas Pophale) SiO2 
 PCOD8143004
Probable space group: C 2/C
;
_chemical_formula_sum "Si O2"
_cell_formula_units_Z 56
_cell_length_a 22.036183
_cell_length_b 18.601235
_cell_length_c 9.093510
_cell_angle_alpha 90.000000
_cell_angle_beta 55.606657
_cell_angle_gamma 90.000000
_cell_volume 3075.798893
_symmetry_space_group_name_H-M "C 2/C"
_symmetry_group_IT_number 15
_symmetry_cell_setting 'monoclinic'
loop_
_space_group_symop_operation_xyz
x,y,z
-x,y,1/2-z
-x,-y,-z
x,-y,1/2+z
1/2+x,1/2+y,z
1/2-x,1/2+y,1/2-z
1/2-x,1/2-y,-z
1/2+x,1/2-y,1/2+z
loop_
_atom_site_type_symbol
_atom_site_label
_atom_site_fract_x
_atom_site_fract_y
_atom_site_fract_z
Si Si1 0.580514 0.277680 0.707682
Si Si2 0.691101 0.587467 0.023351
Si Si3 0.821979 0.938367 0.296881
Si Si4 0.984157 0.931311 0.111919
Si Si5 0.719400 0.684715 0.450768
Si Si6 0.061408 0.789758 0.051190
Si Si7 0.790169 0.311279 0.537185
O O1 0.500000 0.289144 0.750000
O O2 0.627174 0.352126 0.629454
O O3 0.624050 0.211710 0.568717
O O4 0.573735 0.245697 0.884314
O O5 0.671539 0.519058 0.150587
O O6 0.770207 0.616163 0.974846
O O7 0.703229 0.563195 0.838265
O O8 0.902316 0.902514 0.196362
O O9 0.769467 0.888703 0.470390
O O10 0.000000 0.961012 0.250000
O O11 0.038414 0.865541 0.008636
O O12 0.000000 0.000000 0.000000
O O13 0.750000 0.750000 0.500000
O O14 0.634431 0.701489 0.543282
O O15 0.761265 0.678130 0.240775
O O16 0.000000 0.759999 0.250000
O O17 0.750000 0.250000 0.500000
#
# Coordination Sequence:
#
# PCOD8143004 Si02
#       7
#     8   8   8   8   8   8   8
#     4  11  23  40  60  86 120 160 201 243 300 352
#     4  11  23  38  58  88 122 158 201 239 295 355
#     4  12  23  36  58  85 121 162 197 240 297 351
#     4  11  21  33  49  79 120 157 189 223 277 349
#     4  12  23  39  59  82 117 161 208 245 292 350
#     4  11  22  37  53  81 120 152 199 240 283 354
#     4  10  21  40  59  81 117 159 201 252 286 342
#
# _framework density 18.206651999999998
#
# number of rings (size 3 to 8) (size 9 to 14) (size 15 to 20)
#    0.000    0.857    5.714    5.143    2.000    1.143 
#    0.000    0.000    0.000    0.000    0.000    5.000 
#    0.000    0.000    0.000    0.000    0.000    0.000 
#
# Total GULP energy -346908.111002 kJ/mol
# GULP energy per Si atom -12389.575393 kJ/mol
# Density = 1.816521 g / cm^3
# Si number density = 18.206652 Si / 1000 Ang^3
#
#
#
# Elastic Constant Matrix: (Units=GPa)
#
#
# Indices 1 2 3 4 5 6 
#
# 1 83.7480 55.0912 35.3540 0.0000 2.6134 0.0000
# 2 55.0912 69.8197 35.9439 0.0000 -6.1751 0.0000
# 3 35.3540 35.9439 134.7299 0.0000 13.9759 0.0000
# 4 0.0000 0.0000 0.0000 35.5865 0.0000 0.7478
# 5 2.6134 -6.1751 13.9759 0.0000 37.0510 0.0000
# 6 0.0000 0.0000 0.0000 0.7478 0.0000 37.9916
#
#
#
# Elastic Compliance Matrix: (Units=1/GPa)
#
#
# Indices 1 2 3 4 5 6 
#
# 1 0.025885 -0.020432 -0.000832 0.000000 -0.004917 0.000000
# 2 -0.020432 0.033526 -0.004487 0.000000 0.008721 0.000000
# 3 -0.000832 -0.004487 0.009272 0.000000 -0.004187 0.000000
# 4 0.000000 0.000000 0.000000 0.028112 0.000000 -0.000553
# 5 -0.004917 0.008721 -0.004187 0.000000 0.030370 0.000000
# 6 0.000000 0.000000 0.000000 -0.000553 0.000000 0.026333
#
#
# Mechanical properties :
#
#
# Convention : Reuss Voigt Hill
#
# Bulk Modulus (GPa) = 58.20132 60.11954 59.16043
# Shear Modulus (GPa) = 23.72747 32.91971 28.32359
#
# Velocity S-wave (km/s) = 3.61395 4.25681 3.94848
# Velocity P-wave (km/s) = 7.03211 7.56656 7.30423
#
# Compressibility (1/GPa) = 0.01718174
#
# Stress axis : x y z
#
# Youngs Moduli (GPa) = 38.63168 29.82775 107.85230
#
# Poissons Ratio (x) = 0.60943 0.08968
# Poissons Ratio (y) = 0.78931 0.48398
# Poissons Ratio (z) = 0.03212 0.13385
#
# Static dielectric constant tensor:
#      x y z
#    x 3.594640 0.000000 -0.072340 
#    y 0.000000 3.354720 0.000000 
#    z -0.072340 0.000000 3.596990 
# 
# 
# High freq. dielectric constant tensor:
#      x y z
#    x 1.699920 0.000000 0.021270 
#    y 0.000000 1.674620 0.000000 
#    z 0.021270 0.000000 1.724460 
# 
# From -- ./inp_files/56501.got.cif
#   From: 2010.06.25/outbox.cif.g09.slc.cpg/sg15_29_cif.got.tgz:56501.got - 2010.06.28 07:06:18.
