data_PCOD8143316
_publ_section_title
;
Structure prediction by ZEFSAII (Michael W. Deem and Ramdas Pophale) SiO2 
 PCOD8143316
Probable space group: C 2/C
;
_chemical_formula_sum "Si O2"
_cell_formula_units_Z 40
_cell_length_a 15.655676
_cell_length_b 10.181159
_cell_length_c 21.367263
_cell_angle_alpha 90.000000
_cell_angle_beta 32.188283
_cell_angle_gamma 90.000000
_cell_volume 1814.275604
_symmetry_space_group_name_H-M "C 2/C"
_symmetry_group_IT_number 15
_symmetry_cell_setting 'monoclinic'
loop_
_space_group_symop_operation_xyz
x,y,z
-x,y,1/2-z
-x,-y,-z
x,-y,1/2+z
1/2+x,1/2+y,z
1/2-x,1/2+y,1/2-z
1/2-x,1/2-y,-z
1/2+x,1/2-y,1/2+z
loop_
_atom_site_type_symbol
_atom_site_label
_atom_site_fract_x
_atom_site_fract_y
_atom_site_fract_z
Si Si1 0.095099 0.134190 0.000117
Si Si2 0.512240 0.706922 0.673910
Si Si3 0.333608 0.429564 0.184318
Si Si4 0.300689 0.048717 0.450830
Si Si5 0.484865 0.935127 0.441762
O O1 0.113549 0.130011 0.914324
O O2 0.257370 0.073135 0.931313
O O3 0.064908 0.284794 0.032015
O O4 0.939859 0.061156 0.125646
O O5 0.500000 0.639419 0.750000
O O6 0.356634 0.675610 0.727555
O O7 0.547512 0.861663 0.664597
O O8 0.648989 0.644042 0.545927
O O9 0.146269 0.463855 0.302436
O O10 0.336946 0.002758 0.498464
O O11 0.500000 0.000000 0.500000
#
# Coordination Sequence:
#
# PCOD8143316 Si02
#       5
#     8   8   8   8   8
#     4  10  24  44  63  94 132 168 219 270 324 392
#     4  10  21  40  65  91 129 169 218 264 318 393
#     4  10  24  42  66  95 129 172 215 274 325 383
#     4  10  23  41  62  95 126 173 216 267 328 381
#     4  12  25  40  68  97 131 172 218 268 333 390
#
# _framework density 22.047364999999999
#
# number of rings (size 3 to 8) (size 9 to 14) (size 15 to 20)
#    0.000    1.600    0.000    3.000    8.400    4.800 
#    0.000    0.000    0.000    0.000    0.000    0.000 
#    0.000    0.000    0.000    0.000    0.000    0.000 
#
# Total GULP energy -247818.717076 kJ/mol
# GULP energy per Si atom -12390.935854 kJ/mol
# Density = 2.199718 g / cm^3
# Si number density = 22.047365 Si / 1000 Ang^3
#
#
#
# Elastic Constant Matrix: (Units=GPa)
#
#
# Indices 1 2 3 4 5 6 
#
# 1 145.9476 44.4881 8.0783 0.0000 12.5275 0.0000
# 2 44.4881 110.6842 24.5880 -0.0002 -2.0663 0.0000
# 3 8.0783 24.5880 55.8408 0.0005 7.3382 -0.0002
# 4 0.0000 -0.0002 0.0005 18.1852 0.0000 -1.0549
# 5 12.5275 -2.0663 7.3382 0.0000 32.7944 0.0000
# 6 0.0000 0.0000 -0.0002 -1.0549 0.0000 37.6442
#
#
#
# Elastic Compliance Matrix: (Units=1/GPa)
#
#
# Indices 1 2 3 4 5 6 
#
# 1 0.008190 -0.003545 0.000841 0.000000 -0.003540 0.000000
# 2 -0.003545 0.011638 -0.005034 0.000000 0.003214 0.000000
# 3 0.000841 -0.005034 0.020695 -0.000001 -0.005269 0.000000
# 4 0.000000 0.000000 -0.000001 0.055079 0.000000 0.001544
# 5 -0.003540 0.003214 -0.005269 0.000000 0.033227 0.000000
# 6 0.000000 0.000000 0.000000 0.001544 0.000000 0.026608
#
#
# Mechanical properties :
#
#
# Convention : Reuss Voigt Hill
#
# Bulk Modulus (GPa) = 39.92330 51.86458 45.89394
# Shear Modulus (GPa) = 27.89235 33.41262 30.65249
#
# Velocity S-wave (km/s) = 3.56070 3.89716 3.73272
# Velocity P-wave (km/s) = 5.92048 6.62010 6.28004
#
# Compressibility (1/GPa) = 0.02504803
#
# Stress axis : x y z
#
# Youngs Moduli (GPa) = 122.10676 85.92776 48.32005
#
# Poissons Ratio (x) = 0.30458 -0.04065
# Poissons Ratio (y) = 0.43283 0.24324
# Poissons Ratio (z) = -0.10272 0.43255
#
# Static dielectric constant tensor:
#      x y z
#    x 4.150510 0.000000 -0.155510 
#    y 0.000000 3.997260 0.000000 
#    z -0.155510 0.000000 3.792900 
# 
# 
# High freq. dielectric constant tensor:
#      x y z
#    x 1.882060 0.000000 -0.000760 
#    y 0.000000 1.864110 0.000000 
#    z -0.000760 0.000000 1.855130 
# 
# From -- ./inp_files/102776.got.cif
#   From: 2010.06.25/outbox.cif.g09.slc.cpg/sg15_52_cif.got.tgz:102776.got - 2010.06.28 07:06:18.
