data_PCOD8143984
_publ_section_title
;
Structure prediction by ZEFSAII (Michael W. Deem and Ramdas Pophale) SiO2 
 PCOD8143984
Probable space group: C 2/C
;
_chemical_formula_sum "Si O2"
_cell_formula_units_Z 48
_cell_length_a 5.191106
_cell_length_b 17.451649
_cell_length_c 24.248700
_cell_angle_alpha 90.000000
_cell_angle_beta 112.104138
_cell_angle_gamma 90.000000
_cell_volume 2035.311722
_symmetry_space_group_name_H-M "C 2/C"
_symmetry_group_IT_number 15
_symmetry_cell_setting 'monoclinic'
loop_
_space_group_symop_operation_xyz
x,y,z
-x,y,1/2-z
-x,-y,-z
x,-y,1/2+z
1/2+x,1/2+y,z
1/2-x,1/2+y,1/2-z
1/2-x,1/2-y,-z
1/2+x,1/2-y,1/2+z
loop_
_atom_site_type_symbol
_atom_site_label
_atom_site_fract_x
_atom_site_fract_y
_atom_site_fract_z
Si Si1 0.313148 0.642902 0.283813
Si Si2 0.293785 0.070360 0.491053
Si Si3 0.185687 0.209955 0.407562
Si Si4 0.769855 0.211663 0.559720
Si Si5 0.473154 0.558528 0.920897
Si Si6 0.805776 0.038891 0.783965
O O1 0.500000 0.676143 0.250000
O O2 0.461115 0.668893 0.351201
O O3 0.307698 0.551952 0.282623
O O4 0.000000 0.674993 0.250000
O O5 0.341149 0.148260 0.460167
O O6 0.250366 0.089999 0.552467
O O7 0.500000 0.000000 0.500000
O O8 0.020048 0.030132 0.441245
O O9 0.427234 0.256958 0.393733
O O10 0.998931 0.268350 0.426962
O O11 0.750000 0.250000 0.500000
O O12 0.762801 0.118113 0.553247
O O13 0.388044 0.568160 0.850789
O O14 0.500000 0.072138 0.750000
O O15 0.000000 0.071119 0.750000
#
# Coordination Sequence:
#
# PCOD8143984 Si02
#       6
#     8   8   8   8   8   8
#     4  10  21  41  68  95 129 174 227 284 332 398
#     4  11  25  40  72 100 133 174 232 288 335 403
#     4  12  25  45  67 102 134 179 232 274 346 421
#     4  12  26  44  68  99 145 184 218 278 362 420
#     4  11  25  44  65 104 135 177 228 287 340 408
#     4  10  23  41  67  97 131 176 224 282 344 398
#
# _framework density 23.583613
#
# number of rings (size 3 to 8) (size 9 to 14) (size 15 to 20)
#    0.000    1.000    3.333    2.500    7.000    1.333 
#    0.000    5.000    0.000    0.000    0.000    0.000 
#    0.000    0.000    0.000    0.000    0.000    0.000 
#
# Total GULP energy -297399.055803 kJ/mol
# GULP energy per Si atom -12391.627325 kJ/mol
# Density = 2.352994 g / cm^3
# Si number density = 23.583613 Si / 1000 Ang^3
#
#
#
# Elastic Constant Matrix: (Units=GPa)
#
#
# Indices 1 2 3 4 5 6 
#
# 1 135.3207 49.7200 31.1231 0.0000 -2.9783 0.0000
# 2 49.7200 88.8978 18.3380 0.0000 -14.6752 0.0000
# 3 31.1231 18.3380 139.5513 0.0000 -17.2364 0.0000
# 4 0.0000 0.0000 0.0000 25.1183 0.0000 3.3743
# 5 -2.9783 -14.6752 -17.2364 0.0000 31.8158 0.0000
# 6 0.0000 0.0000 0.0000 3.3743 0.0000 36.2465
#
#
#
# Elastic Compliance Matrix: (Units=1/GPa)
#
#
# Indices 1 2 3 4 5 6 
#
# 1 0.009772 -0.005528 -0.001774 0.000000 -0.002596 0.000000
# 2 -0.005528 0.015427 0.000022 0.000000 0.006610 0.000000
# 3 -0.001774 0.000022 0.008080 0.000000 0.004221 0.000000
# 4 0.000000 0.000000 0.000000 0.040316 0.000000 -0.003753
# 5 -0.002596 0.006610 0.004221 0.000000 0.036524 0.000000
# 6 0.000000 0.000000 0.000000 -0.003753 0.000000 0.027938
#
#
# Mechanical properties :
#
#
# Convention : Reuss Voigt Hill
#
# Bulk Modulus (GPa) = 53.41851 62.45910 57.93880
# Shear Modulus (GPa) = 31.47508 36.27537 33.87522
#
# Velocity S-wave (km/s) = 3.65720 3.92619 3.79408
# Velocity P-wave (km/s) = 6.36658 6.86257 6.61923
#
# Compressibility (1/GPa) = 0.01872010
#
# Stress axis : x y z
#
# Youngs Moduli (GPa) = 102.33619 64.82013 123.76444
#
# Poissons Ratio (x) = 0.35832 0.21950
# Poissons Ratio (y) = 0.56571 -0.00273
# Poissons Ratio (z) = 0.18150 -0.00143
#
# Static dielectric constant tensor:
#      x y z
#    x 4.679940 0.000000 0.332830 
#    y 0.000000 4.769790 0.000000 
#    z 0.332830 0.000000 4.368970 
# 
# 
# High freq. dielectric constant tensor:
#      x y z
#    x 1.953590 0.000000 0.008960 
#    y 0.000000 1.934310 0.000000 
#    z 0.008960 0.000000 1.928770 
# 
# From -- ./inp_files/260890.got.cif
#   From: 2010.06.25/outbox.cif.g09.slc.cpg/sg15_131_cif.got.tgz:260890.got - 2010.06.28 07:06:18.
