data_PCOD8143961
_publ_section_title
;
Structure prediction by ZEFSAII (Michael W. Deem and Ramdas Pophale) SiO2 
 PCOD8143961
Probable space group: C 2/C
;
_chemical_formula_sum "Si O2"
_cell_formula_units_Z 64
_cell_length_a 8.593172
_cell_length_b 23.812021
_cell_length_c 14.868857
_cell_angle_alpha 90.000000
_cell_angle_beta 86.295733
_cell_angle_gamma 90.000000
_cell_volume 3036.120983
_symmetry_space_group_name_H-M "C 2/C"
_symmetry_group_IT_number 15
_symmetry_cell_setting 'monoclinic'
loop_
_space_group_symop_operation_xyz
x,y,z
-x,y,1/2-z
-x,-y,-z
x,-y,1/2+z
1/2+x,1/2+y,z
1/2-x,1/2+y,1/2-z
1/2-x,1/2-y,-z
1/2+x,1/2-y,1/2+z
loop_
_atom_site_type_symbol
_atom_site_label
_atom_site_fract_x
_atom_site_fract_y
_atom_site_fract_z
Si Si1 0.201194 0.917314 0.997374
Si Si2 0.621609 0.173196 0.101247
Si Si3 0.800197 0.511906 0.852819
Si Si4 0.659346 0.011603 0.855784
Si Si5 0.570936 0.729047 0.845612
Si Si6 0.809714 0.612078 0.103052
Si Si7 0.867212 0.885273 0.059673
Si Si8 0.176040 0.807312 0.732412
O O1 0.288299 0.856747 0.984328
O O2 0.248735 0.957916 0.913021
O O3 0.246582 0.940616 0.094115
O O4 0.016784 0.907969 0.999705
O O5 0.544273 0.234416 0.084314
O O6 0.477284 0.132688 0.133488
O O7 0.743900 0.180624 0.176124
O O8 0.780615 0.500982 0.747386
O O9 0.693293 0.565259 0.875176
O O10 0.978203 0.527625 0.867651
O O11 0.691089 0.954534 0.907998
O O12 0.500000 0.725591 0.750000
O O13 0.587782 0.667088 0.881377
O O14 0.737381 0.759932 0.830586
O O15 0.679549 0.634093 0.177571
O O16 0.765815 0.634445 0.005359
O O17 0.000000 0.786505 0.750000
#
# Coordination Sequence:
#
# PCOD8143961 Si02
#       8
#     8   8   8   8   8   8   8   8
#     4  12  23  42  66  98 136 169 228 284 325 405
#     4  10  21  41  71  93 127 175 220 271 332 393
#     4  11  24  42  63  95 132 175 222 275 340 408
#     4  11  24  41  67  95 128 184 223 266 338 410
#     4   9  23  45  67  90 132 180 222 273 336 406
#     4  11  21  39  65  94 132 170 218 272 327 399
#     4  12  26  41  62  97 140 173 218 284 341 389
#     4  10  21  41  68 101 123 168 225 280 332 386
#
# _framework density 21.079526999999999
#
# number of rings (size 3 to 8) (size 9 to 14) (size 15 to 20)
#    0.000    1.250    2.500    4.125    3.500    2.500 
#    2.250    2.500    0.000    0.000    0.000    0.000 
#    0.000    0.000    0.000    0.000    0.000    0.000 
#
# Total GULP energy -396748.375286 kJ/mol
# GULP energy per Si atom -12398.386728 kJ/mol
# Density = 2.103155 g / cm^3
# Si number density = 21.079527 Si / 1000 Ang^3
#
#
#
# Elastic Constant Matrix: (Units=GPa)
#
#
# Indices 1 2 3 4 5 6 
#
# 1 120.1698 49.5053 44.8824 0.0000 -5.7902 0.0000
# 2 49.5053 110.3426 25.4149 0.0000 -6.3823 0.0000
# 3 44.8824 25.4149 71.1895 0.0000 -0.7550 0.0000
# 4 0.0000 0.0000 0.0000 25.8256 0.0000 5.0785
# 5 -5.7902 -6.3823 -0.7550 0.0000 29.6965 0.0000
# 6 0.0000 0.0000 0.0000 5.0785 0.0000 25.1014
#
#
#
# Elastic Compliance Matrix: (Units=1/GPa)
#
#
# Indices 1 2 3 4 5 6 
#
# 1 0.012433 -0.004026 -0.006386 0.000000 0.001396 0.000000
# 2 -0.004026 0.011303 -0.001480 0.000000 0.001607 0.000000
# 3 -0.006386 -0.001480 0.018590 0.000000 -0.001091 0.000000
# 4 0.000000 0.000000 0.000000 0.040326 0.000000 -0.008159
# 5 0.001396 0.001607 -0.001091 0.000000 0.034264 0.000000
# 6 0.000000 0.000000 0.000000 -0.008159 0.000000 0.041489
#
#
# Mechanical properties :
#
#
# Convention : Reuss Voigt Hill
#
# Bulk Modulus (GPa) = 53.93390 60.14523 57.03956
# Shear Modulus (GPa) = 26.54370 28.25132 27.39751
#
# Velocity S-wave (km/s) = 3.55239 3.66488 3.60908
# Velocity P-wave (km/s) = 6.51671 6.81931 6.66972
#
# Compressibility (1/GPa) = 0.01854122
#
# Stress axis : x y z
#
# Youngs Moduli (GPa) = 80.43317 88.47359 53.79258
#
# Poissons Ratio (x) = 0.35622 0.34353
# Poissons Ratio (y) = 0.32385 0.07960
# Poissons Ratio (z) = 0.51366 0.13091
#
# Static dielectric constant tensor:
#      x y z
#    x 3.910850 0.000000 -0.062430 
#    y 0.000000 3.827800 0.000000 
#    z -0.062430 0.000000 3.675130 
# 
# 
# High freq. dielectric constant tensor:
#      x y z
#    x 1.833750 0.000000 0.003930 
#    y 0.000000 1.823580 0.000000 
#    z 0.003930 0.000000 1.819550 
# 
# From -- ./inp_files/137841.got.cif
#   From: 2010.06.25/outbox.cif.g09.slc.cpg/sg15_69_cif.got.tgz:137841.got - 2010.06.28 07:06:18.
