data_PCOD8143402
_publ_section_title
;
Structure prediction by ZEFSAII (Michael W. Deem and Ramdas Pophale) SiO2 
 PCOD8143402
Probable space group: C 2/C
;
_chemical_formula_sum "Si O2"
_cell_formula_units_Z 60
_cell_length_a 25.057587
_cell_length_b 12.448211
_cell_length_c 9.612654
_cell_angle_alpha 90.000000
_cell_angle_beta 75.950719
_cell_angle_gamma 90.000000
_cell_volume 2908.709246
_symmetry_space_group_name_H-M "C 2/C"
_symmetry_group_IT_number 15
_symmetry_cell_setting 'monoclinic'
loop_
_space_group_symop_operation_xyz
x,y,z
-x,y,1/2-z
-x,-y,-z
x,-y,1/2+z
1/2+x,1/2+y,z
1/2-x,1/2+y,1/2-z
1/2-x,1/2-y,-z
1/2+x,1/2-y,1/2+z
loop_
_atom_site_type_symbol
_atom_site_label
_atom_site_fract_x
_atom_site_fract_y
_atom_site_fract_z
Si Si1 0.101059 0.617191 0.714377
Si Si2 0.921472 0.202429 0.789870
Si Si3 0.274695 0.845833 0.393566
Si Si4 0.275051 0.092532 0.461345
Si Si5 0.488253 0.378304 0.476000
Si Si6 0.300220 0.709696 0.804344
Si Si7 0.500000 0.257636 0.750000
Si Si8 0.608305 0.906924 0.526472
O O1 0.160529 0.676249 0.671861
O O2 0.101747 0.516142 0.613859
O O3 0.053795 0.689685 0.676642
O O4 0.084726 0.587285 0.884233
O O5 0.965956 0.186491 0.640636
O O6 0.863978 0.179084 0.749529
O O7 0.923309 0.320151 0.858912
O O8 0.933206 0.124027 0.914762
O O9 0.250000 0.750000 0.500000
O O10 0.237506 0.848666 0.282127
O O11 0.266027 0.965832 0.457251
O O12 0.292311 0.159244 0.309108
O O13 0.219391 0.152688 0.540806
O O14 0.326497 0.117105 0.531901
O O15 0.500000 0.500000 0.500000
O O16 0.480607 0.325852 0.630461
#
# Coordination Sequence:
#
# PCOD8143402 Si02
#       8
#     8   8   8   8   8   8   4   8
#     4  11  25  42  68 100 136 173 215 276 337 404
#     4  10  23  43  69  92 129 174 225 271 334 402
#     4  11  25  40  65 100 136 170 220 277 334 395
#     4   9  21  39  63  91 132 174 205 268 333 391
#     4  11  25  47  65  91 131 180 220 281 334 386
#     4  10  21  40  66  94 127 173 221 266 329 400
#     4  12  26  42  70  96 132 168 228 270 328 396
#     4  10  21  43  67  97 134 170 210 271 342 394
#
# _framework density 20.627706
#
# number of rings (size 3 to 8) (size 9 to 14) (size 15 to 20)
#    0.000    1.600    2.667    0.800    5.600    4.800 
#    2.400    0.000    0.000    0.000    0.000    0.000 
#    0.000    0.000    0.000    0.000    0.000    0.000 
#
# Total GULP energy -371659.762191 kJ/mol
# GULP energy per Si atom -12388.658740 kJ/mol
# Density = 2.058076 g / cm^3
# Si number density = 20.627706 Si / 1000 Ang^3
#
#
#
# Elastic Constant Matrix: (Units=GPa)
#
#
# Indices 1 2 3 4 5 6 
#
# 1 111.9246 42.2179 25.0833 0.0000 -4.7471 0.0000
# 2 42.2179 120.2918 35.1221 0.0000 -9.1286 0.0000
# 3 25.0833 35.1221 79.2750 0.0000 -3.9653 0.0000
# 4 0.0000 0.0000 0.0000 26.5608 0.0000 2.1531
# 5 -4.7471 -9.1286 -3.9653 0.0000 30.6190 0.0000
# 6 0.0000 0.0000 0.0000 2.1531 0.0000 27.8635
#
#
#
# Elastic Compliance Matrix: (Units=1/GPa)
#
#
# Indices 1 2 3 4 5 6 
#
# 1 0.010560 -0.003104 -0.001943 0.000000 0.000460 0.000000
# 2 -0.003104 0.010626 -0.003615 0.000000 0.002219 0.000000
# 3 -0.001943 -0.003615 0.014858 0.000000 0.000545 0.000000
# 4 0.000000 0.000000 0.000000 0.037887 0.000000 -0.002928
# 5 0.000460 0.002219 0.000545 0.000000 0.033463 0.000000
# 6 0.000000 0.000000 0.000000 -0.002928 0.000000 0.036115
#
#
# Mechanical properties :
#
#
# Convention : Reuss Voigt Hill
#
# Bulk Modulus (GPa) = 53.41683 57.37088 55.39385
# Shear Modulus (GPa) = 29.92687 30.94655 30.43671
#
# Velocity S-wave (km/s) = 3.81308 3.87750 3.84542
# Velocity P-wave (km/s) = 6.73335 6.92240 6.82853
#
# Compressibility (1/GPa) = 0.01872069
#
# Stress axis : x y z
#
# Youngs Moduli (GPa) = 94.69316 94.10608 67.30422
#
# Poissons Ratio (x) = 0.29211 0.13078
# Poissons Ratio (y) = 0.29393 0.24329
# Poissons Ratio (z) = 0.18400 0.34017
#
# Static dielectric constant tensor:
#      x y z
#    x 4.076840 0.000000 -0.031370 
#    y 0.000000 3.706030 0.000000 
#    z -0.031370 0.000000 3.796620 
# 
# 
# High freq. dielectric constant tensor:
#      x y z
#    x 1.816140 0.000000 0.005270 
#    y 0.000000 1.805630 0.000000 
#    z 0.005270 0.000000 1.802070 
# 
# From -- ./inp_files/117529.got.cif
#   From: 2010.06.25/outbox.cif.g09.slc.cpg/sg15_59_cif.got.tgz:117529.got - 2010.06.28 07:06:18.
