data_PCOD8143178
_publ_section_title
;
Structure prediction by ZEFSAII (Michael W. Deem and Ramdas Pophale) SiO2 
 PCOD8143178
Probable space group: C 2/C
;
_chemical_formula_sum "Si O2"
_cell_formula_units_Z 64
_cell_length_a 31.915112
_cell_length_b 11.446530
_cell_length_c 15.259048
_cell_angle_alpha 90.000000
_cell_angle_beta 35.391390
_cell_angle_gamma 90.000000
_cell_volume 3228.458648
_symmetry_space_group_name_H-M "C 2/C"
_symmetry_group_IT_number 15
_symmetry_cell_setting 'monoclinic'
loop_
_space_group_symop_operation_xyz
x,y,z
-x,y,1/2-z
-x,-y,-z
x,-y,1/2+z
1/2+x,1/2+y,z
1/2-x,1/2+y,1/2-z
1/2-x,1/2-y,-z
1/2+x,1/2-y,1/2+z
loop_
_atom_site_type_symbol
_atom_site_label
_atom_site_fract_x
_atom_site_fract_y
_atom_site_fract_z
Si Si1 0.307653 0.388087 0.785500
Si Si2 0.168857 0.378061 0.290269
Si Si3 0.651316 0.896703 0.121967
Si Si4 0.571334 0.689818 0.169836
Si Si5 0.435642 0.508432 0.175838
Si Si6 0.577694 0.344879 0.160738
Si Si7 0.680751 0.470242 0.402236
Si Si8 0.416170 0.081946 0.391810
O O1 0.328586 0.263365 0.706887
O O2 0.366932 0.429197 0.752876
O O3 0.299449 0.494047 0.730412
O O4 0.235347 0.371466 0.963849
O O5 0.138606 0.419113 0.247104
O O6 0.246937 0.436678 0.169402
O O7 0.115051 0.428014 0.456372
O O8 0.608401 0.781307 0.169996
O O9 0.626053 0.002009 0.104497
O O10 0.500000 0.749135 0.250000
O O11 0.541773 0.581385 0.276844
O O12 0.626983 0.641807 0.000475
O O13 0.422210 0.377947 0.235860
O O14 0.500000 0.500000 0.000000
O O15 0.500000 0.372162 0.250000
O O16 0.596659 0.210271 0.122847
O O17 0.642976 0.415790 0.005938
O O18 0.500000 0.046099 0.250000
#
# Coordination Sequence:
#
# PCOD8143178 Si02
#       8
#     8   8   8   8   8   8   8   8
#     4  12  22  41  67  98 133 172 218 271 338 397
#     4  12  24  44  67  93 133 174 220 276 334 400
#     4  12  24  43  67  97 131 180 224 269 326 407
#     4  11  22  38  62  98 135 165 219 280 322 390
#     4  11  22  37  64 101 128 166 215 274 336 384
#     4  10  21  40  63  92 132 169 213 269 329 389
#     4  11  21  39  67  95 126 170 218 270 338 381
#     4  11  26  45  66  92 131 182 222 267 338 404
#
# _framework density 19.823699999999999
#
# number of rings (size 3 to 8) (size 9 to 14) (size 15 to 20)
#    0.000    0.750    5.000    5.250    1.750    0.500 
#    0.000    6.250    0.000    0.000    0.000    0.000 
#    0.000    0.000    0.000    0.000    0.000    0.000 
#
# Total GULP energy -396766.893438 kJ/mol
# GULP energy per Si atom -12398.965420 kJ/mol
# Density = 1.977858 g / cm^3
# Si number density = 19.823700 Si / 1000 Ang^3
#
#
#
# Elastic Constant Matrix: (Units=GPa)
#
#
# Indices 1 2 3 4 5 6 
#
# 1 117.2676 49.9338 59.3965 0.0000 3.4089 0.0000
# 2 49.9338 82.5290 34.0569 0.0000 7.0499 0.0000
# 3 59.3965 34.0569 131.0853 0.0000 3.0767 0.0000
# 4 0.0000 0.0000 0.0000 26.2921 0.0000 4.0288
# 5 3.4089 7.0499 3.0767 0.0000 40.0238 0.0000
# 6 0.0000 0.0000 0.0000 4.0288 0.0000 30.1441
#
#
#
# Elastic Compliance Matrix: (Units=1/GPa)
#
#
# Indices 1 2 3 4 5 6 
#
# 1 0.013481 -0.006339 -0.004469 0.000000 0.000312 0.000000
# 2 -0.006339 0.016736 -0.001422 0.000000 -0.002299 0.000000
# 3 -0.004469 -0.001422 0.010026 0.000000 -0.000140 0.000000
# 4 0.000000 0.000000 0.000000 0.038829 0.000000 -0.005190
# 5 0.000312 -0.002299 -0.000140 0.000000 0.025374 0.000000
# 6 0.000000 0.000000 0.000000 -0.005190 0.000000 0.033868
#
#
# Mechanical properties :
#
#
# Convention : Reuss Voigt Hill
#
# Bulk Modulus (GPa) = 63.35786 68.62848 65.99317
# Shear Modulus (GPa) = 29.75572 31.79164 30.77368
#
# Velocity S-wave (km/s) = 3.87850 4.00899 3.94428
# Velocity P-wave (km/s) = 7.21714 7.49159 7.35564
#
# Compressibility (1/GPa) = 0.01578336
#
# Stress axis : x y z
#
# Youngs Moduli (GPa) = 74.17693 59.75308 99.73901
#
# Poissons Ratio (x) = 0.37879 0.44572
# Poissons Ratio (y) = 0.47023 0.14179
# Poissons Ratio (z) = 0.33149 0.08495
#
# Static dielectric constant tensor:
#      x y z
#    x 3.600170 0.000000 0.094450 
#    y 0.000000 3.455340 0.000000 
#    z 0.094450 0.000000 3.770420 
# 
# 
# High freq. dielectric constant tensor:
#      x y z
#    x 1.776150 0.000000 -0.001120 
#    y 0.000000 1.770940 0.000000 
#    z -0.001120 0.000000 1.784610 
# 
# From -- ./inp_files/181752.got.cif
#   From: 2010.06.25/outbox.cif.g09.slc.cpg/sg15_91_cif.got.tgz:181752.got - 2010.06.28 07:06:18.
