data_PCOD8143631
_publ_section_title
;
Structure prediction by ZEFSAII (Michael W. Deem and Ramdas Pophale) SiO2 
 PCOD8143631
Probable space group: C 2/C
;
_chemical_formula_sum "Si O2"
_cell_formula_units_Z 52
_cell_length_a 27.819568
_cell_length_b 13.820756
_cell_length_c 8.671770
_cell_angle_alpha 90.000000
_cell_angle_beta 45.115956
_cell_angle_gamma 90.000000
_cell_volume 2362.392684
_symmetry_space_group_name_H-M "C 2/C"
_symmetry_group_IT_number 15
_symmetry_cell_setting 'monoclinic'
loop_
_space_group_symop_operation_xyz
x,y,z
-x,y,1/2-z
-x,-y,-z
x,-y,1/2+z
1/2+x,1/2+y,z
1/2-x,1/2+y,1/2-z
1/2-x,1/2-y,-z
1/2+x,1/2-y,1/2+z
loop_
_atom_site_type_symbol
_atom_site_label
_atom_site_fract_x
_atom_site_fract_y
_atom_site_fract_z
Si Si1 0.203849 0.379957 0.003934
Si Si2 0.361772 0.960370 0.655453
Si Si3 0.074077 0.110417 0.924206
Si Si4 0.580516 0.431965 0.738104
Si Si5 0.407461 0.193067 0.277652
Si Si6 0.500000 0.061481 0.250000
Si Si7 0.155218 0.798611 0.788547
O O1 0.167295 0.416307 0.934055
O O2 0.284690 0.371855 0.797722
O O3 0.185866 0.451172 0.185965
O O4 0.178171 0.273003 0.101178
O O5 0.358177 0.879470 0.797141
O O6 0.439188 0.995456 0.452732
O O7 0.071495 0.221762 0.883974
O O8 0.108081 0.040381 0.717923
O O9 0.113494 0.100157 0.999548
O O10 0.999120 0.068935 0.110157
O O11 0.595803 0.361945 0.847735
O O12 0.473994 0.132157 0.173401
O O13 0.369744 0.236359 0.510443
#
# Coordination Sequence:
#
# PCOD8143631 Si02
#       7
#     8   8   8   8   8   4   8
#     4  11  25  45  66  95 135 181 233 280 338 415
#     4  12  25  45  68 102 139 177 232 288 353 414
#     4  10  22  37  64  98 133 175 221 290 340 412
#     4  10  21  41  61  96 136 176 229 278 347 401
#     4  12  24  41  68 103 134 178 228 282 357 413
#     4  12  24  42  72 104 142 180 220 300 352 416
#     4  11  24  44  68  93 135 185 227 281 336 412
#
# _framework density 22.011581
#
# number of rings (size 3 to 8) (size 9 to 14) (size 15 to 20)
#    0.000    0.923    3.077    3.231    0.000    6.769 
#    0.000    0.000    0.000    0.000    0.000    0.000 
#    0.000    0.000    0.000    0.000    0.000    0.000 
#
# Total GULP energy -322353.481033 kJ/mol
# GULP energy per Si atom -12398.210809 kJ/mol
# Density = 2.196148 g / cm^3
# Si number density = 22.011581 Si / 1000 Ang^3
#
#
#
# Elastic Constant Matrix: (Units=GPa)
#
#
# Indices 1 2 3 4 5 6 
#
# 1 115.5883 61.6367 64.1053 0.0000 16.7929 0.0000
# 2 61.6367 126.5503 31.9682 0.0000 11.4569 0.0000
# 3 64.1053 31.9682 78.1938 0.0000 11.6819 0.0000
# 4 0.0000 0.0000 0.0000 28.6743 0.0000 9.2446
# 5 16.7929 11.4569 11.6819 0.0000 30.1625 0.0000
# 6 0.0000 0.0000 0.0000 9.2446 0.0000 32.5818
#
#
#
# Elastic Compliance Matrix: (Units=1/GPa)
#
#
# Indices 1 2 3 4 5 6 
#
# 1 0.019595 -0.005906 -0.013114 0.000000 -0.003587 0.000000
# 2 -0.005906 0.010716 0.000613 0.000000 -0.001020 0.000000
# 3 -0.013114 0.000613 0.023599 0.000000 -0.002072 0.000000
# 4 0.000000 0.000000 0.000000 0.038386 0.000000 -0.010891
# 5 -0.003587 -0.001020 -0.002072 0.000000 0.036340 0.000000
# 6 0.000000 0.000000 0.000000 -0.010891 0.000000 0.033782
#
#
# Mechanical properties :
#
#
# Convention : Reuss Voigt Hill
#
# Bulk Modulus (GPa) = 58.49336 70.63920 64.56628
# Shear Modulus (GPa) = 24.39853 29.12520 26.76187
#
# Velocity S-wave (km/s) = 3.33294 3.64150 3.49063
# Velocity P-wave (km/s) = 6.43761 7.05990 6.75592
#
# Compressibility (1/GPa) = 0.01709596
#
# Stress axis : x y z
#
# Youngs Moduli (GPa) = 51.03343 93.31807 42.37553
#
# Poissons Ratio (x) = 0.55117 0.55571
# Poissons Ratio (y) = 0.30142 -0.02599
# Poissons Ratio (z) = 0.66925 -0.05724
#
# Static dielectric constant tensor:
#      x y z
#    x 4.145240 0.000000 0.380170 
#    y 0.000000 4.215070 0.000000 
#    z 0.380170 0.000000 4.008410 
# 
# 
# High freq. dielectric constant tensor:
#      x y z
#    x 1.868980 0.000000 0.023680 
#    y 0.000000 1.885070 0.000000 
#    z 0.023680 0.000000 1.849450 
# 
# From -- ./inp_files/66105.got.cif
#   From: 2010.06.25/outbox.cif.g09.slc.cpg/sg15_34_cif.got.tgz:66105.got - 2010.06.28 07:06:18.
