data_PCOD8143359
_publ_section_title
;
Structure prediction by ZEFSAII (Michael W. Deem and Ramdas Pophale) SiO2 
 PCOD8143359
Probable space group: C 2/C
;
_chemical_formula_sum "Si O2"
_cell_formula_units_Z 60
_cell_length_a 13.584901
_cell_length_b 8.455434
_cell_length_c 23.891028
_cell_angle_alpha 90.000000
_cell_angle_beta 67.281247
_cell_angle_gamma 90.000000
_cell_volume 2531.349066
_symmetry_space_group_name_H-M "C 2/C"
_symmetry_group_IT_number 15
_symmetry_cell_setting 'monoclinic'
loop_
_space_group_symop_operation_xyz
x,y,z
-x,y,1/2-z
-x,-y,-z
x,-y,1/2+z
1/2+x,1/2+y,z
1/2-x,1/2+y,1/2-z
1/2-x,1/2-y,-z
1/2+x,1/2-y,1/2+z
loop_
_atom_site_type_symbol
_atom_site_label
_atom_site_fract_x
_atom_site_fract_y
_atom_site_fract_z
Si Si1 0.000000 0.191029 0.750000
Si Si2 0.433744 0.385904 0.097668
Si Si3 0.632727 0.137951 0.812385
Si Si4 0.334571 0.520212 0.221814
Si Si5 0.922942 0.704486 0.554348
Si Si6 0.862525 0.545181 0.977874
Si Si7 0.037037 0.610375 0.141568
Si Si8 0.127128 0.025625 0.002115
O O1 0.920275 0.084324 0.734186
O O2 0.069457 0.296714 0.690946
O O3 0.343715 0.474914 0.154051
O O4 0.462262 0.218506 0.118478
O O5 0.393057 0.346691 0.043521
O O6 0.534398 0.510778 0.070040
O O7 0.640634 0.295637 0.773307
O O8 0.720122 0.012796 0.772674
O O9 0.646273 0.186677 0.874214
O O10 0.522382 0.048552 0.826171
O O11 0.894538 0.553051 0.524559
O O12 0.883505 0.857640 0.529026
O O13 0.052853 0.693839 0.542421
O O14 0.735748 0.580352 0.008813
O O15 0.865631 0.442189 0.919271
#
# Coordination Sequence:
#
# PCOD8143359 Si02
#       8
#     4   8   8   8   8   8   8   8
#     4  10  24  38  64  96 130 170 226 278 336 418
#     4  10  22  39  63  96 136 177 224 283 337 414
#     4  11  24  43  69  91 130 183 223 282 353 403
#     4  11  23  43  65  93 131 175 226 283 345 405
#     4  10  21  40  66 100 139 169 234 293 330 434
#     4  10  22  38  68 101 130 179 230 276 351 414
#     4  10  22  42  65  94 135 173 226 285 338 411
#     4  11  21  39  69  94 139 185 224 278 355 408
#
# _framework density 23.702774000000002
#
# number of rings (size 3 to 8) (size 9 to 14) (size 15 to 20)
#    0.000    1.600    2.667    2.000    1.867    2.667 
#    0.000    6.667    0.000    0.000    0.000    0.000 
#    0.000    0.000    0.000    0.000    0.000    0.000 
#
# Total GULP energy -371697.441052 kJ/mol
# GULP energy per Si atom -12389.914702 kJ/mol
# Density = 2.364883 g / cm^3
# Si number density = 23.702774 Si / 1000 Ang^3
#
#
#
# Elastic Constant Matrix: (Units=GPa)
#
#
# Indices 1 2 3 4 5 6 
#
# 1 90.6887 -12.5088 11.3519 0.0000 -8.1792 0.0000
# 2 -12.5088 75.9442 10.1088 0.0000 6.5309 0.0000
# 3 11.3519 10.1088 104.9855 0.0000 -5.0467 0.0000
# 4 0.0000 0.0000 0.0000 32.3736 0.0000 -8.4900
# 5 -8.1792 6.5309 -5.0467 0.0000 32.7978 0.0000
# 6 0.0000 0.0000 0.0000 -8.4900 0.0000 11.8978
#
#
#
# Elastic Compliance Matrix: (Units=1/GPa)
#
#
# Indices 1 2 3 4 5 6 
#
# 1 0.011665 0.001899 -0.001332 0.000000 0.002326 0.000000
# 2 0.001899 0.013922 -0.001669 0.000000 -0.002556 0.000000
# 3 -0.001332 -0.001669 0.009903 0.000000 0.001524 0.000000
# 4 0.000000 0.000000 0.000000 0.038001 0.000000 0.027117
# 5 0.002326 -0.002556 0.001524 0.000000 0.031813 0.000000
# 6 0.000000 0.000000 0.000000 0.027117 0.000000 0.103399
#
#
# Mechanical properties :
#
#
# Convention : Reuss Voigt Hill
#
# Bulk Modulus (GPa) = 30.04280 32.16912 31.10596
# Shear Modulus (GPa) = 22.52215 32.92493 27.72354
#
# Velocity S-wave (km/s) = 3.08586 3.73107 3.42370
# Velocity P-wave (km/s) = 5.03975 5.67120 5.36477
#
# Compressibility (1/GPa) = 0.03328584
#
# Stress axis : x y z
#
# Youngs Moduli (GPa) = 85.72516 71.82779 100.97832
#
# Poissons Ratio (x) = -0.13638 0.13454
# Poissons Ratio (y) = -0.16277 0.16850
# Poissons Ratio (z) = 0.11422 0.11986
#
# Static dielectric constant tensor:
#      x y z
#    x 4.597340 0.000000 -0.020320 
#    y 0.000000 4.542180 0.000000 
#    z -0.020320 0.000000 4.935250 
# 
# 
# High freq. dielectric constant tensor:
#      x y z
#    x 1.899770 0.000000 -0.008730 
#    y 0.000000 1.961390 0.000000 
#    z -0.008730 0.000000 1.956820 
# 
# From -- ./inp_files/273139.got.cif
#   From: 2010.06.25/outbox.cif.g09.slc.cpg/sg15_137_cif.got.tgz:273139.got - 2010.06.28 07:06:18.
