data_PCOD8143111
_publ_section_title
;
Structure prediction by ZEFSAII (Michael W. Deem and Ramdas Pophale) SiO2 
 PCOD8143111
Probable space group: C 2/C
;
_chemical_formula_sum "Si O2"
_cell_formula_units_Z 52
_cell_length_a 21.970002
_cell_length_b 7.354481
_cell_length_c 23.807102
_cell_angle_alpha 90.000000
_cell_angle_beta 135.982084
_cell_angle_gamma 90.000000
_cell_volume 2673.009576
_symmetry_space_group_name_H-M "C 2/C"
_symmetry_group_IT_number 15
_symmetry_cell_setting 'monoclinic'
loop_
_space_group_symop_operation_xyz
x,y,z
-x,y,1/2-z
-x,-y,-z
x,-y,1/2+z
1/2+x,1/2+y,z
1/2-x,1/2+y,1/2-z
1/2-x,1/2-y,-z
1/2+x,1/2-y,1/2+z
loop_
_atom_site_type_symbol
_atom_site_label
_atom_site_fract_x
_atom_site_fract_y
_atom_site_fract_z
Si Si1 0.310993 0.540691 0.499154
Si Si2 0.736145 0.396819 0.315558
Si Si3 0.331263 0.036111 0.188051
Si Si4 0.500000 0.883041 0.250000
Si Si5 0.351108 0.744084 0.296054
Si Si6 0.454894 0.252008 0.602559
Si Si7 0.185124 0.543365 0.514096
O O1 0.251901 0.499854 0.406166
O O2 0.399898 0.429874 0.551804
O O3 0.261141 0.474590 0.522385
O O4 0.337738 0.751264 0.518587
O O5 0.667045 0.241588 0.287554
O O6 0.685197 0.548509 0.246710
O O7 0.811740 0.300628 0.329534
O O8 0.780562 0.482962 0.400041
O O9 0.419163 0.014035 0.210435
O O10 0.323797 0.893857 0.232952
O O11 0.522503 0.750814 0.316459
O O12 0.455648 0.736312 0.373437
O O13 0.403352 0.070356 0.551228
#
# Coordination Sequence:
#
# PCOD8143111 Si02
#       7
#     8   8   8   4   8   8   8
#     4  10  21  40  62  91 124 161 200 243 318 368
#     4  11  23  43  65  85 121 170 208 247 309 364
#     4  10  21  42  64  88 128 158 201 256 303 366
#     4  10  22  36  62  98 124 158 200 256 306 356
#     4  11  24  41  62  91 119 167 209 252 305 356
#     4  11  23  38  61  94 127 157 203 253 303 364
#     4  10  22  39  63  91 123 163 199 248 307 369
#
# _framework density 19.453728000000002
#
# number of rings (size 3 to 8) (size 9 to 14) (size 15 to 20)
#    0.000    1.538    3.077    1.385    4.308    3.077 
#    0.000    3.846    0.000    0.000    0.000    0.000 
#    0.000    0.000    0.000    0.000    0.000    0.000 
#
# Total GULP energy -322526.474432 kJ/mol
# GULP energy per Si atom -12404.864401 kJ/mol
# Density = 1.940945 g / cm^3
# Si number density = 19.453728 Si / 1000 Ang^3
#
#
#
# Elastic Constant Matrix: (Units=GPa)
#
#
# Indices 1 2 3 4 5 6 
#
# 1 70.1511 14.0545 32.1028 -0.0001 9.3290 -0.0002
# 2 14.0545 80.5133 45.4622 -0.0003 14.1859 0.0006
# 3 32.1028 45.4622 85.2285 -0.0002 17.3226 -0.0001
# 4 -0.0001 -0.0003 -0.0002 14.8449 -0.0001 -3.5716
# 5 9.3290 14.1859 17.3226 -0.0001 32.3529 0.0000
# 6 -0.0002 0.0006 -0.0001 -3.5716 0.0000 22.2983
#
#
#
# Elastic Compliance Matrix: (Units=1/GPa)
#
#
# Indices 1 2 3 4 5 6 
#
# 1 0.017374 0.001113 -0.006756 0.000000 -0.001881 0.000000
# 2 0.001113 0.018117 -0.009430 0.000000 -0.003216 -0.000001
# 3 -0.006756 -0.009430 0.020278 0.000000 -0.004775 0.000000
# 4 0.000000 0.000000 0.000000 0.070063 0.000000 0.011222
# 5 -0.001881 -0.003216 -0.004775 0.000000 0.035418 0.000000
# 6 0.000000 -0.000001 0.000000 0.011222 0.000000 0.046644
#
#
# Mechanical properties :
#
#
# Convention : Reuss Voigt Hill
#
# Bulk Modulus (GPa) = 39.02471 46.57019 42.79745
# Shear Modulus (GPa) = 20.27742 23.51744 21.89743
#
# Velocity S-wave (km/s) = 3.23203 3.48068 3.35866
# Velocity P-wave (km/s) = 5.83368 6.33597 6.09001
#
# Compressibility (1/GPa) = 0.02562479
#
# Stress axis : x y z
#
# Youngs Moduli (GPa) = 57.55874 55.19652 49.31417
#
# Poissons Ratio (x) = -0.06144 0.33315
# Poissons Ratio (y) = -0.06407 0.46501
# Poissons Ratio (z) = 0.38884 0.52048
#
# Static dielectric constant tensor:
#      x y z
#    x 3.672850 0.000000 -0.052000 
#    y 0.000000 3.562010 0.000000 
#    z -0.052000 0.000000 3.566870 
# 
# 
# High freq. dielectric constant tensor:
#      x y z
#    x 1.760280 0.000000 -0.004350 
#    y 0.000000 1.764000 0.000000 
#    z -0.004350 0.000000 1.758030 
# 
# From -- ./inp_files/279616.got.cif
#   From: 2010.06.25/outbox.cif.g09.slc.cpg/sg15_140_cif.got.tgz:279616.got - 2010.06.28 07:06:18.
