data_PCOD8143697
_publ_section_title
;
Structure prediction by ZEFSAII (Michael W. Deem and Ramdas Pophale) SiO2 
 PCOD8143697
Probable space group: C 2/C
;
_chemical_formula_sum "Si O2"
_cell_formula_units_Z 32
_cell_length_a 7.222509
_cell_length_b 13.651519
_cell_length_c 17.003673
_cell_angle_alpha 90.000000
_cell_angle_beta 82.677980
_cell_angle_gamma 90.000000
_cell_volume 1662.860652
_symmetry_space_group_name_H-M "C 2/C"
_symmetry_group_IT_number 15
_symmetry_cell_setting 'monoclinic'
loop_
_space_group_symop_operation_xyz
x,y,z
-x,y,1/2-z
-x,-y,-z
x,-y,1/2+z
1/2+x,1/2+y,z
1/2-x,1/2+y,1/2-z
1/2-x,1/2-y,-z
1/2+x,1/2-y,1/2+z
loop_
_atom_site_type_symbol
_atom_site_label
_atom_site_fract_x
_atom_site_fract_y
_atom_site_fract_z
Si Si1 0.617838 0.601123 0.860975
Si Si2 0.761457 0.603629 0.685209
Si Si3 0.638943 0.237948 0.086023
Si Si4 0.927388 0.486136 0.916120
O O1 0.755391 0.617536 0.779272
O O2 0.426117 0.550839 0.839521
O O3 0.722280 0.534649 0.919678
O O4 0.439873 0.295769 0.094648
O O5 0.769244 0.713495 0.647039
O O6 0.936120 0.537734 0.652782
O O7 0.592878 0.126217 0.107159
O O8 0.750000 0.250000 0.000000
O O9 0.000000 0.500000 0.000000
#
# Coordination Sequence:
#
# PCOD8143697 Si02
#       4
#     8   8   8   8
#     4   9  22  41  60  88 130 159 211 264 304 374
#     4   9  21  42  59  89 126 163 209 264 308 368
#     4  10  21  41  63  90 127 161 210 263 310 367
#     4  12  22  38  67  92 124 168 207 257 322 368
#
# _framework density 19.243946000000001
#
# number of rings (size 3 to 8) (size 9 to 14) (size 15 to 20)
#    1.500    0.500    2.500    0.750    0.000    9.000 
#    4.500    0.000    0.000    0.000    0.000    0.000 
#    0.000    0.000    0.000    0.000    0.000    0.000 
#
# Total GULP energy -198223.900184 kJ/mol
# GULP energy per Si atom -12388.993762 kJ/mol
# Density = 1.920015 g / cm^3
# Si number density = 19.243946 Si / 1000 Ang^3
#
#
#
# Elastic Constant Matrix: (Units=GPa)
#
#
# Indices 1 2 3 4 5 6 
#
# 1 86.2049 67.8090 45.0693 0.0000 -6.4141 0.0000
# 2 67.8090 162.5620 35.3685 0.0000 -1.4234 0.0000
# 3 45.0693 35.3685 96.2386 0.0000 -4.0449 0.0000
# 4 0.0000 0.0000 0.0000 12.8596 0.0000 -5.3042
# 5 -6.4141 -1.4234 -4.0449 0.0000 39.8194 0.0000
# 6 0.0000 0.0000 0.0000 -5.3042 0.0000 46.8032
#
#
#
# Elastic Compliance Matrix: (Units=1/GPa)
#
#
# Indices 1 2 3 4 5 6 
#
# 1 0.021268 -0.007288 -0.007179 0.000000 0.002436 0.000000
# 2 -0.007288 0.009184 0.000002 0.000000 -0.000845 0.000000
# 3 -0.007179 0.000002 0.013762 0.000000 0.000242 0.000000
# 4 0.000000 0.000000 0.000000 0.081577 0.000000 0.009245
# 5 0.002436 -0.000845 0.000242 0.000000 0.025500 0.000000
# 6 0.000000 0.000000 0.000000 0.009245 0.000000 0.022414
#
#
# Mechanical properties :
#
#
# Convention : Reuss Voigt Hill
#
# Bulk Modulus (GPa) = 65.42726 71.27766 68.35246
# Shear Modulus (GPa) = 24.07000 33.01370 28.54185
#
# Velocity S-wave (km/s) = 3.54048 4.14640 3.85536
# Velocity P-wave (km/s) = 7.12643 7.74874 7.44409
#
# Compressibility (1/GPa) = 0.01528415
#
# Stress axis : x y z
#
# Youngs Moduli (GPa) = 47.01992 108.88979 72.66353
#
# Poissons Ratio (x) = 0.79359 0.52165
# Poissons Ratio (y) = 0.34268 -0.00018
# Poissons Ratio (z) = 0.33755 -0.00027
#
# Static dielectric constant tensor:
#      x y z
#    x 3.583310 0.000000 -0.074030 
#    y 0.000000 3.589890 0.000000 
#    z -0.074030 0.000000 3.438400 
# 
# 
# High freq. dielectric constant tensor:
#      x y z
#    x 1.748510 0.000000 -0.009830 
#    y 0.000000 1.727150 0.000000 
#    z -0.009830 0.000000 1.754520 
# 
# From -- ./inp_files/132021.got.cif
#   From: 2010.06.25/outbox.cif.g09.slc.cpg/sg15_67_cif.got.tgz:132021.got - 2010.06.28 07:06:18.
