data_PCOD8143468
_publ_section_title
;
Structure prediction by ZEFSAII (Michael W. Deem and Ramdas Pophale) SiO2 
 PCOD8143468
Probable space group: C 2/C
;
_chemical_formula_sum "Si O2"
_cell_formula_units_Z 64
_cell_length_a 28.619682
_cell_length_b 13.807439
_cell_length_c 11.137235
_cell_angle_alpha 90.000000
_cell_angle_beta 42.799426
_cell_angle_gamma 90.000000
_cell_volume 2990.216041
_symmetry_space_group_name_H-M "C 2/C"
_symmetry_group_IT_number 15
_symmetry_cell_setting 'monoclinic'
loop_
_space_group_symop_operation_xyz
x,y,z
-x,y,1/2-z
-x,-y,-z
x,-y,1/2+z
1/2+x,1/2+y,z
1/2-x,1/2+y,1/2-z
1/2-x,1/2-y,-z
1/2+x,1/2-y,1/2+z
loop_
_atom_site_type_symbol
_atom_site_label
_atom_site_fract_x
_atom_site_fract_y
_atom_site_fract_z
Si Si1 0.123106 0.235297 0.236885
Si Si2 0.066807 0.931968 0.374323
Si Si3 0.122272 0.630655 0.281331
Si Si4 0.830673 0.428948 0.243242
Si Si5 0.772205 0.607982 0.616163
Si Si6 0.367807 0.700213 0.558808
Si Si7 0.984303 0.750966 0.142537
Si Si8 0.699287 0.448987 0.623102
O O1 0.150145 0.343893 0.200877
O O2 0.177843 0.161407 0.195175
O O3 0.051173 0.225770 0.438840
O O4 0.113033 0.207712 0.116767
O O5 0.083246 0.882057 0.472908
O O6 0.062184 0.847079 0.283771
O O7 0.130904 0.995464 0.211366
O O8 0.000000 0.000000 0.500000
O O9 0.118566 0.518492 0.327617
O O10 0.120442 0.695827 0.403301
O O11 0.054556 0.655702 0.331867
O O12 0.191641 0.648424 0.072492
O O13 0.833814 0.398185 0.097944
O O14 0.750306 0.453930 0.413525
O O15 0.712795 0.679718 0.770964
O O16 0.738793 0.501063 0.658738
O O17 0.000000 0.730891 0.250000
#
# Coordination Sequence:
#
# PCOD8143468 Si02
#       8
#     8   8   8   8   8   8   8   8
#     4  12  24  42  66 100 131 172 220 270 331 386
#     4  10  21  42  66  98 131 171 210 263 336 393
#     4  10  24  42  63  94 132 173 224 259 324 390
#     4  11  24  40  67  94 130 173 220 272 321 381
#     4  10  21  40  67  98 131 172 213 270 332 381
#     4  10  23  40  68  99 135 170 214 278 325 392
#     4  11  25  45  66  93 131 174 217 266 326 395
#     4  10  22  39  63 101 130 162 216 266 327 388
#
# _framework density 21.403134999999999
#
# number of rings (size 3 to 8) (size 9 to 14) (size 15 to 20)
#    0.000    1.500    2.500    1.500    3.500    5.500 
#    0.000    0.000    0.000    0.000    0.000    0.000 
#    0.000    0.000    0.000    0.000    0.000    0.000 
#
# Total GULP energy -396754.366929 kJ/mol
# GULP energy per Si atom -12398.573967 kJ/mol
# Density = 2.135442 g / cm^3
# Si number density = 21.403135 Si / 1000 Ang^3
#
#
#
# Elastic Constant Matrix: (Units=GPa)
#
#
# Indices 1 2 3 4 5 6 
#
# 1 104.7079 38.6448 18.5163 0.0000 15.2145 0.0000
# 2 38.6448 117.4510 13.1032 0.0000 0.0613 0.0000
# 3 18.5163 13.1032 76.7450 0.0000 13.5063 0.0000
# 4 0.0000 0.0000 0.0000 29.7162 0.0000 -9.4471
# 5 15.2145 0.0613 13.5063 0.0000 25.4997 0.0000
# 6 0.0000 0.0000 0.0000 -9.4471 0.0000 37.8980
#
#
#
# Elastic Compliance Matrix: (Units=1/GPa)
#
#
# Indices 1 2 3 4 5 6 
#
# 1 0.012139 -0.003868 -0.001098 0.000000 -0.006652 0.000000
# 2 -0.003868 0.009929 -0.001284 0.000000 0.002964 0.000000
# 3 -0.001098 -0.001284 0.014776 0.000000 -0.007168 0.000000
# 4 0.000000 0.000000 0.000000 0.036548 0.000000 0.009111
# 5 -0.006652 0.002964 -0.007168 0.000000 0.046975 0.000000
# 6 0.000000 0.000000 0.000000 0.009111 0.000000 0.028658
#
#
# Mechanical properties :
#
#
# Convention : Reuss Voigt Hill
#
# Bulk Modulus (GPa) = 41.07709 48.82580 44.95145
# Shear Modulus (GPa) = 29.47480 33.86540 31.67010
#
# Velocity S-wave (km/s) = 3.71499 3.98208 3.85085
# Velocity P-wave (km/s) = 6.13476 6.63360 6.38905
#
# Compressibility (1/GPa) = 0.02434447
#
# Stress axis : x y z
#
# Youngs Moduli (GPa) = 82.38175 100.71982 67.67888
#
# Poissons Ratio (x) = 0.38959 0.07428
# Poissons Ratio (y) = 0.31866 0.08687
# Poissons Ratio (z) = 0.09042 0.12928
#
# Static dielectric constant tensor:
#      x y z
#    x 3.905580 0.000000 -0.123330 
#    y 0.000000 4.016590 0.000000 
#    z -0.123330 0.000000 3.755640 
# 
# 
# High freq. dielectric constant tensor:
#      x y z
#    x 1.839910 0.000000 -0.005920 
#    y 0.000000 1.846100 0.000000 
#    z -0.005920 0.000000 1.832450 
# 
# From -- ./inp_files/126865.got.cif
#   From: 2010.06.25/outbox.cif.g09.slc.cpg/sg15_64_cif.got.tgz:126865.got - 2010.06.28 07:06:18.
