data_PCOD8143430
_publ_section_title
;
Structure prediction by ZEFSAII (Michael W. Deem and Ramdas Pophale) SiO2 
 PCOD8143430
Probable space group: C 2/C
;
_chemical_formula_sum "Si O2"
_cell_formula_units_Z 48
_cell_length_a 20.787441
_cell_length_b 11.816630
_cell_length_c 11.904785
_cell_angle_alpha 90.000000
_cell_angle_beta 55.062028
_cell_angle_gamma 90.000000
_cell_volume 2397.229294
_symmetry_space_group_name_H-M "C 2/C"
_symmetry_group_IT_number 15
_symmetry_cell_setting 'monoclinic'
loop_
_space_group_symop_operation_xyz
x,y,z
-x,y,1/2-z
-x,-y,-z
x,-y,1/2+z
1/2+x,1/2+y,z
1/2-x,1/2+y,1/2-z
1/2-x,1/2-y,-z
1/2+x,1/2-y,1/2+z
loop_
_atom_site_type_symbol
_atom_site_label
_atom_site_fract_x
_atom_site_fract_y
_atom_site_fract_z
Si Si1 0.590544 0.084520 0.134644
Si Si2 0.159116 0.650544 0.503782
Si Si3 0.840885 0.150544 0.322013
Si Si4 0.158436 0.774165 0.923864
Si Si5 0.158436 0.725836 0.259264
Si Si6 0.590544 0.415481 0.184267
O O1 0.500000 0.103270 0.250000
O O2 0.641269 0.123214 0.191263
O O3 0.607026 0.954687 0.092870
O O4 0.612393 0.160974 0.005304
O O5 0.143677 0.749999 0.606324
O O6 0.250000 0.614039 0.410024
O O7 0.130148 0.691203 0.411072
O O8 0.869853 0.191202 0.171367
O O9 0.892975 0.045314 0.306922
O O10 0.250000 0.745496 0.833366
O O11 0.141269 0.876787 0.026199
O O12 0.112394 0.839027 0.269910
O O13 0.500000 0.396729 0.250000
#
# Coordination Sequence:
#
# PCOD8143430 Si02
#       6
#     8   8   8   8   8   8
#     4  11  23  41  61  92 127 161 199 251 314 371
#     4  10  23  41  63  91 121 159 211 257 298 357
#     4  10  23  41  63  91 121 159 211 257 298 357
#     4  10  21  40  67  89 118 164 210 254 297 361
#     4  10  21  40  67  89 118 164 210 254 297 361
#     4  11  23  41  61  92 127 161 199 251 314 371
#
# _framework density 20.023115000000001
#
# number of rings (size 3 to 8) (size 9 to 14) (size 15 to 20)
#    0.000    1.667    0.000    6.000    4.667    2.000 
#    6.000    0.000    0.000    0.000    0.000    0.000 
#    0.000    0.000    0.000    0.000    0.000    0.000 
#
# Total GULP energy -297744.523363 kJ/mol
# GULP energy per Si atom -12406.021807 kJ/mol
# Density = 1.997754 g / cm^3
# Si number density = 20.023115 Si / 1000 Ang^3
#
#
#
# Elastic Constant Matrix: (Units=GPa)
#
#
# Indices 1 2 3 4 5 6 
#
# 1 65.8391 49.3867 47.2462 0.0000 2.8086 0.0000
# 2 49.3867 128.9809 52.5501 0.0000 5.8355 0.0000
# 3 47.2462 52.5501 78.2968 0.0000 20.1794 0.0000
# 4 0.0000 0.0000 0.0000 20.8375 0.0000 9.3516
# 5 2.8086 5.8355 20.1794 0.0000 42.1171 0.0000
# 6 0.0000 0.0000 0.0000 9.3516 0.0000 15.7718
#
#
#
# Elastic Compliance Matrix: (Units=1/GPa)
#
#
# Indices 1 2 3 4 5 6 
#
# 1 0.030989 -0.005290 -0.016892 0.000000 0.006760 0.000000
# 2 -0.005290 0.011760 -0.004988 0.000000 0.001113 0.000000
# 3 -0.016892 -0.004988 0.029485 0.000000 -0.012310 0.000000
# 4 0.000000 0.000000 0.000000 0.065391 0.000000 -0.038772
# 5 0.006760 0.001113 -0.012310 0.000000 0.029036 0.000000
# 6 0.000000 0.000000 0.000000 -0.038772 0.000000 0.086394
#
#
# Mechanical properties :
#
#
# Convention : Reuss Voigt Hill
#
# Bulk Modulus (GPa) = 55.87838 63.49810 59.68824
# Shear Modulus (GPa) = 15.95606 24.00753 19.98180
#
# Velocity S-wave (km/s) = 2.82597 3.46640 3.16244
# Velocity P-wave (km/s) = 6.21415 6.91393 6.57336
#
# Compressibility (1/GPa) = 0.01789601
#
# Stress axis : x y z
#
# Youngs Moduli (GPa) = 32.26902 85.03086 33.91520
#
# Poissons Ratio (x) = 0.44977 0.57289
# Poissons Ratio (y) = 0.17069 0.16918
# Poissons Ratio (z) = 0.54508 0.42416
#
# Static dielectric constant tensor:
#      x y z
#    x 3.696460 0.000000 0.145320 
#    y 0.000000 3.546010 0.000000 
#    z 0.145320 0.000000 3.775210 
# 
# 
# High freq. dielectric constant tensor:
#      x y z
#    x 1.784690 0.000000 0.005080 
#    y 0.000000 1.785640 0.000000 
#    z 0.005080 0.000000 1.787440 
# 
# From -- ./inp_files/111208.got.cif
#   From: 2010.06.25/outbox.cif.g09.slc.cpg/sg15_56_cif.got.tgz:111208.got - 2010.06.28 07:06:18.
