data_PCOD8143777
_publ_section_title
;
Structure prediction by ZEFSAII (Michael W. Deem and Ramdas Pophale) SiO2 
 PCOD8143777
Probable space group: C 2/C
;
_chemical_formula_sum "Si O2"
_cell_formula_units_Z 48
_cell_length_a 30.208367
_cell_length_b 8.725621
_cell_length_c 17.808634
_cell_angle_alpha 90.000000
_cell_angle_beta 149.165704
_cell_angle_gamma 90.000000
_cell_volume 2406.003809
_symmetry_space_group_name_H-M "C 2/C"
_symmetry_group_IT_number 15
_symmetry_cell_setting 'monoclinic'
loop_
_space_group_symop_operation_xyz
x,y,z
-x,y,1/2-z
-x,-y,-z
x,-y,1/2+z
1/2+x,1/2+y,z
1/2-x,1/2+y,1/2-z
1/2-x,1/2-y,-z
1/2+x,1/2-y,1/2+z
loop_
_atom_site_type_symbol
_atom_site_label
_atom_site_fract_x
_atom_site_fract_y
_atom_site_fract_z
Si Si1 0.256814 0.610768 0.193334
Si Si2 0.415579 0.378171 0.676023
Si Si3 0.902342 0.457982 0.134393
Si Si4 0.242055 0.033049 0.644578
Si Si5 0.667562 0.169441 0.342069
Si Si6 0.413215 0.467983 0.329536
O O1 0.265277 0.793408 0.199342
O O2 0.268563 0.568667 0.296938
O O3 0.331282 0.540056 0.250915
O O4 0.164646 0.540889 0.033038
O O5 0.500000 0.369726 0.750000
O O6 0.385512 0.205072 0.650182
O O7 0.347639 0.475240 0.529826
O O8 0.431351 0.459414 0.776285
O O9 0.884787 0.592479 0.166954
O O10 0.000000 0.480004 0.250000
O O11 0.311488 0.958355 0.689825
O O12 0.750000 0.250000 0.500000
O O13 0.605146 0.288520 0.208780
O O14 0.500000 0.500000 0.500000
#
# Coordination Sequence:
#
# PCOD8143777 Si02
#       6
#     8   8   8   8   8   8
#     4  11  23  41  65  98 131 171 226 276 339 402
#     4  10  21  41  64  94 131 173 219 271 342 401
#     4  10  23  42  67  93 129 175 219 276 338 411
#     4  11  23  40  68  92 129 178 216 276 336 404
#     4  12  23  43  66  95 132 177 223 274 341 408
#     4  12  25  41  65  96 133 172 223 281 335 401
#
# _framework density 19.950094
#
# number of rings (size 3 to 8) (size 9 to 14) (size 15 to 20)
#    0.000    1.000    3.333    3.000    0.000    7.333 
#    0.000    2.500    0.000    0.000    0.000    0.000 
#    0.000    0.000    0.000    0.000    0.000    0.000 
#
# Total GULP energy -297630.726843 kJ/mol
# GULP energy per Si atom -12401.280285 kJ/mol
# Density = 1.990469 g / cm^3
# Si number density = 19.950094 Si / 1000 Ang^3
#
#
#
# Elastic Constant Matrix: (Units=GPa)
#
#
# Indices 1 2 3 4 5 6 
#
# 1 110.8985 62.1358 49.6681 0.0000 -13.7631 0.0000
# 2 62.1358 120.5942 70.1176 0.0000 -13.8463 0.0000
# 3 49.6681 70.1176 151.8352 0.0000 -7.4690 0.0000
# 4 0.0000 0.0000 0.0000 34.3937 0.0000 -3.8871
# 5 -13.7631 -13.8463 -7.4690 0.0000 35.0696 0.0000
# 6 0.0000 0.0000 0.0000 -3.8871 0.0000 47.2104
#
#
#
# Elastic Compliance Matrix: (Units=1/GPa)
#
#
# Indices 1 2 3 4 5 6 
#
# 1 0.013177 -0.005544 -0.001620 0.000000 0.002637 0.000000
# 2 -0.005544 0.014084 -0.004572 0.000000 0.002411 0.000000
# 3 -0.001620 -0.004572 0.009204 0.000000 -0.000481 0.000000
# 4 0.000000 0.000000 0.000000 0.029348 0.000000 0.002416
# 5 0.002637 0.002411 -0.000481 0.000000 0.030399 0.000000
# 6 0.000000 0.000000 0.000000 0.002416 0.000000 0.021381
#
#
# Mechanical properties :
#
#
# Convention : Reuss Voigt Hill
#
# Bulk Modulus (GPa) = 76.97239 83.01900 79.99570
# Shear Modulus (GPa) = 34.38891 36.76183 35.57537
#
# Velocity S-wave (km/s) = 4.15631 4.29731 4.22740
# Velocity P-wave (km/s) = 7.85490 8.14409 8.00080
#
# Compressibility (1/GPa) = 0.01299167
#
# Stress axis : x y z
#
# Youngs Moduli (GPa) = 75.89166 71.00249 108.65243
#
# Poissons Ratio (x) = 0.39367 0.17604
# Poissons Ratio (y) = 0.42078 0.49673
# Poissons Ratio (z) = 0.12296 0.32460
#
# Static dielectric constant tensor:
#      x y z
#    x 3.633290 0.000000 0.008530 
#    y 0.000000 4.037420 0.000000 
#    z 0.008530 0.000000 3.640870 
# 
# 
# High freq. dielectric constant tensor:
#      x y z
#    x 1.789140 0.000000 -0.003820 
#    y 0.000000 1.794300 0.000000 
#    z -0.003820 0.000000 1.782660 
# 
# From -- ./inp_files/176876.got.cif
#   From: 2010.06.25/outbox.cif.g09.slc.cpg/sg15_89_cif.got.tgz:176876.got - 2010.06.28 07:06:18.
