data_PCOD8143662
_publ_section_title
;
Structure prediction by ZEFSAII (Michael W. Deem and Ramdas Pophale) SiO2 
 PCOD8143662
Probable space group: C 2/C
;
_chemical_formula_sum "Si O2"
_cell_formula_units_Z 64
_cell_length_a 19.416566
_cell_length_b 9.442846
_cell_length_c 31.088643
_cell_angle_alpha 90.000000
_cell_angle_beta 36.057397
_cell_angle_gamma 90.000000
_cell_volume 3355.011107
_symmetry_space_group_name_H-M "C 2/C"
_symmetry_group_IT_number 15
_symmetry_cell_setting 'monoclinic'
loop_
_space_group_symop_operation_xyz
x,y,z
-x,y,1/2-z
-x,-y,-z
x,-y,1/2+z
1/2+x,1/2+y,z
1/2-x,1/2+y,1/2-z
1/2-x,1/2-y,-z
1/2+x,1/2-y,1/2+z
loop_
_atom_site_type_symbol
_atom_site_label
_atom_site_fract_x
_atom_site_fract_y
_atom_site_fract_z
Si Si1 0.632137 0.718319 0.169453
Si Si2 0.821520 0.879959 0.947462
Si Si3 0.570845 0.541809 0.353147
Si Si4 0.414669 0.214957 0.154584
Si Si5 0.239454 0.043111 0.189287
Si Si6 0.133684 0.456668 0.667539
Si Si7 0.165748 0.375501 0.552662
Si Si8 0.748698 0.286691 0.817529
O O1 0.500000 0.715089 0.250000
O O2 0.633667 0.648090 0.122475
O O3 0.710939 0.620238 0.159474
O O4 0.676634 0.880534 0.148001
O O5 0.934058 0.918100 0.919963
O O6 0.750000 0.750000 0.000000
O O7 0.723688 0.998428 0.997562
O O8 0.586738 0.378777 0.359237
O O9 0.630681 0.562848 0.276531
O O10 0.630508 0.643426 0.358346
O O11 0.352998 0.120347 0.150063
O O12 0.543403 0.155261 0.092505
O O13 0.353830 0.191699 0.231166
O O14 0.271182 0.879726 0.164305
O O15 0.149424 0.401440 0.611445
O O16 0.217536 0.363166 0.655262
O O17 0.000000 0.439349 0.750000
O O18 0.250000 0.250000 0.500000
#
# Coordination Sequence:
#
# PCOD8143662 Si02
#       8
#     8   8   8   8   8   8   8   8
#     4  11  23  41  65  94 126 167 215 261 308 373
#     4  12  25  42  63  94 131 169 207 256 321 382
#     4  10  21  41  62  92 129 169 206 258 320 370
#     4  10  21  41  62  93 128 167 208 259 316 375
#     4  10  22  37  66  96 123 162 216 266 306 364
#     4  11  23  41  65  95 126 166 216 260 309 371
#     4  12  25  42  65  94 129 172 207 255 325 380
#     4  10  22  37  66  96 124 160 215 268 306 367
#
# _framework density 19.075942000000001
#
# number of rings (size 3 to 8) (size 9 to 14) (size 15 to 20)
#    0.000    1.250    5.000    0.750    3.500    1.500 
#    0.000    2.500    0.000    0.000    0.000    0.000 
#    0.000    0.000    0.000    0.000    0.000    0.000 
#
# Total GULP energy -396811.911493 kJ/mol
# GULP energy per Si atom -12400.372234 kJ/mol
# Density = 1.903252 g / cm^3
# Si number density = 19.075942 Si / 1000 Ang^3
#
#
#
# Elastic Constant Matrix: (Units=GPa)
#
#
# Indices 1 2 3 4 5 6 
#
# 1 105.0835 66.9346 31.8632 0.0054 -12.6352 0.0035
# 2 66.9346 158.7855 47.2283 0.0045 -7.6345 0.0018
# 3 31.8632 47.2283 77.6240 0.0006 -11.0762 -0.0019
# 4 0.0054 0.0045 0.0006 38.8277 -0.0001 -1.5038
# 5 -12.6352 -7.6345 -11.0762 -0.0001 37.3530 0.0045
# 6 0.0035 0.0018 -0.0019 -1.5038 0.0045 40.8373
#
#
#
# Elastic Compliance Matrix: (Units=1/GPa)
#
#
# Indices 1 2 3 4 5 6 
#
# 1 0.013711 -0.004992 -0.002166 -0.000001 0.002975 -0.000001
# 2 -0.004992 0.009508 -0.003863 0.000000 -0.000891 0.000000
# 3 -0.002166 -0.003863 0.016608 0.000001 0.003402 0.000001
# 4 -0.000001 0.000000 0.000001 0.025792 0.000000 0.000950
# 5 0.002975 -0.000891 0.003402 0.000000 0.028605 -0.000003
# 6 -0.000001 0.000000 0.000001 0.000950 -0.000003 0.024522
#
#
# Mechanical properties :
#
#
# Convention : Reuss Voigt Hill
#
# Bulk Modulus (GPa) = 56.23031 70.39390 63.31210
# Shear Modulus (GPa) = 34.07941 36.43473 35.25707
#
# Velocity S-wave (km/s) = 4.23130 4.37508 4.30379
# Velocity P-wave (km/s) = 7.30842 7.90593 7.61304
#
# Compressibility (1/GPa) = 0.01778400
#
# Stress axis : x y z
#
# Youngs Moduli (GPa) = 72.93580 105.16975 60.21357
#
# Poissons Ratio (x) = 0.52504 0.13042
# Poissons Ratio (y) = 0.36412 0.23261
# Poissons Ratio (z) = 0.15798 0.40627
#
# Static dielectric constant tensor:
#      x y z
#    x 3.351270 0.000030 -0.086690 
#    y 0.000030 3.680160 -0.000030 
#    z -0.086690 -0.000030 3.489980 
# 
# 
# High freq. dielectric constant tensor:
#      x y z
#    x 1.744700 0.000000 -0.006960 
#    y 0.000000 1.762920 0.000000 
#    z -0.006960 0.000000 1.733560 
# 
# From -- ./inp_files/279581.got.cif
#   From: 2010.06.25/outbox.cif.g09.slc.cpg/sg15_140_cif.got.tgz:279581.got - 2010.06.28 07:06:18.
