data_PCOD8143983
_publ_section_title
;
Structure prediction by ZEFSAII (Michael W. Deem and Ramdas Pophale) SiO2 
 PCOD8143983
Probable space group: C 2/C
;
_chemical_formula_sum "Si O2"
_cell_formula_units_Z 48
_cell_length_a 10.709991
_cell_length_b 13.165706
_cell_length_c 14.027291
_cell_angle_alpha 90.000000
_cell_angle_beta 106.082398
_cell_angle_gamma 90.000000
_cell_volume 1900.505473
_symmetry_space_group_name_H-M "C 2/C"
_symmetry_group_IT_number 15
_symmetry_cell_setting 'monoclinic'
loop_
_space_group_symop_operation_xyz
x,y,z
-x,y,1/2-z
-x,-y,-z
x,-y,1/2+z
1/2+x,1/2+y,z
1/2-x,1/2+y,1/2-z
1/2-x,1/2-y,-z
1/2+x,1/2-y,1/2+z
loop_
_atom_site_type_symbol
_atom_site_label
_atom_site_fract_x
_atom_site_fract_y
_atom_site_fract_z
Si Si1 0.060595 0.537166 0.913787
Si Si2 0.855634 0.967688 0.245990
Si Si3 0.251780 0.249694 0.779463
Si Si4 0.670483 0.446048 0.950104
Si Si5 0.500000 0.872535 0.750000
Si Si6 0.396431 0.609193 0.429212
Si Si7 0.000000 0.303000 0.250000
O O1 0.988441 0.628048 0.843406
O O2 0.066488 0.439156 0.846497
O O3 0.202774 0.584273 0.964316
O O4 0.000000 0.500000 0.000000
O O5 0.764603 0.870402 0.225712
O O6 0.798632 0.046455 0.155665
O O7 0.000000 0.934157 0.250000
O O8 0.846770 0.023009 0.344715
O O9 0.311231 0.289572 0.893444
O O10 0.370001 0.268440 0.726993
O O11 0.114976 0.304387 0.727381
O O12 0.550931 0.368746 0.946720
O O13 0.625974 0.561700 0.971325
#
# Coordination Sequence:
#
# PCOD8143983 Si02
#       7
#     8   8   8   8   4   8   4
#     4  11  24  47  72 100 138 189 233 292 348 418
#     4  10  22  41  68  95 134 181 225 276 343 413
#     4  12  24  45  69 104 138 187 229 291 346 420
#     4  10  21  41  68  95 128 180 228 272 346 412
#     4  11  26  46  73  96 142 190 233 282 359 408
#     4  10  23  41  69  95 136 176 224 284 345 404
#     4  11  28  44  69 106 146 178 237 292 355 416
#
# _framework density 25.256436999999998
#
# number of rings (size 3 to 8) (size 9 to 14) (size 15 to 20)
#    0.000    1.333    2.500    2.000    8.167    0.667 
#    3.000    1.667    0.000    0.000    0.000    0.000 
#    0.000    0.000    0.000    0.000    0.000    0.000 
#
# Total GULP energy -297444.385399 kJ/mol
# GULP energy per Si atom -12393.516058 kJ/mol
# Density = 2.519895 g / cm^3
# Si number density = 25.256437 Si / 1000 Ang^3
#
#
#
# Elastic Constant Matrix: (Units=GPa)
#
#
# Indices 1 2 3 4 5 6 
#
# 1 147.4046 31.5024 29.0042 0.0000 26.0271 0.0000
# 2 31.5024 69.4197 18.8501 0.0000 11.5620 0.0000
# 3 29.0042 18.8501 97.7094 0.0000 12.9798 0.0000
# 4 0.0000 0.0000 0.0000 19.0698 0.0000 7.0567
# 5 26.0271 11.5620 12.9798 0.0000 48.7562 0.0000
# 6 0.0000 0.0000 0.0000 7.0567 0.0000 35.8960
#
#
#
# Elastic Compliance Matrix: (Units=1/GPa)
#
#
# Indices 1 2 3 4 5 6 
#
# 1 0.008262 -0.002792 -0.001468 0.000000 -0.003358 0.000000
# 2 -0.002792 0.016559 -0.002117 0.000000 -0.001873 0.000000
# 3 -0.001468 -0.002117 0.011308 0.000000 -0.001725 0.000000
# 4 0.000000 0.000000 0.000000 0.056553 0.000000 -0.011118
# 5 -0.003358 -0.001873 -0.001725 0.000000 0.023206 0.000000
# 6 0.000000 0.000000 0.000000 -0.011118 0.000000 0.030044
#
#
# Mechanical properties :
#
#
# Convention : Reuss Voigt Hill
#
# Bulk Modulus (GPa) = 42.77967 52.58300 47.68133
# Shear Modulus (GPa) = 30.03423 36.42288 33.22856
#
# Velocity S-wave (km/s) = 3.45218 3.80165 3.63112
# Velocity P-wave (km/s) = 5.73279 6.33521 6.04152
#
# Compressibility (1/GPa) = 0.02337559
#
# Stress axis : x y z
#
# Youngs Moduli (GPa) = 121.03028 60.39106 88.43518
#
# Poissons Ratio (x) = 0.16859 0.12982
# Poissons Ratio (y) = 0.33786 0.18722
# Poissons Ratio (z) = 0.17767 0.12785
#
# Static dielectric constant tensor:
#      x y z
#    x 4.907020 0.000000 0.191750 
#    y 0.000000 4.197380 0.000000 
#    z 0.191750 0.000000 4.542770 
# 
# 
# High freq. dielectric constant tensor:
#      x y z
#    x 2.030590 0.000000 0.012680 
#    y 0.000000 1.980120 0.000000 
#    z 0.012680 0.000000 1.999010 
# 
# From -- ./inp_files/143867.got.cif
#   From: 2010.06.25/outbox.cif.g09.slc.cpg/sg15_72_cif.got.tgz:143867.got - 2010.06.28 07:06:18.
