data_PCOD8143423
_publ_section_title
;
Structure prediction by ZEFSAII (Michael W. Deem and Ramdas Pophale) SiO2 
 PCOD8143423
Probable space group: C 2/C
;
_chemical_formula_sum "Si O2"
_cell_formula_units_Z 36
_cell_length_a 16.392023
_cell_length_b 7.942869
_cell_length_c 11.120647
_cell_angle_alpha 90.000000
_cell_angle_beta 84.726363
_cell_angle_gamma 90.000000
_cell_volume 1441.775963
_symmetry_space_group_name_H-M "C 2/C"
_symmetry_group_IT_number 15
_symmetry_cell_setting 'monoclinic'
loop_
_space_group_symop_operation_xyz
x,y,z
-x,y,1/2-z
-x,-y,-z
x,-y,1/2+z
1/2+x,1/2+y,z
1/2-x,1/2+y,1/2-z
1/2-x,1/2-y,-z
1/2+x,1/2-y,1/2+z
loop_
_atom_site_type_symbol
_atom_site_label
_atom_site_fract_x
_atom_site_fract_y
_atom_site_fract_z
Si Si1 0.500000 0.612384 0.750000
Si Si2 0.870723 0.929235 0.907617
Si Si3 0.704455 0.007933 0.805785
Si Si4 0.202816 0.148886 0.406097
Si Si5 0.054926 0.345395 0.946913
O O1 0.420422 0.495272 0.784098
O O2 0.502545 0.719083 0.872270
O O3 0.774923 0.940337 0.886940
O O4 0.905768 0.747698 0.942272
O O5 0.875382 0.050475 0.026907
O O6 0.733731 0.979544 0.665356
O O7 0.624601 0.902536 0.845718
O O8 0.678046 0.205270 0.814496
O O9 0.250000 0.250000 0.500000
O O10 0.000000 0.500000 0.000000
#
# Coordination Sequence:
#
# PCOD8143423 Si02
#       5
#     4   8   8   8   8
#     4  12  26  46  68  98 138 184 226 280 352 412
#     4  11  24  46  70  97 135 183 230 283 342 412
#     4  11  23  42  71  99 132 181 231 281 341 406
#     4  10  21  40  67 100 133 172 227 284 333 401
#     4  12  27  45  68 104 141 178 229 290 348 411
#
# _framework density 24.969207000000001
#
# number of rings (size 3 to 8) (size 9 to 14) (size 15 to 20)
#    0.000    0.889    0.000    8.000    0.000    8.000 
#    0.000    0.000    0.000    0.000    0.000    0.000 
#    0.000    0.000    0.000    0.000    0.000    0.000 
#
# Total GULP energy -223142.132849 kJ/mol
# GULP energy per Si atom -12396.785158 kJ/mol
# Density = 2.491238 g / cm^3
# Si number density = 24.969207 Si / 1000 Ang^3
#
#
#
# Elastic Constant Matrix: (Units=GPa)
#
#
# Indices 1 2 3 4 5 6 
#
# 1 73.7472 19.5216 14.2960 0.0000 -27.9840 0.0000
# 2 19.5216 118.1582 36.5743 0.0000 -20.5103 0.0000
# 3 14.2960 36.5743 131.5297 0.0000 -36.0546 0.0000
# 4 0.0000 0.0000 0.0000 55.3085 0.0000 -10.3754
# 5 -27.9840 -20.5103 -36.0546 0.0000 34.9179 0.0000
# 6 0.0000 0.0000 0.0000 -10.3754 0.0000 38.7077
#
#
#
# Elastic Compliance Matrix: (Units=1/GPa)
#
#
# Indices 1 2 3 4 5 6 
#
# 1 0.020504 -0.001082 0.003351 0.000000 0.019257 0.000000
# 2 -0.001082 0.009710 -0.001753 0.000000 0.003026 0.000000
# 3 0.003351 -0.001753 0.011409 0.000000 0.013437 0.000000
# 4 0.000000 0.000000 0.000000 0.019038 0.000000 0.005103
# 5 0.019257 0.003026 0.013437 0.000000 0.059723 0.000000
# 6 0.000000 0.000000 0.000000 0.005103 0.000000 0.027202
#
#
# Mechanical properties :
#
#
# Convention : Reuss Voigt Hill
#
# Bulk Modulus (GPa) = 23.44401 51.57988 37.51195
# Shear Modulus (GPa) = 31.09986 42.65638 36.87812
#
# Velocity S-wave (km/s) = 3.53303 4.13771 3.84727
# Velocity P-wave (km/s) = 5.10418 6.59771 5.89841
#
# Compressibility (1/GPa) = 0.04265481
#
# Stress axis : x y z
#
# Youngs Moduli (GPa) = 48.77139 102.98769 87.64821
#
# Poissons Ratio (x) = 0.11145 -0.29370
# Poissons Ratio (y) = 0.05278 0.15363
# Poissons Ratio (z) = -0.16343 0.18052
#
# Static dielectric constant tensor:
#      x y z
#    x 4.144730 0.000000 -0.095350 
#    y 0.000000 4.932470 0.000000 
#    z -0.095350 0.000000 5.208070 
# 
# 
# High freq. dielectric constant tensor:
#      x y z
#    x 1.976170 0.000000 -0.010550 
#    y 0.000000 2.007320 0.000000 
#    z -0.010550 0.000000 2.014540 
# 
# From -- ./inp_files/102612.got.cif
#   From: 2010.06.25/outbox.cif.g09.slc.cpg/sg15_52_cif.got.tgz:102612.got - 2010.06.28 07:06:18.
