data_PCOD8143336
_publ_section_title
;
Structure prediction by ZEFSAII (Michael W. Deem and Ramdas Pophale) SiO2 
 PCOD8143336
Probable space group: C 2/C
;
_chemical_formula_sum "Si O2"
_cell_formula_units_Z 60
_cell_length_a 25.082592
_cell_length_b 7.343028
_cell_length_c 16.479287
_cell_angle_alpha 90.000000
_cell_angle_beta 99.471512
_cell_angle_gamma 90.000000
_cell_volume 2993.813818
_symmetry_space_group_name_H-M "C 2/C"
_symmetry_group_IT_number 15
_symmetry_cell_setting 'monoclinic'
loop_
_space_group_symop_operation_xyz
x,y,z
-x,y,1/2-z
-x,-y,-z
x,-y,1/2+z
1/2+x,1/2+y,z
1/2-x,1/2+y,1/2-z
1/2-x,1/2-y,-z
1/2+x,1/2-y,1/2+z
loop_
_atom_site_type_symbol
_atom_site_label
_atom_site_fract_x
_atom_site_fract_y
_atom_site_fract_z
Si Si1 0.500000 0.143440 0.250000
Si Si2 0.466464 0.853286 0.369585
Si Si3 0.694747 0.997120 0.676392
Si Si4 0.870771 0.783343 0.752834
Si Si5 0.581768 0.325159 0.911391
Si Si6 0.189357 0.139954 0.774333
Si Si7 0.401814 0.278958 0.124333
Si Si8 0.391934 0.004213 0.481245
O O1 0.453163 0.265019 0.197612
O O2 0.471978 0.020913 0.310269
O O3 0.423053 0.713115 0.323061
O O4 0.519827 0.735870 0.392921
O O5 0.446038 0.943091 0.447950
O O6 0.697327 0.787229 0.704899
O O7 0.665554 0.105697 0.741415
O O8 0.753381 0.080044 0.673903
O O9 0.661692 0.024794 0.584906
O O10 0.887349 0.776825 0.663480
O O11 0.838375 0.962779 0.771356
O O12 0.587965 0.540932 0.927827
O O13 0.607673 0.216951 0.993465
O O14 0.153025 0.213056 0.838316
O O15 0.393455 0.107315 0.064961
#
# Coordination Sequence:
#
# PCOD8143336 Si02
#       8
#     4   8   8   8   8   8   8   8
#     4  12  22  42  68  96 128 178 212 266 314 372
#     4  11  21  39  68  91 130 172 207 260 315 381
#     4  11  23  42  71  91 124 165 217 272 323 370
#     4  10  21  40  65  94 125 164 218 263 312 377
#     4  11  22  40  62  92 133 167 209 254 319 388
#     4  11  23  43  67  97 121 166 222 269 314 381
#     4  11  26  40  63  96 133 167 216 260 316 386
#     4  11  24  43  60  96 131 172 206 264 324 376
#
# _framework density 20.041326999999999
#
# number of rings (size 3 to 8) (size 9 to 14) (size 15 to 20)
#    0.000    1.067    4.000    2.800    3.733    3.200 
#    0.000    2.667    0.000    0.000    0.000    0.000 
#    0.000    0.000    0.000    0.000    0.000    0.000 
#
# Total GULP energy -372037.937423 kJ/mol
# GULP energy per Si atom -12401.264581 kJ/mol
# Density = 1.999571 g / cm^3
# Si number density = 20.041327 Si / 1000 Ang^3
#
#
#
# Elastic Constant Matrix: (Units=GPa)
#
#
# Indices 1 2 3 4 5 6 
#
# 1 136.3340 38.8882 43.7433 0.0000 15.4601 0.0000
# 2 38.8882 84.4604 23.6086 0.0000 13.9013 0.0000
# 3 43.7433 23.6086 66.9110 0.0000 9.5844 0.0000
# 4 0.0000 0.0000 0.0000 10.8908 0.0000 11.4166
# 5 15.4601 13.9013 9.5844 0.0000 19.0660 0.0000
# 6 0.0000 0.0000 0.0000 11.4166 0.0000 28.6617
#
#
#
# Elastic Compliance Matrix: (Units=1/GPa)
#
#
# Indices 1 2 3 4 5 6 
#
# 1 0.010170 -0.002618 -0.005191 0.000000 -0.003728 0.000000
# 2 -0.002618 0.014985 -0.002494 0.000000 -0.007549 0.000000
# 3 -0.005191 -0.002494 0.019780 0.000000 -0.003915 0.000000
# 4 0.000000 0.000000 0.000000 0.157647 0.000000 -0.062794
# 5 -0.003728 -0.007549 -0.003915 0.000000 0.062945 0.000000
# 6 0.000000 0.000000 0.000000 -0.062794 0.000000 0.059902
#
#
# Mechanical properties :
#
#
# Convention : Reuss Voigt Hill
#
# Bulk Modulus (GPa) = 41.10456 55.57616 48.34036
# Shear Modulus (GPa) = 14.11851 23.82137 18.96994
#
# Velocity S-wave (km/s) = 2.65706 3.45137 3.07993
# Velocity P-wave (km/s) = 5.47428 6.60860 6.06800
#
# Compressibility (1/GPa) = 0.02432820
#
# Stress axis : x y z
#
# Youngs Moduli (GPa) = 98.32853 66.73345 50.55674
#
# Poissons Ratio (x) = 0.17471 0.26244
# Poissons Ratio (y) = 0.25742 0.12611
# Poissons Ratio (z) = 0.51041 0.16646
#
# Static dielectric constant tensor:
#      x y z
#    x 3.835650 0.000000 0.024000 
#    y 0.000000 3.862030 0.000000 
#    z 0.024000 0.000000 3.531950 
# 
# 
# High freq. dielectric constant tensor:
#      x y z
#    x 1.793640 0.000000 -0.001990 
#    y 0.000000 1.793350 0.000000 
#    z -0.001990 0.000000 1.769870 
# 
# From -- ./inp_files/171943.got.cif
#   From: 2010.06.25/outbox.cif.g09.slc.cpg/sg15_86_cif.got.tgz:171943.got - 2010.06.28 07:06:18.
