data_PCOD8143815
_publ_section_title
;
Structure prediction by ZEFSAII (Michael W. Deem and Ramdas Pophale) SiO2 
 PCOD8143815
Probable space group: C 2/C
;
_chemical_formula_sum "Si O2"
_cell_formula_units_Z 40
_cell_length_a 24.147867
_cell_length_b 16.879481
_cell_length_c 13.382552
_cell_angle_alpha 90.000000
_cell_angle_beta 156.769899
_cell_angle_gamma 90.000000
_cell_volume 2151.497990
_symmetry_space_group_name_H-M "C 2/C"
_symmetry_group_IT_number 15
_symmetry_cell_setting 'monoclinic'
loop_
_space_group_symop_operation_xyz
x,y,z
-x,y,1/2-z
-x,-y,-z
x,-y,1/2+z
1/2+x,1/2+y,z
1/2-x,1/2+y,1/2-z
1/2-x,1/2-y,-z
1/2+x,1/2-y,1/2+z
loop_
_atom_site_type_symbol
_atom_site_label
_atom_site_fract_x
_atom_site_fract_y
_atom_site_fract_z
Si Si1 0.572889 0.497101 0.769886
Si Si2 0.367566 0.230129 0.274304
Si Si3 0.878473 0.441132 0.823166
Si Si4 0.355422 0.837487 0.958323
Si Si5 0.576631 0.627285 0.102381
O O1 0.500000 0.467705 0.750000
O O2 0.485779 0.573426 0.589049
O O3 0.567632 0.421935 0.688945
O O4 0.732677 0.522456 0.046165
O O5 0.415810 0.140651 0.326578
O O6 0.313868 0.226514 0.301860
O O7 0.492967 0.291515 0.473842
O O8 0.250000 0.250000 0.000000
O O9 0.874491 0.423250 0.935832
O O10 0.000000 0.500000 0.000000
O O11 0.235115 0.845925 0.841554
O O12 0.500000 0.810745 0.250000
#
# Coordination Sequence:
#
# PCOD8143815 Si02
#       5
#     8   8   8   8   8
#     4  11  21  40  68  94 129 168 217 265 325 392
#     4  10  22  41  66  90 126 170 219 261 321 387
#     4  10  21  41  65  91 130 167 214 267 322 381
#     4  10  22  40  64  90 132 168 211 272 327 374
#     4  11  22  40  67  93 128 172 212 269 323 386
#
# _framework density 18.591697
#
# number of rings (size 3 to 8) (size 9 to 14) (size 15 to 20)
#    1.200    0.400    4.000    1.200    0.000    1.600 
#    3.600    0.000    4.400    0.000    0.000    0.000 
#    0.000    0.000    0.000    0.000    0.000    0.000 
#
# Total GULP energy -247836.345259 kJ/mol
# GULP energy per Si atom -12391.817263 kJ/mol
# Density = 1.854938 g / cm^3
# Si number density = 18.591697 Si / 1000 Ang^3
#
#
#
# Elastic Constant Matrix: (Units=GPa)
#
#
# Indices 1 2 3 4 5 6 
#
# 1 112.1997 51.8245 59.8409 0.0000 9.4637 0.0000
# 2 51.8245 123.0568 65.6972 0.0000 15.6302 0.0000
# 3 59.8409 65.6972 137.3520 0.0000 6.0062 0.0000
# 4 0.0000 0.0000 0.0000 25.9098 0.0000 14.2788
# 5 9.4637 15.6302 6.0062 0.0000 37.4620 0.0000
# 6 0.0000 0.0000 0.0000 14.2788 0.0000 23.0038
#
#
#
# Elastic Compliance Matrix: (Units=1/GPa)
#
#
# Indices 1 2 3 4 5 6 
#
# 1 0.012518 -0.002992 -0.003967 0.000000 -0.001278 0.000000
# 2 -0.002992 0.012175 -0.004362 0.000000 -0.003625 0.000000
# 3 -0.003967 -0.004362 0.011049 0.000000 0.001050 0.000000
# 4 0.000000 0.000000 0.000000 0.058663 0.000000 -0.036413
# 5 -0.001278 -0.003625 0.001050 0.000000 0.028361 0.000000
# 6 0.000000 0.000000 0.000000 -0.036413 0.000000 0.066073
#
#
# Mechanical properties :
#
#
# Convention : Reuss Voigt Hill
#
# Bulk Modulus (GPa) = 76.32499 80.81485 78.56992
# Shear Modulus (GPa) = 23.16457 30.29150 26.72803
#
# Velocity S-wave (km/s) = 3.53365 4.04084 3.79573
# Velocity P-wave (km/s) = 7.60206 8.08293 7.84618
#
# Compressibility (1/GPa) = 0.01310187
#
# Stress axis : x y z
#
# Youngs Moduli (GPa) = 79.88446 82.13379 90.50444
#
# Poissons Ratio (x) = 0.24572 0.35903
# Poissons Ratio (y) = 0.23899 0.39475
# Poissons Ratio (z) = 0.31690 0.35824
#
# Static dielectric constant tensor:
#      x y z
#    x 3.329540 0.000000 -0.184460 
#    y 0.000000 3.373530 0.000000 
#    z -0.184460 0.000000 3.325490 
# 
# 
# High freq. dielectric constant tensor:
#      x y z
#    x 1.714980 0.000000 -0.007280 
#    y 0.000000 1.717460 0.000000 
#    z -0.007280 0.000000 1.731490 
# 
# From -- ./inp_files/178728.got.cif
#   From: 2010.06.25/outbox.cif.g09.slc.cpg/sg15_90_cif.got.tgz:178728.got - 2010.06.28 07:06:18.
