data_PCOD8143087
_publ_section_title
;
Structure prediction by ZEFSAII (Michael W. Deem and Ramdas Pophale) SiO2 
 PCOD8143087
Probable space group: C 2/C
;
_chemical_formula_sum "Si O2"
_cell_formula_units_Z 44
_cell_length_a 28.462953
_cell_length_b 13.835503
_cell_length_c 17.911658
_cell_angle_alpha 90.000000
_cell_angle_beta 18.468520
_cell_angle_gamma 90.000000
_cell_volume 2234.463926
_symmetry_space_group_name_H-M "C 2/C"
_symmetry_group_IT_number 15
_symmetry_cell_setting 'monoclinic'
loop_
_space_group_symop_operation_xyz
x,y,z
-x,y,1/2-z
-x,-y,-z
x,-y,1/2+z
1/2+x,1/2+y,z
1/2-x,1/2+y,1/2-z
1/2-x,1/2-y,-z
1/2+x,1/2-y,1/2+z
loop_
_atom_site_type_symbol
_atom_site_label
_atom_site_fract_x
_atom_site_fract_y
_atom_site_fract_z
Si Si1 0.162476 0.675170 0.982427
Si Si2 0.335757 0.045461 0.006817
Si Si3 0.000000 0.854051 0.750000
Si Si4 0.262605 0.266887 0.781841
Si Si5 0.548289 0.654163 0.891741
Si Si6 0.423826 0.542531 0.213680
O O1 0.233616 0.733773 0.807938
O O2 0.281793 0.693066 0.869064
O O3 0.154289 0.561788 0.974102
O O4 0.000000 0.714566 0.250000
O O5 0.500000 0.086612 0.750000
O O6 0.262879 0.117476 0.176693
O O7 0.244061 0.050671 0.066870
O O8 0.937010 0.919774 0.778112
O O9 0.140745 0.789655 0.513689
O O10 0.431957 0.257195 0.558529
O O11 0.526642 0.569915 0.862278
O O12 0.533753 0.604343 0.995574
#
# Coordination Sequence:
#
# PCOD8143087 Si02
#       6
#     8   8   4   8   8   8
#     4  10  21  40  62  82 116 162 199 237 291 365
#     4   9  19  38  63  84 117 158 198 235 301 357
#     4  12  22  34  60 100 122 140 204 258 296 332
#     4  11  22  34  59  93 116 152 193 254 286 346
#     4   9  19  39  60  81 119 163 200 225 308 357
#     4   9  19  36  61  86 119 160 188 248 295 364
#
# _framework density 19.691524000000001
#
# number of rings (size 3 to 8) (size 9 to 14) (size 15 to 20)
#    0.000    2.182    2.727    1.091    0.000    5.091 
#    1.636    0.000    0.000   10.909    0.000    0.000 
#    0.000    0.000    0.000    0.000    0.000    0.000 
#
# Total GULP energy -272542.406736 kJ/mol
# GULP energy per Si atom -12388.291215 kJ/mol
# Density = 1.964671 g / cm^3
# Si number density = 19.691524 Si / 1000 Ang^3
#
#
#
# Elastic Constant Matrix: (Units=GPa)
#
#
# Indices 1 2 3 4 5 6 
#
# 1 76.2647 49.0035 33.7162 0.0043 -4.0687 -0.0042
# 2 49.0035 61.4284 35.1124 0.0029 -1.8466 -0.0035
# 3 33.7162 35.1124 146.3513 0.0044 -27.2503 -0.0063
# 4 0.0043 0.0029 0.0044 17.9555 -0.0020 5.4703
# 5 -4.0687 -1.8466 -27.2503 -0.0020 32.7922 0.0031
# 6 -0.0042 -0.0035 -0.0063 5.4703 0.0031 18.3531
#
#
#
# Elastic Compliance Matrix: (Units=1/GPa)
#
#
# Indices 1 2 3 4 5 6 
#
# 1 0.027143 -0.021076 -0.000935 -0.000004 0.001404 0.000003
# 2 -0.021076 0.035519 -0.004473 0.000000 -0.004332 0.000001
# 3 -0.000935 -0.004473 0.009527 -0.000001 0.007549 0.000001
# 4 -0.000004 0.000000 -0.000001 0.061255 0.000004 -0.018258
# 5 0.001404 -0.004332 0.007549 0.000004 0.036699 -0.000005
# 6 0.000003 0.000001 0.000001 -0.018258 -0.000005 0.059928
#
#
# Mechanical properties :
#
#
# Convention : Reuss Voigt Hill
#
# Bulk Modulus (GPa) = 52.02739 57.74539 54.88639
# Shear Modulus (GPa) = 17.27440 24.90099 21.08769
#
# Velocity S-wave (km/s) = 2.96505 3.55991 3.27601
# Velocity P-wave (km/s) = 6.18067 6.80338 6.49949
#
# Compressibility (1/GPa) = 0.01922064
#
# Stress axis : x y z
#
# Youngs Moduli (GPa) = 36.84205 28.15431 104.96468
#
# Poissons Ratio (x) = 0.59338 0.09817
# Poissons Ratio (y) = 0.77648 0.46947
# Poissons Ratio (z) = 0.03446 0.12592
#
# Static dielectric constant tensor:
#      x y z
#    x 3.229760 0.000000 -0.290350 
#    y 0.000000 3.520240 0.000000 
#    z -0.290350 0.000000 4.113470 
# 
# 
# High freq. dielectric constant tensor:
#      x y z
#    x 1.730060 0.000000 -0.023110 
#    y 0.000000 1.752970 0.000000 
#    z -0.023110 0.000000 1.795290 
# 
# From -- ./inp_files/197636.got.cif
#   From: 2010.06.25/outbox.cif.g09.slc.cpg/sg15_99_cif.got.tgz:197636.got - 2010.06.28 07:06:18.
