data_PCOD8143853
_publ_section_title
;
Structure prediction by ZEFSAII (Michael W. Deem and Ramdas Pophale) SiO2 
 PCOD8143853
Probable space group: C 2/C
;
_chemical_formula_sum "Si O2"
_cell_formula_units_Z 64
_cell_length_a 8.900633
_cell_length_b 15.057657
_cell_length_c 28.810244
_cell_angle_alpha 90.000000
_cell_angle_beta 52.530900
_cell_angle_gamma 90.000000
_cell_volume 3064.583837
_symmetry_space_group_name_H-M "C 2/C"
_symmetry_group_IT_number 15
_symmetry_cell_setting 'monoclinic'
loop_
_space_group_symop_operation_xyz
x,y,z
-x,y,1/2-z
-x,-y,-z
x,-y,1/2+z
1/2+x,1/2+y,z
1/2-x,1/2+y,1/2-z
1/2-x,1/2-y,-z
1/2+x,1/2-y,1/2+z
loop_
_atom_site_type_symbol
_atom_site_label
_atom_site_fract_x
_atom_site_fract_y
_atom_site_fract_z
Si Si1 0.912465 0.098939 0.967553
Si Si2 0.041358 0.603387 0.989800
Si Si3 0.748251 0.016489 0.087477
Si Si4 0.518236 0.154896 0.601892
Si Si5 0.207538 0.890044 0.229115
Si Si6 0.572124 0.068315 0.287921
Si Si7 0.775237 0.762489 0.787967
Si Si8 0.171265 0.738867 0.413695
O O1 0.765739 0.116730 0.953942
O O2 0.023962 0.187652 0.958567
O O3 0.788521 0.077147 0.035921
O O4 0.053020 0.017456 0.927542
O O5 0.996474 0.653891 0.950616
O O6 0.000000 0.500000 0.000000
O O7 0.910026 0.644456 0.054885
O O8 0.621729 0.073260 0.146236
O O9 0.633950 0.930500 0.094715
O O10 0.315204 0.153558 0.665110
O O11 0.627372 0.243073 0.599010
O O12 0.198448 0.821057 0.273307
O O13 0.000000 0.915788 0.250000
O O14 0.314719 0.976911 0.227393
O O15 0.500000 0.081070 0.250000
O O16 0.713002 0.147100 0.275011
O O17 0.687113 0.757631 0.855510
O O18 0.000000 0.758808 0.750000
#
# Coordination Sequence:
#
# PCOD8143853 Si02
#       8
#     8   8   8   8   8   8   8   8
#     4  10  21  41  65  99 126 179 215 271 337 397
#     4  12  24  41  65 101 135 171 225 281 332 404
#     4   9  20  42  67  94 135 170 221 272 331 411
#     4  10  22  43  67  95 134 176 222 274 341 398
#     4  11  25  45  72 101 134 181 231 286 341 416
#     4  11  25  44  70 102 135 179 228 284 348 413
#     4  12  25  48  68  98 139 180 233 290 345 405
#     4  11  25  44  69  95 134 182 221 277 347 400
#
# _framework density 20.883749999999999
#
# number of rings (size 3 to 8) (size 9 to 14) (size 15 to 20)
#    0.000    1.250    2.500    2.625    7.000    0.000 
#    4.500    0.000    0.000    0.000    0.000    0.000 
#    0.000    0.000    0.000    0.000    0.000    0.000 
#
# Total GULP energy -396868.040272 kJ/mol
# GULP energy per Si atom -12402.126259 kJ/mol
# Density = 2.083622 g / cm^3
# Si number density = 20.883750 Si / 1000 Ang^3
#
#
#
# Elastic Constant Matrix: (Units=GPa)
#
#
# Indices 1 2 3 4 5 6 
#
# 1 111.2941 13.6730 37.0225 0.0000 5.3938 -0.0001
# 2 13.6730 79.9882 10.9709 0.0001 4.1644 -0.0001
# 3 37.0225 10.9709 93.7181 0.0003 4.4457 -0.0001
# 4 0.0000 0.0001 0.0003 31.0027 0.0001 3.6289
# 5 5.3938 4.1644 4.4457 0.0001 35.9182 0.0001
# 6 -0.0001 -0.0001 -0.0001 3.6289 0.0001 27.9112
#
#
#
# Elastic Compliance Matrix: (Units=1/GPa)
#
#
# Indices 1 2 3 4 5 6 
#
# 1 0.010496 -0.001202 -0.003961 0.000000 -0.000947 0.000000
# 2 -0.001202 0.012904 -0.000979 0.000000 -0.001194 0.000000
# 3 -0.003961 -0.000979 0.012389 0.000000 -0.000825 0.000000
# 4 0.000000 0.000000 0.000000 0.032754 0.000000 -0.004258
# 5 -0.000947 -0.001194 -0.000825 0.000000 0.028224 0.000000
# 6 0.000000 0.000000 0.000000 -0.004258 0.000000 0.036382
#
#
# Mechanical properties :
#
#
# Convention : Reuss Voigt Hill
#
# Bulk Modulus (GPa) = 42.54351 45.37035 43.95693
# Shear Modulus (GPa) = 32.62291 33.85536 33.23913
#
# Velocity S-wave (km/s) = 3.95665 4.03070 3.99385
# Velocity P-wave (km/s) = 6.42567 6.59048 6.50860
#
# Compressibility (1/GPa) = 0.02350535
#
# Stress axis : x y z
#
# Youngs Moduli (GPa) = 95.27138 77.49689 80.71820
#
# Poissons Ratio (x) = 0.09313 0.31972
# Poissons Ratio (y) = 0.11449 0.07904
# Poissons Ratio (z) = 0.37736 0.07588
#
# Static dielectric constant tensor:
#      x y z
#    x 4.145890 0.000000 -0.137300 
#    y 0.000000 3.755500 0.000000 
#    z -0.137300 0.000000 3.950580 
# 
# 
# High freq. dielectric constant tensor:
#      x y z
#    x 1.829920 0.000000 -0.006690 
#    y 0.000000 1.815340 0.000000 
#    z -0.006690 0.000000 1.824900 
# 
# From -- ./inp_files/308016.got.cif
#   From: 2010.06.25/outbox.cif.g09.slc.cpg/sg15_155_cif.got.tgz:308016.got - 2010.06.28 07:06:18.
