data_PCOD8143942
_publ_section_title
;
Structure prediction by ZEFSAII (Michael W. Deem and Ramdas Pophale) SiO2 
 PCOD8143942
Probable space group: C 2/C
;
_chemical_formula_sum "Si O2"
_cell_formula_units_Z 56
_cell_length_a 18.446636
_cell_length_b 8.839740
_cell_length_c 16.397660
_cell_angle_alpha 90.000000
_cell_angle_beta 67.368199
_cell_angle_gamma 90.000000
_cell_volume 2467.963498
_symmetry_space_group_name_H-M "C 2/C"
_symmetry_group_IT_number 15
_symmetry_cell_setting 'monoclinic'
loop_
_space_group_symop_operation_xyz
x,y,z
-x,y,1/2-z
-x,-y,-z
x,-y,1/2+z
1/2+x,1/2+y,z
1/2-x,1/2+y,1/2-z
1/2-x,1/2-y,-z
1/2+x,1/2-y,1/2+z
loop_
_atom_site_type_symbol
_atom_site_label
_atom_site_fract_x
_atom_site_fract_y
_atom_site_fract_z
Si Si1 0.624230 0.804432 0.078075
Si Si2 0.086727 0.425380 0.696854
Si Si3 0.253084 0.564356 0.419714
Si Si4 0.659585 0.650251 0.355423
Si Si5 0.492614 0.557442 0.413425
Si Si6 0.708714 0.031224 0.764353
Si Si7 0.134173 0.830075 0.057148
O O1 0.689043 0.705190 0.095790
O O2 0.557249 0.710533 0.062275
O O3 0.581216 0.906545 0.163292
O O4 0.667161 0.907078 0.992972
O O5 0.132812 0.441562 0.762703
O O6 0.130859 0.320994 0.611907
O O7 0.000000 0.361098 0.750000
O O8 0.241074 0.548121 0.329999
O O9 0.287354 0.415411 0.448229
O O10 0.580346 0.592719 0.342937
O O11 0.693612 0.792148 0.289077
O O12 0.720412 0.507469 0.330703
O O13 0.640166 0.701191 0.457074
O O14 0.500000 0.500000 0.500000
O O15 0.443431 0.429920 0.385564
#
# Coordination Sequence:
#
# PCOD8143942 Si02
#       7
#     8   8   8   8   8   8   8
#     4  10  21  41  67  93 128 169 211 265 325 387
#     4  12  26  42  63  96 132 170 219 273 327 382
#     4  10  22  41  67  96 126 169 216 260 324 389
#     4  11  24  43  67  98 132 172 217 267 327 385
#     4   9  21  42  67  91 121 165 214 260 315 385
#     4  12  25  39  63  95 130 167 214 271 318 379
#     4  10  23  45  69  93 132 178 216 263 325 394
#
# _framework density 22.690773
#
# number of rings (size 3 to 8) (size 9 to 14) (size 15 to 20)
#    0.000    1.429    0.000    4.286    0.000   10.857 
#    0.000    7.857    0.000    0.000    0.000    0.000 
#    0.000    0.000    0.000    0.000    0.000    0.000 
#
# Total GULP energy -347112.611274 kJ/mol
# GULP energy per Si atom -12396.878974 kJ/mol
# Density = 2.263913 g / cm^3
# Si number density = 22.690773 Si / 1000 Ang^3
#
#
#
# Elastic Constant Matrix: (Units=GPa)
#
#
# Indices 1 2 3 4 5 6 
#
# 1 136.2949 42.8951 29.6906 0.0000 -9.1456 0.0000
# 2 42.8951 110.2271 41.0924 0.0000 -7.8049 0.0000
# 3 29.6906 41.0924 73.9000 0.0000 -1.1900 0.0000
# 4 0.0000 0.0000 0.0000 31.1016 0.0000 -6.3094
# 5 -9.1456 -7.8049 -1.1900 0.0000 42.4465 0.0000
# 6 0.0000 0.0000 0.0000 -6.3094 0.0000 25.1347
#
#
#
# Elastic Compliance Matrix: (Units=1/GPa)
#
#
# Indices 1 2 3 4 5 6 
#
# 1 0.008667 -0.002507 -0.002066 0.000000 0.001348 0.000000
# 2 -0.002507 0.012329 -0.005823 0.000000 0.001564 0.000000
# 3 -0.002066 -0.005823 0.017584 0.000000 -0.001023 0.000000
# 4 0.000000 0.000000 0.000000 0.033878 0.000000 0.008504
# 5 0.001348 0.001564 -0.001023 0.000000 0.024108 0.000000
# 6 0.000000 0.000000 0.000000 0.008504 0.000000 0.041920
#
#
# Mechanical properties :
#
#
# Convention : Reuss Voigt Hill
#
# Bulk Modulus (GPa) = 56.22254 60.86421 58.54338
# Shear Modulus (GPa) = 30.26480 33.51949 31.89214
#
# Velocity S-wave (km/s) = 3.65608 3.84764 3.75308
# Velocity P-wave (km/s) = 6.53100 6.82794 6.68112
#
# Compressibility (1/GPa) = 0.01778646
#
# Stress axis : x y z
#
# Youngs Moduli (GPa) = 115.38557 81.10687 56.87094
#
# Poissons Ratio (x) = 0.20332 0.11751
# Poissons Ratio (y) = 0.28925 0.33119
# Poissons Ratio (z) = 0.23842 0.47232
#
# Static dielectric constant tensor:
#      x y z
#    x 13.695580 0.000010 -2.261260 
#    y 0.000010 4.228470 0.000000 
#    z -2.261260 0.000000 4.443610 
# 
# 
# High freq. dielectric constant tensor:
#      x y z
#    x 1.909790 0.000000 -0.000290 
#    y 0.000000 1.900040 0.000000 
#    z -0.000290 0.000000 1.884310 
# 
# From -- ./inp_files/209535.got.cif
#   From: 2010.06.25/outbox.cif.g09.slc.cpg/sg15_105_cif.got.tgz:209535.got - 2010.06.28 07:06:18.
