data_PCOD8143633
_publ_section_title
;
Structure prediction by ZEFSAII (Michael W. Deem and Ramdas Pophale) SiO2 
 PCOD8143633
Probable space group: C 2/C
;
_chemical_formula_sum "Si O2"
_cell_formula_units_Z 40
_cell_length_a 4.905359
_cell_length_b 30.141319
_cell_length_c 13.145788
_cell_angle_alpha 90.000000
_cell_angle_beta 73.121134
_cell_angle_gamma 90.000000
_cell_volume 1859.925912
_symmetry_space_group_name_H-M "C 2/C"
_symmetry_group_IT_number 15
_symmetry_cell_setting 'monoclinic'
loop_
_space_group_symop_operation_xyz
x,y,z
-x,y,1/2-z
-x,-y,-z
x,-y,1/2+z
1/2+x,1/2+y,z
1/2-x,1/2+y,1/2-z
1/2-x,1/2-y,-z
1/2+x,1/2-y,1/2+z
loop_
_atom_site_type_symbol
_atom_site_label
_atom_site_fract_x
_atom_site_fract_y
_atom_site_fract_z
Si Si1 0.162220 0.475238 0.127576
Si Si2 0.743684 0.057739 0.987427
Si Si3 0.989694 0.683878 0.634931
Si Si4 0.313840 0.719061 0.180236
Si Si5 0.092325 0.155195 0.509575
O O1 0.488535 0.461027 0.105137
O O2 0.000000 0.472049 0.250000
O O3 0.017239 0.441019 0.063701
O O4 0.152789 0.525848 0.089681
O O5 0.818837 0.105181 0.027144
O O6 0.991220 0.737259 0.628743
O O7 0.706539 0.666799 0.609667
O O8 0.000000 0.666952 0.750000
O O9 0.255133 0.663276 0.545380
O O10 0.500000 0.695937 0.250000
O O11 0.000000 0.733646 0.250000
O O12 0.269411 0.686114 0.091239
#
# Coordination Sequence:
#
# PCOD8143633 Si02
#       5
#     8   8   8   8   8
#     4  10  21  41  62  82 119 157 185 237 300 355
#     4  10  23  38  59  92 115 147 202 237 288 369
#     4  11  23  39  59  87 121 160 201 243 299 356
#     4  11  23  41  61  86 120 163 208 245 297 359
#     4  12  23  39  62  89 122 154 197 257 299 340
#
# _framework density 21.506231
#
# number of rings (size 3 to 8) (size 9 to 14) (size 15 to 20)
#    0.000    1.200    0.000    7.200    0.000    5.600 
#    0.000    4.000    0.000    0.000    0.000    0.000 
#    0.000    0.000    0.000    0.000    0.000    0.000 
#
# Total GULP energy -248092.223579 kJ/mol
# GULP energy per Si atom -12404.611179 kJ/mol
# Density = 2.145728 g / cm^3
# Si number density = 21.506231 Si / 1000 Ang^3
#
#
#
# Elastic Constant Matrix: (Units=GPa)
#
#
# Indices 1 2 3 4 5 6 
#
# 1 89.4249 14.3299 6.5892 0.0000 7.4888 0.0000
# 2 14.3299 104.0746 17.9802 0.0000 2.4927 0.0000
# 3 6.5892 17.9802 35.9807 0.0000 7.4585 0.0000
# 4 0.0000 0.0000 0.0000 12.1819 0.0000 1.9351
# 5 7.4888 2.4927 7.4585 0.0000 35.4038 0.0000
# 6 0.0000 0.0000 0.0000 1.9351 0.0000 28.3057
#
#
#
# Elastic Compliance Matrix: (Units=1/GPa)
#
#
# Indices 1 2 3 4 5 6 
#
# 1 0.011658 -0.001381 -0.000997 0.000000 -0.002159 0.000000
# 2 -0.001381 0.010685 -0.005219 0.000000 0.000639 0.000000
# 3 -0.000997 -0.005219 0.031855 0.000000 -0.006132 0.000000
# 4 0.000000 0.000000 0.000000 0.082990 0.000000 -0.005673
# 5 -0.002159 0.000639 -0.006132 0.000000 0.029949 0.000000
# 6 0.000000 0.000000 0.000000 -0.005673 0.000000 0.035716
#
#
# Mechanical properties :
#
#
# Convention : Reuss Voigt Hill
#
# Bulk Modulus (GPa) = 25.63931 34.14210 29.89070
# Shear Modulus (GPa) = 21.64041 27.88367 24.76204
#
# Velocity S-wave (km/s) = 3.17557 3.60466 3.39689
# Velocity P-wave (km/s) = 5.03918 5.76495 5.41424
#
# Compressibility (1/GPa) = 0.03900261
#
# Stress axis : x y z
#
# Youngs Moduli (GPa) = 85.77681 93.58897 31.39261
#
# Poissons Ratio (x) = 0.12927 0.03131
# Poissons Ratio (y) = 0.11848 0.16384
# Poissons Ratio (z) = 0.08554 0.48845
#
# Static dielectric constant tensor:
#      x y z
#    x 4.067710 0.000000 0.122030 
#    y 0.000000 3.755150 0.000000 
#    z 0.122030 0.000000 3.690160 
# 
# 
# High freq. dielectric constant tensor:
#      x y z
#    x 1.866210 0.000000 0.003800 
#    y 0.000000 1.835210 0.000000 
#    z 0.003800 0.000000 1.830930 
# 
# From -- ./inp_files/73088.got.cif
#   From: 2010.06.25/outbox.cif.g09.slc.cpg/sg15_37_cif.got.tgz:73088.got - 2010.06.28 07:06:18.
