data_PCOD8143610
_publ_section_title
;
Structure prediction by ZEFSAII (Michael W. Deem and Ramdas Pophale) SiO2 
 PCOD8143610
Probable space group: C 2/C
;
_chemical_formula_sum "Si O2"
_cell_formula_units_Z 52
_cell_length_a 16.917341
_cell_length_b 14.842067
_cell_length_c 14.844062
_cell_angle_alpha 90.000000
_cell_angle_beta 43.330237
_cell_angle_gamma 90.000000
_cell_volume 2557.593022
_symmetry_space_group_name_H-M "C 2/C"
_symmetry_group_IT_number 15
_symmetry_cell_setting 'monoclinic'
loop_
_space_group_symop_operation_xyz
x,y,z
-x,y,1/2-z
-x,-y,-z
x,-y,1/2+z
1/2+x,1/2+y,z
1/2-x,1/2+y,1/2-z
1/2-x,1/2-y,-z
1/2+x,1/2-y,1/2+z
loop_
_atom_site_type_symbol
_atom_site_label
_atom_site_fract_x
_atom_site_fract_y
_atom_site_fract_z
Si Si1 0.769858 0.148132 0.459555
Si Si2 0.000372 0.427111 0.922212
Si Si3 0.500000 0.438695 0.750000
Si Si4 0.104770 0.992349 0.345004
Si Si5 0.798205 0.348115 0.181381
Si Si6 0.593801 0.077519 0.732335
Si Si7 0.229519 0.348829 0.784603
O O1 0.750000 0.250000 0.500000
O O2 0.706025 0.074473 0.575544
O O3 0.727547 0.140716 0.393121
O O4 0.902661 0.127210 0.368131
O O5 0.034394 0.479730 0.802021
O O6 0.099570 0.353823 0.856724
O O7 0.000000 0.500000 0.000000
O O8 0.874086 0.377751 0.029884
O O9 0.443565 0.497249 0.716450
O O10 0.174721 0.898056 0.288455
O O11 0.192867 0.067159 0.310439
O O12 0.000000 0.000000 0.500000
O O13 0.877726 0.369346 0.201088
O O14 0.780737 0.241473 0.198993
O O15 0.500000 0.132426 0.750000
#
# Coordination Sequence:
#
# PCOD8143610 Si02
#       7
#     8   8   4   8   8   8   8
#     4  11  22  36  58  97 135 158 208 271 338 401
#     4  10  21  41  61  88 125 172 223 249 319 392
#     4  10  26  38  62  94 130 176 214 266 332 394
#     4  11  24  43  64  92 133 178 219 268 339 402
#     4  11  23  41  63  96 130 171 219 271 331 399
#     4  11  22  37  66  90 127 171 215 272 325 391
#     4  11  23  39  66  95 129 170 214 275 330 399
#
# _framework density 20.331616
#
# number of rings (size 3 to 8) (size 9 to 14) (size 15 to 20)
#    0.000    1.231    4.615    2.769    5.385    1.231 
#    0.000    0.000    1.692    1.846    0.000    0.000 
#    0.000    0.000    0.000    0.000    0.000    0.000 
#
# Total GULP energy -322134.206319 kJ/mol
# GULP energy per Si atom -12389.777166 kJ/mol
# Density = 2.028534 g / cm^3
# Si number density = 20.331616 Si / 1000 Ang^3
#
#
#
# Elastic Constant Matrix: (Units=GPa)
#
#
# Indices 1 2 3 4 5 6 
#
# 1 78.9350 11.0599 17.2212 0.0000 -14.1862 0.0000
# 2 11.0599 84.6171 37.4983 0.0000 0.9231 0.0000
# 3 17.2212 37.4983 145.7919 0.0000 -16.9619 0.0000
# 4 0.0000 0.0000 0.0000 37.9155 0.0000 -7.3007
# 5 -14.1862 0.9231 -16.9619 0.0000 27.5142 0.0000
# 6 0.0000 0.0000 0.0000 -7.3007 0.0000 17.1946
#
#
#
# Elastic Compliance Matrix: (Units=1/GPa)
#
#
# Indices 1 2 3 4 5 6 
#
# 1 0.014295 -0.001771 -0.000397 0.000000 0.007185 0.000000
# 2 -0.001771 0.013755 -0.003758 0.000000 -0.003691 0.000000
# 3 -0.000397 -0.003758 0.008471 0.000000 0.005144 0.000000
# 4 0.000000 0.000000 0.000000 0.028723 0.000000 0.012195
# 5 0.007185 -0.003691 0.005144 0.000000 0.043344 0.000000
# 6 0.000000 0.000000 0.000000 0.012195 0.000000 0.063336
#
#
# Mechanical properties :
#
#
# Convention : Reuss Voigt Hill
#
# Bulk Modulus (GPa) = 40.53730 48.98919 44.76325
# Shear Modulus (GPa) = 26.04188 32.76250 29.40219
#
# Velocity S-wave (km/s) = 3.58279 4.01859 3.80693
# Velocity P-wave (km/s) = 6.09069 6.75866 6.43335
#
# Compressibility (1/GPa) = 0.02466864
#
# Stress axis : x y z
#
# Youngs Moduli (GPa) = 69.95617 72.70039 118.04940
#
# Poissons Ratio (x) = 0.12873 0.04688
# Poissons Ratio (y) = 0.12388 0.44365
# Poissons Ratio (z) = 0.02778 0.27322
#
# Static dielectric constant tensor:
#      x y z
#    x 4.560950 0.000000 -2.100430 
#    y 0.000000 3.700100 0.000000 
#    z -2.100430 0.000000 8.700690 
# 
# 
# High freq. dielectric constant tensor:
#      x y z
#    x 1.787880 0.000000 -0.016460 
#    y 0.000000 1.773570 0.000000 
#    z -0.016460 0.000000 1.812280 
# 
# From -- ./inp_files/162466.got.cif
#   From: 2010.06.25/outbox.cif.g09.slc.cpg/sg15_82_cif.got.tgz:162466.got - 2010.06.28 07:06:18.
