data_PCOD8143222
_publ_section_title
;
Structure prediction by ZEFSAII (Michael W. Deem and Ramdas Pophale) SiO2 
 PCOD8143222
Probable space group: C 2/C
;
_chemical_formula_sum "Si O2"
_cell_formula_units_Z 44
_cell_length_a 14.470093
_cell_length_b 8.672996
_cell_length_c 13.571116
_cell_angle_alpha 90.000000
_cell_angle_beta 78.468423
_cell_angle_gamma 90.000000
_cell_volume 1668.783407
_symmetry_space_group_name_H-M "C 2/C"
_symmetry_group_IT_number 15
_symmetry_cell_setting 'monoclinic'
loop_
_space_group_symop_operation_xyz
x,y,z
-x,y,1/2-z
-x,-y,-z
x,-y,1/2+z
1/2+x,1/2+y,z
1/2-x,1/2+y,1/2-z
1/2-x,1/2-y,-z
1/2+x,1/2-y,1/2+z
loop_
_atom_site_type_symbol
_atom_site_label
_atom_site_fract_x
_atom_site_fract_y
_atom_site_fract_z
Si Si1 0.408384 0.479553 0.920020
Si Si2 0.500000 0.679429 0.750000
Si Si3 0.852954 0.581741 0.340023
Si Si4 0.432229 0.861614 0.477794
Si Si5 0.861572 0.269569 0.030139
Si Si6 0.777530 0.489035 0.657513
O O1 0.493654 0.571046 0.847982
O O2 0.442275 0.320571 0.955803
O O3 0.326138 0.451530 0.858310
O O4 0.378116 0.587104 0.020148
O O5 0.588187 0.793909 0.735086
O O6 0.910822 0.437916 0.374747
O O7 0.804830 0.671816 0.443008
O O8 0.777298 0.526901 0.275625
O O9 0.541530 0.883102 0.495113
O O10 0.351612 0.887564 0.577596
O O11 0.803818 0.327926 0.137126
#
# Coordination Sequence:
#
# PCOD8143222 Si02
#       6
#     8   4   8   8   8   8
#     4  11  24  41  63  97 130 162 207 262 317 366
#     4  10  22  42  62  86 126 168 206 250 308 372
#     4  10  21  40  64  90 120 165 212 249 304 372
#     4  11  23  41  67  95 123 164 213 258 308 373
#     4  10  22  41  64  91 127 169 207 253 312 373
#     4  11  22  41  68  93 127 166 206 259 312 372
#
# _framework density 26.366513999999999
#
# number of rings (size 3 to 8) (size 9 to 14) (size 15 to 20)
#    0.000    1.455    0.000    7.091    0.000    5.091 
#    0.000   12.727    0.000    0.000    0.000    0.000 
#    0.000    0.000    0.000    0.000    0.000    0.000 
#
# Total GULP energy -272608.586272 kJ/mol
# GULP energy per Si atom -12391.299376 kJ/mol
# Density = 2.630650 g / cm^3
# Si number density = 26.366514 Si / 1000 Ang^3
#
#
#
# Elastic Constant Matrix: (Units=GPa)
#
#
# Indices 1 2 3 4 5 6 
#
# 1 71.3890 -1.0615 48.6597 0.0000 20.2072 0.0000
# 2 -1.0615 112.8550 45.1289 0.0000 -2.8758 0.0000
# 3 48.6597 45.1289 133.5174 0.0000 22.3497 0.0000
# 4 0.0000 0.0000 0.0000 35.5374 0.0000 -3.1485
# 5 20.2072 -2.8758 22.3497 0.0000 46.8748 0.0000
# 6 0.0000 0.0000 0.0000 -3.1485 0.0000 19.8552
#
#
#
# Elastic Compliance Matrix: (Units=1/GPa)
#
#
# Indices 1 2 3 4 5 6 
#
# 1 0.020815 0.003194 -0.007821 0.000000 -0.005048 0.000000
# 2 0.003194 0.011008 -0.005181 0.000000 0.001768 0.000000
# 3 -0.007821 -0.005181 0.012584 0.000000 -0.002947 0.000000
# 4 0.000000 0.000000 0.000000 0.028540 0.000000 0.004526
# 5 -0.005048 0.001768 -0.002947 0.000000 0.025023 0.000000
# 6 0.000000 0.000000 0.000000 0.004526 0.000000 0.051082
#
#
# Mechanical properties :
#
#
# Convention : Reuss Voigt Hill
#
# Bulk Modulus (GPa) = 40.33419 55.91283 48.12351
# Shear Modulus (GPa) = 28.25966 35.45577 31.85772
#
# Velocity S-wave (km/s) = 3.27739 3.67103 3.47978
# Velocity P-wave (km/s) = 5.44540 6.26264 5.86827
#
# Compressibility (1/GPa) = 0.02479286
#
# Stress axis : x y z
#
# Youngs Moduli (GPa) = 48.04277 90.84486 79.46494
#
# Poissons Ratio (x) = -0.29020 0.62146
# Poissons Ratio (y) = -0.15347 0.41170
# Poissons Ratio (z) = 0.37572 0.47065
#
# Static dielectric constant tensor:
#      x y z
#    x 4.900600 0.000000 0.061650 
#    y 0.000000 5.251100 0.000000 
#    z 0.061650 0.000000 4.686220 
# 
# 
# High freq. dielectric constant tensor:
#      x y z
#    x 2.064090 0.000000 0.011840 
#    y 0.000000 2.083120 0.000000 
#    z 0.011840 0.000000 2.041910 
# 
# From -- ./inp_files/159339.got.cif
#   From: 2010.06.25/outbox.cif.g09.slc.cpg/sg15_80_cif.got.tgz:159339.got - 2010.06.28 07:06:18.
