data_PCOD8143119
_publ_section_title
;
Structure prediction by ZEFSAII (Michael W. Deem and Ramdas Pophale) SiO2 
 PCOD8143119
Probable space group: C 2/C
;
_chemical_formula_sum "Si O2"
_cell_formula_units_Z 40
_cell_length_a 16.718832
_cell_length_b 13.237466
_cell_length_c 10.258852
_cell_angle_alpha 90.000000
_cell_angle_beta 130.126065
_cell_angle_gamma 90.000000
_cell_volume 1736.040778
_symmetry_space_group_name_H-M "C 2/C"
_symmetry_group_IT_number 15
_symmetry_cell_setting 'monoclinic'
loop_
_space_group_symop_operation_xyz
x,y,z
-x,y,1/2-z
-x,-y,-z
x,-y,1/2+z
1/2+x,1/2+y,z
1/2-x,1/2+y,1/2-z
1/2-x,1/2-y,-z
1/2+x,1/2-y,1/2+z
loop_
_atom_site_type_symbol
_atom_site_label
_atom_site_fract_x
_atom_site_fract_y
_atom_site_fract_z
Si Si1 0.837772 0.177832 0.151341
Si Si2 0.341323 0.930468 0.912805
Si Si3 0.950160 0.777432 0.530847
Si Si4 0.391212 0.319785 0.187808
Si Si5 0.674049 0.096083 0.402260
O O1 0.778920 0.089833 0.168189
O O2 0.907607 0.146997 0.099372
O O3 0.922707 0.224324 0.343220
O O4 0.750000 0.250000 0.000000
O O5 0.348795 0.951140 0.765168
O O6 0.416121 0.837242 0.026799
O O7 0.376019 0.026530 0.036280
O O8 0.893074 0.819763 0.345056
O O9 0.500000 0.364080 0.250000
O O10 0.377377 0.204607 0.125412
O O11 0.299237 0.392642 0.043780
#
# Coordination Sequence:
#
# PCOD8143119 Si02
#       5
#     8   8   8   8   8
#     4   9  18  36  61  87 121 156 198 255 303 366
#     4  10  21  40  62  94 124 161 208 257 308 365
#     4   9  19  37  62  92 116 165 208 244 315 370
#     4  10  21  42  62  86 125 173 206 250 314 376
#     4  10  23  41  63  91 128 163 208 258 312 364
#
# _framework density 23.040932000000002
#
# number of rings (size 3 to 8) (size 9 to 14) (size 15 to 20)
#    0.000    2.400    0.000    1.200    2.800    1.600 
#   21.600    4.000    0.000    0.000    0.000    0.000 
#    0.000    0.000    0.000    0.000    0.000    0.000 
#
# Total GULP energy -247789.003979 kJ/mol
# GULP energy per Si atom -12389.450199 kJ/mol
# Density = 2.298849 g / cm^3
# Si number density = 23.040932 Si / 1000 Ang^3
#
#
#
# Elastic Constant Matrix: (Units=GPa)
#
#
# Indices 1 2 3 4 5 6 
#
# 1 47.1382 5.6731 6.9549 0.0000 -0.8160 0.0000
# 2 5.6731 39.9035 6.6326 0.0000 -19.8374 0.0000
# 3 6.9549 6.6326 87.3974 0.0000 -6.8241 0.0000
# 4 0.0000 0.0000 0.0000 21.8521 0.0000 -12.8595
# 5 -0.8160 -19.8374 -6.8241 0.0000 47.4189 0.0000
# 6 0.0000 0.0000 0.0000 -12.8595 0.0000 29.7333
#
#
#
# Elastic Compliance Matrix: (Units=1/GPa)
#
#
# Indices 1 2 3 4 5 6 
#
# 1 0.021845 -0.003497 -0.001576 0.000000 -0.001314 0.000000
# 2 -0.003497 0.032367 -0.001138 0.000000 0.013316 0.000000
# 3 -0.001576 -0.001138 0.011746 0.000000 0.001187 0.000000
# 4 0.000000 0.000000 0.000000 0.061386 0.000000 0.026549
# 5 -0.001314 0.013316 0.001187 0.000000 0.026808 0.000000
# 6 0.000000 0.000000 0.000000 0.026549 0.000000 0.045115
#
#
# Mechanical properties :
#
#
# Convention : Reuss Voigt Hill
#
# Bulk Modulus (GPa) = 18.67878 23.66224 21.17051
# Shear Modulus (GPa) = 21.78332 30.14610 25.96471
#
# Velocity S-wave (km/s) = 3.07810 3.62107 3.36057
# Velocity P-wave (km/s) = 4.55602 5.27018 4.92606
#
# Compressibility (1/GPa) = 0.05353669
#
# Stress axis : x y z
#
# Youngs Moduli (GPa) = 45.77753 30.89576 85.13215
#
# Poissons Ratio (x) = 0.10804 0.13413
# Poissons Ratio (y) = 0.16008 0.09690
# Poissons Ratio (z) = 0.07212 0.03517
#
# Static dielectric constant tensor:
#      x y z
#    x 4.573990 0.000000 0.189820 
#    y 0.000000 3.707920 0.000000 
#    z 0.189820 0.000000 4.444250 
# 
# 
# High freq. dielectric constant tensor:
#      x y z
#    x 1.918420 0.000000 0.002260 
#    y 0.000000 1.863100 0.000000 
#    z 0.002260 0.000000 1.928160 
# 
# From -- ./inp_files/105035.got.cif
#   From: 2010.06.25/outbox.cif.g09.slc.cpg/sg15_53_cif.got.tgz:105035.got - 2010.06.28 07:06:18.
