data_PCOD8143131
_publ_section_title
;
Structure prediction by ZEFSAII (Michael W. Deem and Ramdas Pophale) SiO2 
 PCOD8143131
Probable space group: C 2/C
;
_chemical_formula_sum "Si O2"
_cell_formula_units_Z 44
_cell_length_a 23.303417
_cell_length_b 10.823801
_cell_length_c 8.604901
_cell_angle_alpha 90.000000
_cell_angle_beta 76.227737
_cell_angle_gamma 90.000000
_cell_volume 2108.026931
_symmetry_space_group_name_H-M "C 2/C"
_symmetry_group_IT_number 15
_symmetry_cell_setting 'monoclinic'
loop_
_space_group_symop_operation_xyz
x,y,z
-x,y,1/2-z
-x,-y,-z
x,-y,1/2+z
1/2+x,1/2+y,z
1/2-x,1/2+y,1/2-z
1/2-x,1/2-y,-z
1/2+x,1/2-y,1/2+z
loop_
_atom_site_type_symbol
_atom_site_label
_atom_site_fract_x
_atom_site_fract_y
_atom_site_fract_z
Si Si1 0.500000 0.787409 0.250000
Si Si2 0.386764 0.339464 0.760485
Si Si3 0.139718 0.412504 0.336566
Si Si4 0.258441 0.617937 0.914331
Si Si5 0.440137 0.976586 0.851515
Si Si6 0.666877 0.454136 0.410585
O O1 0.544994 0.697741 0.310070
O O2 0.539891 0.881239 0.116962
O O3 0.346270 0.221029 0.746652
O O4 0.374861 0.448374 0.648276
O O5 0.373585 0.374660 0.947723
O O6 0.198798 0.448826 0.390516
O O7 0.082971 0.400110 0.487580
O O8 0.116728 0.514604 0.228383
O O9 0.303266 0.632651 0.739865
O O10 0.250000 0.750000 0.000000
O O11 0.282099 0.522544 0.026099
O O12 0.500000 0.908582 0.750000
#
# Coordination Sequence:
#
# PCOD8143131 Si02
#       6
#     4   8   8   8   8   8
#     4   8  20  38  62  90 118 150 194 242 302 354
#     4  10  21  40  63  84 120 157 200 248 293 352
#     4  11  20  39  59  91 121 155 194 243 302 351
#     4  11  22  41  61  89 120 160 202 242 299 352
#     4   9  20  36  61  88 125 146 190 245 302 356
#     4  10  23  42  60  85 121 158 204 249 286 355
#
# _framework density 20.872598
#
# number of rings (size 3 to 8) (size 9 to 14) (size 15 to 20)
#    0.545    1.455    1.818    1.636    0.000    1.455 
#   13.091    0.000    2.000    0.000    0.000    0.000 
#    0.000    0.000    0.000    0.000    0.000    0.000 
#
# Total GULP energy -272538.127097 kJ/mol
# GULP energy per Si atom -12388.096686 kJ/mol
# Density = 2.082509 g / cm^3
# Si number density = 20.872598 Si / 1000 Ang^3
#
#
#
# Elastic Constant Matrix: (Units=GPa)
#
#
# Indices 1 2 3 4 5 6 
#
# 1 113.0911 18.9647 14.0985 0.0000 7.3305 0.0000
# 2 18.9647 61.3910 40.3236 0.0000 -2.0447 0.0000
# 3 14.0985 40.3236 111.6028 0.0000 3.5582 0.0000
# 4 0.0000 0.0000 0.0000 31.9663 0.0000 -8.1953
# 5 7.3305 -2.0447 3.5582 0.0000 21.2681 0.0000
# 6 0.0000 0.0000 0.0000 -8.1953 0.0000 14.3418
#
#
#
# Elastic Compliance Matrix: (Units=1/GPa)
#
#
# Indices 1 2 3 4 5 6 
#
# 1 0.009593 -0.003099 0.000023 0.000000 -0.003608 0.000000
# 2 -0.003099 0.022600 -0.007920 0.000000 0.004566 0.000000
# 3 0.000023 -0.007920 0.011907 0.000000 -0.002761 0.000000
# 4 0.000000 0.000000 0.000000 0.036653 0.000000 0.020944
# 5 -0.003608 0.004566 -0.002761 0.000000 0.049163 0.000000
# 6 0.000000 0.000000 0.000000 0.020944 0.000000 0.081694
#
#
# Mechanical properties :
#
#
# Convention : Reuss Voigt Hill
#
# Bulk Modulus (GPa) = 45.23050 48.09539 46.66295
# Shear Modulus (GPa) = 20.74929 27.69512 24.22221
#
# Velocity S-wave (km/s) = 3.15634 3.64657 3.41028
# Velocity P-wave (km/s) = 5.91610 6.38923 6.15721
#
# Compressibility (1/GPa) = 0.02210897
#
# Stress axis : x y z
#
# Youngs Moduli (GPa) = 104.24178 44.24705 83.98354
#
# Poissons Ratio (x) = 0.13710 -0.00191
# Poissons Ratio (y) = 0.32300 0.66515
# Poissons Ratio (z) = -0.00237 0.35043
#
# Static dielectric constant tensor:
#      x y z
#    x 3.974010 0.000000 0.167250 
#    y 0.000000 3.497220 0.000000 
#    z 0.167250 0.000000 3.829410 
# 
# 
# High freq. dielectric constant tensor:
#      x y z
#    x 1.832600 0.000000 0.010850 
#    y 0.000000 1.786590 0.000000 
#    z 0.010850 0.000000 1.811050 
# 
# From -- ./inp_files/60500.got.cif
#   From: 2010.06.25/outbox.cif.g09.slc.cpg/sg15_31_cif.got.tgz:60500.got - 2010.06.28 07:06:18.
