data_PCOD8143437
_publ_section_title
;
Structure prediction by ZEFSAII (Michael W. Deem and Ramdas Pophale) SiO2 
 PCOD8143437
Probable space group: C 2/C
;
_chemical_formula_sum "Si O2"
_cell_formula_units_Z 56
_cell_length_a 11.656957
_cell_length_b 28.115175
_cell_length_c 11.542100
_cell_angle_alpha 90.000000
_cell_angle_beta 130.381946
_cell_angle_gamma 90.000000
_cell_volume 2881.502505
_symmetry_space_group_name_H-M "C 2/C"
_symmetry_group_IT_number 15
_symmetry_cell_setting 'monoclinic'
loop_
_space_group_symop_operation_xyz
x,y,z
-x,y,1/2-z
-x,-y,-z
x,-y,1/2+z
1/2+x,1/2+y,z
1/2-x,1/2+y,1/2-z
1/2-x,1/2-y,-z
1/2+x,1/2-y,1/2+z
loop_
_atom_site_type_symbol
_atom_site_label
_atom_site_fract_x
_atom_site_fract_y
_atom_site_fract_z
Si Si1 0.000000 0.461896 0.250000
Si Si2 0.077992 0.351844 0.687038
Si Si3 0.302390 0.079797 0.423678
Si Si4 0.077203 0.254606 0.916611
Si Si5 0.271891 0.507063 0.312861
Si Si6 0.500000 0.634528 0.250000
Si Si7 0.922043 0.165983 0.442855
Si Si8 0.007824 0.932170 0.394221
O O1 0.895387 0.495627 0.257139
O O2 0.099835 0.429480 0.399226
O O3 0.092322 0.389408 0.593084
O O4 0.242007 0.334469 0.832644
O O5 0.000000 0.375194 0.750000
O O6 0.975873 0.307244 0.578340
O O7 0.243827 0.032863 0.320572
O O8 0.149630 0.103897 0.366387
O O9 0.000000 0.238514 0.750000
O O10 0.250000 0.250000 0.000000
O O11 0.021824 0.216568 0.974641
O O12 0.363671 0.458458 0.354481
O O13 0.345575 0.540887 0.459254
O O14 0.479817 0.666497 0.349568
O O15 0.990986 0.122056 0.560806
O O16 0.000000 0.933679 0.250000
#
# Coordination Sequence:
#
# PCOD8143437 Si02
#       8
#     4   8   8   8   8   4   8   8
#     4  12  26  40  59 100 130 166 223 268 324 382
#     4  10  21  40  67  91 127 169 208 257 337 378
#     4  11  24  44  66  88 134 175 212 270 323 387
#     4  11  21  41  67  97 129 158 213 270 322 383
#     4  11  24  41  63  91 134 176 211 274 328 379
#     4  10  22  44  67  84 126 178 217 244 334 398
#     4  11  21  41  64  95 124 172 205 270 316 385
#     4  11  23  39  65  97 125 168 231 258 319 392
#
# _framework density 19.434305999999999
#
# number of rings (size 3 to 8) (size 9 to 14) (size 15 to 20)
#    0.000    1.143    5.714    2.571    4.000    1.143 
#    5.143    3.571    0.000    0.000    0.000    0.000 
#    0.000    0.000    0.000    0.000    0.000    0.000 
#
# Total GULP energy -347146.118016 kJ/mol
# GULP energy per Si atom -12398.075643 kJ/mol
# Density = 1.939007 g / cm^3
# Si number density = 19.434306 Si / 1000 Ang^3
#
#
#
# Elastic Constant Matrix: (Units=GPa)
#
#
# Indices 1 2 3 4 5 6 
#
# 1 119.5697 30.8453 37.5424 0.0000 4.8460 0.0000
# 2 30.8453 91.1982 32.0505 0.0000 3.0180 0.0000
# 3 37.5424 32.0505 124.9885 0.0000 -7.6557 0.0000
# 4 0.0000 0.0000 0.0000 18.6197 0.0000 9.9359
# 5 4.8460 3.0180 -7.6557 0.0000 34.4635 0.0000
# 6 0.0000 0.0000 0.0000 9.9359 0.0000 9.8736
#
#
#
# Elastic Compliance Matrix: (Units=1/GPa)
#
#
# Indices 1 2 3 4 5 6 
#
# 1 0.009819 -0.002408 -0.002437 0.000000 -0.001711 0.000000
# 2 -0.002408 0.012749 -0.002629 0.000000 -0.001362 0.000000
# 3 -0.002437 -0.002629 0.009572 0.000000 0.002699 0.000000
# 4 0.000000 0.000000 0.000000 0.115995 0.000000 -0.116727
# 5 -0.001711 -0.001362 0.002699 0.000000 0.029976 0.000000
# 6 0.000000 0.000000 0.000000 -0.116727 0.000000 0.218743
#
#
# Mechanical properties :
#
#
# Convention : Reuss Voigt Hill
#
# Bulk Modulus (GPa) = 58.16662 59.62587 58.89625
# Shear Modulus (GPa) = 11.97513 28.27923 20.12718
#
# Velocity S-wave (km/s) = 2.48500 3.81874 3.22165
# Velocity P-wave (km/s) = 6.18292 7.08456 6.64904
#
# Compressibility (1/GPa) = 0.01719199
#
# Stress axis : x y z
#
# Youngs Moduli (GPa) = 101.84431 78.43952 104.46982
#
# Poissons Ratio (x) = 0.18889 0.25455
# Poissons Ratio (y) = 0.24525 0.27468
# Poissons Ratio (z) = 0.24815 0.20624
#
# Static dielectric constant tensor:
#      x y z
#    x 3.820900 0.000000 0.068200 
#    y 0.000000 3.613510 0.000000 
#    z 0.068200 0.000000 3.631640 
# 
# 
# High freq. dielectric constant tensor:
#      x y z
#    x 1.767590 0.000000 0.001560 
#    y 0.000000 1.752010 0.000000 
#    z 0.001560 0.000000 1.762000 
# 
# From -- ./inp_files/92128.got.cif
#   From: 2010.06.25/outbox.cif.g09.slc.cpg/sg15_47_cif.got.tgz:92128.got - 2010.06.28 07:06:18.
