data_PCOD8143413
_publ_section_title
;
Structure prediction by ZEFSAII (Michael W. Deem and Ramdas Pophale) SiO2 
 PCOD8143413
Probable space group: C 2/C
;
_chemical_formula_sum "Si O2"
_cell_formula_units_Z 64
_cell_length_a 16.133238
_cell_length_b 17.631811
_cell_length_c 16.378379
_cell_angle_alpha 90.000000
_cell_angle_beta 41.137896
_cell_angle_gamma 90.000000
_cell_volume 3065.009202
_symmetry_space_group_name_H-M "C 2/C"
_symmetry_group_IT_number 15
_symmetry_cell_setting 'monoclinic'
loop_
_space_group_symop_operation_xyz
x,y,z
-x,y,1/2-z
-x,-y,-z
x,-y,1/2+z
1/2+x,1/2+y,z
1/2-x,1/2+y,1/2-z
1/2-x,1/2-y,-z
1/2+x,1/2-y,1/2+z
loop_
_atom_site_type_symbol
_atom_site_label
_atom_site_fract_x
_atom_site_fract_y
_atom_site_fract_z
Si Si1 0.149457 0.195845 0.124151
Si Si2 0.712718 0.318878 0.897577
Si Si3 0.234212 0.115529 0.794675
Si Si4 0.301600 0.544767 0.505762
Si Si5 0.813511 0.288584 0.651345
Si Si6 0.487634 0.442183 0.436726
Si Si7 0.120901 0.583152 0.107499
Si Si8 0.914743 0.662392 0.530562
O O1 0.210942 0.176388 0.165738
O O2 0.000000 0.223569 0.250000
O O3 0.250000 0.250000 0.000000
O O4 0.147568 0.117885 0.077069
O O5 0.793421 0.323292 0.755516
O O6 0.794367 0.350711 0.912943
O O7 0.671722 0.231489 0.938403
O O8 0.588961 0.368715 0.977535
O O9 0.244569 0.063183 0.867381
O O10 0.201265 0.199340 0.847998
O O11 0.359231 0.115710 0.648123
O O12 0.127035 0.086171 0.810950
O O13 0.419340 0.486317 0.414569
O O14 0.189645 0.498203 0.546183
O O15 0.956293 0.309175 0.524580
O O16 0.500000 0.500000 0.500000
O O17 0.000000 0.566909 0.250000
O O18 0.071721 0.606906 0.055463
#
# Coordination Sequence:
#
# PCOD8143413 Si02
#       8
#     8   8   8   8   8   8   8   8
#     4  12  29  46  72 104 139 178 234 291 341 415
#     4  10  21  40  66  96 132 177 221 276 336 405
#     4  10  21  40  67  98 130 171 226 280 334 398
#     4  10  24  45  63  94 137 186 218 279 338 406
#     4  11  23  40  71  99 129 169 224 279 340 395
#     4   9  19  37  68  88 127 174 221 267 333 392
#     4  11  23  44  63  98 142 182 223 277 352 407
#     4  11  23  40  69 101 133 173 232 282 335 415
#
# _framework density 20.880849999999999
#
# number of rings (size 3 to 8) (size 9 to 14) (size 15 to 20)
#    0.000    1.500    3.750    0.375    7.000    2.500 
#    4.500    3.125    0.000    0.000    0.000    0.000 
#    0.000    0.000    0.000    0.000    0.000    0.000 
#
# Total GULP energy -396471.410790 kJ/mol
# GULP energy per Si atom -12389.731587 kJ/mol
# Density = 2.083332 g / cm^3
# Si number density = 20.880850 Si / 1000 Ang^3
#
#
#
# Elastic Constant Matrix: (Units=GPa)
#
#
# Indices 1 2 3 4 5 6 
#
# 1 81.4707 -3.9758 32.0522 0.0002 -4.8737 -0.0001
# 2 -3.9758 46.2683 19.1100 0.0000 9.1612 -0.0001
# 3 32.0522 19.1100 97.0169 0.0002 -13.4162 -0.0003
# 4 0.0002 0.0000 0.0002 27.0097 -0.0002 -0.0540
# 5 -4.8737 9.1612 -13.4162 -0.0002 30.4862 0.0003
# 6 -0.0001 -0.0001 -0.0003 -0.0540 0.0003 30.3868
#
#
#
# Elastic Compliance Matrix: (Units=1/GPa)
#
#
# Indices 1 2 3 4 5 6 
#
# 1 0.014671 0.003940 -0.005816 0.000000 -0.001398 0.000000
# 2 0.003940 0.027627 -0.008310 0.000000 -0.011329 0.000000
# 3 -0.005816 -0.008310 0.014995 0.000000 0.008166 0.000000
# 4 0.000000 0.000000 0.000000 0.037024 0.000000 0.000066
# 5 -0.001398 -0.011329 0.008166 0.000000 0.039577 0.000000
# 6 0.000000 0.000000 0.000000 0.000066 0.000000 0.032909
#
#
# Mechanical properties :
#
#
# Convention : Reuss Voigt Hill
#
# Bulk Modulus (GPa) = 27.08545 35.45872 31.27209
# Shear Modulus (GPa) = 25.06469 29.41451 27.23960
#
# Velocity S-wave (km/s) = 3.46839 3.75732 3.61574
# Velocity P-wave (km/s) = 5.38881 5.98678 5.69565
#
# Compressibility (1/GPa) = 0.03692019
#
# Stress axis : x y z
#
# Youngs Moduli (GPa) = 68.16032 36.19622 66.68731
#
# Poissons Ratio (x) = -0.14261 0.38789
# Poissons Ratio (y) = -0.26855 0.55419
# Poissons Ratio (z) = 0.39645 0.30080
#
# Static dielectric constant tensor:
#      x y z
#    x 4.255600 0.000000 -0.304200 
#    y 0.000000 3.931570 0.000000 
#    z -0.304200 0.000000 3.818540 
# 
# 
# High freq. dielectric constant tensor:
#      x y z
#    x 1.821930 0.000000 -0.011770 
#    y 0.000000 1.819960 0.000000 
#    z -0.011770 0.000000 1.812150 
# 
# From -- ./inp_files/163250.got.cif
#   From: 2010.06.25/outbox.cif.g09.slc.cpg/sg15_82_cif.got.tgz:163250.got - 2010.06.28 07:06:18.
