data_PCOD8143302
_publ_section_title
;
Structure prediction by ZEFSAII (Michael W. Deem and Ramdas Pophale) SiO2 
 PCOD8143302
Probable space group: C 2/C
;
_chemical_formula_sum "Si O2"
_cell_formula_units_Z 60
_cell_length_a 24.417543
_cell_length_b 15.243040
_cell_length_c 14.226431
_cell_angle_alpha 90.000000
_cell_angle_beta 147.625755
_cell_angle_gamma 90.000000
_cell_volume 2835.216125
_symmetry_space_group_name_H-M "C 2/C"
_symmetry_group_IT_number 15
_symmetry_cell_setting 'monoclinic'
loop_
_space_group_symop_operation_xyz
x,y,z
-x,y,1/2-z
-x,-y,-z
x,-y,1/2+z
1/2+x,1/2+y,z
1/2-x,1/2+y,1/2-z
1/2-x,1/2-y,-z
1/2+x,1/2-y,1/2+z
loop_
_atom_site_type_symbol
_atom_site_label
_atom_site_fract_x
_atom_site_fract_y
_atom_site_fract_z
Si Si1 0.271882 0.370832 0.334954
Si Si2 0.093183 0.127558 0.724917
Si Si3 0.977607 0.187053 0.064033
Si Si4 0.096726 0.042980 0.335307
Si Si5 0.952441 0.529895 0.284801
Si Si6 0.061146 0.636374 0.604154
Si Si7 0.500000 0.264397 0.250000
Si Si8 0.195356 0.358381 0.024804
O O1 0.370047 0.306159 0.465993
O O2 0.309403 0.451377 0.454835
O O3 0.175810 0.328127 0.250743
O O4 0.230614 0.404114 0.174108
O O5 0.036669 0.121413 0.543759
O O6 0.015370 0.175627 0.681592
O O7 0.123410 0.028187 0.795331
O O8 0.200431 0.182682 0.869184
O O9 0.068239 0.140845 0.254681
O O10 0.998990 0.284171 0.058632
O O11 0.000000 0.003804 0.250000
O O12 0.941316 0.438509 0.320793
O O13 0.840801 0.569394 0.103057
O O14 0.000000 0.518125 0.250000
O O15 0.013724 0.600646 0.437557
O O16 0.396267 0.209060 0.085551
#
# Coordination Sequence:
#
# PCOD8143302 Si02
#       8
#     8   8   8   8   8   8   4   8
#     4  10  21  40  65  89 131 170 210 273 313 388
#     4  11  22  38  64  93 121 168 217 261 327 390
#     4  10  23  40  65  91 130 170 217 270 324 387
#     4  10  21  41  62  88 127 167 210 269 320 381
#     4  11  22  41  69  96 137 170 214 278 324 394
#     4  11  23  42  68  98 131 178 218 263 340 386
#     4  12  22  38  64  90 128 162 206 278 320 388
#     4  11  21  39  64  91 128 167 209 268 328 375
#
# _framework density 21.162407999999999
#
# number of rings (size 3 to 8) (size 9 to 14) (size 15 to 20)
#    0.000    1.333    2.667    3.200    0.000    3.200 
#    0.000    1.333    5.867    0.000    0.000    0.000 
#    0.000    0.000    0.000    0.000    0.000    0.000 
#
# Total GULP energy -371651.014387 kJ/mol
# GULP energy per Si atom -12388.367146 kJ/mol
# Density = 2.111424 g / cm^3
# Si number density = 21.162408 Si / 1000 Ang^3
#
#
#
# Elastic Constant Matrix: (Units=GPa)
#
#
# Indices 1 2 3 4 5 6 
#
# 1 120.3747 48.9274 49.3692 0.0000 4.1577 0.0000
# 2 48.9274 102.9693 43.8756 0.0000 -0.3629 0.0000
# 3 49.3692 43.8756 119.3160 0.0000 -6.1423 0.0000
# 4 0.0000 0.0000 0.0000 17.4846 0.0000 -3.9270
# 5 4.1577 -0.3629 -6.1423 0.0000 38.1188 0.0000
# 6 0.0000 0.0000 0.0000 -3.9270 0.0000 19.8932
#
#
#
# Elastic Compliance Matrix: (Units=1/GPa)
#
#
# Indices 1 2 3 4 5 6 
#
# 1 0.011353 -0.003984 -0.003326 0.000000 -0.001812 0.000000
# 2 -0.003984 0.012927 -0.003102 0.000000 0.000058 0.000000
# 3 -0.003326 -0.003102 0.011006 0.000000 0.002107 0.000000
# 4 0.000000 0.000000 0.000000 0.059846 0.000000 0.011814
# 5 -0.001812 0.000058 0.002107 0.000000 0.026771 0.000000
# 6 0.000000 0.000000 0.000000 0.011814 0.000000 0.052600
#
#
# Mechanical properties :
#
#
# Convention : Reuss Voigt Hill
#
# Bulk Modulus (GPa) = 69.14400 69.66715 69.40557
# Shear Modulus (GPa) = 24.98133 28.46519 26.72326
#
# Velocity S-wave (km/s) = 3.43951 3.67152 3.55740
# Velocity P-wave (km/s) = 6.96546 7.13898 7.05275
#
# Compressibility (1/GPa) = 0.01446257
#
# Stress axis : x y z
#
# Youngs Moduli (GPa) = 88.07971 77.35956 90.85569
#
# Poissons Ratio (x) = 0.30819 0.30218
# Poissons Ratio (y) = 0.35090 0.28184
# Poissons Ratio (z) = 0.29295 0.23998
#
# Static dielectric constant tensor:
#      x y z
#    x 4.146780 0.000000 -0.011350 
#    y 0.000000 3.425000 0.000000 
#    z -0.011350 0.000000 4.122360 
# 
# 
# High freq. dielectric constant tensor:
#      x y z
#    x 1.850470 0.000000 -0.004030 
#    y 0.000000 1.791160 0.000000 
#    z -0.004030 0.000000 1.845710 
# 
# From -- ./inp_files/178560.got.cif
#   From: 2010.06.25/outbox.cif.g09.slc.cpg/sg15_90_cif.got.tgz:178560.got - 2010.06.28 07:06:18.
