data_PCOD8143113
_publ_section_title
;
Structure prediction by ZEFSAII (Michael W. Deem and Ramdas Pophale) SiO2 
 PCOD8143113
Probable space group: C 2/C
;
_chemical_formula_sum "Si O2"
_cell_formula_units_Z 48
_cell_length_a 11.381567
_cell_length_b 22.480719
_cell_length_c 13.650855
_cell_angle_alpha 90.000000
_cell_angle_beta 38.720484
_cell_angle_gamma 90.000000
_cell_volume 2184.813860
_symmetry_space_group_name_H-M "C 2/C"
_symmetry_group_IT_number 15
_symmetry_cell_setting 'monoclinic'
loop_
_space_group_symop_operation_xyz
x,y,z
-x,y,1/2-z
-x,-y,-z
x,-y,1/2+z
1/2+x,1/2+y,z
1/2-x,1/2+y,1/2-z
1/2-x,1/2-y,-z
1/2+x,1/2-y,1/2+z
loop_
_atom_site_type_symbol
_atom_site_label
_atom_site_fract_x
_atom_site_fract_y
_atom_site_fract_z
Si Si1 0.990575 0.051090 0.871576
Si Si2 0.518797 0.766884 0.465660
Si Si3 0.215648 0.548393 0.316167
Si Si4 0.888377 0.504035 0.913080
Si Si5 0.915039 0.819607 0.198766
Si Si6 0.355283 0.330467 0.763423
O O1 0.039825 0.116551 0.881401
O O2 0.000000 0.054702 0.750000
O O3 0.141683 0.003180 0.812495
O O4 0.778236 0.031463 0.034783
O O5 0.690789 0.812879 0.352771
O O6 0.505774 0.733887 0.578325
O O7 0.538690 0.718218 0.369034
O O8 0.331574 0.803934 0.565601
O O9 0.186815 0.549003 0.454404
O O10 0.302173 0.612157 0.232171
O O11 0.018937 0.542561 0.387514
O O12 0.000000 0.535622 0.750000
O O13 0.000000 0.814679 0.250000
O O14 0.500000 0.353112 0.750000
#
# Coordination Sequence:
#
# PCOD8143113 Si02
#       6
#     8   8   8   8   8   8
#     4   9  20  39  61  89 125 160 196 253 311 358
#     4  10  24  40  62  93 117 171 211 254 304 359
#     4  10  23  42  64  92 128 162 202 253 313 372
#     4  10  22  39  62  97 126 158 201 247 315 368
#     4  10  21  40  62  91 128 160 202 255 310 373
#     4  11  23  44  65  87 124 163 213 261 304 362
#
# _framework density 21.969833999999999
#
# number of rings (size 3 to 8) (size 9 to 14) (size 15 to 20)
#    0.000    2.000    0.000    2.500   11.667    0.667 
#    3.000    0.833    0.000    0.000    0.000    0.000 
#    0.000    0.000    0.000    0.000    0.000    0.000 
#
# Total GULP energy -297584.002257 kJ/mol
# GULP energy per Si atom -12399.333427 kJ/mol
# Density = 2.191983 g / cm^3
# Si number density = 21.969834 Si / 1000 Ang^3
#
#
#
# Elastic Constant Matrix: (Units=GPa)
#
#
# Indices 1 2 3 4 5 6 
#
# 1 79.1933 30.8677 30.0362 -0.0002 -27.7021 0.0007
# 2 30.8677 110.5310 24.3541 -0.0001 -29.0562 0.0001
# 3 30.0362 24.3541 105.0557 -0.0014 -19.1804 0.0011
# 4 -0.0002 -0.0001 -0.0014 17.6029 0.0008 -19.6431
# 5 -27.7021 -29.0562 -19.1804 0.0008 33.0485 -0.0008
# 6 0.0007 0.0001 0.0011 -19.6431 -0.0008 32.4385
#
#
#
# Elastic Compliance Matrix: (Units=1/GPa)
#
#
# Indices 1 2 3 4 5 6 
#
# 1 0.018673 -0.001195 -0.002680 -0.000002 0.013047 -0.000001
# 2 -0.001195 0.011927 -0.000774 0.000000 0.009035 0.000000
# 3 -0.002680 -0.000774 0.011107 0.000001 0.003520 0.000001
# 4 -0.000002 0.000000 0.000001 0.175189 -0.000003 0.106085
# 5 0.013047 0.009035 0.003520 -0.000003 0.051181 -0.000001
# 6 -0.000001 0.000000 0.000001 0.106085 -0.000001 0.095067
#
#
# Mechanical properties :
#
#
# Convention : Reuss Voigt Hill
#
# Bulk Modulus (GPa) = 30.85439 51.69955 41.27697
# Shear Modulus (GPa) = 13.04651 30.58611 21.81631
#
# Velocity S-wave (km/s) = 2.43952 3.73525 3.15463
# Velocity P-wave (km/s) = 4.69143 6.49507 5.66548
#
# Compressibility (1/GPa) = 0.03241030
#
# Stress axis : x y z
#
# Youngs Moduli (GPa) = 53.55284 83.84665 90.03418
#
# Poissons Ratio (x) = 0.10017 0.24128
# Poissons Ratio (y) = 0.06398 0.06965
# Poissons Ratio (z) = 0.14351 0.06487
#
# Static dielectric constant tensor:
#      x y z
#    x 3.865980 0.000000 -0.257350 
#    y 0.000000 4.001530 0.000000 
#    z -0.257350 0.000000 4.279550 
# 
# 
# High freq. dielectric constant tensor:
#      x y z
#    x 1.861690 0.000000 -0.012500 
#    y 0.000000 1.852400 0.000000 
#    z -0.012500 0.000000 1.875320 
# 
# From -- ./inp_files/31912.got.cif
#   From: 2010.06.25/outbox.cif.g09.slc.cpg/sg15_16_cif.got.tgz:31912.got - 2010.06.28 07:06:18.
