data_PCOD8143414
_publ_section_title
;
Structure prediction by ZEFSAII (Michael W. Deem and Ramdas Pophale) SiO2 
 PCOD8143414
Probable space group: C 2/C
;
_chemical_formula_sum "Si O2"
_cell_formula_units_Z 48
_cell_length_a 8.156568
_cell_length_b 14.099779
_cell_length_c 18.535178
_cell_angle_alpha 90.000000
_cell_angle_beta 96.246441
_cell_angle_gamma 90.000000
_cell_volume 2118.997675
_symmetry_space_group_name_H-M "C 2/C"
_symmetry_group_IT_number 15
_symmetry_cell_setting 'monoclinic'
loop_
_space_group_symop_operation_xyz
x,y,z
-x,y,1/2-z
-x,-y,-z
x,-y,1/2+z
1/2+x,1/2+y,z
1/2-x,1/2+y,1/2-z
1/2-x,1/2-y,-z
1/2+x,1/2-y,1/2+z
loop_
_atom_site_type_symbol
_atom_site_label
_atom_site_fract_x
_atom_site_fract_y
_atom_site_fract_z
Si Si1 0.355411 0.248064 0.289221
Si Si2 0.645471 0.055563 0.969717
Si Si3 0.351517 0.400862 0.796280
Si Si4 0.988601 0.281046 0.953891
Si Si5 0.658603 0.380607 0.539579
Si Si6 0.151431 0.422802 0.304694
O O1 0.500000 0.297945 0.250000
O O2 0.305803 0.155096 0.241942
O O3 0.418360 0.223536 0.371122
O O4 0.198246 0.316133 0.286459
O O5 0.597161 0.069149 0.884552
O O6 0.815692 0.992104 0.983670
O O7 0.649521 0.160332 0.006292
O O8 0.500000 0.000000 0.000000
O O9 0.500000 0.380460 0.750000
O O10 0.395839 0.369077 0.879762
O O11 0.308150 0.511555 0.795388
O O12 0.162930 0.333742 0.963081
O O13 0.018593 0.173805 0.985975
O O14 0.000000 0.457234 0.250000
#
# Coordination Sequence:
#
# PCOD8143414 Si02
#       6
#     8   8   8   8   8   8
#     4  12  25  43  68 101 140 178 229 281 346 410
#     4   9  21  40  65  96 129 178 228 279 344 409
#     4  11  24  45  67  99 136 180 225 285 340 409
#     4  10  21  40  66  96 133 179 224 284 344 408
#     4   9  20  41  66  95 134 175 230 276 347 406
#     4  11  26  44  69  99 135 182 231 280 345 414
#
# _framework density 22.652218999999999
#
# number of rings (size 3 to 8) (size 9 to 14) (size 15 to 20)
#    0.000    1.667    1.667    1.500    9.333    2.000 
#    3.000    1.667    0.000    0.000    0.000    0.000 
#    0.000    0.000    0.000    0.000    0.000    0.000 
#
# Total GULP energy -297540.294251 kJ/mol
# GULP energy per Si atom -12397.512260 kJ/mol
# Density = 2.260066 g / cm^3
# Si number density = 22.652219 Si / 1000 Ang^3
#
#
#
# Elastic Constant Matrix: (Units=GPa)
#
#
# Indices 1 2 3 4 5 6 
#
# 1 55.7138 22.6878 33.3267 0.0000 -18.6494 0.0000
# 2 22.6878 113.6963 50.0245 0.0000 -10.2162 0.0000
# 3 33.3267 50.0245 149.8666 0.0000 -21.2656 0.0000
# 4 0.0000 0.0000 0.0000 6.7073 0.0000 -15.6376
# 5 -18.6494 -10.2162 -21.2656 0.0000 31.7210 0.0000
# 6 0.0000 0.0000 0.0000 -15.6376 0.0000 -2.0708
#
#
#
# Elastic Compliance Matrix: (Units=1/GPa)
#
#
# Indices 1 2 3 4 5 6 
#
# 1 0.024687 -0.002567 -0.002974 0.000000 0.011694 0.000000
# 2 -0.002567 0.010613 -0.002985 0.000000 -0.000092 0.000000
# 3 -0.002974 -0.002985 0.008781 0.000000 0.003177 0.000000
# 4 0.000000 0.000000 0.000000 0.008013 0.000000 -0.060511
# 5 0.011694 -0.000092 0.003177 0.000000 0.040500 0.000000
# 6 0.000000 0.000000 0.000000 -0.060511 0.000000 -0.025955
#
#
# Mechanical properties :
#
#
# Convention : Reuss Voigt Hill
#
# Bulk Modulus (GPa) = 36.99593 59.03941 48.01767
# Shear Modulus (GPa) = 53.93718 21.48735 37.71227
#
# Velocity S-wave (km/s) = 4.88494 3.08324 4.08467
# Velocity P-wave (km/s) = 6.94151 6.22857 6.59468
#
# Compressibility (1/GPa) = 0.02703000
#
# Stress axis : x y z
#
# Youngs Moduli (GPa) = 40.50648 94.22828 113.88302
#
# Poissons Ratio (x) = 0.24190 0.33865
# Poissons Ratio (y) = 0.10399 0.33990
# Poissons Ratio (z) = 0.12045 0.28123
#
# Static dielectric constant tensor:
#      x y z
#    x 3.953260 0.000000 -0.212610 
#    y 0.000000 6.171120 0.000000 
#    z -0.212610 0.000000 4.066990 
# 
# 
# High freq. dielectric constant tensor:
#      x y z
#    x 1.884280 0.000000 -0.014630 
#    y 0.000000 1.905420 0.000000 
#    z -0.014630 0.000000 1.901100 
# 
# From -- ./inp_files/189265.got.cif
#   From: 2010.06.25/outbox.cif.g09.slc.cpg/sg15_95_cif.got.tgz:189265.got - 2010.06.28 07:06:18.
