data_PCOD8143256
_publ_section_title
;
Structure prediction by ZEFSAII (Michael W. Deem and Ramdas Pophale) SiO2 
 PCOD8143256
Probable space group: C 2/C
;
_chemical_formula_sum "Si O2"
_cell_formula_units_Z 56
_cell_length_a 8.088608
_cell_length_b 20.721750
_cell_length_c 15.293864
_cell_angle_alpha 90.000000
_cell_angle_beta 89.881229
_cell_angle_gamma 90.000000
_cell_volume 2563.400763
_symmetry_space_group_name_H-M "C 2/C"
_symmetry_group_IT_number 15
_symmetry_cell_setting 'monoclinic'
loop_
_space_group_symop_operation_xyz
x,y,z
-x,y,1/2-z
-x,-y,-z
x,-y,1/2+z
1/2+x,1/2+y,z
1/2-x,1/2+y,1/2-z
1/2-x,1/2-y,-z
1/2+x,1/2-y,1/2+z
loop_
_atom_site_type_symbol
_atom_site_label
_atom_site_fract_x
_atom_site_fract_y
_atom_site_fract_z
Si Si1 0.656783 0.615097 0.102870
Si Si2 0.803882 0.209910 0.751788
Si Si3 0.688306 0.144278 0.224111
Si Si4 0.372264 0.240679 0.920586
Si Si5 0.127957 0.550366 0.537724
Si Si6 0.129897 0.639336 0.905018
Si Si7 0.811502 0.070989 0.061231
O O1 0.715278 0.603154 0.202033
O O2 0.582123 0.686876 0.105502
O O3 0.506681 0.569385 0.076326
O O4 0.806306 0.601784 0.034827
O O5 0.754999 0.281308 0.785154
O O6 0.725680 0.201922 0.655558
O O7 0.721522 0.156521 0.814959
O O8 0.000000 0.197921 0.750000
O O9 0.500000 0.145005 0.250000
O O10 0.709403 0.109729 0.132861
O O11 0.543348 0.204193 0.944848
O O12 0.250000 0.250000 0.000000
O O13 0.274941 0.505497 0.572425
O O14 0.000000 0.500000 0.500000
O O15 0.026223 0.590679 0.610777
O O16 0.261120 0.605145 0.969738
#
# Coordination Sequence:
#
# PCOD8143256 Si02
#       7
#     8   8   8   8   8   8   8
#     4  11  22  41  66  95 131 166 224 272 319 390
#     4  10  24  40  63 100 137 165 214 269 328 395
#     4  10  21  40  64  94 131 170 213 266 322 390
#     4  11  23  40  68  95 133 174 212 265 335 398
#     4  10  22  42  64  89 124 173 218 263 324 389
#     4  11  23  41  65  96 133 169 213 269 333 384
#     4  11  24  39  68  96 127 173 223 266 324 388
#
# _framework density 21.845980000000001
#
# number of rings (size 3 to 8) (size 9 to 14) (size 15 to 20)
#    0.000    1.429    1.429    3.857    6.000    3.429 
#    0.000    7.143    0.000    0.000    0.000    0.000 
#    0.000    0.000    0.000    0.000    0.000    0.000 
#
# Total GULP energy -346982.000958 kJ/mol
# GULP energy per Si atom -12392.214320 kJ/mol
# Density = 2.179626 g / cm^3
# Si number density = 21.845980 Si / 1000 Ang^3
#
#
#
# Elastic Constant Matrix: (Units=GPa)
#
#
# Indices 1 2 3 4 5 6 
#
# 1 98.9385 46.8818 35.5290 0.0000 -0.0934 0.0000
# 2 46.8818 99.8279 43.4993 0.0000 -3.3263 0.0000
# 3 35.5290 43.4993 124.2008 0.0000 -9.3497 0.0000
# 4 0.0000 0.0000 0.0000 26.7313 0.0000 -3.4347
# 5 -0.0934 -3.3263 -9.3497 0.0000 40.1447 0.0000
# 6 0.0000 0.0000 0.0000 -3.4347 0.0000 35.0277
#
#
#
# Elastic Compliance Matrix: (Units=1/GPa)
#
#
# Indices 1 2 3 4 5 6 
#
# 1 0.013408 -0.005459 -0.001990 0.000000 -0.000885 0.000000
# 2 -0.005459 0.014044 -0.003329 0.000000 0.000376 0.000000
# 3 -0.001990 -0.003329 0.009940 0.000000 0.002035 0.000000
# 4 0.000000 0.000000 0.000000 0.037887 0.000000 0.003715
# 5 -0.000885 0.000376 0.002035 0.000000 0.025413 0.000000
# 6 0.000000 0.000000 0.000000 0.003715 0.000000 0.028913
#
#
# Mechanical properties :
#
#
# Convention : Reuss Voigt Hill
#
# Bulk Modulus (GPa) = 63.14811 63.86527 63.50669
# Shear Modulus (GPa) = 31.96146 33.51789 32.73968
#
# Velocity S-wave (km/s) = 3.82912 3.92124 3.87545
# Velocity P-wave (km/s) = 6.96551 7.05686 7.01133
#
# Compressibility (1/GPa) = 0.01583579
#
# Stress axis : x y z
#
# Youngs Moduli (GPa) = 74.58327 71.20514 100.60580
#
# Poissons Ratio (x) = 0.38871 0.20022
# Poissons Ratio (y) = 0.40715 0.33489
# Poissons Ratio (z) = 0.14843 0.23703
#
# Static dielectric constant tensor:
#      x y z
#    x 9.041180 0.000000 6.568060 
#    y 0.000000 4.835320 0.000000 
#    z 6.568060 0.000000 12.467720 
# 
# 
# High freq. dielectric constant tensor:
#      x y z
#    x 1.873650 0.000000 -0.007230 
#    y 0.000000 1.858780 0.000000 
#    z -0.007230 0.000000 1.842880 
# 
# From -- ./inp_files/136437.got.cif
#   From: 2010.06.25/outbox.cif.g09.slc.cpg/sg15_69_cif.got.tgz:136437.got - 2010.06.28 07:06:18.
