data_PCOD8143776
_publ_section_title
;
Structure prediction by ZEFSAII (Michael W. Deem and Ramdas Pophale) SiO2 
 PCOD8143776
Probable space group: C 2/C
;
_chemical_formula_sum "Si O2"
_cell_formula_units_Z 48
_cell_length_a 18.278892
_cell_length_b 9.036244
_cell_length_c 19.615159
_cell_angle_alpha 90.000000
_cell_angle_beta 133.760563
_cell_angle_gamma 90.000000
_cell_volume 2339.963374
_symmetry_space_group_name_H-M "C 2/C"
_symmetry_group_IT_number 15
_symmetry_cell_setting 'monoclinic'
loop_
_space_group_symop_operation_xyz
x,y,z
-x,y,1/2-z
-x,-y,-z
x,-y,1/2+z
1/2+x,1/2+y,z
1/2-x,1/2+y,1/2-z
1/2-x,1/2-y,-z
1/2+x,1/2-y,1/2+z
loop_
_atom_site_type_symbol
_atom_site_label
_atom_site_fract_x
_atom_site_fract_y
_atom_site_fract_z
Si Si1 0.801619 0.338528 0.092449
Si Si2 0.701653 0.319893 0.775594
Si Si3 0.247623 0.175238 0.070956
Si Si4 0.671483 0.657883 0.753390
Si Si5 0.480043 0.662531 0.165729
Si Si6 0.534445 0.568064 0.950233
O O1 0.756123 0.264292 0.131305
O O2 0.790076 0.511861 0.088963
O O3 0.919912 0.305830 0.153912
O O4 0.750000 0.250000 0.000000
O O5 0.719730 0.495567 0.791515
O O6 0.757577 0.259657 0.746332
O O7 0.581973 0.286670 0.693112
O O8 0.323695 0.264691 0.169612
O O9 0.250000 0.250000 0.000000
O O10 0.131154 0.174776 0.024428
O O11 0.558462 0.650794 0.648123
O O12 0.500000 0.570373 0.250000
O O13 0.422199 0.559379 0.073317
O O14 0.500000 0.500000 0.000000
#
# Coordination Sequence:
#
# PCOD8143776 Si02
#       6
#     8   8   8   8   8   8
#     4  11  20  39  68  93 128 169 224 281 338 408
#     4  10  21  41  64  93 128 173 219 274 342 398
#     4  12  26  43  64 102 141 174 232 288 350 415
#     4  11  24  43  68  96 139 177 228 288 340 414
#     4   9  20  37  68  94 123 173 227 271 336 413
#     4  11  23  43  71  96 132 189 229 275 356 426
#
# _framework density 20.513141999999998
#
# number of rings (size 3 to 8) (size 9 to 14) (size 15 to 20)
#    0.000    1.333    1.667    5.000    4.667    0.000 
#   12.000    0.833    0.000    0.000    0.000    0.000 
#    0.000    0.000    0.000    0.000    0.000    0.000 
#
# Total GULP energy -297428.298369 kJ/mol
# GULP energy per Si atom -12392.845765 kJ/mol
# Density = 2.046645 g / cm^3
# Si number density = 20.513142 Si / 1000 Ang^3
#
#
#
# Elastic Constant Matrix: (Units=GPa)
#
#
# Indices 1 2 3 4 5 6 
#
# 1 99.2632 42.2894 36.7897 0.0000 -7.0033 0.0000
# 2 42.2894 152.0707 51.2169 0.0000 -10.0458 0.0000
# 3 36.7897 51.2169 124.0741 0.0000 -15.5385 0.0000
# 4 0.0000 0.0000 0.0000 38.4014 0.0000 -7.7900
# 5 -7.0033 -10.0458 -15.5385 0.0000 35.2684 0.0000
# 6 0.0000 0.0000 0.0000 -7.7900 0.0000 39.3672
#
#
#
# Elastic Compliance Matrix: (Units=1/GPa)
#
#
# Indices 1 2 3 4 5 6 
#
# 1 0.012097 -0.002488 -0.002485 0.000000 0.000599 0.000000
# 2 -0.002488 0.008172 -0.002547 0.000000 0.000712 0.000000
# 3 -0.002485 -0.002547 0.010261 0.000000 0.003302 0.000000
# 4 0.000000 0.000000 0.000000 0.027130 0.000000 0.005368
# 5 0.000599 0.000712 0.003302 0.000000 0.030130 0.000000
# 6 0.000000 0.000000 0.000000 0.005368 0.000000 0.026464
#
#
# Mechanical properties :
#
#
# Convention : Reuss Voigt Hill
#
# Bulk Modulus (GPa) = 64.54913 70.66666 67.60789
# Shear Modulus (GPa) = 37.18612 38.94819 38.06715
#
# Velocity S-wave (km/s) = 4.26231 4.36213 4.31251
# Velocity P-wave (km/s) = 7.46717 7.73919 7.60440
#
# Compressibility (1/GPa) = 0.01549208
#
# Stress axis : x y z
#
# Youngs Moduli (GPa) = 82.66275 122.36258 97.45241
#
# Poissons Ratio (x) = 0.30439 0.24219
# Poissons Ratio (y) = 0.20563 0.24819
# Poissons Ratio (z) = 0.20543 0.31163
#
# Static dielectric constant tensor:
#      x y z
#    x 5.021430 0.000000 0.984020 
#    y 0.000000 3.784400 0.000000 
#    z 0.984020 0.000000 5.052230 
# 
# 
# High freq. dielectric constant tensor:
#      x y z
#    x 1.813730 0.000000 -0.009490 
#    y 0.000000 1.785310 0.000000 
#    z -0.009490 0.000000 1.819710 
# 
# From -- ./inp_files/247635.got.cif
#   From: 2010.06.25/outbox.cif.g09.slc.cpg/sg15_124_cif.got.tgz:247635.got - 2010.06.28 07:06:18.
