data_PCOD8143347
_publ_section_title
;
Structure prediction by ZEFSAII (Michael W. Deem and Ramdas Pophale) SiO2 
 PCOD8143347
Probable space group: C 2/C
;
_chemical_formula_sum "Si O2"
_cell_formula_units_Z 56
_cell_length_a 17.264601
_cell_length_b 30.928257
_cell_length_c 5.257431
_cell_angle_alpha 90.000000
_cell_angle_beta 100.475888
_cell_angle_gamma 90.000000
_cell_volume 2760.485877
_symmetry_space_group_name_H-M "C 2/C"
_symmetry_group_IT_number 15
_symmetry_cell_setting 'monoclinic'
loop_
_space_group_symop_operation_xyz
x,y,z
-x,y,1/2-z
-x,-y,-z
x,-y,1/2+z
1/2+x,1/2+y,z
1/2-x,1/2+y,1/2-z
1/2-x,1/2-y,-z
1/2+x,1/2-y,1/2+z
loop_
_atom_site_type_symbol
_atom_site_label
_atom_site_fract_x
_atom_site_fract_y
_atom_site_fract_z
Si Si1 0.305787 0.890894 0.762061
Si Si2 0.453014 0.358143 0.475339
Si Si3 0.921776 0.759334 0.562954
Si Si4 0.721551 0.633315 0.697698
Si Si5 0.412901 0.181901 0.215344
Si Si6 0.292593 0.220896 0.811753
Si Si7 0.090578 0.473044 0.803219
O O1 0.245788 0.879281 0.498833
O O2 0.365658 0.851745 0.859425
O O3 0.352957 0.932835 0.706393
O O4 0.263631 0.896081 0.008301
O O5 0.500000 0.369151 0.250000
O O6 0.439699 0.307375 0.492770
O O7 0.368791 0.380396 0.396301
O O8 0.500000 0.375898 0.750000
O O9 0.913482 0.730964 0.309070
O O10 0.835399 0.754493 0.646721
O O11 0.000000 0.740834 0.750000
O O12 0.730868 0.685748 0.659349
O O13 0.500000 0.162435 0.250000
O O14 0.364091 0.187878 0.927370
O O15 0.250000 0.250000 0.000000
O O16 0.108612 0.507041 0.590148
O O17 0.000000 0.457476 0.750000
#
# Coordination Sequence:
#
# PCOD8143347 Si02
#       7
#     8   8   8   8   8   8   8
#     4  11  23  39  61  90 121 155 192 247 290 350
#     4  11  25  40  59  79 111 156 205 255 302 360
#     4  11  22  35  54  75 105 155 209 260 295 357
#     4  11  24  40  58  86 117 152 200 255 307 352
#     4  11  21  35  51  74 110 148 199 244 296 339
#     4  11  24  35  53  75 110 152 202 260 308 348
#     4  10  21  40  65  96 131 169 200 228 278 356
#
# _framework density 20.286280999999999
#
# number of rings (size 3 to 8) (size 9 to 14) (size 15 to 20)
#    0.000    1.143    2.857    3.429   10.000    1.143 
#    0.000    2.143    0.000    0.000    0.000    0.000 
#    0.000   40.000    0.000    0.000    0.000    0.000 
#
# Total GULP energy -346967.945027 kJ/mol
# GULP energy per Si atom -12391.712322 kJ/mol
# Density = 2.024011 g / cm^3
# Si number density = 20.286281 Si / 1000 Ang^3
#
#
#
# Elastic Constant Matrix: (Units=GPa)
#
#
# Indices 1 2 3 4 5 6 
#
# 1 116.4721 12.5613 31.7726 0.0000 -1.9346 0.0000
# 2 12.5613 45.7994 4.9279 0.0000 -1.3776 0.0000
# 3 31.7726 4.9279 98.0349 0.0000 -9.4724 0.0000
# 4 0.0000 0.0000 0.0000 22.0325 0.0000 -6.4314
# 5 -1.9346 -1.3776 -9.4724 0.0000 37.1890 0.0000
# 6 0.0000 0.0000 0.0000 -6.4314 0.0000 24.5017
#
#
#
# Elastic Compliance Matrix: (Units=1/GPa)
#
#
# Indices 1 2 3 4 5 6 
#
# 1 0.009663 -0.002333 -0.003049 0.000000 -0.000360 0.000000
# 2 -0.002333 0.022527 -0.000315 0.000000 0.000633 0.000000
# 3 -0.003049 -0.000315 0.011470 0.000000 0.002751 0.000000
# 4 0.000000 0.000000 0.000000 0.049154 0.000000 0.012902
# 5 -0.000360 0.000633 0.002751 0.000000 0.027595 0.000000
# 6 0.000000 0.000000 0.000000 0.012902 0.000000 0.044200
#
#
# Mechanical properties :
#
#
# Convention : Reuss Voigt Hill
#
# Bulk Modulus (GPa) = 30.99256 39.87000 35.43128
# Shear Modulus (GPa) = 26.77229 30.81428 28.79329
#
# Velocity S-wave (km/s) = 3.63674 3.90163 3.77151
# Velocity P-wave (km/s) = 5.73980 6.32402 6.03898
#
# Compressibility (1/GPa) = 0.03226581
#
# Stress axis : x y z
#
# Youngs Moduli (GPa) = 103.48531 44.39085 87.18088
#
# Poissons Ratio (x) = 0.10357 0.26584
# Poissons Ratio (y) = 0.24144 0.02747
# Poissons Ratio (z) = 0.31556 0.01399
#
# Static dielectric constant tensor:
#      x y z
#    x 4.543270 0.000000 0.218830 
#    y 0.000000 3.197840 0.000000 
#    z 0.218830 0.000000 3.799020 
# 
# 
# High freq. dielectric constant tensor:
#      x y z
#    x 1.812660 0.000000 0.004990 
#    y 0.000000 1.737850 0.000000 
#    z 0.004990 0.000000 1.801790 
# 
# From -- ./inp_files/9063.got.cif
#   From: 2010.06.25/outbox.cif.g09.slc.cpg/sg15_5_cif.got.tgz:9063.got - 2010.06.28 07:06:18.
