data_PCOD8143627
_publ_section_title
;
Structure prediction by ZEFSAII (Michael W. Deem and Ramdas Pophale) SiO2 
 PCOD8143627
Probable space group: C 2/C
;
_chemical_formula_sum "Si O2"
_cell_formula_units_Z 60
_cell_length_a 22.903910
_cell_length_b 22.254353
_cell_length_c 8.903621
_cell_angle_alpha 90.000000
_cell_angle_beta 141.814183
_cell_angle_gamma 90.000000
_cell_volume 2805.627394
_symmetry_space_group_name_H-M "C 2/C"
_symmetry_group_IT_number 15
_symmetry_cell_setting 'monoclinic'
loop_
_space_group_symop_operation_xyz
x,y,z
-x,y,1/2-z
-x,-y,-z
x,-y,1/2+z
1/2+x,1/2+y,z
1/2-x,1/2+y,1/2-z
1/2-x,1/2-y,-z
1/2+x,1/2-y,1/2+z
loop_
_atom_site_type_symbol
_atom_site_label
_atom_site_fract_x
_atom_site_fract_y
_atom_site_fract_z
Si Si1 0.088032 0.944992 0.333646
Si Si2 0.861938 0.858668 0.512250
Si Si3 0.648934 0.859253 0.151816
Si Si4 0.382690 0.958624 0.644644
Si Si5 0.464617 0.911617 0.330206
Si Si6 0.174973 0.979929 0.222935
Si Si7 0.533989 0.671933 0.563878
Si Si8 0.000000 0.266458 0.750000
O O1 0.102988 0.985019 0.215871
O O2 0.078980 0.875508 0.272168
O O3 0.000000 0.970094 0.250000
O O4 0.174723 0.957992 0.626099
O O5 0.758300 0.840160 0.361529
O O6 0.861315 0.927761 0.461977
O O7 0.894067 0.818526 0.431534
O O8 0.933940 0.850742 0.796049
O O9 0.615089 0.869247 0.255325
O O10 0.625750 0.924036 0.030660
O O11 0.592660 0.806392 0.957556
O O12 0.277724 0.965912 0.499899
O O13 0.426061 0.023501 0.702476
O O14 0.445199 0.917847 0.879550
O O15 0.500000 0.878789 0.250000
O O16 0.517683 0.730545 0.631161
#
# Coordination Sequence:
#
# PCOD8143627 Si02
#       8
#     8   8   8   8   8   8   8   4
#     4  11  23  37  57  90 130 171 210 265 329 393
#     4   9  23  45  67  94 132 170 215 275 336 390
#     4  11  23  45  68  97 133 175 219 271 329 398
#     4  10  21  41  61  94 134 172 204 260 330 400
#     4  11  22  37  65  95 133 167 208 263 329 398
#     4  10  24  34  62  95 129 167 209 259 331 412
#     4  10  23  45  66  92 130 175 223 277 326 380
#     4  12  24  44  72  92 126 178 228 284 326 366
#
# _framework density 21.385591000000002
#
# number of rings (size 3 to 8) (size 9 to 14) (size 15 to 20)
#    0.000    1.600    2.000    2.000   11.200    1.067 
#    2.400    0.000    0.000    0.000    0.000    0.000 
#    0.000    0.000    0.000    0.000    0.000    0.000 
#
# Total GULP energy -371868.621203 kJ/mol
# GULP energy per Si atom -12395.620707 kJ/mol
# Density = 2.133692 g / cm^3
# Si number density = 21.385591 Si / 1000 Ang^3
#
#
#
# Elastic Constant Matrix: (Units=GPa)
#
#
# Indices 1 2 3 4 5 6 
#
# 1 177.6729 43.6183 67.9814 0.0000 9.2596 0.0000
# 2 43.6183 60.0669 36.1923 0.0000 5.7571 0.0000
# 3 67.9814 36.1923 78.7985 0.0000 22.4438 0.0000
# 4 0.0000 0.0000 0.0000 13.8392 0.0000 -1.5250
# 5 9.2596 5.7571 22.4438 0.0000 27.7216 0.0000
# 6 0.0000 0.0000 0.0000 -1.5250 0.0000 24.3492
#
#
#
# Elastic Compliance Matrix: (Units=1/GPa)
#
#
# Indices 1 2 3 4 5 6 
#
# 1 0.008947 -0.002157 -0.007804 0.000000 0.003778 0.000000
# 2 -0.002157 0.024065 -0.010364 0.000000 0.004113 0.000000
# 3 -0.007804 -0.010364 0.029670 0.000000 -0.019262 0.000000
# 4 0.000000 0.000000 0.000000 0.072761 0.000000 0.004557
# 5 0.003778 0.004113 -0.019262 0.000000 0.049552 0.000000
# 6 0.000000 0.000000 0.000000 0.004557 0.000000 0.041355
#
#
# Mechanical properties :
#
#
# Convention : Reuss Voigt Hill
#
# Bulk Modulus (GPa) = 45.38872 68.01359 56.70116
# Shear Modulus (GPa) = 18.22543 24.43173 21.32858
#
# Velocity S-wave (km/s) = 2.92246 3.38367 3.16149
# Velocity P-wave (km/s) = 5.71470 6.86572 6.31648
#
# Compressibility (1/GPa) = 0.02203190
#
# Stress axis : x y z
#
# Youngs Moduli (GPa) = 111.76987 41.55489 33.70421
#
# Poissons Ratio (x) = 0.08962 0.26303
# Poissons Ratio (y) = 0.24106 0.34930
# Poissons Ratio (z) = 0.87227 0.43067
#
# Static dielectric constant tensor:
#      x y z
#    x 4.160700 0.000000 0.031030 
#    y 0.000000 3.480470 0.000000 
#    z 0.031030 0.000000 3.937680 
# 
# 
# High freq. dielectric constant tensor:
#      x y z
#    x 1.859780 0.000000 -0.001270 
#    y 0.000000 1.798230 0.000000 
#    z -0.001270 0.000000 1.840590 
# 
# From -- ./inp_files/63951.got.cif
#   From: 2010.06.25/outbox.cif.g09.slc.cpg/sg15_32_cif.got.tgz:63951.got - 2010.06.28 07:06:18.
