data_PCOD8143677
_publ_section_title
;
Structure prediction by ZEFSAII (Michael W. Deem and Ramdas Pophale) SiO2 
 PCOD8143677
Probable space group: C 2/C
;
_chemical_formula_sum "Si O2"
_cell_formula_units_Z 48
_cell_length_a 13.790797
_cell_length_b 13.546955
_cell_length_c 21.975023
_cell_angle_alpha 90.000000
_cell_angle_beta 37.343763
_cell_angle_gamma 90.000000
_cell_volume 2490.346629
_symmetry_space_group_name_H-M "C 2/C"
_symmetry_group_IT_number 15
_symmetry_cell_setting 'monoclinic'
loop_
_space_group_symop_operation_xyz
x,y,z
-x,y,1/2-z
-x,-y,-z
x,-y,1/2+z
1/2+x,1/2+y,z
1/2-x,1/2+y,1/2-z
1/2-x,1/2-y,-z
1/2+x,1/2-y,1/2+z
loop_
_atom_site_type_symbol
_atom_site_label
_atom_site_fract_x
_atom_site_fract_y
_atom_site_fract_z
Si Si1 0.169748 0.401904 0.561927
Si Si2 0.679636 0.823634 0.235805
Si Si3 0.893311 0.642264 0.587893
Si Si4 0.000000 0.486575 0.250000
Si Si5 0.215630 0.464765 0.928504
Si Si6 0.000000 0.836479 0.750000
Si Si7 0.455425 0.728926 0.950111
O O1 0.108595 0.440794 0.656515
O O2 0.181077 0.495900 0.512801
O O3 0.347479 0.358686 0.478075
O O4 0.046648 0.320924 0.596047
O O5 0.644718 0.829998 0.324548
O O6 0.616411 0.921076 0.233739
O O7 0.589065 0.728184 0.255951
O O8 0.867269 0.812869 0.130015
O O9 0.776471 0.553549 0.624819
O O10 0.873706 0.738068 0.554753
O O11 0.074814 0.610889 0.483556
O O12 0.379633 0.405586 0.846812
#
# Coordination Sequence:
#
# PCOD8143677 Si02
#       7
#     8   8   8   4   8   4   8
#     4  10  23  43  62  89 122 156 198 247 297 354
#     4  11  24  39  61  91 122 158 199 244 298 352
#     4  10  21  41  63  86 122 157 195 244 295 354
#     4  11  24  40  61  90 124 156 197 248 298 349
#     4  10  21  41  63  87 120 158 196 243 294 356
#     4  11  24  38  61  92 120 160 201 240 298 353
#     4  10  23  43  62  90 120 157 199 244 300 354
#
# _framework density 19.274425000000001
#
# number of rings (size 3 to 8) (size 9 to 14) (size 15 to 20)
#    0.000    1.667    3.333    0.000    4.667    2.667 
#    0.000    0.000    0.000    0.000    0.000    0.000 
#    0.000    0.000    0.000    0.000    0.000    0.000 
#
# Total GULP energy -297679.148495 kJ/mol
# GULP energy per Si atom -12403.297854 kJ/mol
# Density = 1.923056 g / cm^3
# Si number density = 19.274425 Si / 1000 Ang^3
#
#
#
# Elastic Constant Matrix: (Units=GPa)
#
#
# Indices 1 2 3 4 5 6 
#
# 1 90.8471 20.5193 38.9301 0.0001 3.0139 -0.0001
# 2 20.5193 57.5427 34.6045 0.0000 -6.0277 -0.0002
# 3 38.9301 34.6045 84.3633 -0.0001 4.2848 -0.0002
# 4 0.0001 0.0000 -0.0001 19.4331 0.0000 -2.5029
# 5 3.0139 -6.0277 4.2848 0.0000 38.2010 0.0000
# 6 -0.0001 -0.0002 -0.0002 -2.5029 0.0000 13.9084
#
#
#
# Elastic Compliance Matrix: (Units=1/GPa)
#
#
# Indices 1 2 3 4 5 6 
#
# 1 0.013829 -0.001578 -0.005699 0.000000 -0.000701 0.000000
# 2 -0.001578 0.024130 -0.009423 0.000000 0.004989 0.000000
# 3 -0.005699 -0.009423 0.018507 0.000000 -0.003113 0.000000
# 4 0.000000 0.000000 0.000000 0.052680 0.000000 0.009480
# 5 -0.000701 0.004989 -0.003113 0.000000 0.027369 0.000000
# 6 0.000000 0.000000 0.000000 0.009480 0.000000 0.073605
#
#
# Mechanical properties :
#
#
# Convention : Reuss Voigt Hill
#
# Bulk Modulus (GPa) = 43.35253 46.76230 45.05742
# Shear Modulus (GPa) = 19.90377 23.55510 21.72944
#
# Velocity S-wave (km/s) = 3.21698 3.49963 3.36128
# Velocity P-wave (km/s) = 6.02824 6.37526 6.20418
#
# Compressibility (1/GPa) = 0.02306670
#
# Stress axis : x y z
#
# Youngs Moduli (GPa) = 72.31079 41.44133 54.03451
#
# Poissons Ratio (x) = 0.06538 0.30794
# Poissons Ratio (y) = 0.11408 0.50918
# Poissons Ratio (z) = 0.41209 0.39051
#
# Static dielectric constant tensor:
#      x y z
#    x 3.665650 0.000000 -0.047500 
#    y 0.000000 3.583540 0.000000 
#    z -0.047500 0.000000 3.266080 
# 
# 
# High freq. dielectric constant tensor:
#      x y z
#    x 1.762840 0.000000 0.000740 
#    y 0.000000 1.756210 0.000000 
#    z 0.000740 0.000000 1.740770 
# 
# From -- ./inp_files/96257.got.cif
#   From: 2010.06.25/outbox.cif.g09.slc.cpg/sg15_49_cif.got.tgz:96257.got - 2010.06.28 07:06:18.
