data_PCOD8143485
_publ_section_title
;
Structure prediction by ZEFSAII (Michael W. Deem and Ramdas Pophale) SiO2 
 PCOD8143485
Probable space group: C 2/C
;
_chemical_formula_sum "Si O2"
_cell_formula_units_Z 48
_cell_length_a 26.893197
_cell_length_b 9.634002
_cell_length_c 13.765915
_cell_angle_alpha 90.000000
_cell_angle_beta 138.116899
_cell_angle_gamma 90.000000
_cell_volume 2381.107657
_symmetry_space_group_name_H-M "C 2/C"
_symmetry_group_IT_number 15
_symmetry_cell_setting 'monoclinic'
loop_
_space_group_symop_operation_xyz
x,y,z
-x,y,1/2-z
-x,-y,-z
x,-y,1/2+z
1/2+x,1/2+y,z
1/2-x,1/2+y,1/2-z
1/2-x,1/2-y,-z
1/2+x,1/2-y,1/2+z
loop_
_atom_site_type_symbol
_atom_site_label
_atom_site_fract_x
_atom_site_fract_y
_atom_site_fract_z
Si Si1 0.493906 0.402142 0.625343
Si Si2 0.832190 0.402167 0.681699
Si Si3 0.851154 0.319607 0.326422
Si Si4 0.876640 0.975774 0.820909
Si Si5 0.011581 0.660723 0.026994
Si Si6 0.738707 0.166227 0.613331
O O1 0.500000 0.396051 0.750000
O O2 0.566577 0.478051 0.687364
O O3 0.421633 0.489856 0.486122
O O4 0.489589 0.244869 0.576649
O O5 0.840161 0.560831 0.729580
O O6 0.908478 0.314380 0.807873
O O7 0.760642 0.328410 0.629197
O O8 0.818733 0.397432 0.547417
O O9 0.829274 0.167894 0.255137
O O10 0.799614 0.360944 0.340322
O O11 0.938666 0.295201 0.483536
O O12 0.816999 0.092552 0.716306
O O13 0.000000 0.500000 0.000000
#
# Coordination Sequence:
#
# PCOD8143485 Si02
#       6
#     8   8   8   8   8   8
#     4  10  21  40  68  93 122 170 213 266 325 371
#     4  10  22  40  59  88 128 163 209 256 315 378
#     4  10  22  40  60  90 126 163 210 266 316 370
#     4  10  22  41  61  96 130 157 221 266 300 395
#     4   9  19  42  59  88 128 153 211 267 300 385
#     4  11  22  39  64  87 126 174 201 262 323 370
#
# _framework density 20.158684999999998
#
# number of rings (size 3 to 8) (size 9 to 14) (size 15 to 20)
#    0.000    2.000    1.667    1.000    0.000    5.333 
#   18.000    0.000    0.000    0.000    0.000    0.000 
#    0.000    0.000    0.000    0.000    0.000    0.000 
#
# Total GULP energy -297352.414813 kJ/mol
# GULP energy per Si atom -12389.683951 kJ/mol
# Density = 2.011280 g / cm^3
# Si number density = 20.158685 Si / 1000 Ang^3
#
#
#
# Elastic Constant Matrix: (Units=GPa)
#
#
# Indices 1 2 3 4 5 6 
#
# 1 77.1972 22.5523 53.1104 0.0000 3.3352 0.0000
# 2 22.5523 102.1043 31.4305 0.0000 -2.1330 0.0000
# 3 53.1104 31.4305 118.0939 0.0000 0.6656 0.0000
# 4 0.0000 0.0000 0.0000 25.8992 0.0000 6.5749
# 5 3.3352 -2.1330 0.6656 0.0000 17.4330 0.0000
# 6 0.0000 0.0000 0.0000 6.5749 0.0000 20.8798
#
#
#
# Elastic Compliance Matrix: (Units=1/GPa)
#
#
# Indices 1 2 3 4 5 6 
#
# 1 0.019249 -0.001817 -0.008153 0.000000 -0.003594 0.000000
# 2 -0.001817 0.010874 -0.002087 0.000000 0.001758 0.000000
# 3 -0.008153 -0.002087 0.012685 0.000000 0.000820 0.000000
# 4 0.000000 0.000000 0.000000 0.041966 0.000000 -0.013215
# 5 -0.003594 0.001758 0.000820 0.000000 0.058234 0.000000
# 6 0.000000 0.000000 0.000000 -0.013215 0.000000 0.052054
#
#
# Mechanical properties :
#
#
# Convention : Reuss Voigt Hill
#
# Bulk Modulus (GPa) = 53.49079 56.84241 55.16660
# Shear Modulus (GPa) = 22.18199 25.52924 23.85561
#
# Velocity S-wave (km/s) = 3.32078 3.56253 3.44378
# Velocity P-wave (km/s) = 6.42619 6.72167 6.57559
#
# Compressibility (1/GPa) = 0.01869481
#
# Stress axis : x y z
#
# Youngs Moduli (GPa) = 51.95058 91.95931 78.83133
#
# Poissons Ratio (x) = 0.16709 0.64271
# Poissons Ratio (y) = 0.09439 0.16452
# Poissons Ratio (z) = 0.42355 0.19191
#
# Static dielectric constant tensor:
#      x y z
#    x 4.999800 0.000000 2.268960 
#    y 0.000000 4.445440 0.000000 
#    z 2.268960 0.000000 6.229420 
# 
# 
# High freq. dielectric constant tensor:
#      x y z
#    x 1.778970 0.000000 0.025420 
#    y 0.000000 1.808090 0.000000 
#    z 0.025420 0.000000 1.770630 
# 
# From -- ./inp_files/117712.got.cif
#   From: 2010.06.25/outbox.cif.g09.slc.cpg/sg15_59_cif.got.tgz:117712.got - 2010.06.28 07:06:18.
