data_PCOD8143992
_publ_section_title
;
Structure prediction by ZEFSAII (Michael W. Deem and Ramdas Pophale) SiO2 
 PCOD8143992
Probable space group: C 2/C
;
_chemical_formula_sum "Si O2"
_cell_formula_units_Z 60
_cell_length_a 8.399720
_cell_length_b 26.583746
_cell_length_c 12.286013
_cell_angle_alpha 90.000000
_cell_angle_beta 68.936760
_cell_angle_gamma 90.000000
_cell_volume 2560.114487
_symmetry_space_group_name_H-M "C 2/C"
_symmetry_group_IT_number 15
_symmetry_cell_setting 'monoclinic'
loop_
_space_group_symop_operation_xyz
x,y,z
-x,y,1/2-z
-x,-y,-z
x,-y,1/2+z
1/2+x,1/2+y,z
1/2-x,1/2+y,1/2-z
1/2-x,1/2-y,-z
1/2+x,1/2-y,1/2+z
loop_
_atom_site_type_symbol
_atom_site_label
_atom_site_fract_x
_atom_site_fract_y
_atom_site_fract_z
Si Si1 0.165116 0.042191 0.778264
Si Si2 0.717645 0.643471 0.654400
Si Si3 0.500000 0.755210 0.250000
Si Si4 0.971972 0.903626 0.490880
Si Si5 0.804890 0.562218 0.280052
Si Si6 0.658161 0.360814 0.647250
Si Si7 0.462899 0.798453 0.484745
Si Si8 0.131813 0.757949 0.302207
O O1 0.262665 0.090998 0.703950
O O2 0.000000 0.025784 0.750000
O O3 0.096478 0.052605 0.916759
O O4 0.298760 0.996594 0.750568
O O5 0.569797 0.631883 0.602977
O O6 0.657103 0.684092 0.759023
O O7 0.873762 0.665803 0.546555
O O8 0.422841 0.788229 0.368476
O O9 0.320915 0.730250 0.250761
O O10 0.799080 0.926621 0.584035
O O11 0.082708 0.874271 0.550021
O O12 0.717358 0.591441 0.201725
O O13 0.000000 0.578727 0.250000
O O14 0.500000 0.332309 0.750000
O O15 0.812921 0.324861 0.587026
O O16 0.466527 0.746686 0.555742
O O17 0.000000 0.731318 0.250000
#
# Coordination Sequence:
#
# PCOD8143992 Si02
#       8
#     8   8   4   8   8   8   8   8
#     4  10  21  41  68  97 139 182 237 286 350 432
#     4  10  24  44  70 103 135 186 234 293 358 429
#     4  10  26  46  70 102 142 186 240 298 356 432
#     4  10  21  41  71  96 137 185 234 288 351 432
#     4  11  23  41  64 101 142 181 234 288 355 421
#     4  10  24  42  68 100 138 187 233 292 358 427
#     4  11  25  45  69 103 143 183 239 300 355 428
#     4  11  25  46  71 102 141 189 240 304 364 429
#
# _framework density 23.436453
#
# number of rings (size 3 to 8) (size 9 to 14) (size 15 to 20)
#    0.000    1.600    0.000    4.000    6.533    6.933 
#    1.200    4.000    0.000    0.000    0.000    0.000 
#    0.000    0.000    0.000    0.000    0.000    0.000 
#
# Total GULP energy -371650.796975 kJ/mol
# GULP energy per Si atom -12388.359899 kJ/mol
# Density = 2.338311 g / cm^3
# Si number density = 23.436453 Si / 1000 Ang^3
#
#
#
# Elastic Constant Matrix: (Units=GPa)
#
#
# Indices 1 2 3 4 5 6 
#
# 1 119.3221 39.9858 23.8437 0.0000 -11.8898 0.0000
# 2 39.9858 106.2174 62.2266 0.0000 -12.4392 0.0000
# 3 23.8437 62.2266 143.2347 0.0000 -2.5804 0.0000
# 4 0.0000 0.0000 0.0000 31.6536 0.0000 -7.3597
# 5 -11.8898 -12.4392 -2.5804 0.0000 41.5365 0.0000
# 6 0.0000 0.0000 0.0000 -7.3597 0.0000 14.0593
#
#
#
# Elastic Compliance Matrix: (Units=1/GPa)
#
#
# Indices 1 2 3 4 5 6 
#
# 1 0.009713 -0.003382 -0.000116 0.000000 0.001760 0.000000
# 2 -0.003382 0.014319 -0.005604 0.000000 0.002972 0.000000
# 3 -0.000116 -0.005604 0.009415 0.000000 -0.001127 0.000000
# 4 0.000000 0.000000 0.000000 0.035970 0.000000 0.018829
# 5 0.001760 0.002972 -0.001127 0.000000 0.025399 0.000000
# 6 0.000000 0.000000 0.000000 0.018829 0.000000 0.080984
#
#
# Mechanical properties :
#
#
# Convention : Reuss Voigt Hill
#
# Bulk Modulus (GPa) = 65.60644 68.98737 67.29690
# Shear Modulus (GPa) = 25.11482 33.63111 29.37297
#
# Velocity S-wave (km/s) = 3.27710 3.79224 3.54404
# Velocity P-wave (km/s) = 6.50948 6.97672 6.74714
#
# Compressibility (1/GPa) = 0.01524241
#
# Stress axis : x y z
#
# Youngs Moduli (GPa) = 102.95839 69.83631 106.21149
#
# Poissons Ratio (x) = 0.23622 0.01228
# Poissons Ratio (y) = 0.34825 0.59523
# Poissons Ratio (z) = 0.01191 0.39138
#
# Static dielectric constant tensor:
#      x y z
#    x 4.500260 0.000000 -0.098440 
#    y 0.000000 4.117260 0.000000 
#    z -0.098440 0.000000 4.529930 
# 
# 
# High freq. dielectric constant tensor:
#      x y z
#    x 1.933020 0.000000 -0.005520 
#    y 0.000000 1.920980 0.000000 
#    z -0.005520 0.000000 1.944890 
# 
# From -- ./inp_files/82540.got.cif
#   From: 2010.06.25/outbox.cif.g09.slc.cpg/sg15_42_cif.got.tgz:82540.got - 2010.06.28 07:06:18.
