data_PCOD8143438
_publ_section_title
;
Structure prediction by ZEFSAII (Michael W. Deem and Ramdas Pophale) SiO2 
 PCOD8143438
Probable space group: C 2/C
;
_chemical_formula_sum "Si O2"
_cell_formula_units_Z 60
_cell_length_a 11.904402
_cell_length_b 26.844954
_cell_length_c 8.298228
_cell_angle_alpha 90.000000
_cell_angle_beta 88.603473
_cell_angle_gamma 90.000000
_cell_volume 2651.102952
_symmetry_space_group_name_H-M "C 2/C"
_symmetry_group_IT_number 15
_symmetry_cell_setting 'monoclinic'
loop_
_space_group_symop_operation_xyz
x,y,z
-x,y,1/2-z
-x,-y,-z
x,-y,1/2+z
1/2+x,1/2+y,z
1/2-x,1/2+y,1/2-z
1/2-x,1/2-y,-z
1/2+x,1/2-y,1/2+z
loop_
_atom_site_type_symbol
_atom_site_label
_atom_site_fract_x
_atom_site_fract_y
_atom_site_fract_z
Si Si1 0.926163 0.117388 0.415965
Si Si2 0.000000 0.917751 0.250000
Si Si3 0.813227 0.352077 0.977527
Si Si4 0.721150 0.946822 0.971233
Si Si5 0.264467 0.697097 0.319973
Si Si6 0.931961 0.641179 0.058784
Si Si7 0.381626 0.205311 0.774391
Si Si8 0.740446 0.448376 0.169933
O O1 0.990418 0.115696 0.586623
O O2 0.845235 0.069350 0.410485
O O3 0.848023 0.166311 0.432487
O O4 0.000000 0.117487 0.250000
O O5 0.107825 0.952912 0.215468
O O6 0.827637 0.310487 0.110054
O O7 0.762749 0.402795 0.048953
O O8 0.937388 0.362344 0.892757
O O9 0.722901 0.327349 0.859181
O O10 0.628494 0.910816 0.891987
O O11 0.697656 0.941698 0.162355
O O12 0.707300 0.003404 0.916713
O O13 0.132813 0.688726 0.362049
O O14 0.291801 0.755240 0.345861
O O15 0.912525 0.654853 0.871131
O O16 0.500000 0.234939 0.750000
#
# Coordination Sequence:
#
# PCOD8143438 Si02
#       8
#     8   4   8   8   8   8   8   8
#     4  10  22  40  64  94 135 171 215 274 326 394
#     4  10  24  42  64  98 134 174 218 270 340 392
#     4  11  23  41  67  93 132 173 216 267 330 390
#     4  10  24  39  63  95 127 170 217 268 328 386
#     4  11  22  39  66  97 127 167 220 270 321 391
#     4  10  22  43  62  92 132 173 212 266 326 389
#     4  10  21  40  67  91 127 173 212 267 332 392
#     4  11  24  40  64  95 128 169 217 270 326 394
#
# _framework density 22.632089000000001
#
# number of rings (size 3 to 8) (size 9 to 14) (size 15 to 20)
#    0.000    1.600    1.333    2.400    6.533    1.600 
#    0.000    0.000    0.000    0.000    0.000    0.000 
#    0.000    0.000    0.000    0.000    0.000    0.000 
#
# Total GULP energy -371731.933058 kJ/mol
# GULP energy per Si atom -12391.064435 kJ/mol
# Density = 2.258058 g / cm^3
# Si number density = 22.632089 Si / 1000 Ang^3
#
#
#
# Elastic Constant Matrix: (Units=GPa)
#
#
# Indices 1 2 3 4 5 6 
#
# 1 85.0460 38.1422 21.2892 0.0000 -3.3670 0.0000
# 2 38.1422 97.3993 -0.9492 0.0000 0.8146 0.0000
# 3 21.2892 -0.9492 59.7231 0.0000 4.2024 0.0000
# 4 0.0000 0.0000 0.0000 22.1094 0.0000 -9.5468
# 5 -3.3670 0.8146 4.2024 0.0000 41.8496 0.0000
# 6 0.0000 0.0000 0.0000 -9.5468 0.0000 25.4834
#
#
#
# Elastic Compliance Matrix: (Units=1/GPa)
#
#
# Indices 1 2 3 4 5 6 
#
# 1 0.016234 -0.006433 -0.006033 0.000000 0.002037 0.000000
# 2 -0.006433 0.012820 0.002569 0.000000 -0.001025 0.000000
# 3 -0.006033 0.002569 0.019108 0.000000 -0.002454 0.000000
# 4 0.000000 0.000000 0.000000 0.053958 0.000000 0.020214
# 5 0.002037 -0.001025 -0.002454 0.000000 0.024325 0.000000
# 6 0.000000 0.000000 0.000000 0.020214 0.000000 0.046814
#
#
# Mechanical properties :
#
#
# Convention : Reuss Voigt Hill
#
# Bulk Modulus (GPa) = 35.25016 39.90365 37.57691
# Shear Modulus (GPa) = 24.69024 30.13423 27.41224
#
# Velocity S-wave (km/s) = 3.30652 3.65291 3.48402
# Velocity P-wave (km/s) = 5.49423 5.95494 5.72922
#
# Compressibility (1/GPa) = 0.02836867
#
# Stress axis : x y z
#
# Youngs Moduli (GPa) = 61.59769 78.00333 52.33454
#
# Poissons Ratio (x) = 0.50182 0.31571
# Poissons Ratio (y) = 0.39628 -0.13445
# Poissons Ratio (z) = 0.37159 -0.20040
#
# Static dielectric constant tensor:
#      x y z
#    x 4.120740 0.000000 -0.053880 
#    y 0.000000 3.754480 0.000000 
#    z -0.053880 0.000000 4.414510 
# 
# 
# High freq. dielectric constant tensor:
#      x y z
#    x 1.889940 0.000000 -0.002640 
#    y 0.000000 1.873060 0.000000 
#    z -0.002640 0.000000 1.912810 
# 
# From -- ./inp_files/34270.got.cif
#   From: 2010.06.25/outbox.cif.g09.slc.cpg/sg15_18_cif.got.tgz:34270.got - 2010.06.28 07:06:18.
