data_PCOD8143963
_publ_section_title
;
Structure prediction by ZEFSAII (Michael W. Deem and Ramdas Pophale) SiO2 
 PCOD8143963
Probable space group: C 2/C
;
_chemical_formula_sum "Si O2"
_cell_formula_units_Z 40
_cell_length_a 11.978061
_cell_length_b 12.999158
_cell_length_c 17.288739
_cell_angle_alpha 90.000000
_cell_angle_beta 32.911048
_cell_angle_gamma 90.000000
_cell_volume 1462.627763
_symmetry_space_group_name_H-M "C 2/C"
_symmetry_group_IT_number 15
_symmetry_cell_setting 'monoclinic'
loop_
_space_group_symop_operation_xyz
x,y,z
-x,y,1/2-z
-x,-y,-z
x,-y,1/2+z
1/2+x,1/2+y,z
1/2-x,1/2+y,1/2-z
1/2-x,1/2-y,-z
1/2+x,1/2-y,1/2+z
loop_
_atom_site_type_symbol
_atom_site_label
_atom_site_fract_x
_atom_site_fract_y
_atom_site_fract_z
Si Si1 0.471230 0.142550 0.860557
Si Si2 0.730016 0.043307 0.229834
Si Si3 0.761154 0.998627 0.885606
Si Si4 0.423358 0.195092 0.447310
Si Si5 0.916859 0.181310 0.506430
O O1 0.519751 0.244484 0.881283
O O2 0.673760 0.068580 0.724912
O O3 0.332692 0.173447 0.864284
O O4 0.322897 0.069544 0.995887
O O5 0.573736 0.136176 0.297972
O O6 0.963288 0.072419 0.071718
O O7 0.680656 0.040466 0.350212
O O8 0.000000 0.986004 0.750000
O O9 0.699297 0.117038 0.926508
O O10 0.250000 0.250000 0.500000
O O11 0.553225 0.274505 0.424863
#
# Coordination Sequence:
#
# PCOD8143963 Si02
#       5
#     8   8   8   8   8
#     4  10  21  41  68 103 131 170 234 284 331 410
#     4  11  22  42  69  99 134 179 222 281 345 404
#     4  11  20  41  70  96 132 181 223 278 343 403
#     4  11  25  41  67 100 137 175 230 276 334 414
#     4  11  22  40  74  98 134 176 228 283 337 403
#
# _framework density 27.348037000000001
#
# number of rings (size 3 to 8) (size 9 to 14) (size 15 to 20)
#    0.000    1.200    6.000    1.200    2.800    0.000 
#    0.000    4.000   13.200    0.000    0.000    0.000 
#    0.000    0.000    0.000    0.000    0.000    0.000 
#
# Total GULP energy -248033.510474 kJ/mol
# GULP energy per Si atom -12401.675524 kJ/mol
# Density = 2.728579 g / cm^3
# Si number density = 27.348037 Si / 1000 Ang^3
#
#
#
# Elastic Constant Matrix: (Units=GPa)
#
#
# Indices 1 2 3 4 5 6 
#
# 1 150.9645 51.3242 22.8619 -0.0001 -25.3456 0.0000
# 2 51.3242 139.8851 40.0998 -0.0035 -23.2338 -0.0004
# 3 22.8619 40.0998 76.1921 0.0554 -30.4451 0.0264
# 4 -0.0001 -0.0035 0.0554 420.1265 -0.0210 139.6361
# 5 -25.3456 -23.2338 -30.4451 -0.0210 40.9241 -0.0104
# 6 0.0000 -0.0004 0.0264 139.6361 -0.0104 109.8084
#
#
#
# Elastic Compliance Matrix: (Units=1/GPa)
#
#
# Indices 1 2 3 4 5 6 
#
# 1 0.008041 -0.002422 0.000430 0.000000 0.003925 0.000000
# 2 -0.002422 0.009278 -0.003772 0.000000 0.000961 0.000000
# 3 0.000430 -0.003772 0.020252 -0.000001 0.013191 -0.000002
# 4 0.000000 0.000000 -0.000001 0.004123 0.000000 -0.005243
# 5 0.003925 0.000961 0.013191 0.000000 0.037226 0.000000
# 6 0.000000 0.000000 -0.000002 -0.005243 0.000000 0.015773
#
#
# Mechanical properties :
#
#
# Convention : Reuss Voigt Hill
#
# Bulk Modulus (GPa) = 38.39689 66.17931 52.28810
# Shear Modulus (GPa) = 43.51521 131.02218 87.26869
#
# Velocity S-wave (km/s) = 3.99327 6.92915 5.65506
# Velocity P-wave (km/s) = 5.94409 9.39516 7.86133
#
# Compressibility (1/GPa) = 0.02604377
#
# Stress axis : x y z
#
# Youngs Moduli (GPa) = 124.35818 107.77802 49.37793
#
# Poissons Ratio (x) = 0.26101 -0.02124
# Poissons Ratio (y) = 0.30116 0.18627
# Poissons Ratio (z) = -0.05350 0.40658
#
# Static dielectric constant tensor:
#      x y z
#    x 3.655790 0.000290 -0.263860 
#    y 0.000290 5.650200 0.000030 
#    z -0.263860 0.000030 5.029020 
# 
# 
# High freq. dielectric constant tensor:
#      x y z
#    x 2.107490 0.000000 -0.009210 
#    y 0.000000 2.115630 0.000000 
#    z -0.009210 0.000000 2.129480 
# 
# From -- ./inp_files/142377.got.cif
#   From: 2010.06.25/outbox.cif.g09.slc.cpg/sg15_72_cif.got.tgz:142377.got - 2010.06.28 07:06:18.
