data_PCOD8143832
_publ_section_title
;
Structure prediction by ZEFSAII (Michael W. Deem and Ramdas Pophale) SiO2 
 PCOD8143832
Probable space group: C 2/C
;
_chemical_formula_sum "Si O2"
_cell_formula_units_Z 56
_cell_length_a 8.188109
_cell_length_b 13.733224
_cell_length_c 22.842719
_cell_angle_alpha 90.000000
_cell_angle_beta 116.984402
_cell_angle_gamma 90.000000
_cell_volume 2288.995937
_symmetry_space_group_name_H-M "C 2/C"
_symmetry_group_IT_number 15
_symmetry_cell_setting 'monoclinic'
loop_
_space_group_symop_operation_xyz
x,y,z
-x,y,1/2-z
-x,-y,-z
x,-y,1/2+z
1/2+x,1/2+y,z
1/2-x,1/2+y,1/2-z
1/2-x,1/2-y,-z
1/2+x,1/2-y,1/2+z
loop_
_atom_site_type_symbol
_atom_site_label
_atom_site_fract_x
_atom_site_fract_y
_atom_site_fract_z
Si Si1 0.659796 0.768151 0.122442
Si Si2 0.782578 0.525278 0.022064
Si Si3 0.813292 0.163411 0.251285
Si Si4 0.042489 0.223683 0.628281
Si Si5 0.665979 0.019861 0.603404
Si Si6 0.949853 0.965325 0.301561
Si Si7 0.050747 0.158167 0.501848
O O1 0.703968 0.716772 0.190195
O O2 0.632678 0.880862 0.134142
O O3 0.830564 0.756849 0.105972
O O4 0.478007 0.726792 0.059739
O O5 0.724665 0.411863 0.019884
O O6 0.983645 0.545120 0.084491
O O7 0.811105 0.552928 0.959800
O O8 0.633602 0.593781 0.026827
O O9 0.654504 0.193536 0.180489
O O10 0.000000 0.192136 0.250000
O O11 0.796522 0.047426 0.264121
O O12 0.104273 0.113899 0.658961
O O13 0.078593 0.224178 0.564398
O O14 0.861900 0.972273 0.652609
O O15 0.000000 0.906807 0.250000
#
# Coordination Sequence:
#
# PCOD8143832 Si02
#       7
#     8   8   8   8   8   8   8
#     4  11  23  42  68  95 136 180 219 274 340 399
#     4  10  22  39  63  99 130 174 214 263 338 399
#     4  11  26  44  66  96 130 177 236 280 329 402
#     4  11  23  45  67  98 137 178 220 282 342 404
#     4  10  21  41  65  94 130 176 220 264 333 404
#     4  10  21  43  67  89 127 182 223 275 335 400
#     4  11  23  40  66 103 139 169 216 283 328 406
#
# _framework density 24.464876
#
# number of rings (size 3 to 8) (size 9 to 14) (size 15 to 20)
#    0.000    1.429    2.857    3.429    4.000    2.857 
#    5.143    1.429    0.000    0.000    0.000    0.000 
#    0.000    0.000    0.000    0.000    0.000    0.000 
#
# Total GULP energy -347045.705264 kJ/mol
# GULP energy per Si atom -12394.489474 kJ/mol
# Density = 2.440919 g / cm^3
# Si number density = 24.464876 Si / 1000 Ang^3
#
#
#
# Elastic Constant Matrix: (Units=GPa)
#
#
# Indices 1 2 3 4 5 6 
#
# 1 45.7386 5.5773 -0.7625 0.0000 7.3524 0.0000
# 2 5.5773 73.1837 25.6376 0.0000 3.4323 0.0000
# 3 -0.7625 25.6376 108.7381 0.0000 11.2370 0.0000
# 4 0.0000 0.0000 0.0000 43.2828 0.0000 3.4574
# 5 7.3524 3.4323 11.2370 0.0000 38.7592 0.0000
# 6 0.0000 0.0000 0.0000 3.4574 0.0000 29.3966
#
#
#
# Elastic Compliance Matrix: (Units=1/GPa)
#
#
# Indices 1 2 3 4 5 6 
#
# 1 0.022833 -0.001906 0.001072 0.000000 -0.004473 0.000000
# 2 -0.001906 0.015057 -0.003570 0.000000 0.000063 0.000000
# 3 0.001072 -0.003570 0.010344 0.000000 -0.002886 0.000000
# 4 0.000000 0.000000 0.000000 0.023323 0.000000 -0.002743
# 5 -0.004473 0.000063 -0.002886 0.000000 0.027480 0.000000
# 6 0.000000 0.000000 0.000000 -0.002743 0.000000 0.034340
#
#
# Mechanical properties :
#
#
# Convention : Reuss Voigt Hill
#
# Bulk Modulus (GPa) = 25.36418 32.06282 28.71350
# Shear Modulus (GPa) = 32.19021 35.43492 33.81256
#
# Velocity S-wave (km/s) = 3.63129 3.80991 3.72167
# Velocity P-wave (km/s) = 5.28884 5.69983 5.49817
#
# Compressibility (1/GPa) = 0.03942568
#
# Stress axis : x y z
#
# Youngs Moduli (GPa) = 43.79691 66.41365 96.67564
#
# Poissons Ratio (x) = 0.12656 -0.10361
# Poissons Ratio (y) = 0.08346 0.34513
# Poissons Ratio (z) = -0.04694 0.23709
#
# Static dielectric constant tensor:
#      x y z
#    x 4.285880 0.000000 0.254760 
#    y 0.000000 4.309840 0.000000 
#    z 0.254760 0.000000 4.795940 
# 
# 
# High freq. dielectric constant tensor:
#      x y z
#    x 1.951610 0.000000 0.007220 
#    y 0.000000 1.967930 0.000000 
#    z 0.007220 0.000000 1.989460 
# 
# From -- ./inp_files/264809.got.cif
#   From: 2010.06.25/outbox.cif.g09.slc.cpg/sg15_133_cif.got.tgz:264809.got - 2010.06.28 07:06:18.
