data_PCOD8143134
_publ_section_title
;
Structure prediction by ZEFSAII (Michael W. Deem and Ramdas Pophale) SiO2 
 PCOD8143134
Probable space group: C 2/C
;
_chemical_formula_sum "Si O2"
_cell_formula_units_Z 56
_cell_length_a 8.700816
_cell_length_b 26.237061
_cell_length_c 12.476435
_cell_angle_alpha 90.000000
_cell_angle_beta 88.543159
_cell_angle_gamma 90.000000
_cell_volume 2847.247850
_symmetry_space_group_name_H-M "C 2/C"
_symmetry_group_IT_number 15
_symmetry_cell_setting 'monoclinic'
loop_
_space_group_symop_operation_xyz
x,y,z
-x,y,1/2-z
-x,-y,-z
x,-y,1/2+z
1/2+x,1/2+y,z
1/2-x,1/2+y,1/2-z
1/2-x,1/2-y,-z
1/2+x,1/2-y,1/2+z
loop_
_atom_site_type_symbol
_atom_site_label
_atom_site_fract_x
_atom_site_fract_y
_atom_site_fract_z
Si Si1 0.170980 0.301818 0.473926
Si Si2 0.670398 0.943040 0.207091
Si Si3 0.678463 0.798805 0.059501
Si Si4 0.105381 0.380786 0.649616
Si Si5 0.678571 0.340555 0.237619
Si Si6 0.326542 0.089722 0.026424
Si Si7 0.679546 0.547034 0.230133
O O1 0.250000 0.250000 0.500000
O O2 0.169903 0.332884 0.584528
O O3 0.269581 0.330894 0.383990
O O4 0.003018 0.291548 0.430435
O O5 0.500000 0.929402 0.250000
O O6 0.786813 0.899232 0.240047
O O7 0.726891 0.995087 0.257854
O O8 0.671828 0.945563 0.078375
O O9 0.738293 0.802727 0.180068
O O10 0.750000 0.750000 0.000000
O O11 0.717608 0.851263 0.996107
O O12 0.251823 0.412805 0.686455
O O13 0.000000 0.361230 0.750000
O O14 0.996757 0.414826 0.574754
O O15 0.500000 0.329736 0.250000
O O16 0.200238 0.067220 0.109139
O O17 0.500000 0.538200 0.250000
#
# Coordination Sequence:
#
# PCOD8143134 Si02
#       7
#     8   8   8   8   8   8   8
#     4  11  23  38  61  90 119 157 198 240 297 351
#     4  11  22  39  63  86 114 153 194 239 293 348
#     4  10  21  40  63  86 118 157 197 244 295 347
#     4   9  20  40  60  81 114 153 195 239 286 345
#     4  11  23  39  59  88 122 154 196 244 291 350
#     4   9  21  40  60  84 113 151 195 236 285 345
#     4  11  24  38  58  88 118 151 191 238 291 347
#
# _framework density 19.668115
#
# number of rings (size 3 to 8) (size 9 to 14) (size 15 to 20)
#    0.000    1.714    0.000    5.571    0.000   11.429 
#    0.000    0.000    0.000    0.000    0.000    0.000 
#    0.000    0.000    0.000    0.000    0.000    0.000 
#
# Total GULP energy -347290.917602 kJ/mol
# GULP energy per Si atom -12403.247057 kJ/mol
# Density = 1.962335 g / cm^3
# Si number density = 19.668115 Si / 1000 Ang^3
#
#
#
# Elastic Constant Matrix: (Units=GPa)
#
#
# Indices 1 2 3 4 5 6 
#
# 1 105.8648 33.2961 36.9587 0.0000 -3.9940 0.0000
# 2 33.2961 90.8109 51.4602 0.0000 0.5984 0.0000
# 3 36.9587 51.4602 127.9217 0.0000 2.0518 0.0000
# 4 0.0000 0.0000 0.0000 26.1726 0.0000 -3.4472
# 5 -3.9940 0.5984 2.0518 0.0000 30.4538 0.0000
# 6 0.0000 0.0000 0.0000 -3.4472 0.0000 30.2276
#
#
#
# Elastic Compliance Matrix: (Units=1/GPa)
#
#
# Indices 1 2 3 4 5 6 
#
# 1 0.011152 -0.002926 -0.002072 0.000000 0.001660 0.000000
# 2 -0.002926 0.015031 -0.005196 0.000000 -0.000329 0.000000
# 3 -0.002072 -0.005196 0.010520 0.000000 -0.000878 0.000000
# 4 0.000000 0.000000 0.000000 0.038791 0.000000 0.004424
# 5 0.001660 -0.000329 -0.000878 0.000000 0.033120 0.000000
# 6 0.000000 0.000000 0.000000 0.004424 0.000000 0.033587
#
#
# Mechanical properties :
#
#
# Convention : Reuss Voigt Hill
#
# Bulk Modulus (GPa) = 61.28867 63.11418 62.20142
# Shear Modulus (GPa) = 29.75707 30.89629 30.32668
#
# Velocity S-wave (km/s) = 3.89390 3.96774 3.93099
# Velocity P-wave (km/s) = 7.17256 7.29039 7.23172
#
# Compressibility (1/GPa) = 0.01631623
#
# Stress axis : x y z
#
# Youngs Moduli (GPa) = 89.66916 66.52732 95.05523
#
# Poissons Ratio (x) = 0.19466 0.19692
# Poissons Ratio (y) = 0.26237 0.49392
# Poissons Ratio (z) = 0.18576 0.34569
#
# Static dielectric constant tensor:
#      x y z
#    x 3.485630 0.000000 -0.208840 
#    y 0.000000 3.498830 0.000000 
#    z -0.208840 0.000000 3.136470 
# 
# 
# High freq. dielectric constant tensor:
#      x y z
#    x 1.770690 0.000000 0.004760 
#    y 0.000000 1.764790 0.000000 
#    z 0.004760 0.000000 1.780200 
# 
# From -- ./inp_files/81291.got.cif
#   From: 2010.06.25/outbox.cif.g09.slc.cpg/sg15_41_cif.got.tgz:81291.got - 2010.06.28 07:06:18.
