data_PCOD8143053
_publ_section_title
;
Structure prediction by ZEFSAII (Michael W. Deem and Ramdas Pophale) SiO2 
 PCOD8143053
Probable space group: C 2/C
;
_chemical_formula_sum "Si O2"
_cell_formula_units_Z 40
_cell_length_a 21.497867
_cell_length_b 6.105769
_cell_length_c 25.546849
_cell_angle_alpha 90.000000
_cell_angle_beta 147.703379
_cell_angle_gamma 90.000000
_cell_volume 1791.679349
_symmetry_space_group_name_H-M "C 2/C"
_symmetry_group_IT_number 15
_symmetry_cell_setting 'monoclinic'
loop_
_space_group_symop_operation_xyz
x,y,z
-x,y,1/2-z
-x,-y,-z
x,-y,1/2+z
1/2+x,1/2+y,z
1/2-x,1/2+y,1/2-z
1/2-x,1/2-y,-z
1/2+x,1/2-y,1/2+z
loop_
_atom_site_type_symbol
_atom_site_label
_atom_site_fract_x
_atom_site_fract_y
_atom_site_fract_z
Si Si1 0.112579 0.384253 0.602818
Si Si2 0.302423 0.119159 0.488943
Si Si3 0.996025 0.296043 0.876730
Si Si4 0.804538 0.866169 0.175465
Si Si5 0.857691 0.986898 0.448996
O O1 0.107811 0.411904 0.663175
O O2 0.228130 0.504021 0.663877
O O3 0.111754 0.126690 0.584589
O O4 0.000000 0.500000 0.500000
O O5 0.250000 0.250000 0.500000
O O6 0.357907 0.292869 0.490452
O O7 0.407203 0.954802 0.580520
O O8 0.202466 0.983801 0.386452
O O9 0.938997 0.146777 0.790557
O O10 0.050954 0.161496 0.964127
O O11 0.764955 0.613329 0.142415
#
# Coordination Sequence:
#
# PCOD8143053 Si02
#       5
#     8   8   8   8   8
#     4  11  20  37  59  95 134 174 204 264 342 403
#     4  10  23  46  66  87 128 178 224 279 331 383
#     4  11  23  38  63  98 129 172 222 270 334 399
#     4  10  24  38  61 102 128 168 228 264 337 406
#     4  10  21  40  61  86 136 169 216 264 335 396
#
# _framework density 22.325423000000001
#
# number of rings (size 3 to 8) (size 9 to 14) (size 15 to 20)
#    0.000    1.600    6.000    0.600    2.800    6.400 
#    0.000    6.000    0.000    0.000    0.000    0.000 
#    0.000    0.000    0.000    0.000    0.000    0.000 
#
# Total GULP energy -247805.716277 kJ/mol
# GULP energy per Si atom -12390.285814 kJ/mol
# Density = 2.227461 g / cm^3
# Si number density = 22.325423 Si / 1000 Ang^3
#
#
#
# Elastic Constant Matrix: (Units=GPa)
#
#
# Indices 1 2 3 4 5 6 
#
# 1 105.8056 40.6945 49.6312 0.0005 -6.1558 -0.0016
# 2 40.6945 107.4498 35.6665 0.0005 2.0595 -0.0023
# 3 49.6312 35.6665 104.2699 -0.0029 -5.9729 -0.0083
# 4 0.0005 0.0005 -0.0029 26.4296 0.0000 -3.3017
# 5 -6.1558 2.0595 -5.9729 0.0000 20.6736 -0.0004
# 6 -0.0016 -0.0023 -0.0083 -3.3017 -0.0004 43.8100
#
#
#
# Elastic Compliance Matrix: (Units=1/GPa)
#
#
# Indices 1 2 3 4 5 6 
#
# 1 0.013272 -0.003428 -0.004981 -0.000001 0.002854 -0.000001
# 2 -0.003428 0.011476 -0.002459 0.000000 -0.002874 0.000000
# 3 -0.004981 -0.002459 0.012946 0.000002 0.002502 0.000002
# 4 -0.000001 0.000000 0.000002 0.038196 0.000000 0.002879
# 5 0.002854 -0.002874 0.002502 0.000000 0.050230 0.000001
# 6 -0.000001 0.000000 0.000002 0.002879 0.000001 0.023043
#
#
# Mechanical properties :
#
#
# Convention : Reuss Voigt Hill
#
# Bulk Modulus (GPa) = 62.66181 63.27886 62.97034
# Shear Modulus (GPa) = 28.37388 30.95152 29.66270
#
# Velocity S-wave (km/s) = 3.56887 3.72745 3.64902
# Velocity P-wave (km/s) = 6.71646 6.85059 6.78386
#
# Compressibility (1/GPa) = 0.01595868
#
# Stress axis : x y z
#
# Youngs Moduli (GPa) = 75.34381 87.13778 77.24454
#
# Poissons Ratio (x) = 0.29870 0.38479
# Poissons Ratio (y) = 0.25827 0.18991
# Poissons Ratio (z) = 0.37532 0.21423
#
# Static dielectric constant tensor:
#      x y z
#    x 4.453170 -0.000420 -0.256630 
#    y -0.000420 5.157620 0.000100 
#    z -0.256630 0.000100 3.949430 
# 
# 
# High freq. dielectric constant tensor:
#      x y z
#    x 1.860900 0.000000 -0.006180 
#    y 0.000000 1.889380 0.000000 
#    z -0.006180 0.000000 1.864960 
# 
# From -- ./inp_files/170480.got.cif
#   From: 2010.06.25/outbox.cif.g09.slc.cpg/sg15_86_cif.got.tgz:170480.got - 2010.06.28 07:06:18.
