data_PCOD8143088
_publ_section_title
;
Structure prediction by ZEFSAII (Michael W. Deem and Ramdas Pophale) SiO2 
 PCOD8143088
Probable space group: C 2/C
;
_chemical_formula_sum "Si O2"
_cell_formula_units_Z 40
_cell_length_a 19.190432
_cell_length_b 10.583965
_cell_length_c 12.636335
_cell_angle_alpha 90.000000
_cell_angle_beta 51.946844
_cell_angle_gamma 90.000000
_cell_volume 2021.023336
_symmetry_space_group_name_H-M "C 2/C"
_symmetry_group_IT_number 15
_symmetry_cell_setting 'monoclinic'
loop_
_space_group_symop_operation_xyz
x,y,z
-x,y,1/2-z
-x,-y,-z
x,-y,1/2+z
1/2+x,1/2+y,z
1/2-x,1/2+y,1/2-z
1/2-x,1/2-y,-z
1/2+x,1/2-y,1/2+z
loop_
_atom_site_type_symbol
_atom_site_label
_atom_site_fract_x
_atom_site_fract_y
_atom_site_fract_z
Si Si1 0.282091 0.088859 0.873649
Si Si2 0.773682 0.358258 0.616438
Si Si3 0.492347 0.659898 0.633820
Si Si4 0.076282 0.583973 0.377605
Si Si5 0.134306 0.014165 0.385736
O O1 0.288670 0.235435 0.834930
O O2 0.359682 0.005848 0.750122
O O3 0.180019 0.055229 0.942305
O O4 0.294593 0.074607 0.986597
O O5 0.868505 0.339944 0.584737
O O6 0.718452 0.452777 0.738033
O O7 0.500000 0.619310 0.750000
O O8 0.467950 0.807822 0.653500
O O9 0.583146 0.633528 0.484598
O O10 0.422519 0.573267 0.637905
O O11 0.000000 0.500000 0.500000
#
# Coordination Sequence:
#
# PCOD8143088 Si02
#       5
#     8   8   8   8   8
#     4  10  21  40  62  85 116 159 203 242 297 358
#     4  10  21  40  62  84 116 159 201 242 300 353
#     4  11  23  39  61  89 122 155 202 245 307 358
#     4  11  24  39  59  91 124 154 198 256 301 360
#     4  10  21  41  60  87 117 157 197 253 290 363
#
# _framework density 19.791952999999999
#
# number of rings (size 3 to 8) (size 9 to 14) (size 15 to 20)
#    0.000    1.600    2.000    2.400    2.800    0.000 
#    0.000    3.000    0.000    0.000    0.000    0.000 
#    0.000    0.000    0.000    0.000    0.000    0.000 
#
# Total GULP energy -247858.679747 kJ/mol
# GULP energy per Si atom -12392.933987 kJ/mol
# Density = 1.974691 g / cm^3
# Si number density = 19.791953 Si / 1000 Ang^3
#
#
#
# Elastic Constant Matrix: (Units=GPa)
#
#
# Indices 1 2 3 4 5 6 
#
# 1 81.1124 41.1848 51.2634 0.0000 3.8940 0.0000
# 2 41.1848 84.6843 53.6998 0.0000 3.8848 0.0000
# 3 51.2634 53.6998 108.9558 0.0000 1.3765 0.0000
# 4 0.0000 0.0000 0.0000 26.3870 0.0000 -7.1774
# 5 3.8940 3.8848 1.3765 0.0000 31.7461 0.0000
# 6 0.0000 0.0000 0.0000 -7.1774 0.0000 33.1549
#
#
#
# Elastic Compliance Matrix: (Units=1/GPa)
#
#
# Indices 1 2 3 4 5 6 
#
# 1 0.019061 -0.005133 -0.006420 0.000000 -0.001432 0.000000
# 2 -0.005133 0.018655 -0.006762 0.000000 -0.001360 0.000000
# 3 -0.006420 -0.006762 0.015520 0.000000 0.000942 0.000000
# 4 0.000000 0.000000 0.000000 0.040269 0.000000 0.008717
# 5 -0.001432 -0.001360 0.000942 0.000000 0.031801 0.000000
# 6 0.000000 0.000000 0.000000 0.008717 0.000000 0.032049
#
#
# Mechanical properties :
#
#
# Convention : Reuss Voigt Hill
#
# Bulk Modulus (GPa) = 60.22252 63.00537 61.61395
# Shear Modulus (GPa) = 25.06001 26.83122 25.94562
#
# Velocity S-wave (km/s) = 3.56219 3.68593 3.62459
# Velocity P-wave (km/s) = 6.88569 7.07232 6.97963
#
# Compressibility (1/GPa) = 0.01660509
#
# Stress axis : x y z
#
# Youngs Moduli (GPa) = 52.46215 53.60381 64.43471
#
# Poissons Ratio (x) = 0.27517 0.41369
# Poissons Ratio (y) = 0.26930 0.43571
# Poissons Ratio (z) = 0.33682 0.36247
#
# Static dielectric constant tensor:
#      x y z
#    x 4.032630 0.000000 0.113590 
#    y 0.000000 3.509350 0.000000 
#    z 0.113590 0.000000 3.507260 
# 
# 
# High freq. dielectric constant tensor:
#      x y z
#    x 1.789930 0.000000 0.004380 
#    y 0.000000 1.769870 0.000000 
#    z 0.004380 0.000000 1.770600 
# 
# From -- ./inp_files/103578.got.cif
#   From: 2010.06.25/outbox.cif.g09.slc.cpg/sg15_52_cif.got.tgz:103578.got - 2010.06.28 07:06:18.
