data_PCOD8143417
_publ_section_title
;
Structure prediction by ZEFSAII (Michael W. Deem and Ramdas Pophale) SiO2 
 PCOD8143417
Probable space group: C 2/C
;
_chemical_formula_sum "Si O2"
_cell_formula_units_Z 28
_cell_length_a 7.022634
_cell_length_b 20.154653
_cell_length_c 10.169851
_cell_angle_alpha 90.000000
_cell_angle_beta 54.805395
_cell_angle_gamma 90.000000
_cell_volume 1176.299380
_symmetry_space_group_name_H-M "C 2/C"
_symmetry_group_IT_number 15
_symmetry_cell_setting 'monoclinic'
loop_
_space_group_symop_operation_xyz
x,y,z
-x,y,1/2-z
-x,-y,-z
x,-y,1/2+z
1/2+x,1/2+y,z
1/2-x,1/2+y,1/2-z
1/2-x,1/2-y,-z
1/2+x,1/2-y,1/2+z
loop_
_atom_site_type_symbol
_atom_site_label
_atom_site_fract_x
_atom_site_fract_y
_atom_site_fract_z
Si Si1 0.626814 0.907030 0.560051
Si Si2 0.000000 0.259056 0.250000
Si Si3 0.163906 0.556373 0.558452
Si Si4 0.962454 0.166761 0.509996
O O1 0.500000 0.901620 0.750000
O O2 0.448563 0.896826 0.511130
O O3 0.821127 0.847823 0.476699
O O4 0.725008 0.981335 0.492607
O O5 0.033645 0.214342 0.364132
O O6 0.771284 0.304748 0.331957
O O7 0.410649 0.591603 0.483629
O O8 0.000000 0.556218 0.750000
#
# Coordination Sequence:
#
# PCOD8143417 Si02
#       4
#     8   4   8   8
#     4  10  22  39  68 101 126 169 220 275 340 397
#     4  10  24  40  68  94 138 182 228 264 328 386
#     4  10  21  40  66  99 130 165 218 277 341 389
#     4  11  21  44  63  94 134 177 218 280 319 396
#
# _framework density 23.803464999999999
#
# number of rings (size 3 to 8) (size 9 to 14) (size 15 to 20)
#    0.000    1.714    1.429    2.571    0.000    1.143 
#    0.000   24.286    0.000    0.000    0.000    0.000 
#    0.000    0.000    0.000    0.000    0.000    0.000 
#
# Total GULP energy -173494.792312 kJ/mol
# GULP energy per Si atom -12392.485165 kJ/mol
# Density = 2.374929 g / cm^3
# Si number density = 23.803465 Si / 1000 Ang^3
#
#
#
# Elastic Constant Matrix: (Units=GPa)
#
#
# Indices 1 2 3 4 5 6 
#
# 1 96.0777 25.8663 32.1833 0.0000 -1.3574 0.0000
# 2 25.8663 81.3228 17.8472 0.0000 -17.8656 0.0000
# 3 32.1833 17.8472 85.6686 0.0000 -1.6382 0.0000
# 4 0.0000 0.0000 0.0000 1.8977 0.0000 1.6167
# 5 -1.3574 -17.8656 -1.6382 0.0000 33.5185 0.0000
# 6 0.0000 0.0000 0.0000 1.6167 0.0000 49.8668
#
#
#
# Elastic Compliance Matrix: (Units=1/GPa)
#
#
# Indices 1 2 3 4 5 6 
#
# 1 0.012687 -0.003480 -0.004071 0.000000 -0.001540 0.000000
# 2 -0.003480 0.015567 -0.001781 0.000000 0.008070 0.000000
# 3 -0.004071 -0.001781 0.013565 0.000000 -0.000451 0.000000
# 4 0.000000 0.000000 0.000000 0.541918 0.000000 -0.017569
# 5 -0.001540 0.008070 -0.000451 0.000000 0.034051 0.000000
# 6 0.000000 0.000000 0.000000 -0.017569 0.000000 0.020623
#
#
# Mechanical properties :
#
#
# Convention : Reuss Voigt Hill
#
# Bulk Modulus (GPa) = 43.18832 46.09586 44.64209
# Shear Modulus (GPa) = 7.52114 29.53474 18.52794
#
# Velocity S-wave (km/s) = 1.77948 3.52628 2.79296
# Velocity P-wave (km/s) = 4.73341 5.99890 5.40333
#
# Compressibility (1/GPa) = 0.02315441
#
# Stress axis : x y z
#
# Youngs Moduli (GPa) = 78.82085 64.23675 73.72162
#
# Poissons Ratio (x) = 0.22357 0.30009
# Poissons Ratio (y) = 0.27433 0.13132
# Poissons Ratio (z) = 0.32084 0.11443
#
# Static dielectric constant tensor:
#      x y z
#    x 4.307760 0.000000 0.014240 
#    y 0.000000 4.600290 0.000000 
#    z 0.014240 0.000000 4.089170 
# 
# 
# High freq. dielectric constant tensor:
#      x y z
#    x 1.945490 0.000000 0.001120 
#    y 0.000000 1.955490 0.000000 
#    z 0.001120 0.000000 1.928590 
# 
# From -- ./inp_files/71738.got.cif
#   From: 2010.06.25/outbox.cif.g09.slc.cpg/sg15_36_cif.got.tgz:71738.got - 2010.06.28 07:06:18.
