data_PCOD8143752
_publ_section_title
;
Structure prediction by ZEFSAII (Michael W. Deem and Ramdas Pophale) SiO2 
 PCOD8143752
Probable space group: C 2/C
;
_chemical_formula_sum "Si O2"
_cell_formula_units_Z 40
_cell_length_a 20.404520
_cell_length_b 13.028915
_cell_length_c 7.927269
_cell_angle_alpha 90.000000
_cell_angle_beta 131.042303
_cell_angle_gamma 90.000000
_cell_volume 1589.494928
_symmetry_space_group_name_H-M "C 2/C"
_symmetry_group_IT_number 15
_symmetry_cell_setting 'monoclinic'
loop_
_space_group_symop_operation_xyz
x,y,z
-x,y,1/2-z
-x,-y,-z
x,-y,1/2+z
1/2+x,1/2+y,z
1/2-x,1/2+y,1/2-z
1/2-x,1/2-y,-z
1/2+x,1/2-y,1/2+z
loop_
_atom_site_type_symbol
_atom_site_label
_atom_site_fract_x
_atom_site_fract_y
_atom_site_fract_z
Si Si1 0.250868 0.151447 0.839298
Si Si2 0.788417 0.949556 0.580393
Si Si3 0.351407 0.160891 0.449816
Si Si4 0.550162 0.317724 0.670082
Si Si5 0.937044 0.325099 0.778103
O O1 0.240720 0.094759 0.645045
O O2 0.192910 0.253087 0.745804
O O3 0.214865 0.073545 0.923288
O O4 0.348904 0.189208 0.024571
O O5 0.717896 0.920077 0.603727
O O6 0.883986 0.904950 0.788008
O O7 0.397620 0.214722 0.686221
O O8 0.418591 0.111962 0.423889
O O9 0.500000 0.362028 0.750000
O O10 0.483484 0.283509 0.410189
O O11 0.000000 0.383269 0.750000
#
# Coordination Sequence:
#
# PCOD8143752 Si02
#       5
#     8   8   8   8   8
#     4  11  23  39  65  98 130 174 224 263 322 402
#     4  11  22  42  65  94 132 178 218 264 325 404
#     4  10  21  41  64  89 129 178 220 265 326 397
#     4   9  20  39  63  90 128 176 219 266 325 377
#     4  11  21  37  62  95 128 164 213 274 324 372
#
# _framework density 25.165226000000001
#
# number of rings (size 3 to 8) (size 9 to 14) (size 15 to 20)
#    0.000    1.600    0.000    6.600    0.000    1.600 
#    0.000   20.000    0.000    4.800    0.000    1.400 
#    0.000    0.000    0.000    0.000    0.000    0.000 
#
# Total GULP energy -247809.411669 kJ/mol
# GULP energy per Si atom -12390.470583 kJ/mol
# Density = 2.510795 g / cm^3
# Si number density = 25.165226 Si / 1000 Ang^3
#
#
#
# Elastic Constant Matrix: (Units=GPa)
#
#
# Indices 1 2 3 4 5 6 
#
# 1 138.4242 19.5629 -0.1877 0.0000 7.3228 0.0000
# 2 19.5629 61.7997 12.4420 0.0000 15.3055 0.0000
# 3 -0.1877 12.4420 112.2380 0.0000 29.4905 0.0000
# 4 0.0000 0.0000 0.0000 17.8888 0.0000 -7.9803
# 5 7.3228 15.3055 29.4905 0.0000 38.5235 0.0000
# 6 0.0000 0.0000 0.0000 -7.9803 0.0000 29.7635
#
#
#
# Elastic Compliance Matrix: (Units=1/GPa)
#
#
# Indices 1 2 3 4 5 6 
#
# 1 0.007596 -0.002277 0.000509 0.000000 -0.000929 0.000000
# 2 -0.002277 0.018632 -0.000298 0.000000 -0.006742 0.000000
# 3 0.000509 -0.000298 0.011188 0.000000 -0.008543 0.000000
# 4 0.000000 0.000000 0.000000 0.063496 0.000000 0.017025
# 5 -0.000929 -0.006742 -0.008543 0.000000 0.035353 0.000000
# 6 0.000000 0.000000 0.000000 0.017025 0.000000 0.038163
#
#
# Mechanical properties :
#
#
# Convention : Reuss Voigt Hill
#
# Bulk Modulus (GPa) = 30.04383 41.78848 35.91615
# Shear Modulus (GPa) = 26.36382 35.94480 31.15431
#
# Velocity S-wave (km/s) = 3.24022 3.78345 3.52233
# Velocity P-wave (km/s) = 5.09542 5.97727 5.55387
#
# Compressibility (1/GPa) = 0.03328470
#
# Stress axis : x y z
#
# Youngs Moduli (GPa) = 131.65188 53.67198 89.37948
#
# Poissons Ratio (x) = 0.12221 -0.04551
# Poissons Ratio (y) = 0.29976 0.02662
# Poissons Ratio (z) = -0.06704 0.01599
#
# Static dielectric constant tensor:
#      x y z
#    x 4.997790 0.000000 0.066760 
#    y 0.000000 4.284160 0.000000 
#    z 0.066760 0.000000 4.759970 
# 
# 
# High freq. dielectric constant tensor:
#      x y z
#    x 2.026720 0.000000 -0.003790 
#    y 0.000000 1.950690 0.000000 
#    z -0.003790 0.000000 2.017800 
# 
# From -- ./inp_files/61737.got.cif
#   From: 2010.06.25/outbox.cif.g09.slc.cpg/sg15_31_cif.got.tgz:61737.got - 2010.06.28 07:06:18.
