data_PCOD8143340
_publ_section_title
;
Structure prediction by ZEFSAII (Michael W. Deem and Ramdas Pophale) SiO2 
 PCOD8143340
Probable space group: C 2/C
;
_chemical_formula_sum "Si O2"
_cell_formula_units_Z 48
_cell_length_a 8.259836
_cell_length_b 19.581730
_cell_length_c 13.953081
_cell_angle_alpha 90.000000
_cell_angle_beta 68.310179
_cell_angle_gamma 90.000000
_cell_volume 2097.012305
_symmetry_space_group_name_H-M "C 2/C"
_symmetry_group_IT_number 15
_symmetry_cell_setting 'monoclinic'
loop_
_space_group_symop_operation_xyz
x,y,z
-x,y,1/2-z
-x,-y,-z
x,-y,1/2+z
1/2+x,1/2+y,z
1/2-x,1/2+y,1/2-z
1/2-x,1/2-y,-z
1/2+x,1/2-y,1/2+z
loop_
_atom_site_type_symbol
_atom_site_label
_atom_site_fract_x
_atom_site_fract_y
_atom_site_fract_z
Si Si1 0.196669 0.514033 0.728836
Si Si2 0.649911 0.223670 0.140489
Si Si3 0.704240 0.963171 0.449723
Si Si4 0.930465 0.319877 0.037000
Si Si5 0.782627 0.401040 0.452517
Si Si6 0.394447 0.593184 0.072766
O O1 0.236422 0.532556 0.829672
O O2 0.227194 0.582260 0.658214
O O3 0.331067 0.454674 0.673105
O O4 0.000000 0.488092 0.750000
O O5 0.500000 0.213858 0.250000
O O6 0.765729 0.292011 0.135360
O O7 0.786371 0.162341 0.105840
O O8 0.551038 0.230261 0.059057
O O9 0.595444 0.895833 0.498776
O O10 0.879569 0.948539 0.474674
O O11 0.622894 0.032911 0.514079
O O12 0.107404 0.330364 0.059886
O O13 0.596903 0.388621 0.542724
#
# Coordination Sequence:
#
# PCOD8143340 Si02
#       6
#     8   8   8   8   8   8
#     4  11  21  36  64  98 131 175 215 270 335 388
#     4  10  23  46  67  90 123 178 225 263 323 395
#     4  10  21  40  65  94 133 170 211 269 327 390
#     4  10  22  43  67  92 128 170 216 273 326 385
#     4  11  23  40  61 101 135 164 213 279 329 387
#     4  10  24  39  63  96 133 170 220 267 326 394
#
# _framework density 22.889707000000001
#
# number of rings (size 3 to 8) (size 9 to 14) (size 15 to 20)
#    0.000    1.667    1.667    3.000    7.000    3.333 
#   12.000    0.000    3.667    0.000    0.000    0.000 
#    0.000    0.000    0.000    0.000    0.000    0.000 
#
# Total GULP energy -297346.368893 kJ/mol
# GULP energy per Si atom -12389.432037 kJ/mol
# Density = 2.283761 g / cm^3
# Si number density = 22.889707 Si / 1000 Ang^3
#
#
#
# Elastic Constant Matrix: (Units=GPa)
#
#
# Indices 1 2 3 4 5 6 
#
# 1 79.7270 52.6058 46.7511 0.0000 -13.3678 0.0000
# 2 52.6058 88.3572 36.9451 0.0000 -7.4895 0.0000
# 3 46.7511 36.9451 135.7528 0.0000 -2.8564 0.0000
# 4 0.0000 0.0000 0.0000 20.6974 0.0000 -3.1100
# 5 -13.3678 -7.4895 -2.8564 0.0000 35.7850 0.0000
# 6 0.0000 0.0000 0.0000 -3.1100 0.0000 39.4927
#
#
#
# Elastic Compliance Matrix: (Units=1/GPa)
#
#
# Indices 1 2 3 4 5 6 
#
# 1 0.024375 -0.011882 -0.005030 0.000000 0.006217 0.000000
# 2 -0.011882 0.018772 -0.001029 0.000000 -0.000592 0.000000
# 3 -0.005030 -0.001029 0.009350 0.000000 -0.001348 0.000000
# 4 0.000000 0.000000 0.000000 0.048894 0.000000 0.003850
# 5 0.006217 -0.000592 -0.001348 0.000000 0.030036 0.000000
# 6 0.000000 0.000000 0.000000 0.003850 0.000000 0.025624
#
#
# Mechanical properties :
#
#
# Convention : Reuss Voigt Hill
#
# Bulk Modulus (GPa) = 60.18679 64.04901 62.11790
# Shear Modulus (GPa) = 25.19255 30.36401 27.77828
#
# Velocity S-wave (km/s) = 3.32114 3.64611 3.48741
# Velocity P-wave (km/s) = 6.40765 6.76519 6.58885
#
# Compressibility (1/GPa) = 0.01661494
#
# Stress axis : x y z
#
# Youngs Moduli (GPa) = 41.02626 53.27033 106.94883
#
# Poissons Ratio (x) = 0.63296 0.53793
# Poissons Ratio (y) = 0.48747 0.11009
# Poissons Ratio (z) = 0.20635 0.05483
#
# Static dielectric constant tensor:
#      x y z
#    x 4.430740 0.000000 0.171840 
#    y 0.000000 4.210730 0.000000 
#    z 0.171840 0.000000 3.992930 
# 
# 
# High freq. dielectric constant tensor:
#      x y z
#    x 1.912250 0.000000 -0.000630 
#    y 0.000000 1.894670 0.000000 
#    z -0.000630 0.000000 1.889040 
# 
# From -- ./inp_files/135926.got.cif
#   From: 2010.06.25/outbox.cif.g09.slc.cpg/sg15_68_cif.got.tgz:135926.got - 2010.06.28 07:06:18.
