data_PCOD8143124
_publ_section_title
;
Structure prediction by ZEFSAII (Michael W. Deem and Ramdas Pophale) SiO2 
 PCOD8143124
Probable space group: C 2/C
;
_chemical_formula_sum "Si O2"
_cell_formula_units_Z 52
_cell_length_a 25.712666
_cell_length_b 7.596479
_cell_length_c 23.266196
_cell_angle_alpha 90.000000
_cell_angle_beta 30.583452
_cell_angle_gamma 90.000000
_cell_volume 2312.202079
_symmetry_space_group_name_H-M "C 2/C"
_symmetry_group_IT_number 15
_symmetry_cell_setting 'monoclinic'
loop_
_space_group_symop_operation_xyz
x,y,z
-x,y,1/2-z
-x,-y,-z
x,-y,1/2+z
1/2+x,1/2+y,z
1/2-x,1/2+y,1/2-z
1/2-x,1/2-y,-z
1/2+x,1/2-y,1/2+z
loop_
_atom_site_type_symbol
_atom_site_label
_atom_site_fract_x
_atom_site_fract_y
_atom_site_fract_z
Si Si1 0.087713 0.804757 0.481770
Si Si2 0.061382 0.544657 0.055063
Si Si3 0.132368 0.355659 0.707075
Si Si4 0.309217 0.183414 0.226494
Si Si5 0.897584 0.674886 0.603892
Si Si6 0.641735 0.409995 0.017878
Si Si7 0.500000 0.629208 0.750000
O O1 0.122620 0.640528 0.490422
O O2 0.147964 0.805878 0.364689
O O3 0.967559 0.781309 0.582064
O O4 0.106771 0.988783 0.494290
O O5 0.125107 0.698894 0.025993
O O6 0.957203 0.506864 0.189846
O O7 0.033605 0.599816 0.015059
O O8 0.156255 0.245823 0.743152
O O9 0.237836 0.446465 0.584724
O O10 0.087737 0.237612 0.699120
O O11 0.186204 0.193678 0.342706
O O12 0.338716 0.980001 0.192756
O O13 0.568471 0.481027 0.139274
#
# Coordination Sequence:
#
# PCOD8143124 Si02
#       7
#     8   8   8   8   8   8   4
#     4  11  23  40  63 100 141 169 210 265 328 401
#     4  10  21  40  62  95 136 170 201 266 321 390
#     4  11  20  43  68  92 128 171 223 269 328 387
#     4  11  21  35  65 102 135 175 211 256 337 401
#     4  11  21  38  59 101 144 167 207 258 322 410
#     4  11  24  44  68  95 127 177 226 263 330 380
#     4  10  26  44  68  92 126 176 230 288 308 370
#
# _framework density 22.489384000000001
#
# number of rings (size 3 to 8) (size 9 to 14) (size 15 to 20)
#    0.000    1.231    4.615    2.308    0.000    3.077 
#    0.000    3.077    0.000    5.538    0.000    0.000 
#    0.000    0.000    0.000    0.000    0.000    0.000 
#
# Total GULP energy -322163.776556 kJ/mol
# GULP energy per Si atom -12390.914483 kJ/mol
# Density = 2.243820 g / cm^3
# Si number density = 22.489384 Si / 1000 Ang^3
#
#
#
# Elastic Constant Matrix: (Units=GPa)
#
#
# Indices 1 2 3 4 5 6 
#
# 1 87.0022 29.0209 43.3341 0.1533 -11.1742 -0.0773
# 2 29.0209 53.6391 25.1432 -0.2343 -6.8304 0.1377
# 3 43.3341 25.1432 145.9775 -0.1196 7.1268 0.0700
# 4 0.1533 -0.2343 -0.1196 22.9947 0.1064 3.2134
# 5 -11.1742 -6.8304 7.1268 0.1064 39.6177 -0.0544
# 6 -0.0773 0.1377 0.0700 3.2134 -0.0544 21.0880
#
#
#
# Elastic Compliance Matrix: (Units=1/GPa)
#
#
# Indices 1 2 3 4 5 6 
#
# 1 0.016079 -0.006354 -0.003881 -0.000234 0.004138 0.000160
# 2 -0.006354 0.023497 -0.002291 0.000286 0.002670 -0.000206
# 3 -0.003881 -0.002291 0.008545 0.000067 -0.003027 -0.000046
# 4 -0.000234 0.000286 0.000067 0.044441 -0.000157 -0.006775
# 5 0.004138 0.002670 -0.003027 -0.000157 0.027414 0.000102
# 6 0.000160 -0.000206 -0.000046 -0.006775 0.000102 0.048455
#
#
# Mechanical properties :
#
#
# Convention : Reuss Voigt Hill
#
# Bulk Modulus (GPa) = 43.35002 53.51279 48.43141
# Shear Modulus (GPa) = 24.85447 29.34813 27.10130
#
# Velocity S-wave (km/s) = 3.32801 3.61637 3.47518
# Velocity P-wave (km/s) = 5.83825 6.42525 6.13877
#
# Compressibility (1/GPa) = 0.02306804
#
# Stress axis : x y z
#
# Youngs Moduli (GPa) = 62.19436 42.55926 117.02995
#
# Poissons Ratio (x) = 0.27044 0.45417
# Poissons Ratio (y) = 0.39521 0.26808
# Poissons Ratio (z) = 0.24137 0.09749
#
# Static dielectric constant tensor:
#      x y z
#    x 4.017890 -0.000030 0.038350 
#    y -0.000030 3.653660 0.000160 
#    z 0.038350 0.000160 4.535040 
# 
# 
# High freq. dielectric constant tensor:
#      x y z
#    x 1.872990 -0.000010 -0.002610 
#    y -0.000010 1.838520 0.000010 
#    z -0.002610 0.000010 1.913670 
# 
# From -- ./inp_files/283298.got.cif
#   From: 2010.06.25/outbox.cif.g09.slc.cpg/sg15_142_cif.got.tgz:283298.got - 2010.06.28 07:06:18.
