data_PCOD8143110
_publ_section_title
;
Structure prediction by ZEFSAII (Michael W. Deem and Ramdas Pophale) SiO2 
 PCOD8143110
Probable space group: C 2/C
;
_chemical_formula_sum "Si O2"
_cell_formula_units_Z 32
_cell_length_a 13.153780
_cell_length_b 5.219116
_cell_length_c 24.749481
_cell_angle_alpha 90.000000
_cell_angle_beta 127.222891
_cell_angle_gamma 90.000000
_cell_volume 1352.956881
_symmetry_space_group_name_H-M "C 2/C"
_symmetry_group_IT_number 15
_symmetry_cell_setting 'monoclinic'
loop_
_space_group_symop_operation_xyz
x,y,z
-x,y,1/2-z
-x,-y,-z
x,-y,1/2+z
1/2+x,1/2+y,z
1/2-x,1/2+y,1/2-z
1/2-x,1/2-y,-z
1/2+x,1/2-y,1/2+z
loop_
_atom_site_type_symbol
_atom_site_label
_atom_site_fract_x
_atom_site_fract_y
_atom_site_fract_z
Si Si1 0.751260 0.472095 0.555254
Si Si2 0.054739 0.382576 0.463349
Si Si3 0.147140 0.307712 0.310456
Si Si4 0.216210 0.698740 0.647678
O O1 0.844747 0.418424 0.533593
O O2 0.620413 0.608306 0.494749
O O3 0.829202 0.678207 0.617442
O O4 0.723969 0.223259 0.583712
O O5 0.000000 0.500000 0.500000
O O6 0.932775 0.333328 0.384766
O O7 0.223460 0.544506 0.306339
O O8 0.000000 0.330067 0.250000
O O9 0.203084 0.042740 0.305658
#
# Coordination Sequence:
#
# PCOD8143110 Si02
#       4
#     8   8   8   8
#     4   9  23  37  62  94 125 157 200 255 306 363
#     4  11  19  41  62  96 124 160 201 253 312 370
#     4  10  21  42  62  87 123 164 208 253 302 358
#     4  10  21  40  62  91 122 161 201 255 302 365
#
# _framework density 23.651899
#
# number of rings (size 3 to 8) (size 9 to 14) (size 15 to 20)
#    1.500    0.500    2.500    1.500    0.000    1.000 
#    9.000    2.500    0.000    0.000    0.000    0.000 
#    0.000    0.000    0.000    0.000    0.000    0.000 
#
# Total GULP energy -198270.414730 kJ/mol
# GULP energy per Si atom -12391.900921 kJ/mol
# Density = 2.359807 g / cm^3
# Si number density = 23.651899 Si / 1000 Ang^3
#
#
#
# Elastic Constant Matrix: (Units=GPa)
#
#
# Indices 1 2 3 4 5 6 
#
# 1 115.4428 35.5089 15.0736 -0.0001 35.5654 0.0002
# 2 35.5089 103.1123 2.4040 -0.0001 25.0469 0.0003
# 3 15.0736 2.4040 82.9639 -0.0001 52.2484 0.0001
# 4 -0.0001 -0.0001 -0.0001 23.3118 0.0001 9.9445
# 5 35.5654 25.0469 52.2484 0.0001 52.1081 -0.0002
# 6 0.0002 0.0003 0.0001 9.9445 -0.0002 24.0338
#
#
#
# Elastic Compliance Matrix: (Units=1/GPa)
#
#
# Indices 1 2 3 4 5 6 
#
# 1 0.012958 -0.000545 0.008320 0.000000 -0.016925 0.000000
# 2 -0.000545 0.013499 0.009660 0.000000 -0.015803 0.000000
# 3 0.008320 0.009660 0.045484 0.000001 -0.055929 -0.000001
# 4 0.000000 0.000000 0.000001 0.052091 -0.000001 -0.021554
# 5 -0.016925 -0.015803 -0.055929 -0.000001 0.094418 0.000002
# 6 0.000000 0.000000 -0.000001 -0.021554 0.000002 0.050527
#
#
# Mechanical properties :
#
#
# Convention : Reuss Voigt Hill
#
# Bulk Modulus (GPa) = 9.36228 45.27687 27.31958
# Shear Modulus (GPa) = 18.53837 36.45958 27.49898
#
# Velocity S-wave (km/s) = 2.80268 3.93046 3.41347
# Velocity P-wave (km/s) = 3.80004 6.30735 5.20687
#
# Compressibility (1/GPa) = 0.10681158
#
# Stress axis : x y z
#
# Youngs Moduli (GPa) = 77.17423 74.07806 21.98556
#
# Poissons Ratio (x) = 0.04038 -0.18292
# Poissons Ratio (y) = 0.04207 -0.21238
# Poissons Ratio (z) = -0.64211 -0.71559
#
# Static dielectric constant tensor:
#      x y z
#    x 4.334930 0.000000 0.477270 
#    y 0.000000 4.084260 0.000000 
#    z 0.477270 0.000000 4.287890 
# 
# 
# High freq. dielectric constant tensor:
#      x y z
#    x 1.919380 0.000000 0.027260 
#    y 0.000000 1.934670 0.000000 
#    z 0.027260 0.000000 1.933230 
# 
# From -- ./inp_files/290468.got.cif
#   From: 2010.06.25/outbox.cif.g09.slc.cpg/sg15_146_cif.got.tgz:290468.got - 2010.06.28 07:06:18.
