data_PCOD8143385
_publ_section_title
;
Structure prediction by ZEFSAII (Michael W. Deem and Ramdas Pophale) SiO2 
 PCOD8143385
Probable space group: C 2/C
;
_chemical_formula_sum "Si O2"
_cell_formula_units_Z 44
_cell_length_a 29.018863
_cell_length_b 13.012317
_cell_length_c 11.531090
_cell_angle_alpha 90.000000
_cell_angle_beta 28.085531
_cell_angle_gamma 90.000000
_cell_volume 2049.895817
_symmetry_space_group_name_H-M "C 2/C"
_symmetry_group_IT_number 15
_symmetry_cell_setting 'monoclinic'
loop_
_space_group_symop_operation_xyz
x,y,z
-x,y,1/2-z
-x,-y,-z
x,-y,1/2+z
1/2+x,1/2+y,z
1/2-x,1/2+y,1/2-z
1/2-x,1/2-y,-z
1/2+x,1/2-y,1/2+z
loop_
_atom_site_type_symbol
_atom_site_label
_atom_site_fract_x
_atom_site_fract_y
_atom_site_fract_z
Si Si1 0.500000 0.939254 0.250000
Si Si2 0.469969 0.176064 0.581181
Si Si3 0.163800 0.578308 0.801731
Si Si4 0.644922 0.555507 0.624391
Si Si5 0.400732 0.246532 0.400225
Si Si6 0.005832 0.118392 0.367469
O O1 0.497685 0.872301 0.370394
O O2 0.405600 0.010563 0.463371
O O3 0.382029 0.110300 0.720630
O O4 0.564012 0.176899 0.286897
O O5 0.440882 0.295057 0.671155
O O6 0.260073 0.512845 0.563621
O O7 0.176391 0.683286 0.848743
O O8 0.660188 0.653422 0.506096
O O9 0.565726 0.486149 0.735498
O O10 0.603030 0.595430 0.840680
O O11 0.500000 0.276735 0.250000
O O12 0.000000 0.160014 0.250000
#
# Coordination Sequence:
#
# PCOD8143385 Si02
#       6
#     4   8   8   8   8   8
#     4  12  22  40  66  92 128 180 214 276 318 398
#     4  10  21  40  66  91 129 172 221 265 326 385
#     4  11  23  39  66  99 130 173 216 269 328 392
#     4  10  23  39  67  98 130 170 218 270 325 388
#     4   9  19  42  66  94 136 175 210 265 326 390
#     4  10  21  43  64  94 129 173 215 271 327 384
#
# _framework density 21.464506
#
# number of rings (size 3 to 8) (size 9 to 14) (size 15 to 20)
#    0.000    1.818    3.636    1.091    0.000    5.091 
#    0.000    1.818    0.000    0.000    0.000    0.000 
#    0.000    0.000    0.000    0.000    0.000    0.000 
#
# Total GULP energy -272698.670167 kJ/mol
# GULP energy per Si atom -12395.394098 kJ/mol
# Density = 2.141565 g / cm^3
# Si number density = 21.464506 Si / 1000 Ang^3
#
#
#
# Elastic Constant Matrix: (Units=GPa)
#
#
# Indices 1 2 3 4 5 6 
#
# 1 107.8882 53.6675 46.0544 0.0000 20.2910 0.0000
# 2 53.6675 124.3492 51.4932 0.0000 -2.5310 0.0000
# 3 46.0544 51.4932 92.7586 0.0000 -3.8466 0.0000
# 4 0.0000 0.0000 0.0000 77.1748 0.0000 -53.1568
# 5 20.2910 -2.5310 -3.8466 0.0000 30.2377 0.0000
# 6 0.0000 0.0000 0.0000 -53.1568 0.0000 89.1629
#
#
#
# Elastic Compliance Matrix: (Units=1/GPa)
#
#
# Indices 1 2 3 4 5 6 
#
# 1 0.016607 -0.004924 -0.006023 0.000000 -0.012322 0.000000
# 2 -0.004924 0.011903 -0.004006 0.000000 0.003791 0.000000
# 3 -0.006023 -0.004006 0.016234 0.000000 0.005771 0.000000
# 4 0.000000 0.000000 0.000000 0.021986 0.000000 0.013107
# 5 -0.012322 0.003791 0.005771 0.000000 0.042392 0.000000
# 6 0.000000 0.000000 0.000000 0.013107 0.000000 0.019030
#
#
# Mechanical properties :
#
#
# Convention : Reuss Voigt Hill
#
# Bulk Modulus (GPa) = 67.39129 69.71403 68.55266
# Shear Modulus (GPa) = 30.67454 50.90047 40.78750
#
# Velocity S-wave (km/s) = 3.78442 4.87496 4.36389
# Velocity P-wave (km/s) = 7.11060 8.01475 7.57617
#
# Compressibility (1/GPa) = 0.01483871
#
# Stress axis : x y z
#
# Youngs Moduli (GPa) = 60.21697 84.01277 61.59936
#
# Poissons Ratio (x) = 0.41368 0.37099
# Poissons Ratio (y) = 0.29651 0.24675
# Poissons Ratio (z) = 0.36267 0.33653
#
# Static dielectric constant tensor:
#      x y z
#    x 3.649990 0.000000 0.092950 
#    y 0.000000 4.192970 0.000000 
#    z 0.092950 0.000000 2.825030 
# 
# 
# High freq. dielectric constant tensor:
#      x y z
#    x 1.828650 0.000000 0.031590 
#    y 0.000000 1.866150 0.000000 
#    z 0.031590 0.000000 1.819100 
# 
# From -- ./inp_files/126697.got.cif
#   From: 2010.06.25/outbox.cif.g09.slc.cpg/sg15_64_cif.got.tgz:126697.got - 2010.06.28 07:06:18.
