data_PCOD8143876
_publ_section_title
;
Structure prediction by ZEFSAII (Michael W. Deem and Ramdas Pophale) SiO2 
 PCOD8143876
Probable space group: C 2/C
;
_chemical_formula_sum "Si O2"
_cell_formula_units_Z 48
_cell_length_a 28.258541
_cell_length_b 14.778042
_cell_length_c 8.901124
_cell_angle_alpha 90.000000
_cell_angle_beta 38.229853
_cell_angle_gamma 90.000000
_cell_volume 2300.245865
_symmetry_space_group_name_H-M "C 2/C"
_symmetry_group_IT_number 15
_symmetry_cell_setting 'monoclinic'
loop_
_space_group_symop_operation_xyz
x,y,z
-x,y,1/2-z
-x,-y,-z
x,-y,1/2+z
1/2+x,1/2+y,z
1/2-x,1/2+y,1/2-z
1/2-x,1/2-y,-z
1/2+x,1/2-y,1/2+z
loop_
_atom_site_type_symbol
_atom_site_label
_atom_site_fract_x
_atom_site_fract_y
_atom_site_fract_z
Si Si1 0.115226 0.239422 0.866835
Si Si2 0.918859 0.922269 0.516546
Si Si3 0.665113 0.066785 0.273349
Si Si4 0.422708 0.054220 0.714814
Si Si5 0.834209 0.067922 0.922330
Si Si6 0.552298 0.744844 0.347060
O O1 0.162579 0.330946 0.716088
O O2 0.164686 0.157363 0.681192
O O3 0.103838 0.223779 0.072964
O O4 0.036107 0.239855 0.974683
O O5 0.858534 0.913369 0.532337
O O6 0.928398 0.824923 0.569500
O O7 0.000000 0.957224 0.250000
O O8 0.889557 0.992767 0.713272
O O9 0.595135 0.059643 0.564545
O O10 0.648621 0.995212 0.184145
O O11 0.745832 0.038369 0.144479
O O12 0.430282 0.155602 0.630883
O O13 0.500000 0.000000 0.500000
#
# Coordination Sequence:
#
# PCOD8143876 Si02
#       6
#     8   8   8   8   8   8
#     4  10  21  41  66  91 128 164 212 260 320 374
#     4  12  25  42  64  95 124 170 220 262 309 379
#     4  11  24  42  64  98 131 168 206 262 324 383
#     4  11  22  42  68  97 128 166 214 261 314 377
#     4  12  25  42  64  93 133 169 209 261 326 375
#     4  10  22  40  66  97 122 163 218 270 304 369
#
# _framework density 20.867335000000001
#
# number of rings (size 3 to 8) (size 9 to 14) (size 15 to 20)
#    0.000    1.000    3.333    3.500    2.333    2.667 
#    0.000    9.167    0.000    0.000    0.000    0.000 
#    0.000    0.000    0.000    0.000    0.000    0.000 
#
# Total GULP energy -297730.916066 kJ/mol
# GULP energy per Si atom -12405.454836 kJ/mol
# Density = 2.081984 g / cm^3
# Si number density = 20.867335 Si / 1000 Ang^3
#
#
#
# Elastic Constant Matrix: (Units=GPa)
#
#
# Indices 1 2 3 4 5 6 
#
# 1 125.9011 45.9354 27.3372 0.0000 -5.8390 0.0000
# 2 45.9354 132.8651 39.7259 0.0000 8.7397 0.0000
# 3 27.3372 39.7259 70.1796 0.0000 -3.3456 0.0000
# 4 0.0000 0.0000 0.0000 23.2716 0.0000 6.6964
# 5 -5.8390 8.7397 -3.3456 0.0000 29.8310 0.0000
# 6 0.0000 0.0000 0.0000 6.6964 0.0000 38.6656
#
#
#
# Elastic Compliance Matrix: (Units=1/GPa)
#
#
# Indices 1 2 3 4 5 6 
#
# 1 0.009533 -0.002870 -0.001970 0.000000 0.002486 0.000000
# 2 -0.002870 0.010248 -0.004879 0.000000 -0.004111 0.000000
# 3 -0.001970 -0.004879 0.017924 0.000000 0.003054 0.000000
# 4 0.000000 0.000000 0.000000 0.045224 0.000000 -0.007832
# 5 0.002486 -0.004111 0.003054 0.000000 0.035556 0.000000
# 6 0.000000 0.000000 0.000000 -0.007832 0.000000 0.027219
#
#
# Mechanical properties :
#
#
# Convention : Reuss Voigt Hill
#
# Bulk Modulus (GPa) = 54.74578 61.66031 58.20304
# Shear Modulus (GPa) = 29.20014 32.75013 30.97514
#
# Velocity S-wave (km/s) = 3.74481 3.96592 3.85695
# Velocity P-wave (km/s) = 6.70748 7.11226 6.91283
#
# Compressibility (1/GPa) = 0.01826625
#
# Stress axis : x y z
#
# Youngs Moduli (GPa) = 104.89814 97.58003 55.79133
#
# Poissons Ratio (x) = 0.28009 0.10992
# Poissons Ratio (y) = 0.30109 0.27220
# Poissons Ratio (z) = 0.20666 0.47608
#
# Static dielectric constant tensor:
#      x y z
#    x 3.928280 0.000000 0.048780 
#    y 0.000000 3.948880 0.000000 
#    z 0.048780 0.000000 3.753860 
# 
# 
# High freq. dielectric constant tensor:
#      x y z
#    x 1.817140 0.000000 -0.001240 
#    y 0.000000 1.827020 0.000000 
#    z -0.001240 0.000000 1.817710 
# 
# From -- ./inp_files/66416.got.cif
#   From: 2010.06.25/outbox.cif.g09.slc.cpg/sg15_34_cif.got.tgz:66416.got - 2010.06.28 07:06:18.
