data_PCOD8143858
_publ_section_title
;
Structure prediction by ZEFSAII (Michael W. Deem and Ramdas Pophale) SiO2 
 PCOD8143858
Probable space group: C 2/C
;
_chemical_formula_sum "Si O2"
_cell_formula_units_Z 56
_cell_length_a 5.296170
_cell_length_b 27.484994
_cell_length_c 18.321088
_cell_angle_alpha 90.000000
_cell_angle_beta 105.098610
_cell_angle_gamma 90.000000
_cell_volume 2574.848221
_symmetry_space_group_name_H-M "C 2/C"
_symmetry_group_IT_number 15
_symmetry_cell_setting 'monoclinic'
loop_
_space_group_symop_operation_xyz
x,y,z
-x,y,1/2-z
-x,-y,-z
x,-y,1/2+z
1/2+x,1/2+y,z
1/2-x,1/2+y,1/2-z
1/2-x,1/2-y,-z
1/2+x,1/2-y,1/2+z
loop_
_atom_site_type_symbol
_atom_site_label
_atom_site_fract_x
_atom_site_fract_y
_atom_site_fract_z
Si Si1 0.676149 0.883782 0.122452
Si Si2 0.540535 0.734277 0.044197
Si Si3 0.193860 0.712411 0.701514
Si Si4 0.500000 0.003706 0.250000
Si Si5 0.743834 0.952946 0.474346
Si Si6 0.000000 0.057674 0.750000
Si Si7 0.061441 0.547478 0.405439
Si Si8 0.652917 0.629895 0.017203
O O1 0.588698 0.841489 0.171935
O O2 0.480972 0.928169 0.092492
O O3 0.928876 0.908884 0.175879
O O4 0.728887 0.853719 0.051681
O O5 0.643603 0.751755 0.129927
O O6 0.521414 0.675388 0.046551
O O7 0.750000 0.750000 0.000000
O O8 0.250000 0.750000 0.000000
O O9 0.500000 0.713325 0.750000
O O10 0.000000 0.730977 0.750000
O O11 0.760608 0.971888 0.266430
O O12 0.475606 0.039005 0.317067
O O13 0.671448 0.960054 0.554110
O O14 0.977135 0.916019 0.483329
O O15 0.789718 0.007349 0.444061
O O16 0.137467 0.604562 0.413853
#
# Coordination Sequence:
#
# PCOD8143858 Si02
#       8
#     8   8   8   4   8   4   8   8
#     4  11  23  39  68 104 135 177 224 287 354 418
#     4  12  26  49  75 104 138 187 243 293 348 432
#     4  12  27  45  70 106 146 180 226 298 369 417
#     4  12  26  44  62  95 142 191 222 278 342 410
#     4  10  21  41  66 102 136 177 232 284 338 411
#     4  12  26  38  64  99 138 177 222 278 352 414
#     4  10  23  40  65  98 137 182 229 281 335 409
#     4  11  24  42  72  99 132 184 237 284 340 410
#
# _framework density 21.748853
#
# number of rings (size 3 to 8) (size 9 to 14) (size 15 to 20)
#    0.000    0.857    3.571    3.000    7.000    0.000 
#    1.286    0.000    0.000    0.000    0.000    0.000 
#    0.000    0.000    0.000    0.000    0.000    0.000 
#
# Total GULP energy -346968.490817 kJ/mol
# GULP energy per Si atom -12391.731815 kJ/mol
# Density = 2.169935 g / cm^3
# Si number density = 21.748853 Si / 1000 Ang^3
#
#
#
# Elastic Constant Matrix: (Units=GPa)
#
#
# Indices 1 2 3 4 5 6 
#
# 1 90.4655 27.0577 24.8534 0.0000 -6.1046 0.0000
# 2 27.0577 130.3504 50.4045 0.0000 -2.9987 0.0000
# 3 24.8534 50.4045 135.7261 0.0000 -4.0081 0.0000
# 4 0.0000 0.0000 0.0000 -148.7401 0.0000 -64.7739
# 5 -6.1046 -2.9987 -4.0081 0.0000 21.6608 0.0000
# 6 0.0000 0.0000 0.0000 -64.7739 0.0000 8.3219
#
#
#
# Elastic Compliance Matrix: (Units=1/GPa)
#
#
# Indices 1 2 3 4 5 6 
#
# 1 0.012218 -0.001912 -0.001441 0.000000 0.002912 0.000000
# 2 -0.001912 0.009266 -0.003086 0.000000 0.000173 0.000000
# 3 -0.001441 -0.003086 0.008801 0.000000 0.000795 0.000000
# 4 0.000000 0.000000 0.000000 -0.001532 0.000000 -0.011921
# 5 0.002912 0.000173 0.000795 0.000000 0.047158 0.000000
# 6 0.000000 0.000000 0.000000 -0.011921 0.000000 0.027375
#
#
# Mechanical properties :
#
#
# Convention : Reuss Voigt Hill
#
# Bulk Modulus (GPa) = 57.44790 62.35259 59.90025
# Shear Modulus (GPa) = 40.99475 -6.80304 17.09586
#
# Velocity S-wave (km/s) = 4.34627 -1.77053 2.80671
# Velocity P-wave (km/s) = 7.18737 4.95499 6.17293
#
# Compressibility (1/GPa) = 0.01740708
#
# Stress axis : x y z
#
# Youngs Moduli (GPa) = 81.84477 107.92494 113.62146
#
# Poissons Ratio (x) = 0.20634 0.16377
# Poissons Ratio (y) = 0.15648 0.35061
# Poissons Ratio (z) = 0.11796 0.33303
#
# Static dielectric constant tensor:
#      x y z
#    x 4.101540 0.000000 0.341810 
#    y 0.000000 4.234010 0.000000 
#    z 0.341810 0.000000 4.096150 
# 
# 
# High freq. dielectric constant tensor:
#      x y z
#    x 1.849320 0.000000 -0.000010 
#    y 0.000000 1.858190 0.000000 
#    z -0.000010 0.000000 1.861890 
# 
# From -- ./inp_files/186603.got.cif
#   From: 2010.06.25/outbox.cif.g09.slc.cpg/sg15_94_cif.got.tgz:186603.got - 2010.06.28 07:06:18.
