data_PCOD8143553
_publ_section_title
;
Structure prediction by ZEFSAII (Michael W. Deem and Ramdas Pophale) SiO2 
 PCOD8143553
Probable space group: C 2/C
;
_chemical_formula_sum "Si O2"
_cell_formula_units_Z 60
_cell_length_a 26.832953
_cell_length_b 5.178947
_cell_length_c 17.407536
_cell_angle_alpha 90.000000
_cell_angle_beta 87.843724
_cell_angle_gamma 90.000000
_cell_volume 2417.350442
_symmetry_space_group_name_H-M "C 2/C"
_symmetry_group_IT_number 15
_symmetry_cell_setting 'monoclinic'
loop_
_space_group_symop_operation_xyz
x,y,z
-x,y,1/2-z
-x,-y,-z
x,-y,1/2+z
1/2+x,1/2+y,z
1/2-x,1/2+y,1/2-z
1/2-x,1/2-y,-z
1/2+x,1/2-y,1/2+z
loop_
_atom_site_type_symbol
_atom_site_label
_atom_site_fract_x
_atom_site_fract_y
_atom_site_fract_z
Si Si1 0.000000 0.247825 0.250000
Si Si2 0.248133 0.560262 0.798907
Si Si3 0.641571 0.920202 0.850562
Si Si4 0.409704 0.575688 0.167269
Si Si5 0.957102 0.572243 0.899511
Si Si6 0.638968 0.790050 0.022387
Si Si7 0.200143 0.789221 0.052652
Si Si8 0.042445 0.805164 0.981019
O O1 0.964416 0.059406 0.202578
O O2 0.964699 0.423913 0.307138
O O3 0.233178 0.826001 0.756314
O O4 0.200527 0.445841 0.845568
O O5 0.289156 0.625874 0.860429
O O6 0.624081 0.665097 0.805218
O O7 0.616730 0.159015 0.807596
O O8 0.624287 0.903563 0.939737
O O9 0.414087 0.567824 0.073238
O O10 0.913326 0.773140 0.928746
O O11 0.013557 0.594729 0.929464
O O12 0.936445 0.306004 0.939163
O O13 0.669105 0.521659 0.015055
O O14 0.671196 0.016566 0.061032
O O15 0.250000 0.750000 0.000000
O O16 0.000000 0.000000 0.000000
#
# Coordination Sequence:
#
# PCOD8143553 Si02
#       8
#     4   8   8   8   8   8   8   8
#     4  10  26  48  66 102 158 194 236 302 382 442
#     4  12  28  49  75 110 154 198 234 302 390 453
#     4  12  25  46  77 107 142 191 258 303 361 446
#     4  11  25  44  72 106 141 195 244 303 364 435
#     4  10  23  43  66 104 139 191 241 302 365 430
#     4  12  25  44  80 111 141 189 261 313 354 440
#     4  12  27  48  78 111 150 191 249 314 378 432
#     4  10  21  40  70  97 137 184 244 303 353 427
#
# _framework density 24.820564999999998
#
# number of rings (size 3 to 8) (size 9 to 14) (size 15 to 20)
#    0.000    0.800    2.667    3.600    7.467    3.733 
#    2.400    0.000    0.000    0.000    0.000    0.000 
#    0.000    0.000    0.000    0.000    0.000    0.000 
#
# Total GULP energy -371847.147409 kJ/mol
# GULP energy per Si atom -12394.904914 kJ/mol
# Density = 2.476407 g / cm^3
# Si number density = 24.820565 Si / 1000 Ang^3
#
#
#
# Elastic Constant Matrix: (Units=GPa)
#
#
# Indices 1 2 3 4 5 6 
#
# 1 103.5822 28.9900 14.5856 0.0000 -2.9130 0.0000
# 2 28.9900 147.5390 17.1893 0.0000 7.0697 0.0000
# 3 14.5856 17.1893 99.2264 0.0000 -5.8995 0.0000
# 4 0.0000 0.0000 0.0000 21.3833 0.0000 -1.5193
# 5 -2.9130 7.0697 -5.8995 0.0000 43.1764 0.0000
# 6 0.0000 0.0000 0.0000 -1.5193 0.0000 44.5523
#
#
#
# Elastic Compliance Matrix: (Units=1/GPa)
#
#
# Indices 1 2 3 4 5 6 
#
# 1 0.010384 -0.001949 -0.001137 0.000000 0.000864 0.000000
# 2 -0.001949 0.007357 -0.001076 0.000000 -0.001483 0.000000
# 3 -0.001137 -0.001076 0.010523 0.000000 0.001537 0.000000
# 4 0.000000 0.000000 0.000000 0.046879 0.000000 0.001599
# 5 0.000864 -0.001483 0.001537 0.000000 0.023672 0.000000
# 6 0.000000 0.000000 0.000000 0.001599 0.000000 0.022500
#
#
# Mechanical properties :
#
#
# Convention : Reuss Voigt Hill
#
# Bulk Modulus (GPa) = 50.15331 52.43082 51.29207
# Shear Modulus (GPa) = 36.68713 41.12791 38.90752
#
# Velocity S-wave (km/s) = 3.84877 4.07505 3.96353
# Velocity P-wave (km/s) = 6.32463 6.58113 6.45415
#
# Compressibility (1/GPa) = 0.01993886
#
# Stress axis : x y z
#
# Youngs Moduli (GPa) = 96.30021 135.91853 95.03020
#
# Poissons Ratio (x) = 0.26495 0.10808
# Poissons Ratio (y) = 0.18772 0.10227
# Poissons Ratio (z) = 0.10953 0.14627
#
# Static dielectric constant tensor:
#      x y z
#    x 3.877740 0.000000 -0.230310 
#    y 0.000000 4.512340 0.000000 
#    z -0.230310 0.000000 4.316830 
# 
# 
# High freq. dielectric constant tensor:
#      x y z
#    x 1.997250 0.000000 -0.003150 
#    y 0.000000 1.994580 0.000000 
#    z -0.003150 0.000000 1.972400 
# 
# From -- ./inp_files/223653.got.cif
#   From: 2010.06.25/outbox.cif.g09.slc.cpg/sg15_112_cif.got.tgz:223653.got - 2010.06.28 07:06:18.
