data_PCOD8143120
_publ_section_title
;
Structure prediction by ZEFSAII (Michael W. Deem and Ramdas Pophale) SiO2 
 PCOD8143120
Probable space group: C 2/C
;
_chemical_formula_sum "Si O2"
_cell_formula_units_Z 36
_cell_length_a 20.083875
_cell_length_b 8.185026
_cell_length_c 17.801222
_cell_angle_alpha 90.000000
_cell_angle_beta 150.570273
_cell_angle_gamma 90.000000
_cell_volume 1437.849366
_symmetry_space_group_name_H-M "C 2/C"
_symmetry_group_IT_number 15
_symmetry_cell_setting 'monoclinic'
loop_
_space_group_symop_operation_xyz
x,y,z
-x,y,1/2-z
-x,-y,-z
x,-y,1/2+z
1/2+x,1/2+y,z
1/2-x,1/2+y,1/2-z
1/2-x,1/2-y,-z
1/2+x,1/2-y,1/2+z
loop_
_atom_site_type_symbol
_atom_site_label
_atom_site_fract_x
_atom_site_fract_y
_atom_site_fract_z
Si Si1 0.803705 0.171419 0.269250
Si Si2 0.379822 0.765540 0.502812
Si Si3 0.030207 0.382305 0.431042
Si Si4 0.000000 0.211476 0.250000
Si Si5 0.123478 0.938127 0.284958
O O1 0.826389 0.158160 0.380530
O O2 0.883818 0.328321 0.316104
O O3 0.854839 0.004173 0.279405
O O4 0.645534 0.199651 0.096338
O O5 0.251751 0.821134 0.428415
O O6 0.479689 0.654968 0.651099
O O7 0.464246 0.922381 0.557492
O O8 0.058021 0.325224 0.372848
O O9 0.120892 0.094232 0.337706
#
# Coordination Sequence:
#
# PCOD8143120 Si02
#       5
#     8   8   8   4   8
#     4  10  21  40  62  94 126 160 203 258 321 364
#     4  11  22  39  64  97 120 160 212 257 313 363
#     4  10  23  39  66  89 125 168 205 258 302 377
#     4  10  24  46  60  90 128 170 212 246 318 362
#     4  10  24  40  64  91 131 166 200 261 305 373
#
# _framework density 25.037393999999999
#
# number of rings (size 3 to 8) (size 9 to 14) (size 15 to 20)
#    0.000    1.778    0.000    2.667    0.000   20.444 
#    0.000    0.000    0.000    0.000    0.000    0.000 
#    0.000    0.000    0.000    0.000    0.000    0.000 
#
# Total GULP energy -223235.258389 kJ/mol
# GULP energy per Si atom -12401.958799 kJ/mol
# Density = 2.498041 g / cm^3
# Si number density = 25.037394 Si / 1000 Ang^3
#
#
#
# Elastic Constant Matrix: (Units=GPa)
#
#
# Indices 1 2 3 4 5 6 
#
# 1 40.1659 -0.6451 -6.1490 0.0000 -5.6847 0.0000
# 2 -0.6451 69.5106 19.1526 0.0000 -2.7090 0.0000
# 3 -6.1490 19.1526 54.3979 0.0000 -0.8795 0.0000
# 4 0.0000 0.0000 0.0000 32.6249 0.0000 -5.2019
# 5 -5.6847 -2.7090 -0.8795 0.0000 32.0778 0.0000
# 6 0.0000 0.0000 0.0000 -5.2019 0.0000 28.9945
#
#
#
# Elastic Compliance Matrix: (Units=1/GPa)
#
#
# Indices 1 2 3 4 5 6 
#
# 1 0.026036 -0.000452 0.003178 0.000000 0.004663 0.000000
# 2 -0.000452 0.015985 -0.005661 0.000000 0.001115 0.000000
# 3 0.003178 -0.005661 0.020746 0.000000 0.000654 0.000000
# 4 0.000000 0.000000 0.000000 0.031554 0.000000 0.005661
# 5 0.004663 0.001115 0.000654 0.000000 0.032113 0.000000
# 6 0.000000 0.000000 0.000000 0.005661 0.000000 0.035505
#
#
# Mechanical properties :
#
#
# Convention : Reuss Voigt Hill
#
# Bulk Modulus (GPa) = 17.57604 20.97684 19.27644
# Shear Modulus (GPa) = 26.77005 28.85384 27.81194
#
# Velocity S-wave (km/s) = 3.27341 3.39843 3.33651
# Velocity P-wave (km/s) = 4.61759 4.87806 4.74961
#
# Compressibility (1/GPa) = 0.05689563
#
# Stress axis : x y z
#
# Youngs Moduli (GPa) = 38.40852 62.55704 48.20193
#
# Poissons Ratio (x) = 0.02829 -0.15317
# Poissons Ratio (y) = 0.01737 0.27289
# Poissons Ratio (z) = -0.12205 0.35415
#
# Static dielectric constant tensor:
#      x y z
#    x 4.455060 0.000000 0.063060 
#    y 0.000000 4.379590 0.000000 
#    z 0.063060 0.000000 4.376450 
# 
# 
# High freq. dielectric constant tensor:
#      x y z
#    x 2.000580 0.000000 0.006640 
#    y 0.000000 1.994310 0.000000 
#    z 0.006640 0.000000 1.986540 
# 
# From -- ./inp_files/60123.got.cif
#   From: 2010.06.25/outbox.cif.g09.slc.cpg/sg15_31_cif.got.tgz:60123.got - 2010.06.28 07:06:18.
