data_PCOD8143114
_publ_section_title
;
Structure prediction by ZEFSAII (Michael W. Deem and Ramdas Pophale) SiO2 
 PCOD8143114
Probable space group: C 2/C
;
_chemical_formula_sum "Si O2"
_cell_formula_units_Z 48
_cell_length_a 23.509619
_cell_length_b 7.231073
_cell_length_c 14.075015
_cell_angle_alpha 90.000000
_cell_angle_beta 97.727002
_cell_angle_gamma 90.000000
_cell_volume 2371.023035
_symmetry_space_group_name_H-M "C 2/C"
_symmetry_group_IT_number 15
_symmetry_cell_setting 'monoclinic'
loop_
_space_group_symop_operation_xyz
x,y,z
-x,y,1/2-z
-x,-y,-z
x,-y,1/2+z
1/2+x,1/2+y,z
1/2-x,1/2+y,1/2-z
1/2-x,1/2-y,-z
1/2+x,1/2-y,1/2+z
loop_
_atom_site_type_symbol
_atom_site_label
_atom_site_fract_x
_atom_site_fract_y
_atom_site_fract_z
Si Si1 0.544405 0.863713 0.555002
Si Si2 0.180988 0.945155 0.169934
Si Si3 0.306481 0.783014 0.188911
Si Si4 0.035653 0.134736 0.846650
Si Si5 0.873486 0.126911 0.036286
Si Si6 0.388567 0.119002 0.252108
O O1 0.510113 0.680917 0.581432
O O2 0.592878 0.809428 0.489962
O O3 0.575287 0.961384 0.651305
O O4 0.500000 0.000000 0.500000
O O5 0.241738 0.848942 0.168114
O O6 0.143290 0.807855 0.224967
O O7 0.185998 0.143407 0.221377
O O8 0.152246 0.980794 0.060474
O O9 0.321460 0.682649 0.093601
O O10 0.345931 0.961918 0.208777
O O11 0.067714 0.324496 0.822025
O O12 0.000000 0.047829 0.750000
O O13 0.082193 0.993811 0.894668
#
# Coordination Sequence:
#
# PCOD8143114 Si02
#       6
#     8   8   8   8   8   8
#     4  10  22  38  60  94 130 162 216 262 310 382
#     4  11  24  43  64  97 127 168 216 270 314 384
#     4  12  23  44  68  91 131 172 212 265 336 369
#     4  10  21  40  62  91 132 168 210 262 316 377
#     4  11  24  40  67  97 128 169 221 262 319 391
#     4  10  22  41  63  91 130 169 212 262 314 382
#
# _framework density 20.244423999999999
#
# number of rings (size 3 to 8) (size 9 to 14) (size 15 to 20)
#    0.000    1.333    3.333    2.000    2.333    1.333 
#    0.000    1.667    0.000    0.000    0.000    0.000 
#    0.000    0.000    0.000    0.000    0.000    0.000 
#
# Total GULP energy -297626.785558 kJ/mol
# GULP energy per Si atom -12401.116065 kJ/mol
# Density = 2.019835 g / cm^3
# Si number density = 20.244424 Si / 1000 Ang^3
#
#
#
# Elastic Constant Matrix: (Units=GPa)
#
#
# Indices 1 2 3 4 5 6 
#
# 1 91.1459 9.2030 31.7988 0.0000 8.3484 0.0000
# 2 9.2030 48.2841 29.5534 0.0000 14.9164 0.0000
# 3 31.7988 29.5534 100.6422 0.0000 7.4830 0.0000
# 4 0.0000 0.0000 0.0000 15.9194 0.0000 5.2683
# 5 8.3484 14.9164 7.4830 0.0000 39.4126 0.0000
# 6 0.0000 0.0000 0.0000 5.2683 0.0000 43.3610
#
#
#
# Elastic Compliance Matrix: (Units=1/GPa)
#
#
# Indices 1 2 3 4 5 6 
#
# 1 0.012492 0.000738 -0.004003 0.000000 -0.002165 0.000000
# 2 0.000738 0.028258 -0.007835 0.000000 -0.009364 0.000000
# 3 -0.004003 -0.007835 0.013407 0.000000 0.001268 0.000000
# 4 0.000000 0.000000 0.000000 0.065448 0.000000 -0.007952
# 5 -0.002165 -0.009364 0.001268 0.000000 0.029134 0.000000
# 6 0.000000 0.000000 0.000000 -0.007952 0.000000 0.024028
#
#
# Mechanical properties :
#
#
# Convention : Reuss Voigt Hill
#
# Bulk Modulus (GPa) = 31.29097 42.35362 36.82229
# Shear Modulus (GPa) = 24.31669 31.03973 27.67821
#
# Velocity S-wave (km/s) = 3.46953 3.91992 3.70158
# Velocity P-wave (km/s) = 5.61608 6.43850 6.04130
#
# Compressibility (1/GPa) = 0.03195810
#
# Stress axis : x y z
#
# Youngs Moduli (GPa) = 80.05349 35.38777 74.58634
#
# Poissons Ratio (x) = -0.02611 0.29853
# Poissons Ratio (y) = -0.05907 0.58438
# Poissons Ratio (z) = 0.32042 0.27726
#
# Static dielectric constant tensor:
#      x y z
#    x 3.968040 0.000000 -0.109510 
#    y 0.000000 3.383270 0.000000 
#    z -0.109510 0.000000 3.906150 
# 
# 
# High freq. dielectric constant tensor:
#      x y z
#    x 1.815420 0.000000 -0.003140 
#    y 0.000000 1.767480 0.000000 
#    z -0.003140 0.000000 1.802250 
# 
# From -- ./inp_files/116375.got.cif
#   From: 2010.06.25/outbox.cif.g09.slc.cpg/sg15_59_cif.got.tgz:116375.got - 2010.06.28 07:06:18.
