data_PCOD8143489
_publ_section_title
;
Structure prediction by ZEFSAII (Michael W. Deem and Ramdas Pophale) SiO2 
 PCOD8143489
Probable space group: C 2/C
;
_chemical_formula_sum "Si O2"
_cell_formula_units_Z 56
_cell_length_a 9.595762
_cell_length_b 14.937109
_cell_length_c 21.523002
_cell_angle_alpha 90.000000
_cell_angle_beta 119.609973
_cell_angle_gamma 90.000000
_cell_volume 2682.087645
_symmetry_space_group_name_H-M "C 2/C"
_symmetry_group_IT_number 15
_symmetry_cell_setting 'monoclinic'
loop_
_space_group_symop_operation_xyz
x,y,z
-x,y,1/2-z
-x,-y,-z
x,-y,1/2+z
1/2+x,1/2+y,z
1/2-x,1/2+y,1/2-z
1/2-x,1/2-y,-z
1/2+x,1/2-y,1/2+z
loop_
_atom_site_type_symbol
_atom_site_label
_atom_site_fract_x
_atom_site_fract_y
_atom_site_fract_z
Si Si1 0.182200 0.211672 0.270472
Si Si2 0.831164 0.130640 0.871498
Si Si3 0.693943 0.976374 0.917856
Si Si4 0.898434 0.001035 0.083835
Si Si5 0.634752 0.337744 0.623083
Si Si6 0.592103 0.235972 0.005349
Si Si7 0.135446 0.577828 0.101694
O O1 0.235751 0.312387 0.299198
O O2 0.207816 0.197945 0.203148
O O3 0.291678 0.139387 0.328862
O O4 0.000000 0.196035 0.250000
O O5 0.911836 0.195428 0.938913
O O6 0.706423 0.063377 0.876962
O O7 0.973497 0.075194 0.869848
O O8 0.725318 0.886719 0.884689
O O9 0.516901 0.975025 0.906432
O O10 0.828433 0.981134 0.000482
O O11 0.762843 0.003462 0.107037
O O12 0.984459 0.097057 0.101553
O O13 0.566653 0.252078 0.570701
O O14 0.585686 0.135281 0.030035
O O15 0.750000 0.250000 0.000000
#
# Coordination Sequence:
#
# PCOD8143489 Si02
#       7
#     8   8   8   8   8   8   8
#     4  11  23  44  66  90 127 186 225 261 327 410
#     4  10  21  40  68  94 123 164 229 265 322 394
#     4  11  22  40  69 103 130 163 217 288 337 376
#     4  11  19  41  69 100 126 170 215 278 331 387
#     4  11  20  39  71  90 134 176 220 265 329 388
#     4  11  18  37  67  97 119 171 225 262 309 395
#     4  11  24  38  70  97 135 170 219 270 335 391
#
# _framework density 20.879256999999999
#
# number of rings (size 3 to 8) (size 9 to 14) (size 15 to 20)
#    0.000    1.143    5.714    2.143    0.000    1.143 
#    5.143    0.000    6.286    0.000    0.000    0.000 
#    0.000    0.000    0.000    0.000    0.000    0.000 
#
# Total GULP energy -347322.822125 kJ/mol
# GULP energy per Si atom -12404.386504 kJ/mol
# Density = 2.083173 g / cm^3
# Si number density = 20.879257 Si / 1000 Ang^3
#
#
#
# Elastic Constant Matrix: (Units=GPa)
#
#
# Indices 1 2 3 4 5 6 
#
# 1 142.0943 42.3867 23.6427 0.0000 -5.1753 0.0000
# 2 42.3867 76.4197 37.7407 0.0000 -2.7046 0.0000
# 3 23.6427 37.7407 122.0635 0.0000 -10.4497 0.0000
# 4 0.0000 0.0000 0.0000 38.9977 0.0000 0.9675
# 5 -5.1753 -2.7046 -10.4497 0.0000 26.2776 0.0000
# 6 0.0000 0.0000 0.0000 0.9675 0.0000 27.7386
#
#
#
# Elastic Compliance Matrix: (Units=1/GPa)
#
#
# Indices 1 2 3 4 5 6 
#
# 1 0.008471 -0.004598 -0.000121 0.000000 0.001147 0.000000
# 2 -0.004598 0.017942 -0.004738 0.000000 -0.000943 0.000000
# 3 -0.000121 -0.004738 0.009977 0.000000 0.003456 0.000000
# 4 0.000000 0.000000 0.000000 0.025665 0.000000 -0.000895
# 5 0.001147 -0.000943 0.003456 0.000000 0.039558 0.000000
# 6 0.000000 0.000000 0.000000 -0.000895 0.000000 0.036082
#
#
# Mechanical properties :
#
#
# Convention : Reuss Voigt Hill
#
# Bulk Modulus (GPa) = 57.21966 60.90199 59.06082
# Shear Modulus (GPa) = 30.78163 34.38994 32.58578
#
# Velocity S-wave (km/s) = 3.84379 4.06283 3.95483
# Velocity P-wave (km/s) = 6.86761 7.15827 7.01445
#
# Compressibility (1/GPa) = 0.01747651
#
# Stress axis : x y z
#
# Youngs Moduli (GPa) = 118.04802 55.73366 100.23493
#
# Poissons Ratio (x) = 0.25628 0.01211
# Poissons Ratio (y) = 0.54282 0.47488
# Poissons Ratio (z) = 0.01427 0.26405
#
# Static dielectric constant tensor:
#      x y z
#    x 3.689740 0.000000 -0.049050 
#    y 0.000000 3.846560 0.000000 
#    z -0.049050 0.000000 3.922760 
# 
# 
# High freq. dielectric constant tensor:
#      x y z
#    x 1.814660 0.000000 -0.002250 
#    y 0.000000 1.814870 0.000000 
#    z -0.002250 0.000000 1.810460 
# 
# From -- ./inp_files/232789.got.cif
#   From: 2010.06.25/outbox.cif.g09.slc.cpg/sg15_117_cif.got.tgz:232789.got - 2010.06.28 07:06:18.
