data_PCOD8143823
_publ_section_title
;
Structure prediction by ZEFSAII (Michael W. Deem and Ramdas Pophale) SiO2 
 PCOD8143823
Probable space group: C 2/C
;
_chemical_formula_sum "Si O2"
_cell_formula_units_Z 44
_cell_length_a 7.722680
_cell_length_b 21.970464
_cell_length_c 13.159338
_cell_angle_alpha 90.000000
_cell_angle_beta 90.129427
_cell_angle_gamma 90.000000
_cell_volume 2232.750537
_symmetry_space_group_name_H-M "C 2/C"
_symmetry_group_IT_number 15
_symmetry_cell_setting 'monoclinic'
loop_
_space_group_symop_operation_xyz
x,y,z
-x,y,1/2-z
-x,-y,-z
x,-y,1/2+z
1/2+x,1/2+y,z
1/2-x,1/2+y,1/2-z
1/2-x,1/2-y,-z
1/2+x,1/2-y,1/2+z
loop_
_atom_site_type_symbol
_atom_site_label
_atom_site_fract_x
_atom_site_fract_y
_atom_site_fract_z
Si Si1 0.654350 0.382314 0.986732
Si Si2 0.125810 0.080774 0.165853
Si Si3 0.500000 0.106802 0.750000
Si Si4 0.176325 0.185161 0.691570
Si Si5 0.188074 0.674401 0.205853
Si Si6 0.373521 0.019568 0.586319
O O1 0.469586 0.399790 0.938015
O O2 0.790974 0.358744 0.902887
O O3 0.641736 0.331459 0.074064
O O4 0.714638 0.444456 0.038036
O O5 0.182701 0.144978 0.213258
O O6 0.000000 0.048663 0.250000
O O7 0.289961 0.037023 0.147046
O O8 0.327217 0.147578 0.748091
O O9 0.495679 0.062689 0.653627
O O10 0.233596 0.255009 0.695223
O O11 0.000000 0.172023 0.750000
O O12 0.000000 0.663593 0.250000
O O13 0.500000 0.000000 0.500000
#
# Coordination Sequence:
#
# PCOD8143823 Si02
#       6
#     8   8   4   8   8   8
#     4  10  22  40  61  96 122 167 206 264 318 377
#     4  10  23  38  65  92 126 166 207 261 320 378
#     4  10  26  40  64  92 130 170 206 270 312 376
#     4  10  23  43  65  92 131 168 215 264 316 379
#     4  10  21  41  65  93 125 164 211 262 318 378
#     4  11  24  39  63  90 127 165 212 260 312 384
#
# _framework density 19.706637000000001
#
# number of rings (size 3 to 8) (size 9 to 14) (size 15 to 20)
#    0.000    1.818    0.000    2.182   12.727    2.909 
#    0.000    1.818    0.000    0.000    0.000    0.000 
#    0.000    0.000    0.000    0.000    0.000    0.000 
#
# Total GULP energy -272774.604844 kJ/mol
# GULP energy per Si atom -12398.845675 kJ/mol
# Density = 1.966178 g / cm^3
# Si number density = 19.706637 Si / 1000 Ang^3
#
#
#
# Elastic Constant Matrix: (Units=GPa)
#
#
# Indices 1 2 3 4 5 6 
#
# 1 78.8608 42.0062 43.9470 0.0000 5.0512 0.0000
# 2 42.0062 116.0066 54.4062 0.0000 1.0765 0.0000
# 3 43.9470 54.4062 115.0492 0.0000 8.5209 0.0000
# 4 0.0000 0.0000 0.0000 34.1278 0.0000 -4.7418
# 5 5.0512 1.0765 8.5209 0.0000 44.8003 0.0000
# 6 0.0000 0.0000 0.0000 -4.7418 0.0000 5.8725
#
#
#
# Elastic Compliance Matrix: (Units=1/GPa)
#
#
# Indices 1 2 3 4 5 6 
#
# 1 0.017561 -0.004161 -0.004667 0.000000 -0.000992 0.000000
# 2 -0.004161 0.012087 -0.004199 0.000000 0.000977 0.000000
# 3 -0.004667 -0.004199 0.012591 0.000000 -0.001768 0.000000
# 4 0.000000 0.000000 0.000000 0.033004 0.000000 0.026650
# 5 -0.000992 0.000977 -0.001768 0.000000 0.022746 0.000000
# 6 0.000000 0.000000 0.000000 0.026650 0.000000 0.191804
#
#
# Mechanical properties :
#
#
# Convention : Reuss Voigt Hill
#
# Bulk Modulus (GPa) = 61.78198 65.62615 63.70407
# Shear Modulus (GPa) = 15.56457 28.26393 21.91425
#
# Velocity S-wave (km/s) = 2.81341 3.79124 3.33832
# Velocity P-wave (km/s) = 6.47863 7.24834 6.87427
#
# Compressibility (1/GPa) = 0.01618595
#
# Stress axis : x y z
#
# Youngs Moduli (GPa) = 56.94338 82.73299 79.42080
#
# Poissons Ratio (x) = 0.34425 0.37065
# Poissons Ratio (y) = 0.23694 0.33348
# Poissons Ratio (z) = 0.26575 0.34738
#
# Static dielectric constant tensor:
#      x y z
#    x 3.945210 0.000000 -0.101520 
#    y 0.000000 3.727230 0.000000 
#    z -0.101520 0.000000 3.789810 
# 
# 
# High freq. dielectric constant tensor:
#      x y z
#    x 1.771960 0.000000 0.002950 
#    y 0.000000 1.777280 0.000000 
#    z 0.002950 0.000000 1.778350 
# 
# From -- ./inp_files/78194.got.cif
#   From: 2010.06.25/outbox.cif.g09.slc.cpg/sg15_40_cif.got.tgz:78194.got - 2010.06.28 07:06:18.
