data_PCOD8143239
_publ_section_title
;
Structure prediction by ZEFSAII (Michael W. Deem and Ramdas Pophale) SiO2 
 PCOD8143239
Probable space group: C 2/C
;
_chemical_formula_sum "Si O2"
_cell_formula_units_Z 56
_cell_length_a 11.549350
_cell_length_b 15.526655
_cell_length_c 16.197716
_cell_angle_alpha 90.000000
_cell_angle_beta 67.879628
_cell_angle_gamma 90.000000
_cell_volume 2690.824268
_symmetry_space_group_name_H-M "C 2/C"
_symmetry_group_IT_number 15
_symmetry_cell_setting 'monoclinic'
loop_
_space_group_symop_operation_xyz
x,y,z
-x,y,1/2-z
-x,-y,-z
x,-y,1/2+z
1/2+x,1/2+y,z
1/2-x,1/2+y,1/2-z
1/2-x,1/2-y,-z
1/2+x,1/2-y,1/2+z
loop_
_atom_site_type_symbol
_atom_site_label
_atom_site_fract_x
_atom_site_fract_y
_atom_site_fract_z
Si Si1 0.080731 0.245127 0.150288
Si Si2 0.647614 0.998429 0.463196
Si Si3 0.463077 0.304463 0.023553
Si Si4 0.767415 0.150867 0.007162
Si Si5 0.853121 0.417271 0.799100
Si Si6 0.217565 0.413671 0.112440
Si Si7 0.675544 0.841250 0.858774
O O1 0.101790 0.347524 0.151805
O O2 0.214662 0.201663 0.119720
O O3 0.000000 0.213012 0.250000
O O4 0.023618 0.217608 0.077507
O O5 0.715652 0.904262 0.441767
O O6 0.500000 0.000000 0.500000
O O7 0.704550 0.041370 0.528639
O O8 0.679748 0.057067 0.376704
O O9 0.349760 0.366010 0.079964
O O10 0.447276 0.213518 0.078652
O O11 0.584513 0.360278 0.016545
O O12 0.678483 0.124354 0.105632
O O13 0.750000 0.250000 0.000000
O O14 0.790291 0.513191 0.813515
O O15 0.806873 0.346286 0.744507
O O16 0.000000 0.430613 0.750000
#
# Coordination Sequence:
#
# PCOD8143239 Si02
#       7
#     8   8   8   8   8   8   8
#     4  11  21  37  66  96 124 163 219 266 317 383
#     4  11  21  38  64  89 120 164 210 255 308 387
#     4  11  21  43  68  92 131 167 212 268 326 385
#     4  11  25  42  64  97 126 173 210 260 332 385
#     4  11  23  40  62  93 129 165 216 266 312 376
#     4  10  21  40  64  92 123 171 211 257 320 375
#     4  11  21  42  62  91 128 168 212 266 324 377
#
# _framework density 20.811464999999998
#
# number of rings (size 3 to 8) (size 9 to 14) (size 15 to 20)
#    0.000    1.143    2.857    5.571    0.000    2.286 
#    7.714    0.000    0.000    0.000    0.000    0.000 
#    0.000    0.000    0.000    0.000    0.000    0.000 
#
# Total GULP energy -346915.374635 kJ/mol
# GULP energy per Si atom -12389.834808 kJ/mol
# Density = 2.076410 g / cm^3
# Si number density = 20.811465 Si / 1000 Ang^3
#
#
#
# Elastic Constant Matrix: (Units=GPa)
#
#
# Indices 1 2 3 4 5 6 
#
# 1 98.2846 37.7110 13.3495 0.0000 -11.1811 0.0000
# 2 37.7110 129.5795 27.4659 0.0000 -8.1054 0.0000
# 3 13.3495 27.4659 77.5695 0.0000 -14.7285 0.0000
# 4 0.0000 0.0000 0.0000 29.9861 0.0000 3.4775
# 5 -11.1811 -8.1054 -14.7285 0.0000 26.9681 0.0000
# 6 0.0000 0.0000 0.0000 3.4775 0.0000 29.9417
#
#
#
# Elastic Compliance Matrix: (Units=1/GPa)
#
#
# Indices 1 2 3 4 5 6 
#
# 1 0.011855 -0.003169 -0.000185 0.000000 0.003862 0.000000
# 2 -0.003169 0.009215 -0.002723 0.000000 -0.000032 0.000000
# 3 -0.000185 -0.002723 0.015305 0.000000 0.007464 0.000000
# 4 0.000000 0.000000 0.000000 0.033804 0.000000 -0.003926
# 5 0.003862 -0.000032 0.007464 0.000000 0.042748 0.000000
# 6 0.000000 0.000000 0.000000 -0.003926 0.000000 0.033854
#
#
# Mechanical properties :
#
#
# Convention : Reuss Voigt Hill
#
# Bulk Modulus (GPa) = 41.28875 51.38737 46.33806
# Shear Modulus (GPa) = 29.93833 32.50635 31.22234
#
# Velocity S-wave (km/s) = 3.79694 3.95643 3.87750
# Velocity P-wave (km/s) = 6.25338 6.75401 6.50851
#
# Compressibility (1/GPa) = 0.02421967
#
# Stress axis : x y z
#
# Youngs Moduli (GPa) = 84.35255 108.51972 65.33844
#
# Poissons Ratio (x) = 0.34394 0.01207
# Poissons Ratio (y) = 0.26735 0.17794
# Poissons Ratio (z) = 0.01558 0.29555
#
# Static dielectric constant tensor:
#      x y z
#    x 4.186960 0.000000 -0.049280 
#    y 0.000000 4.892930 0.000000 
#    z -0.049280 0.000000 3.777220 
# 
# 
# High freq. dielectric constant tensor:
#      x y z
#    x 1.812220 0.000000 -0.003080 
#    y 0.000000 1.828530 0.000000 
#    z -0.003080 0.000000 1.803370 
# 
# From -- ./inp_files/197768.got.cif
#   From: 2010.06.25/outbox.cif.g09.slc.cpg/sg15_99_cif.got.tgz:197768.got - 2010.06.28 07:06:18.
