data_PCOD8143977
_publ_section_title
;
Structure prediction by ZEFSAII (Michael W. Deem and Ramdas Pophale) SiO2 
 PCOD8143977
Probable space group: C 2/C
;
_chemical_formula_sum "Si O2"
_cell_formula_units_Z 64
_cell_length_a 14.229861
_cell_length_b 19.378696
_cell_length_c 11.865071
_cell_angle_alpha 90.000000
_cell_angle_beta 69.797679
_cell_angle_gamma 90.000000
_cell_volume 3070.577929
_symmetry_space_group_name_H-M "C 2/C"
_symmetry_group_IT_number 15
_symmetry_cell_setting 'monoclinic'
loop_
_space_group_symop_operation_xyz
x,y,z
-x,y,1/2-z
-x,-y,-z
x,-y,1/2+z
1/2+x,1/2+y,z
1/2-x,1/2+y,1/2-z
1/2-x,1/2-y,-z
1/2+x,1/2-y,1/2+z
loop_
_atom_site_type_symbol
_atom_site_label
_atom_site_fract_x
_atom_site_fract_y
_atom_site_fract_z
Si Si1 0.057940 0.604134 0.127978
Si Si2 0.026002 0.252034 0.369374
Si Si3 0.478522 0.098049 0.932862
Si Si4 0.473075 0.605627 0.034082
Si Si5 0.369209 0.519606 0.662674
Si Si6 0.396170 0.624254 0.830452
Si Si7 0.705377 0.200347 0.927170
Si Si8 0.139048 0.467658 0.197542
O O1 0.102132 0.544745 0.189821
O O2 0.000000 0.648996 0.250000
O O3 0.139928 0.646134 0.025055
O O4 0.986145 0.571175 0.059370
O O5 0.989524 0.178307 0.431277
O O6 0.143590 0.260678 0.354475
O O7 0.000000 0.253287 0.250000
O O8 0.971558 0.318337 0.445875
O O9 0.376718 0.072577 0.915203
O O10 0.575096 0.072625 0.819725
O O11 0.408326 0.559357 0.147841
O O12 0.571550 0.564863 0.954333
O O13 0.394770 0.618298 0.965150
O O14 0.392553 0.548111 0.777345
O O15 0.253361 0.528328 0.683823
O O16 0.500000 0.661906 0.750000
O O17 0.299015 0.664652 0.826029
O O18 0.750000 0.250000 0.000000
#
# Coordination Sequence:
#
# PCOD8143977 Si02
#       8
#     8   8   8   8   8   8   8   8
#     4  11  23  39  64  99 133 169 223 276 326 399
#     4  11  22  41  65  90 132 177 215 263 341 410
#     4  10  22  41  63  92 134 172 206 270 350 393
#     4  10  22  41  60  94 127 170 221 270 327 392
#     4  10  22  38  65  92 125 164 221 280 326 386
#     4  10  21  41  68  94 125 171 219 271 328 391
#     4  11  23  42  68  96 131 177 217 271 337 404
#     4  11  20  38  67  94 128 170 217 271 340 400
#
# _framework density 20.842981000000002
#
# number of rings (size 3 to 8) (size 9 to 14) (size 15 to 20)
#    0.000    1.500    3.750    2.625    0.000    3.000 
#    2.250    1.875    0.000    0.000    0.000    0.000 
#    0.000    0.000    0.000    0.000    0.000    0.000 
#
# Total GULP energy -396467.415067 kJ/mol
# GULP energy per Si atom -12389.606721 kJ/mol
# Density = 2.079554 g / cm^3
# Si number density = 20.842981 Si / 1000 Ang^3
#
#
#
# Elastic Constant Matrix: (Units=GPa)
#
#
# Indices 1 2 3 4 5 6 
#
# 1 103.8763 23.8190 38.8282 0.0000 9.3563 0.0000
# 2 23.8190 100.1293 25.0930 0.0000 -6.3358 0.0000
# 3 38.8282 25.0930 97.7360 0.0000 15.6587 0.0000
# 4 0.0000 0.0000 0.0000 14.6803 0.0000 6.8584
# 5 9.3563 -6.3358 15.6587 0.0000 34.5831 0.0000
# 6 0.0000 0.0000 0.0000 6.8584 0.0000 23.1161
#
#
#
# Elastic Compliance Matrix: (Units=1/GPa)
#
#
# Indices 1 2 3 4 5 6 
#
# 1 0.011669 -0.001920 -0.003861 0.000000 -0.001761 0.000000
# 2 -0.001920 0.011385 -0.002779 0.000000 0.003864 0.000000
# 3 -0.003861 -0.002779 0.013363 0.000000 -0.005515 0.000000
# 4 0.000000 0.000000 0.000000 0.079080 0.000000 -0.023462
# 5 -0.001761 0.003864 -0.005515 0.000000 0.032597 0.000000
# 6 0.000000 0.000000 0.000000 -0.023462 0.000000 0.050221
#
#
# Mechanical properties :
#
#
# Convention : Reuss Voigt Hill
#
# Bulk Modulus (GPa) = 51.82273 53.02466 52.42370
# Shear Modulus (GPa) = 22.53621 28.74268 25.63945
#
# Velocity S-wave (km/s) = 3.29178 3.71753 3.51112
# Velocity P-wave (km/s) = 6.27417 6.62737 6.45318
#
# Compressibility (1/GPa) = 0.01929655
#
# Stress axis : x y z
#
# Youngs Moduli (GPa) = 85.69928 87.83708 74.83580
#
# Poissons Ratio (x) = 0.16862 0.28893
# Poissons Ratio (y) = 0.16451 0.20799
# Poissons Ratio (z) = 0.33087 0.24413
#
# Static dielectric constant tensor:
#      x y z
#    x 3.856870 0.000000 0.233260 
#    y 0.000000 3.966310 0.000000 
#    z 0.233260 0.000000 3.854700 
# 
# 
# High freq. dielectric constant tensor:
#      x y z
#    x 1.820420 0.000000 0.020810 
#    y 0.000000 1.817230 0.000000 
#    z 0.020810 0.000000 1.802310 
# 
# From -- ./inp_files/99784.got.cif
#   From: 2010.06.25/outbox.cif.g09.slc.cpg/sg15_50_cif.got.tgz:99784.got - 2010.06.28 07:06:18.
