data_PCOD8143770
_publ_section_title
;
Structure prediction by ZEFSAII (Michael W. Deem and Ramdas Pophale) SiO2 
 PCOD8143770
Probable space group: C 2/C
;
_chemical_formula_sum "Si O2"
_cell_formula_units_Z 64
_cell_length_a 14.738049
_cell_length_b 12.348184
_cell_length_c 16.995114
_cell_angle_alpha 90.000000
_cell_angle_beta 92.777944
_cell_angle_gamma 90.000000
_cell_volume 3089.274624
_symmetry_space_group_name_H-M "C 2/C"
_symmetry_group_IT_number 15
_symmetry_cell_setting 'monoclinic'
loop_
_space_group_symop_operation_xyz
x,y,z
-x,y,1/2-z
-x,-y,-z
x,-y,1/2+z
1/2+x,1/2+y,z
1/2-x,1/2+y,1/2-z
1/2-x,1/2-y,-z
1/2+x,1/2-y,1/2+z
loop_
_atom_site_type_symbol
_atom_site_label
_atom_site_fract_x
_atom_site_fract_y
_atom_site_fract_z
Si Si1 0.685584 0.548076 0.513720
Si Si2 0.007653 0.338160 0.940862
Si Si3 0.220781 0.890523 0.297525
Si Si4 0.888662 0.555045 0.566223
Si Si5 0.644906 0.716690 0.644881
Si Si6 0.188110 0.875024 0.845360
Si Si7 0.333446 0.681239 0.532485
Si Si8 0.896898 0.679427 0.724240
O O1 0.794765 0.537830 0.516680
O O2 0.645473 0.621782 0.580307
O O3 0.649877 0.594107 0.429194
O O4 0.650672 0.425028 0.520515
O O5 0.947042 0.286883 0.868155
O O6 0.061344 0.442586 0.911134
O O7 0.075976 0.248530 0.974357
O O8 0.949253 0.368536 0.014508
O O9 0.152843 0.839143 0.230262
O O10 0.185244 0.848450 0.378420
O O11 0.326157 0.855492 0.289544
O O12 0.215492 0.020877 0.294636
O O13 0.865976 0.613074 0.646623
O O14 0.726616 0.798435 0.635575
O O15 0.112176 0.807648 0.793950
O O16 0.250000 0.750000 0.500000
O O17 0.000000 0.650629 0.750000
#
# Coordination Sequence:
#
# PCOD8143770 Si02
#       8
#     8   8   8   8   8   8   8   8
#     4  11  20  42  70  91 128 171 218 264 324 395
#     4  11  25  40  68  99 130 170 216 274 318 388
#     4  10  25  43  64  93 133 172 214 261 330 387
#     4  11  22  41  68 102 125 164 226 273 322 382
#     4  11  22  41  68  96 126 170 220 268 325 382
#     4  10  21  41  64  92 128 173 207 264 325 385
#     4  11  25  43  64  93 136 177 210 260 330 387
#     4  11  25  41  65  98 130 167 219 274 323 379
#
# _framework density 20.716837000000002
#
# number of rings (size 3 to 8) (size 9 to 14) (size 15 to 20)
#    0.000    1.250    5.000    1.125    3.500    5.000 
#    4.500    0.000    0.000    0.000    0.000    0.000 
#    0.000    0.000    0.000    0.000    0.000    0.000 
#
# Total GULP energy -396865.118587 kJ/mol
# GULP energy per Si atom -12402.034956 kJ/mol
# Density = 2.066968 g / cm^3
# Si number density = 20.716837 Si / 1000 Ang^3
#
#
#
# Elastic Constant Matrix: (Units=GPa)
#
#
# Indices 1 2 3 4 5 6 
#
# 1 82.5375 33.6466 10.1366 0.0000 6.0979 0.0000
# 2 33.6466 150.3801 41.4399 0.0000 5.5534 0.0000
# 3 10.1366 41.4399 65.3227 0.0000 1.7307 0.0000
# 4 0.0000 0.0000 0.0000 35.4797 0.0000 4.3625
# 5 6.0979 5.5534 1.7307 0.0000 21.4253 0.0000
# 6 0.0000 0.0000 0.0000 4.3625 0.0000 36.2699
#
#
#
# Elastic Compliance Matrix: (Units=1/GPa)
#
#
# Indices 1 2 3 4 5 6 
#
# 1 0.013534 -0.002857 -0.000206 0.000000 -0.003095 0.000000
# 2 -0.002857 0.008723 -0.005063 0.000000 -0.001039 0.000000
# 3 -0.000206 -0.005063 0.018556 0.000000 -0.000128 0.000000
# 4 0.000000 0.000000 0.000000 0.028608 0.000000 -0.003441
# 5 -0.003095 -0.001039 -0.000128 0.000000 0.047834 0.000000
# 6 0.000000 0.000000 0.000000 -0.003441 0.000000 0.027985
#
#
# Mechanical properties :
#
#
# Convention : Reuss Voigt Hill
#
# Bulk Modulus (GPa) = 40.71401 52.07627 46.39514
# Shear Modulus (GPa) = 29.46760 32.83614 31.15187
#
# Velocity S-wave (km/s) = 3.77556 3.98552 3.88196
# Velocity P-wave (km/s) = 6.22107 6.80962 6.52199
#
# Compressibility (1/GPa) = 0.02456157
#
# Stress axis : x y z
#
# Youngs Moduli (GPa) = 73.88584 114.64530 53.89225
#
# Poissons Ratio (x) = 0.32758 0.01108
# Poissons Ratio (y) = 0.21111 0.27283
# Poissons Ratio (z) = 0.01519 0.58040
#
# Static dielectric constant tensor:
#      x y z
#    x 3.466000 0.000000 0.179970 
#    y 0.000000 4.184780 0.000000 
#    z 0.179970 0.000000 3.673220 
# 
# 
# High freq. dielectric constant tensor:
#      x y z
#    x 1.803150 0.000000 0.008910 
#    y 0.000000 1.833070 0.000000 
#    z 0.008910 0.000000 1.803400 
# 
# From -- ./inp_files/204458.got.cif
#   From: 2010.06.25/outbox.cif.g09.slc.cpg/sg15_103_cif.got.tgz:204458.got - 2010.06.28 07:06:18.
