data_PCOD8143279
_publ_section_title
;
Structure prediction by ZEFSAII (Michael W. Deem and Ramdas Pophale) SiO2 
 PCOD8143279
Probable space group: C 2/C
;
_chemical_formula_sum "Si O2"
_cell_formula_units_Z 64
_cell_length_a 20.983095
_cell_length_b 7.904616
_cell_length_c 19.844251
_cell_angle_alpha 90.000000
_cell_angle_beta 119.098236
_cell_angle_gamma 90.000000
_cell_volume 2876.012120
_symmetry_space_group_name_H-M "C 2/C"
_symmetry_group_IT_number 15
_symmetry_cell_setting 'monoclinic'
loop_
_space_group_symop_operation_xyz
x,y,z
-x,y,1/2-z
-x,-y,-z
x,-y,1/2+z
1/2+x,1/2+y,z
1/2-x,1/2+y,1/2-z
1/2-x,1/2-y,-z
1/2+x,1/2-y,1/2+z
loop_
_atom_site_type_symbol
_atom_site_label
_atom_site_fract_x
_atom_site_fract_y
_atom_site_fract_z
Si Si1 0.321632 0.274638 0.447284
Si Si2 0.167261 0.618385 0.183609
Si Si3 0.663701 0.820237 0.405898
Si Si4 0.656151 0.571047 0.888520
Si Si5 0.379158 0.386173 0.979541
Si Si6 0.066442 0.389051 0.831183
Si Si7 0.735652 0.192697 0.662950
Si Si8 0.000267 0.370435 0.937633
O O1 0.297793 0.182712 0.367694
O O2 0.351905 0.151652 0.521812
O O3 0.248702 0.360048 0.439113
O O4 0.384697 0.414259 0.465224
O O5 0.199082 0.709677 0.265501
O O6 0.195055 0.425207 0.197468
O O7 0.080964 0.652080 0.133327
O O8 0.637305 0.629192 0.371912
O O9 0.624761 0.965293 0.342112
O O10 0.730237 0.598976 0.884614
O O11 0.593411 0.698109 0.828303
O O12 0.662262 0.628162 0.969598
O O13 0.328281 0.312080 0.895290
O O14 0.460093 0.304089 0.018507
O O15 0.000000 0.428992 0.750000
O O16 0.047808 0.430626 0.899091
O O17 0.000000 0.500000 0.000000
#
# Coordination Sequence:
#
# PCOD8143279 Si02
#       8
#     8   8   8   8   8   8   8   8
#     4  10  21  40  65 100 124 164 225 279 327 399
#     4  12  25  40  66  94 141 173 218 271 339 410
#     4  10  21  40  68  98 128 164 224 281 335 387
#     4  10  22  41  67  97 128 171 227 284 330 394
#     4  10  22  40  70  95 130 174 227 278 337 397
#     4  11  24  41  66  96 133 175 225 280 334 400
#     4  12  23  41  63  98 131 175 216 283 337 397
#     4  11  23  44  64  94 135 186 221 262 338 423
#
# _framework density 22.253035000000001
#
# number of rings (size 3 to 8) (size 9 to 14) (size 15 to 20)
#    0.000    1.250    2.500    3.375    1.750    2.000 
#    0.000    2.500    0.000    0.000    0.000    0.000 
#    0.000    0.000    0.000    0.000    0.000    0.000 
#
# Total GULP energy -396439.156815 kJ/mol
# GULP energy per Si atom -12388.723650 kJ/mol
# Density = 2.220239 g / cm^3
# Si number density = 22.253035 Si / 1000 Ang^3
#
#
#
# Elastic Constant Matrix: (Units=GPa)
#
#
# Indices 1 2 3 4 5 6 
#
# 1 77.3004 25.0269 17.6450 0.0000 12.8029 0.0000
# 2 25.0269 93.5160 42.4279 0.0000 12.1173 0.0000
# 3 17.6450 42.4279 81.8589 0.0000 35.3463 0.0000
# 4 0.0000 0.0000 0.0000 28.7324 0.0000 6.9086
# 5 12.8029 12.1173 35.3463 0.0000 40.8951 0.0000
# 6 0.0000 0.0000 0.0000 6.9086 0.0000 30.1919
#
#
#
# Elastic Compliance Matrix: (Units=1/GPa)
#
#
# Indices 1 2 3 4 5 6 
#
# 1 0.014651 -0.003585 0.000354 0.000000 -0.003831 0.000000
# 2 -0.003585 0.015158 -0.008981 0.000000 0.004393 0.000000
# 3 0.000354 -0.008981 0.025038 0.000000 -0.019090 0.000000
# 4 0.000000 0.000000 0.000000 0.036830 0.000000 -0.008428
# 5 -0.003831 0.004393 -0.019090 0.000000 0.040850 0.000000
# 6 0.000000 0.000000 0.000000 -0.008428 0.000000 0.035050
#
#
# Mechanical properties :
#
#
# Convention : Reuss Voigt Hill
#
# Bulk Modulus (GPa) = 32.86967 46.98608 39.92788
# Shear Modulus (GPa) = 24.73514 31.13559 27.93536
#
# Velocity S-wave (km/s) = 3.33759 3.74459 3.54694
# Velocity P-wave (km/s) = 5.44570 6.31318 5.89542
#
# Compressibility (1/GPa) = 0.03042319
#
# Stress axis : x y z
#
# Youngs Moduli (GPa) = 68.25518 65.97130 39.93996
#
# Poissons Ratio (x) = 0.23652 -0.01415
# Poissons Ratio (y) = 0.24471 0.35869
# Poissons Ratio (z) = -0.02418 0.59247
#
# Static dielectric constant tensor:
#      x y z
#    x 4.002910 0.000000 -0.099610 
#    y 0.000000 4.107690 0.000000 
#    z -0.099610 0.000000 3.946880 
# 
# 
# High freq. dielectric constant tensor:
#      x y z
#    x 1.872380 0.000000 -0.006660 
#    y 0.000000 1.877300 0.000000 
#    z -0.006660 0.000000 1.873780 
# 
# From -- ./inp_files/251920.got.cif
#   From: 2010.06.25/outbox.cif.g09.slc.cpg/sg15_126_cif.got.tgz:251920.got - 2010.06.28 07:06:18.
