data_PCOD8143368
_publ_section_title
;
Structure prediction by ZEFSAII (Michael W. Deem and Ramdas Pophale) SiO2 
 PCOD8143368
Probable space group: C 2/C
;
_chemical_formula_sum "Si O2"
_cell_formula_units_Z 48
_cell_length_a 20.021509
_cell_length_b 10.701066
_cell_length_c 11.336954
_cell_angle_alpha 90.000000
_cell_angle_beta 100.202805
_cell_angle_gamma 90.000000
_cell_volume 2390.549993
_symmetry_space_group_name_H-M "C 2/C"
_symmetry_group_IT_number 15
_symmetry_cell_setting 'monoclinic'
loop_
_space_group_symop_operation_xyz
x,y,z
-x,y,1/2-z
-x,-y,-z
x,-y,1/2+z
1/2+x,1/2+y,z
1/2-x,1/2+y,1/2-z
1/2-x,1/2-y,-z
1/2+x,1/2-y,1/2+z
loop_
_atom_site_type_symbol
_atom_site_label
_atom_site_fract_x
_atom_site_fract_y
_atom_site_fract_z
Si Si1 0.500629 0.651888 0.619090
Si Si2 0.821116 0.595250 0.009192
Si Si3 0.728016 0.633833 0.417138
Si Si4 0.526791 0.939877 0.886345
Si Si5 0.789848 0.177302 0.352000
Si Si6 0.613214 0.515515 0.521015
O O1 0.500000 0.596726 0.750000
O O2 0.498120 0.799233 0.616753
O O3 0.570973 0.617898 0.578527
O O4 0.435388 0.594559 0.536899
O O5 0.892053 0.549969 0.085554
O O6 0.780863 0.662475 0.101739
O O7 0.782257 0.477374 0.942361
O O8 0.830074 0.699543 0.909547
O O9 0.750000 0.750000 0.500000
O O10 0.726801 0.693889 0.288645
O O11 0.653066 0.584226 0.427938
O O12 0.500000 0.996968 0.750000
O O13 0.500000 0.000000 0.000000
O O14 0.832655 0.050149 0.377207
#
# Coordination Sequence:
#
# PCOD8143368 Si02
#       6
#     8   8   8   8   8   8
#     4  10  21  40  66  87 126 167 212 259 315 385
#     4  10  24  44  66  94 126 174 211 262 327 384
#     4  11  26  38  65  97 128 162 211 270 317 377
#     4  11  26  44  66  95 131 177 215 266 326 393
#     4  10  22  43  68  91 127 165 215 265 320 384
#     4  10  21  41  62  97 121 163 215 258 322 369
#
# _framework density 20.079060999999999
#
# number of rings (size 3 to 8) (size 9 to 14) (size 15 to 20)
#    0.000    1.667    1.667    1.000    9.333    1.333 
#    0.000    0.833    0.000    0.000    0.000    0.000 
#    0.000    0.000    0.000    0.000    0.000    0.000 
#
# Total GULP energy -297575.784794 kJ/mol
# GULP energy per Si atom -12398.991033 kJ/mol
# Density = 2.003336 g / cm^3
# Si number density = 20.079061 Si / 1000 Ang^3
#
#
#
# Elastic Constant Matrix: (Units=GPa)
#
#
# Indices 1 2 3 4 5 6 
#
# 1 121.3621 32.5769 56.4701 0.0000 8.7335 0.0000
# 2 32.5769 72.3134 29.9888 0.0000 -12.1729 0.0000
# 3 56.4701 29.9888 152.5155 0.0000 -15.6975 0.0000
# 4 0.0000 0.0000 0.0000 30.7761 0.0000 -5.1325
# 5 8.7335 -12.1729 -15.6975 0.0000 21.7211 0.0000
# 6 0.0000 0.0000 0.0000 -5.1325 0.0000 19.2870
#
#
#
# Elastic Compliance Matrix: (Units=1/GPa)
#
#
# Indices 1 2 3 4 5 6 
#
# 1 0.012936 -0.005823 -0.004879 0.000000 -0.011990 0.000000
# 2 -0.005823 0.018670 -0.000213 0.000000 0.012650 0.000000
# 3 -0.004879 -0.000213 0.009285 0.000000 0.008552 0.000000
# 4 0.000000 0.000000 0.000000 0.034002 0.000000 0.009048
# 5 -0.011990 0.012650 0.008552 0.000000 0.064129 0.000000
# 6 0.000000 0.000000 0.000000 0.009048 0.000000 0.054256
#
#
# Mechanical properties :
#
#
# Convention : Reuss Voigt Hill
#
# Bulk Modulus (GPa) = 52.46133 64.91805 58.68969
# Shear Modulus (GPa) = 22.57746 29.50054 26.03900
#
# Velocity S-wave (km/s) = 3.35689 3.83720 3.60505
# Velocity P-wave (km/s) = 6.41943 7.21343 6.82798
#
# Compressibility (1/GPa) = 0.01906166
#
# Stress axis : x y z
#
# Youngs Moduli (GPa) = 77.30587 53.56315 107.69774
#
# Poissons Ratio (x) = 0.31187 0.52542
# Poissons Ratio (y) = 0.45012 0.02295
# Poissons Ratio (z) = 0.37715 0.01142
#
# Static dielectric constant tensor:
#      x y z
#    x 3.877800 0.000000 -0.128970 
#    y 0.000000 3.646270 0.000000 
#    z -0.128970 0.000000 3.916420 
# 
# 
# High freq. dielectric constant tensor:
#      x y z
#    x 1.791410 0.000000 0.001140 
#    y 0.000000 1.786580 0.000000 
#    z 0.001140 0.000000 1.788160 
# 
# From -- ./inp_files/110680.got.cif
#   From: 2010.06.25/outbox.cif.g09.slc.cpg/sg15_56_cif.got.tgz:110680.got - 2010.06.28 07:06:18.
