data_PCOD8143912
_publ_section_title
;
Structure prediction by ZEFSAII (Michael W. Deem and Ramdas Pophale) SiO2 
 PCOD8143912
Probable space group: C 2/C
;
_chemical_formula_sum "Si O2"
_cell_formula_units_Z 32
_cell_length_a 26.393958
_cell_length_b 9.756677
_cell_length_c 19.995256
_cell_angle_alpha 90.000000
_cell_angle_beta 163.448852
_cell_angle_gamma 90.000000
_cell_volume 1466.837209
_symmetry_space_group_name_H-M "C 2/C"
_symmetry_group_IT_number 15
_symmetry_cell_setting 'monoclinic'
loop_
_space_group_symop_operation_xyz
x,y,z
-x,y,1/2-z
-x,-y,-z
x,-y,1/2+z
1/2+x,1/2+y,z
1/2-x,1/2+y,1/2-z
1/2-x,1/2-y,-z
1/2+x,1/2-y,1/2+z
loop_
_atom_site_type_symbol
_atom_site_label
_atom_site_fract_x
_atom_site_fract_y
_atom_site_fract_z
Si Si1 0.906117 0.090062 0.968759
Si Si2 0.556223 0.918757 0.957149
Si Si3 0.557765 0.188126 0.750281
Si Si4 0.617086 0.338380 0.204202
O O1 0.696746 0.051592 0.695521
O O2 0.976599 0.158205 0.988015
O O3 0.925675 0.196707 0.053827
O O4 0.024292 0.955092 0.132654
O O5 0.412155 0.806234 0.796834
O O6 0.445819 0.054812 0.801340
O O7 0.671595 0.867268 0.038369
O O8 0.500000 0.141275 0.750000
O O9 0.750000 0.250000 0.000000
#
# Coordination Sequence:
#
# PCOD8143912 Si02
#       4
#     8   8   8   8
#     4   9  21  41  68  93 136 173 229 261 325 393
#     4  10  21  41  66  98 129 175 225 265 321 400
#     4  12  27  43  65 100 140 171 211 285 344 384
#     4   9  20  37  70  94 127 167 236 269 304 379
#
# _framework density 21.815646000000001
#
# number of rings (size 3 to 8) (size 9 to 14) (size 15 to 20)
#    1.500    0.500    0.000    3.000    3.500    3.000 
#    0.000    6.250    0.000    0.000    0.000    0.000 
#    0.000    0.000    0.000    0.000    0.000    0.000 
#
# Total GULP energy -198305.427782 kJ/mol
# GULP energy per Si atom -12394.089236 kJ/mol
# Density = 2.176599 g / cm^3
# Si number density = 21.815646 Si / 1000 Ang^3
#
#
#
# Elastic Constant Matrix: (Units=GPa)
#
#
# Indices 1 2 3 4 5 6 
#
# 1 33.9675 37.0793 17.7585 0.0002 -13.5994 0.0000
# 2 37.0793 129.2204 63.2495 0.0001 -21.2220 -0.0001
# 3 17.7585 63.2495 103.3299 0.0007 3.1087 0.0002
# 4 0.0002 0.0001 0.0007 39.5769 0.0002 0.4178
# 5 -13.5994 -21.2220 3.1087 0.0002 27.3949 0.0001
# 6 0.0000 -0.0001 0.0002 0.4178 0.0001 40.4094
#
#
#
# Elastic Compliance Matrix: (Units=1/GPa)
#
#
# Indices 1 2 3 4 5 6 
#
# 1 0.048215 -0.009680 -0.002866 0.000000 0.016762 0.000000
# 2 -0.009680 0.016044 -0.008415 0.000000 0.008579 0.000000
# 3 -0.002866 -0.008415 0.015614 0.000000 -0.009713 0.000000
# 4 0.000000 0.000000 0.000000 0.025270 0.000000 -0.000261
# 5 0.016762 0.008579 -0.009713 0.000000 0.052572 0.000000
# 6 0.000000 0.000000 0.000000 -0.000261 0.000000 0.024749
#
#
# Mechanical properties :
#
#
# Convention : Reuss Voigt Hill
#
# Bulk Modulus (GPa) = 26.34927 55.85470 41.10199
# Shear Modulus (GPa) = 21.09381 31.37163 26.23272
#
# Velocity S-wave (km/s) = 3.11289 3.79626 3.47143
# Velocity P-wave (km/s) = 5.00245 6.69881 5.91179
#
# Compressibility (1/GPa) = 0.03795171
#
# Stress axis : x y z
#
# Youngs Moduli (GPa) = 20.74030 62.32759 64.04675
#
# Poissons Ratio (x) = 0.60332 0.18353
# Poissons Ratio (y) = 0.20076 0.53898
# Poissons Ratio (z) = 0.05943 0.52451
#
# Static dielectric constant tensor:
#      x y z
#    x 3.578920 0.000000 -0.060930 
#    y 0.000000 3.736280 0.000000 
#    z -0.060930 0.000000 3.626010 
# 
# 
# High freq. dielectric constant tensor:
#      x y z
#    x 1.831430 0.000000 0.008870 
#    y 0.000000 1.859510 0.000000 
#    z 0.008870 0.000000 1.835710 
# 
# From -- ./inp_files/53473.got.cif
#   From: 2010.06.25/outbox.cif.g09.slc.cpg/sg15_27_cif.got.tgz:53473.got - 2010.06.28 07:06:18.
