data_PCOD8143675
_publ_section_title
;
Structure prediction by ZEFSAII (Michael W. Deem and Ramdas Pophale) SiO2 
 PCOD8143675
Probable space group: C 2/C
;
_chemical_formula_sum "Si O2"
_cell_formula_units_Z 40
_cell_length_a 24.102692
_cell_length_b 15.205488
_cell_length_c 5.174162
_cell_angle_alpha 90.000000
_cell_angle_beta 71.197198
_cell_angle_gamma 90.000000
_cell_volume 1795.096520
_symmetry_space_group_name_H-M "C 2/C"
_symmetry_group_IT_number 15
_symmetry_cell_setting 'monoclinic'
loop_
_space_group_symop_operation_xyz
x,y,z
-x,y,1/2-z
-x,-y,-z
x,-y,1/2+z
1/2+x,1/2+y,z
1/2-x,1/2+y,1/2-z
1/2-x,1/2-y,-z
1/2+x,1/2-y,1/2+z
loop_
_atom_site_type_symbol
_atom_site_label
_atom_site_fract_x
_atom_site_fract_y
_atom_site_fract_z
Si Si1 0.246285 0.559086 0.282602
Si Si2 0.641450 0.813693 0.902232
Si Si3 0.566084 0.038128 0.416599
Si Si4 0.569038 0.448426 0.147610
Si Si5 0.347421 0.299613 0.605102
O O1 0.255936 0.491604 0.501004
O O2 0.182925 0.603347 0.397023
O O3 0.292987 0.637314 0.234222
O O4 0.576303 0.857106 0.951211
O O5 0.666046 0.766745 0.608773
O O6 0.638321 0.749593 0.149929
O O7 0.500000 0.000000 0.500000
O O8 0.597868 0.985206 0.600702
O O9 0.500000 0.437710 0.250000
O O10 0.591098 0.487012 0.386905
O O11 0.595073 0.352514 0.066581
#
# Coordination Sequence:
#
# PCOD8143675 Si02
#       5
#     8   8   8   8   8
#     4  12  24  42  68  92 128 175 221 255 327 397
#     4  12  24  41  63  96 134 164 212 274 327 375
#     4  10  21  41  63  86 120 173 215 253 305 380
#     4  10  21  41  65  87 123 167 213 260 320 394
#     4  12  24  41  63  99 130 163 212 278 331 374
#
# _framework density 22.282924000000001
#
# number of rings (size 3 to 8) (size 9 to 14) (size 15 to 20)
#    0.000    0.800    0.000    8.400    0.000    0.000 
#   10.800    0.000    0.000    0.000    0.000    0.000 
#    0.000    0.000    0.000    0.000    0.000    0.000 
#
# Total GULP energy -247931.533600 kJ/mol
# GULP energy per Si atom -12396.576680 kJ/mol
# Density = 2.223221 g / cm^3
# Si number density = 22.282924 Si / 1000 Ang^3
#
#
#
# Elastic Constant Matrix: (Units=GPa)
#
#
# Indices 1 2 3 4 5 6 
#
# 1 70.8642 59.3596 45.4329 0.0000 0.0717 0.0000
# 2 59.3596 124.9096 47.1740 0.0000 -3.1977 0.0000
# 3 45.4329 47.1740 139.6858 0.0000 24.4170 0.0000
# 4 0.0000 0.0000 0.0000 51.4143 0.0000 7.8110
# 5 0.0717 -3.1977 24.4170 0.0000 30.0532 0.0000
# 6 0.0000 0.0000 0.0000 7.8110 0.0000 45.3725
#
#
#
# Elastic Compliance Matrix: (Units=1/GPa)
#
#
# Indices 1 2 3 4 5 6 
#
# 1 0.026399 -0.010296 -0.005719 0.000000 0.003488 0.000000
# 2 -0.010296 0.013641 -0.001767 0.000000 0.002911 0.000000
# 3 -0.005719 -0.001767 0.011243 0.000000 -0.009309 0.000000
# 4 0.000000 0.000000 0.000000 0.019972 0.000000 -0.003438
# 5 0.003488 0.002911 -0.009309 0.000000 0.041139 0.000000
# 6 0.000000 0.000000 0.000000 -0.003438 0.000000 0.022632
#
#
# Mechanical properties :
#
#
# Convention : Reuss Voigt Hill
#
# Bulk Modulus (GPa) = 63.61742 71.04361 67.33052
# Shear Modulus (GPa) = 28.43686 37.60086 33.01886
#
# Velocity S-wave (km/s) = 3.57623 4.11229 3.85359
# Velocity P-wave (km/s) = 6.75754 7.38239 7.07687
#
# Compressibility (1/GPa) = 0.01571896
#
# Stress axis : x y z
#
# Youngs Moduli (GPa) = 37.87991 73.31093 88.94664
#
# Poissons Ratio (x) = 0.75484 0.50867
# Poissons Ratio (y) = 0.39003 0.15713
# Poissons Ratio (z) = 0.21663 0.12951
#
# Static dielectric constant tensor:
#      x y z
#    x 5.201920 0.000000 2.940210 
#    y 0.000000 4.136080 0.000000 
#    z 2.940210 0.000000 11.601510 
# 
# 
# High freq. dielectric constant tensor:
#      x y z
#    x 1.877540 0.000000 0.012610 
#    y 0.000000 1.882240 0.000000 
#    z 0.012610 0.000000 1.904520 
# 
# From -- ./inp_files/15089.got.cif
#   From: 2010.06.25/outbox.cif.g09.slc.cpg/sg15_8_cif.got.tgz:15089.got - 2010.06.28 07:06:18.
