data_PCOD8143075
_publ_section_title
;
Structure prediction by ZEFSAII (Michael W. Deem and Ramdas Pophale) SiO2 
 PCOD8143075
Probable space group: C 2/C
;
_chemical_formula_sum "Si O2"
_cell_formula_units_Z 44
_cell_length_a 15.940622
_cell_length_b 17.500100
_cell_length_c 9.671237
_cell_angle_alpha 90.000000
_cell_angle_beta 125.484969
_cell_angle_gamma 90.000000
_cell_volume 2196.823159
_symmetry_space_group_name_H-M "C 2/C"
_symmetry_group_IT_number 15
_symmetry_cell_setting 'monoclinic'
loop_
_space_group_symop_operation_xyz
x,y,z
-x,y,1/2-z
-x,-y,-z
x,-y,1/2+z
1/2+x,1/2+y,z
1/2-x,1/2+y,1/2-z
1/2-x,1/2-y,-z
1/2+x,1/2-y,1/2+z
loop_
_atom_site_type_symbol
_atom_site_label
_atom_site_fract_x
_atom_site_fract_y
_atom_site_fract_z
Si Si1 0.000000 0.082164 0.750000
Si Si2 0.164403 0.029378 0.506189
Si Si3 0.865166 0.630310 0.008307
Si Si4 0.914162 0.667231 0.365334
Si Si5 0.700227 0.030097 0.123649
Si Si6 0.354319 0.665215 0.820459
O O1 0.073168 0.137547 0.733756
O O2 0.931677 0.028360 0.586074
O O3 0.205188 0.043693 0.390485
O O4 0.128503 0.110589 0.531874
O O5 0.254159 0.992499 0.684260
O O6 0.866606 0.655141 0.168586
O O7 0.962507 0.663360 0.019139
O O8 0.870125 0.538430 0.002272
O O9 0.763377 0.663910 0.841688
O O10 0.869715 0.605073 0.429793
O O11 0.882541 0.749658 0.393257
#
# Coordination Sequence:
#
# PCOD8143075 Si02
#       6
#     4   8   8   8   8   8
#     4  12  20  42  66  88 126 168 212 242 306 376
#     4  11  23  40  67  92 125 164 208 254 301 371
#     4  10  21  40  61  92 123 166 208 246 302 382
#     4  11  22  38  65  92 125 163 202 257 314 356
#     4  11  21  42  64  93 123 163 209 253 300 375
#     4  11  24  39  61  96 124 157 208 260 309 358
#
# _framework density 20.028922000000001
#
# number of rings (size 3 to 8) (size 9 to 14) (size 15 to 20)
#    0.000    1.091    5.455    2.727    0.000    2.182 
#    0.000    0.000    0.000    0.000    0.000    0.000 
#    0.000    0.000    0.000    0.000    0.000    0.000 
#
# Total GULP energy -272906.699354 kJ/mol
# GULP energy per Si atom -12404.849971 kJ/mol
# Density = 1.998334 g / cm^3
# Si number density = 20.028922 Si / 1000 Ang^3
#
#
#
# Elastic Constant Matrix: (Units=GPa)
#
#
# Indices 1 2 3 4 5 6 
#
# 1 99.7782 56.0310 25.4927 0.0000 8.0326 0.0000
# 2 56.0310 163.2502 14.6561 0.0000 6.4245 0.0000
# 3 25.4927 14.6561 35.8602 0.0000 4.5494 0.0000
# 4 0.0000 0.0000 0.0000 21.8292 0.0000 -3.6301
# 5 8.0326 6.4245 4.5494 0.0000 28.0409 0.0000
# 6 0.0000 0.0000 0.0000 -3.6301 0.0000 31.9414
#
#
#
# Elastic Compliance Matrix: (Units=1/GPa)
#
#
# Indices 1 2 3 4 5 6 
#
# 1 0.014709 -0.004212 -0.008498 0.000000 -0.001870 0.000000
# 2 -0.004212 0.007596 -0.000043 0.000000 -0.000527 0.000000
# 3 -0.008498 -0.000043 0.034342 0.000000 -0.003127 0.000000
# 4 0.000000 0.000000 0.000000 0.046693 0.000000 0.005307
# 5 -0.001870 -0.000527 -0.003127 0.000000 0.036826 0.000000
# 6 0.000000 0.000000 0.000000 0.005307 0.000000 0.031910
#
#
# Mechanical properties :
#
#
# Convention : Reuss Voigt Hill
#
# Bulk Modulus (GPa) = 32.11296 54.58315 43.34805
# Shear Modulus (GPa) = 24.04281 29.87622 26.95951
#
# Velocity S-wave (km/s) = 3.46844 3.86638 3.67281
# Velocity P-wave (km/s) = 5.66641 6.87337 6.29887
#
# Compressibility (1/GPa) = 0.03114008
#
# Stress axis : x y z
#
# Youngs Moduli (GPa) = 67.98452 131.65102 29.11914
#
# Poissons Ratio (x) = 0.55452 0.24745
# Poissons Ratio (y) = 0.28635 0.00126
# Poissons Ratio (z) = 0.57773 0.00570
#
# Static dielectric constant tensor:
#      x y z
#    x 3.685270 0.000000 0.052000 
#    y 0.000000 3.750690 0.000000 
#    z 0.052000 0.000000 3.449330 
# 
# 
# High freq. dielectric constant tensor:
#      x y z
#    x 1.792900 0.000000 0.006880 
#    y 0.000000 1.786430 0.000000 
#    z 0.006880 0.000000 1.765820 
# 
# From -- ./inp_files/39520.got.cif
#   From: 2010.06.25/outbox.cif.g09.slc.cpg/sg15_20_cif.got.tgz:39520.got - 2010.06.28 07:06:18.
