data_PCOD8143213
_publ_section_title
;
Structure prediction by ZEFSAII (Michael W. Deem and Ramdas Pophale) SiO2 
 PCOD8143213
Probable space group: C 2/C
;
_chemical_formula_sum "Si O2"
_cell_formula_units_Z 64
_cell_length_a 29.053698
_cell_length_b 15.152299
_cell_length_c 8.794192
_cell_angle_alpha 90.000000
_cell_angle_beta 58.000637
_cell_angle_gamma 90.000000
_cell_volume 3283.215530
_symmetry_space_group_name_H-M "C 2/C"
_symmetry_group_IT_number 15
_symmetry_cell_setting 'monoclinic'
loop_
_space_group_symop_operation_xyz
x,y,z
-x,y,1/2-z
-x,-y,-z
x,-y,1/2+z
1/2+x,1/2+y,z
1/2-x,1/2+y,1/2-z
1/2-x,1/2-y,-z
1/2+x,1/2-y,1/2+z
loop_
_atom_site_type_symbol
_atom_site_label
_atom_site_fract_x
_atom_site_fract_y
_atom_site_fract_z
Si Si1 0.519515 0.589214 0.385889
Si Si2 0.904315 0.668346 0.646643
Si Si3 0.830347 0.356378 0.021969
Si Si4 0.131128 0.169355 0.106683
Si Si5 0.660622 0.938041 0.039769
Si Si6 0.750642 0.654404 0.930352
Si Si7 0.372503 0.798277 0.652725
Si Si8 0.985458 0.735223 0.098215
O O1 0.500000 0.592285 0.250000
O O2 0.500000 0.500000 0.500000
O O3 0.584690 0.603385 0.253359
O O4 0.490793 0.663978 0.535926
O O5 0.886574 0.675868 0.502427
O O6 0.868630 0.742433 0.794174
O O7 0.967649 0.679256 0.567708
O O8 0.885018 0.575137 0.749825
O O9 0.835026 0.460546 0.000631
O O10 0.777772 0.337644 0.216270
O O11 0.827294 0.303403 0.867159
O O12 0.188709 0.119458 0.020615
O O13 0.125775 0.204940 0.940800
O O14 0.641510 0.882189 0.926884
O O15 0.718895 0.909313 0.005559
O O16 0.750000 0.750000 0.000000
O O17 0.430136 0.808989 0.638254
O O18 0.000000 0.730037 0.250000
#
# Coordination Sequence:
#
# PCOD8143213 Si02
#       8
#     8   8   8   8   8   8   8   8
#     4  11  23  42  66  91 123 163 201 264 326 369
#     4   9  19  36  60  83 119 163 195 238 309 363
#     4  11  21  37  62  91 123 159 202 252 316 358
#     4  10  21  40  64  89 118 166 207 250 309 380
#     4  10  22  38  59  87 124 166 192 253 318 361
#     4  11  20  42  64  86 123 165 206 248 317 372
#     4  11  20  36  63  91 122 160 213 246 299 378
#     4  11  21  37  62  93 119 161 212 256 294 371
#
# _framework density 19.493085000000001
#
# number of rings (size 3 to 8) (size 9 to 14) (size 15 to 20)
#    0.000    1.500    6.250    1.875    0.000    0.500 
#    2.250    3.750    0.000    0.000    0.000    0.000 
#    0.000    0.000    0.000    0.000    0.000    0.000 
#
# Total GULP energy -396433.645550 kJ/mol
# GULP energy per Si atom -12388.551423 kJ/mol
# Density = 1.944872 g / cm^3
# Si number density = 19.493085 Si / 1000 Ang^3
#
#
#
# Elastic Constant Matrix: (Units=GPa)
#
#
# Indices 1 2 3 4 5 6 
#
# 1 124.2848 30.4368 48.1941 0.0000 -4.3456 0.0000
# 2 30.4368 73.7171 43.4325 0.0000 -8.6322 0.0000
# 3 48.1941 43.4325 113.0466 0.0000 2.5162 0.0000
# 4 0.0000 0.0000 0.0000 24.9592 0.0000 -1.6132
# 5 -4.3456 -8.6322 2.5162 0.0000 37.8718 0.0000
# 6 0.0000 0.0000 0.0000 -1.6132 0.0000 15.5092
#
#
#
# Elastic Compliance Matrix: (Units=1/GPa)
#
#
# Indices 1 2 3 4 5 6 
#
# 1 0.009908 -0.001914 -0.003510 0.000000 0.000934 0.000000
# 2 -0.001914 0.018687 -0.006463 0.000000 0.004469 0.000000
# 3 -0.003510 -0.006463 0.012886 0.000000 -0.002732 0.000000
# 4 0.000000 0.000000 0.000000 0.040337 0.000000 0.004196
# 5 0.000934 0.004469 -0.002732 0.000000 0.027712 0.000000
# 6 0.000000 0.000000 0.000000 0.004196 0.000000 0.064914
#
#
# Mechanical properties :
#
#
# Convention : Reuss Voigt Hill
#
# Bulk Modulus (GPa) = 56.47119 61.68615 59.07867
# Shear Modulus (GPa) = 24.49544 28.26706 26.38125
#
# Velocity S-wave (km/s) = 3.54873 3.81216 3.68280
# Velocity P-wave (km/s) = 6.76935 7.14777 6.96113
#
# Compressibility (1/GPa) = 0.01770815
#
# Stress axis : x y z
#
# Youngs Moduli (GPa) = 100.92540 53.51385 77.60348
#
# Poissons Ratio (x) = 0.10242 0.27236
# Poissons Ratio (y) = 0.19316 0.50155
# Poissons Ratio (z) = 0.35421 0.34586
#
# Static dielectric constant tensor:
#      x y z
#    x 1.519790 0.000000 2.368970 
#    y 0.000000 3.231060 0.000000 
#    z 2.368970 0.000000 1.837360 
# 
# 
# High freq. dielectric constant tensor:
#      x y z
#    x 1.765220 0.000000 0.006100 
#    y 0.000000 1.730690 0.000000 
#    z 0.006100 0.000000 1.776140 
# 
# From -- ./inp_files/69941.got.cif
#   From: 2010.06.25/outbox.cif.g09.slc.cpg/sg15_35_cif.got.tgz:69941.got - 2010.06.28 07:06:18.
