data_PCOD8143869
_publ_section_title
;
Structure prediction by ZEFSAII (Michael W. Deem and Ramdas Pophale) SiO2 
 PCOD8143869
Probable space group: C 2/C
;
_chemical_formula_sum "Si O2"
_cell_formula_units_Z 56
_cell_length_a 15.349671
_cell_length_b 9.301905
_cell_length_c 21.507960
_cell_angle_alpha 90.000000
_cell_angle_beta 113.477238
_cell_angle_gamma 90.000000
_cell_volume 2816.715322
_symmetry_space_group_name_H-M "C 2/C"
_symmetry_group_IT_number 15
_symmetry_cell_setting 'monoclinic'
loop_
_space_group_symop_operation_xyz
x,y,z
-x,y,1/2-z
-x,-y,-z
x,-y,1/2+z
1/2+x,1/2+y,z
1/2-x,1/2+y,1/2-z
1/2-x,1/2-y,-z
1/2+x,1/2-y,1/2+z
loop_
_atom_site_type_symbol
_atom_site_label
_atom_site_fract_x
_atom_site_fract_y
_atom_site_fract_z
Si Si1 0.838503 0.325679 0.995298
Si Si2 0.729439 0.484820 0.376714
Si Si3 0.487213 0.669213 0.492391
Si Si4 0.350903 0.744900 0.563686
Si Si5 0.929521 0.535875 0.634358
Si Si6 0.387128 0.169442 0.849733
Si Si7 0.105845 0.227276 0.279286
O O1 0.903572 0.364429 0.070356
O O2 0.904468 0.225255 0.971357
O O3 0.750000 0.250000 0.000000
O O4 0.808132 0.466437 0.949107
O O5 0.651113 0.386406 0.388304
O O6 0.786977 0.396591 0.341853
O O7 0.678196 0.624099 0.335238
O O8 0.500000 0.500000 0.500000
O O9 0.433289 0.724957 0.537560
O O10 0.431376 0.726345 0.415524
O O11 0.250000 0.750000 0.500000
O O12 0.377330 0.883109 0.613429
O O13 0.896761 0.614706 0.688540
O O14 0.044149 0.540656 0.657134
O O15 0.360485 0.265285 0.782333
O O16 0.000000 0.160098 0.250000
#
# Coordination Sequence:
#
# PCOD8143869 Si02
#       7
#     8   8   8   8   8   8   8
#     4  11  20  36  66  96 123 165 208 264 322 378
#     4  12  23  41  65  96 128 164 213 265 323 377
#     4  11  24  39  65 100 130 164 214 271 326 376
#     4  12  23  38  64 100 133 156 208 274 325 373
#     4  10  21  41  66  89 129 168 208 260 324 382
#     4  10  23  44  63  91 130 171 215 259 318 385
#     4  10  24  44  65  84 126 181 216 253 314 392
#
# _framework density 19.881312999999999
#
# number of rings (size 3 to 8) (size 9 to 14) (size 15 to 20)
#    0.000    1.143    4.286    1.714    4.000    3.429 
#    2.571    3.571    0.000    0.000    0.000    0.000 
#    0.000    0.000    0.000    0.000    0.000    0.000 
#
# Total GULP energy -347012.360431 kJ/mol
# GULP energy per Si atom -12393.298587 kJ/mol
# Density = 1.983606 g / cm^3
# Si number density = 19.881313 Si / 1000 Ang^3
#
#
#
# Elastic Constant Matrix: (Units=GPa)
#
#
# Indices 1 2 3 4 5 6 
#
# 1 142.9106 54.2036 44.0452 0.0000 -20.2834 0.0000
# 2 54.2036 110.2733 35.2096 0.0000 -9.0266 0.0000
# 3 44.0452 35.2096 86.4312 0.0000 -18.3160 0.0000
# 4 0.0000 0.0000 0.0000 20.1684 0.0000 5.7777
# 5 -20.2834 -9.0266 -18.3160 0.0000 33.9098 0.0000
# 6 0.0000 0.0000 0.0000 5.7777 0.0000 33.7611
#
#
#
# Elastic Compliance Matrix: (Units=1/GPa)
#
#
# Indices 1 2 3 4 5 6 
#
# 1 0.009692 -0.003609 -0.002760 0.000000 0.003346 0.000000
# 2 -0.003609 0.011777 -0.003107 0.000000 -0.000702 0.000000
# 3 -0.002760 -0.003107 0.015490 0.000000 0.005889 0.000000
# 4 0.000000 0.000000 0.000000 0.052139 0.000000 -0.008923
# 5 0.003346 -0.000702 0.005889 0.000000 0.034485 0.000000
# 6 0.000000 0.000000 0.000000 -0.008923 0.000000 0.031147
#
#
# Mechanical properties :
#
#
# Convention : Reuss Voigt Hill
#
# Bulk Modulus (GPa) = 55.53414 67.39243 61.46329
# Shear Modulus (GPa) = 27.82679 31.31163 29.56921
#
# Velocity S-wave (km/s) = 3.74524 3.97284 3.86072
# Velocity P-wave (km/s) = 6.83344 7.41725 7.13132
#
# Compressibility (1/GPa) = 0.01800694
#
# Stress axis : x y z
#
# Youngs Moduli (GPa) = 103.18287 84.91198 64.55791
#
# Poissons Ratio (x) = 0.30643 0.17816
# Poissons Ratio (y) = 0.37236 0.20060
# Poissons Ratio (z) = 0.28475 0.26385
#
# Static dielectric constant tensor:
#      x y z
#    x 3.980260 0.000000 -0.256550 
#    y 0.000000 3.540740 0.000000 
#    z -0.256550 0.000000 3.912700 
# 
# 
# High freq. dielectric constant tensor:
#      x y z
#    x 1.788450 0.000000 -0.007920 
#    y 0.000000 1.766040 0.000000 
#    z -0.007920 0.000000 1.774600 
# 
# From -- ./inp_files/272822.got.cif
#   From: 2010.06.25/outbox.cif.g09.slc.cpg/sg15_137_cif.got.tgz:272822.got - 2010.06.28 07:06:18.
