data_PCOD8143577
_publ_section_title
;
Structure prediction by ZEFSAII (Michael W. Deem and Ramdas Pophale) SiO2 
 PCOD8143577
Probable space group: C 2/C
;
_chemical_formula_sum "Si O2"
_cell_formula_units_Z 44
_cell_length_a 17.793273
_cell_length_b 7.738668
_cell_length_c 13.404684
_cell_angle_alpha 90.000000
_cell_angle_beta 109.595738
_cell_angle_gamma 90.000000
_cell_volume 1738.871660
_symmetry_space_group_name_H-M "C 2/C"
_symmetry_group_IT_number 15
_symmetry_cell_setting 'monoclinic'
loop_
_space_group_symop_operation_xyz
x,y,z
-x,y,1/2-z
-x,-y,-z
x,-y,1/2+z
1/2+x,1/2+y,z
1/2-x,1/2+y,1/2-z
1/2-x,1/2-y,-z
1/2+x,1/2-y,1/2+z
loop_
_atom_site_type_symbol
_atom_site_label
_atom_site_fract_x
_atom_site_fract_y
_atom_site_fract_z
Si Si1 0.643802 0.082259 0.190311
Si Si2 0.816533 0.195494 0.283529
Si Si3 0.434080 0.854664 0.042320
Si Si4 0.560935 0.347700 0.501578
Si Si5 0.500000 0.924865 0.750000
Si Si6 0.584315 0.542152 0.335735
O O1 0.721513 0.194211 0.250263
O O2 0.568721 0.174730 0.215460
O O3 0.654418 0.886542 0.234488
O O4 0.631325 0.074895 0.064942
O O5 0.855213 0.133711 0.404397
O O6 0.845173 0.057023 0.212815
O O7 0.399310 0.672574 0.065509
O O8 0.449461 0.967637 0.146488
O O9 0.518162 0.830821 0.017477
O O10 0.500000 0.500000 0.500000
O O11 0.578761 0.353121 0.389060
O O12 0.500000 0.592429 0.250000
#
# Coordination Sequence:
#
# PCOD8143577 Si02
#       6
#     8   8   8   8   4   8
#     4  12  29  45  77 103 153 190 245 300 365 433
#     4  12  26  49  68 114 147 192 241 305 361 431
#     4  11  21  46  74 104 135 196 243 289 352 443
#     4  10  21  40  75 106 140 182 250 293 349 437
#     4  12  22  50  76  96 140 204 232 288 376 432
#     4  11  20  42  76 102 139 191 233 289 369 428
#
# _framework density 25.303764999999999
#
# number of rings (size 3 to 8) (size 9 to 14) (size 15 to 20)
#    0.000    0.727    8.182    0.545    5.091    2.182 
#    4.909    1.818    0.000    0.000    0.000    0.000 
#    0.000    0.000    0.000    0.000    0.000    0.000 
#
# Total GULP energy -272713.085356 kJ/mol
# GULP energy per Si atom -12396.049334 kJ/mol
# Density = 2.524617 g / cm^3
# Si number density = 25.303765 Si / 1000 Ang^3
#
#
#
# Elastic Constant Matrix: (Units=GPa)
#
#
# Indices 1 2 3 4 5 6 
#
# 1 139.1928 17.5344 55.3889 0.0000 12.1527 0.0000
# 2 17.5344 33.9201 15.1074 0.0000 0.5197 0.0000
# 3 55.3889 15.1074 152.3381 0.0000 9.9450 0.0000
# 4 0.0000 0.0000 0.0000 41.0705 0.0000 -4.8869
# 5 12.1527 0.5197 9.9450 0.0000 48.4934 0.0000
# 6 0.0000 0.0000 0.0000 -4.8869 0.0000 34.0019
#
#
#
# Elastic Compliance Matrix: (Units=1/GPa)
#
#
# Indices 1 2 3 4 5 6 
#
# 1 0.008850 -0.003310 -0.002784 0.000000 -0.001611 0.000000
# 2 -0.003310 0.032086 -0.002037 0.000000 0.000904 0.000000
# 3 -0.002784 -0.002037 0.007837 0.000000 -0.000888 0.000000
# 4 0.000000 0.000000 0.000000 0.024772 0.000000 0.003560
# 5 -0.001611 0.000904 -0.000888 0.000000 0.021197 0.000000
# 6 0.000000 0.000000 0.000000 0.003560 0.000000 0.029922
#
#
# Mechanical properties :
#
#
# Convention : Reuss Voigt Hill
#
# Bulk Modulus (GPa) = 30.76097 55.72361 43.24229
# Shear Modulus (GPa) = 32.94603 40.54119 36.74361
#
# Velocity S-wave (km/s) = 3.61227 4.00707 3.81478
# Velocity P-wave (km/s) = 5.43884 6.59382 6.04398
#
# Compressibility (1/GPa) = 0.03250873
#
# Stress axis : x y z
#
# Youngs Moduli (GPa) = 112.99574 31.16656 127.60491
#
# Poissons Ratio (x) = 0.10316 0.35529
# Poissons Ratio (y) = 0.37402 0.25999
# Poissons Ratio (z) = 0.31461 0.06350
#
# Static dielectric constant tensor:
#      x y z
#    x 4.500970 0.000000 -0.364780 
#    y 0.000000 4.683360 0.000000 
#    z -0.364780 0.000000 4.897280 
# 
# 
# High freq. dielectric constant tensor:
#      x y z
#    x 1.983500 0.000000 -0.014420 
#    y 0.000000 2.007700 0.000000 
#    z -0.014420 0.000000 2.028190 
# 
# From -- ./inp_files/159815.got.cif
#   From: 2010.06.25/outbox.cif.g09.slc.cpg/sg15_80_cif.got.tgz:159815.got - 2010.06.28 07:06:18.
