data_PCOD8143605
_publ_section_title
;
Structure prediction by ZEFSAII (Michael W. Deem and Ramdas Pophale) SiO2 
 PCOD8143605
Probable space group: C 2/C
;
_chemical_formula_sum "Si O2"
_cell_formula_units_Z 48
_cell_length_a 11.444532
_cell_length_b 15.496655
_cell_length_c 15.325861
_cell_angle_alpha 90.000000
_cell_angle_beta 68.076195
_cell_angle_gamma 90.000000
_cell_volume 2521.503894
_symmetry_space_group_name_H-M "C 2/C"
_symmetry_group_IT_number 15
_symmetry_cell_setting 'monoclinic'
loop_
_space_group_symop_operation_xyz
x,y,z
-x,y,1/2-z
-x,-y,-z
x,-y,1/2+z
1/2+x,1/2+y,z
1/2-x,1/2+y,1/2-z
1/2-x,1/2-y,-z
1/2+x,1/2-y,1/2+z
loop_
_atom_site_type_symbol
_atom_site_label
_atom_site_fract_x
_atom_site_fract_y
_atom_site_fract_z
Si Si1 0.805300 0.361934 0.397941
Si Si2 0.186047 0.162496 0.108622
Si Si3 0.500000 0.270030 0.250000
Si Si4 0.046765 0.888063 0.397941
Si Si5 0.500000 0.979971 0.250000
Si Si6 0.814854 0.374999 0.750000
Si Si7 0.044670 0.912497 0.891378
O O1 0.842387 0.262856 0.394246
O O2 0.750597 0.386262 0.508226
O O3 0.697767 0.374995 0.354471
O O4 0.926091 0.420142 0.340054
O O5 0.280090 0.144579 0.160790
O O6 0.045136 0.124994 0.159733
O O7 0.483856 0.329859 0.340054
O O8 0.621644 0.208796 0.224279
O O9 0.991182 0.863735 0.508227
O O10 0.013380 0.987142 0.394249
O O11 0.595924 0.041205 0.275720
O O12 0.690880 0.394577 0.839209
#
# Coordination Sequence:
#
# PCOD8143605 Si02
#       7
#     8   8   4   8   4   8   8
#     4  10  21  41  61  87 120 156 196 243 296 347
#     4  10  22  39  64  88 117 156 201 244 285 350
#     4  11  24  38  61  86 126 158 187 248 298 351
#     4  10  21  41  61  87 120 156 196 243 296 347
#     4  11  24  38  61  86 126 158 187 248 298 351
#     4  11  23  40  58  90 123 157 196 238 298 353
#     4  10  22  39  64  88 117 156 201 244 285 350
#
# _framework density 19.036259000000001
#
# number of rings (size 3 to 8) (size 9 to 14) (size 15 to 20)
#    0.000    1.667    3.333    0.500    4.667    1.333 
#    0.000    0.000    7.333    0.000    0.000    0.000 
#    0.000    0.000    0.000    0.000    0.000    0.000 
#
# Total GULP energy -297518.015605 kJ/mol
# GULP energy per Si atom -12396.583984 kJ/mol
# Density = 1.899293 g / cm^3
# Si number density = 19.036259 Si / 1000 Ang^3
#
#
#
# Elastic Constant Matrix: (Units=GPa)
#
#
# Indices 1 2 3 4 5 6 
#
# 1 136.9549 55.0942 51.6206 0.0000 0.7669 0.0000
# 2 55.0942 103.5990 46.7685 0.0000 0.2490 0.0000
# 3 51.6206 46.7685 90.3853 0.0000 0.6307 0.0000
# 4 0.0000 0.0000 0.0000 15.3329 0.0000 0.6049
# 5 0.7669 0.2490 0.6307 0.0000 29.8832 0.0000
# 6 0.0000 0.0000 0.0000 0.6049 0.0000 35.4441
#
#
#
# Elastic Compliance Matrix: (Units=1/GPa)
#
#
# Indices 1 2 3 4 5 6 
#
# 1 0.010275 -0.003673 -0.003967 0.000000 -0.000149 0.000000
# 2 -0.003673 0.013908 -0.005099 0.000000 0.000086 0.000000
# 3 -0.003967 -0.005099 0.015969 0.000000 -0.000193 0.000000
# 4 0.000000 0.000000 0.000000 0.065263 0.000000 -0.001114
# 5 -0.000149 0.000086 -0.000193 0.000000 0.033471 0.000000
# 6 0.000000 0.000000 0.000000 -0.001114 0.000000 0.028232
#
#
# Mechanical properties :
#
#
# Convention : Reuss Voigt Hill
#
# Bulk Modulus (GPa) = 68.14810 70.87842 69.51326
# Shear Modulus (GPa) = 25.31800 27.96244 26.64022
#
# Velocity S-wave (km/s) = 3.65086 3.83679 3.74498
# Velocity P-wave (km/s) = 7.32451 7.54600 7.43608
#
# Compressibility (1/GPa) = 0.01467392
#
# Stress axis : x y z
#
# Youngs Moduli (GPa) = 97.32042 71.90204 62.62160
#
# Poissons Ratio (x) = 0.26412 0.24840
# Poissons Ratio (y) = 0.35750 0.31931
# Poissons Ratio (z) = 0.38604 0.36663
#
# Static dielectric constant tensor:
#      x y z
#    x 3.673240 0.000000 0.006870 
#    y 0.000000 3.533160 0.000000 
#    z 0.006870 0.000000 3.445120 
# 
# 
# High freq. dielectric constant tensor:
#      x y z
#    x 1.746590 0.000000 0.000450 
#    y 0.000000 1.748260 0.000000 
#    z 0.000450 0.000000 1.731590 
# 
# From -- ./inp_files/43823.got.cif
#   From: 2010.06.25/outbox.cif.g09.slc.cpg/sg15_22_cif.got.tgz:43823.got - 2010.06.28 07:06:18.
