data_PCOD8143341
_publ_section_title
;
Structure prediction by ZEFSAII (Michael W. Deem and Ramdas Pophale) SiO2 
 PCOD8143341
Probable space group: C 2/C
;
_chemical_formula_sum "Si O2"
_cell_formula_units_Z 56
_cell_length_a 10.916742
_cell_length_b 24.270788
_cell_length_c 27.035655
_cell_angle_alpha 90.000000
_cell_angle_beta 157.206301
_cell_angle_gamma 90.000000
_cell_volume 2775.168507
_symmetry_space_group_name_H-M "C 2/C"
_symmetry_group_IT_number 15
_symmetry_cell_setting 'monoclinic'
loop_
_space_group_symop_operation_xyz
x,y,z
-x,y,1/2-z
-x,-y,-z
x,-y,1/2+z
1/2+x,1/2+y,z
1/2-x,1/2+y,1/2-z
1/2-x,1/2-y,-z
1/2+x,1/2-y,1/2+z
loop_
_atom_site_type_symbol
_atom_site_label
_atom_site_fract_x
_atom_site_fract_y
_atom_site_fract_z
Si Si1 0.754111 0.296550 0.541071
Si Si2 0.142898 0.425874 0.511025
Si Si3 0.162431 0.776802 0.615541
Si Si4 0.235430 0.875976 0.189181
Si Si5 0.203363 0.124232 0.278499
Si Si6 0.193030 0.549246 0.513818
Si Si7 0.513796 0.830743 0.392484
O O1 0.750000 0.250000 0.500000
O O2 0.645458 0.266403 0.550664
O O3 0.497579 0.341109 0.431207
O O4 0.103329 0.324455 0.672732
O O5 0.472080 0.399194 0.650726
O O6 0.206063 0.484229 0.508386
O O7 0.970648 0.386233 0.407843
O O8 0.902633 0.435353 0.466268
O O9 0.500000 0.806506 0.750000
O O10 0.885490 0.817377 0.528773
O O11 0.161519 0.719409 0.645285
O O12 0.500000 0.897705 0.250000
O O13 0.370643 0.839309 0.284670
O O14 0.047759 0.928680 0.139303
O O15 0.441224 0.075537 0.382493
O O16 0.000000 0.145056 0.250000
#
# Coordination Sequence:
#
# PCOD8143341 Si02
#       7
#     8   8   8   8   8   8   8
#     4  11  23  39  64  87 127 173 208 257 315 366
#     4  10  21  40  65  95 124 160 207 268 310 369
#     4  11  24  42  61  95 128 163 213 260 307 382
#     4  11  23  44  61  91 129 168 209 263 313 386
#     4   9  20  38  60  91 125 158 209 257 307 376
#     4   9  22  39  65  94 124 162 210 255 320 370
#     4  11  25  40  65  93 127 167 211 257 320 371
#
# _framework density 20.178954999999998
#
# number of rings (size 3 to 8) (size 9 to 14) (size 15 to 20)
#    0.000    1.714    1.429    1.714   10.000    1.714 
#    0.000    2.857    0.000    0.000    0.000    0.000 
#    0.000    0.000    0.000    0.000    0.000    0.000 
#
# Total GULP energy -347222.755143 kJ/mol
# GULP energy per Si atom -12400.812684 kJ/mol
# Density = 2.013303 g / cm^3
# Si number density = 20.178955 Si / 1000 Ang^3
#
#
#
# Elastic Constant Matrix: (Units=GPa)
#
#
# Indices 1 2 3 4 5 6 
#
# 1 94.6736 33.5460 29.4190 -0.0162 3.1012 -0.0038
# 2 33.5460 77.3122 14.2789 -0.0433 12.1608 -0.0027
# 3 29.4190 14.2789 88.4077 -0.1087 15.1197 0.0000
# 4 -0.0162 -0.0433 -0.1087 22.1572 -0.0442 -1.8581
# 5 3.1012 12.1608 15.1197 -0.0442 37.2373 -0.0187
# 6 -0.0038 -0.0027 0.0000 -1.8581 -0.0187 30.1384
#
#
#
# Elastic Compliance Matrix: (Units=1/GPa)
#
#
# Indices 1 2 3 4 5 6 
#
# 1 0.013723 -0.005570 -0.004065 -0.000016 0.002327 0.000002
# 2 -0.005570 0.016096 0.000079 0.000018 -0.004825 -0.000001
# 3 -0.004065 0.000079 0.013538 0.000053 -0.005184 0.000000
# 4 -0.000016 0.000018 0.000053 0.045367 0.000029 0.002797
# 5 0.002327 -0.004825 -0.005184 0.000029 0.030342 0.000020
# 6 0.000002 -0.000001 0.000000 0.002797 0.000020 0.033353
#
#
# Mechanical properties :
#
#
# Convention : Reuss Voigt Hill
#
# Bulk Modulus (GPa) = 41.24548 46.09792 43.67170
# Shear Modulus (GPa) = 27.83799 30.11655 28.97727
#
# Velocity S-wave (km/s) = 3.71827 3.86745 3.79359
# Velocity P-wave (km/s) = 6.23845 6.54500 6.39356
#
# Compressibility (1/GPa) = 0.02424508
#
# Stress axis : x y z
#
# Youngs Moduli (GPa) = 72.87013 62.12887 73.86735
#
# Poissons Ratio (x) = 0.34604 0.30026
# Poissons Ratio (y) = 0.40586 -0.00583
# Poissons Ratio (z) = 0.29621 -0.00490
#
# Static dielectric constant tensor:
#      x y z
#    x 3.816480 0.000200 0.114970 
#    y 0.000200 3.585900 -0.000020 
#    z 0.114970 -0.000020 3.734880 
# 
# 
# High freq. dielectric constant tensor:
#      x y z
#    x 1.791840 0.000000 0.002700 
#    y 0.000000 1.775740 -0.000020 
#    z 0.002700 -0.000020 1.801340 
# 
# From -- ./inp_files/311821.got.cif
#   From: 2010.06.25/outbox.cif.g09.slc.cpg/sg15_156_cif.got.tgz:311821.got - 2010.06.28 07:06:18.
