data_PCOD8143249
_publ_section_title
;
Structure prediction by ZEFSAII (Michael W. Deem and Ramdas Pophale) SiO2 
 PCOD8143249
Probable space group: C 2/C
;
_chemical_formula_sum "Si O2"
_cell_formula_units_Z 56
_cell_length_a 16.775112
_cell_length_b 8.911568
_cell_length_c 24.461550
_cell_angle_alpha 90.000000
_cell_angle_beta 47.859468
_cell_angle_gamma 90.000000
_cell_volume 2711.536735
_symmetry_space_group_name_H-M "C 2/C"
_symmetry_group_IT_number 15
_symmetry_cell_setting 'monoclinic'
loop_
_space_group_symop_operation_xyz
x,y,z
-x,y,1/2-z
-x,-y,-z
x,-y,1/2+z
1/2+x,1/2+y,z
1/2-x,1/2+y,1/2-z
1/2-x,1/2-y,-z
1/2+x,1/2-y,1/2+z
loop_
_atom_site_type_symbol
_atom_site_label
_atom_site_fract_x
_atom_site_fract_y
_atom_site_fract_z
Si Si1 0.100798 0.081973 0.925747
Si Si2 0.605769 0.330766 0.601740
Si Si3 0.000000 0.287658 0.250000
Si Si4 0.000000 0.236795 0.750000
Si Si5 0.328042 0.019368 0.353168
Si Si6 0.339208 0.878984 0.964172
Si Si7 0.157626 0.335943 0.976000
Si Si8 0.009327 0.870363 0.130175
O O1 0.113709 0.255486 0.941309
O O2 0.086597 0.084400 0.866698
O O3 0.205841 0.980700 0.888570
O O4 0.000000 0.000000 0.000000
O O5 0.510233 0.309919 0.690046
O O6 0.718778 0.284024 0.576616
O O7 0.584268 0.230203 0.558490
O O8 0.604860 0.505009 0.583268
O O9 0.893254 0.387566 0.293593
O O10 0.110216 0.326530 0.688484
O O11 0.970875 0.136502 0.710690
O O12 0.327342 0.002564 0.419577
O O13 0.451433 0.791471 0.908938
O O14 0.250000 0.750000 0.000000
O O15 0.343174 0.980646 0.018280
#
# Coordination Sequence:
#
# PCOD8143249 Si02
#       8
#     8   8   4   4   8   8   8   8
#     4  12  23  41  65  98 135 166 212 288 347 385
#     4  11  20  37  64  94 124 170 227 272 315 409
#     4  11  19  36  68  92 122 174 228 272 322 396
#     4   9  23  44  64  86 128 174 222 252 324 414
#     4  10  21  40  64  93 125 174 215 265 336 399
#     4  11  20  38  68  92 126 177 222 277 325 404
#     4  11  21  38  63  96 128 171 228 270 328 406
#     4  11  23  40  63  94 127 169 216 278 335 394
#
# _framework density 20.652497
#
# number of rings (size 3 to 8) (size 9 to 14) (size 15 to 20)
#    0.000    1.143    5.714    2.143    0.000    0.571 
#    2.571    0.000    0.000    0.000    0.000    0.000 
#    0.000    0.000    0.000    0.000    0.000    0.000 
#
# Total GULP energy -346974.004048 kJ/mol
# GULP energy per Si atom -12391.928716 kJ/mol
# Density = 2.060549 g / cm^3
# Si number density = 20.652497 Si / 1000 Ang^3
#
#
#
# Elastic Constant Matrix: (Units=GPa)
#
#
# Indices 1 2 3 4 5 6 
#
# 1 124.4640 34.3442 41.6959 -0.0001 6.7183 -0.0002
# 2 34.3442 99.9503 27.7591 -0.0001 4.1380 -0.0001
# 3 41.6959 27.7591 96.0996 0.0000 4.4757 0.0000
# 4 -0.0001 -0.0001 0.0000 33.1215 0.0000 -0.3856
# 5 6.7183 4.1380 4.4757 0.0000 36.7199 -0.0001
# 6 -0.0002 -0.0001 0.0000 -0.3856 -0.0001 33.5140
#
#
#
# Elastic Compliance Matrix: (Units=1/GPa)
#
#
# Indices 1 2 3 4 5 6 
#
# 1 0.009950 -0.002379 -0.003578 0.000000 -0.001116 0.000000
# 2 -0.002379 0.011473 -0.002255 0.000000 -0.000583 0.000000
# 3 -0.003578 -0.002255 0.012639 0.000000 -0.000632 0.000000
# 4 0.000000 0.000000 0.000000 0.030196 0.000000 0.000347
# 5 -0.001116 -0.000583 -0.000632 0.000000 0.027580 0.000000
# 6 0.000000 0.000000 0.000000 0.000347 0.000000 0.029842
#
#
# Mechanical properties :
#
#
# Convention : Reuss Voigt Hill
#
# Bulk Modulus (GPa) = 56.69425 58.67914 57.68670
# Shear Modulus (GPa) = 34.72651 35.11871 34.92261
#
# Velocity S-wave (km/s) = 4.10502 4.12813 4.11659
# Velocity P-wave (km/s) = 7.06961 7.15516 7.11251
#
# Compressibility (1/GPa) = 0.01763847
#
# Stress axis : x y z
#
# Youngs Moduli (GPa) = 100.50507 87.16322 79.12052
#
# Poissons Ratio (x) = 0.20736 0.28308
# Poissons Ratio (y) = 0.23910 0.17839
# Poissons Ratio (z) = 0.35959 0.19652
#
# Static dielectric constant tensor:
#      x y z
#    x 3.509220 0.000000 0.076200 
#    y 0.000000 3.866520 0.000000 
#    z 0.076200 0.000000 3.825130 
# 
# 
# High freq. dielectric constant tensor:
#      x y z
#    x 1.772270 0.000000 0.001990 
#    y 0.000000 1.822480 0.000000 
#    z 0.001990 0.000000 1.805670 
# 
# From -- ./inp_files/276655.got.cif
#   From: 2010.06.25/outbox.cif.g09.slc.cpg/sg15_139_cif.got.tgz:276655.got - 2010.06.28 07:06:18.
