data_PCOD8143276
_publ_section_title
;
Structure prediction by ZEFSAII (Michael W. Deem and Ramdas Pophale) SiO2 
 PCOD8143276
Probable space group: C 2/C
;
_chemical_formula_sum "Si O2"
_cell_formula_units_Z 48
_cell_length_a 21.858060
_cell_length_b 5.532275
_cell_length_c 23.913603
_cell_angle_alpha 90.000000
_cell_angle_beta 133.059065
_cell_angle_gamma 90.000000
_cell_volume 2112.856147
_symmetry_space_group_name_H-M "C 2/C"
_symmetry_group_IT_number 15
_symmetry_cell_setting 'monoclinic'
loop_
_space_group_symop_operation_xyz
x,y,z
-x,y,1/2-z
-x,-y,-z
x,-y,1/2+z
1/2+x,1/2+y,z
1/2-x,1/2+y,1/2-z
1/2-x,1/2-y,-z
1/2+x,1/2-y,1/2+z
loop_
_atom_site_type_symbol
_atom_site_label
_atom_site_fract_x
_atom_site_fract_y
_atom_site_fract_z
Si Si1 0.981018 0.168184 0.073734
Si Si2 0.147014 0.627712 0.696293
Si Si3 0.778975 0.923886 0.852118
Si Si4 0.937323 0.245368 0.932780
Si Si5 0.343634 0.267995 0.580916
Si Si6 0.697563 0.233098 0.410830
O O1 0.068740 0.198296 0.161665
O O2 0.904435 0.201062 0.066731
O O3 0.986552 0.904104 0.048257
O O4 0.972468 0.357572 0.014531
O O5 0.212789 0.734244 0.693225
O O6 0.196206 0.578908 0.784360
O O7 0.103436 0.399839 0.640801
O O8 0.760768 0.784306 0.898280
O O9 0.862570 0.076945 0.910970
O O10 0.250000 0.250000 0.500000
O O11 0.353702 0.511064 0.625774
O O12 0.361125 0.011228 0.623747
O O13 0.750000 0.250000 0.500000
#
# Coordination Sequence:
#
# PCOD8143276 Si02
#       6
#     8   8   8   8   8   8
#     4  10  23  39  66  97 134 169 232 284 344 407
#     4  11  23  39  66  96 134 177 213 294 349 408
#     4  11  23  40  67  99 135 175 234 277 356 421
#     4  10  21  40  64  99 130 173 220 291 344 407
#     4  10  22  41  65  99 129 179 226 280 332 398
#     4  10  23  39  67  98 129 177 229 280 326 404
#
# _framework density 22.718063999999998
#
# number of rings (size 3 to 8) (size 9 to 14) (size 15 to 20)
#    0.000    1.667    1.667    2.500    9.333    0.000 
#    0.000    0.833    0.000    0.000    0.000    0.000 
#    0.000    0.000    0.000    0.000    0.000    0.000 
#
# Total GULP energy -297323.210544 kJ/mol
# GULP energy per Si atom -12388.467106 kJ/mol
# Density = 2.266636 g / cm^3
# Si number density = 22.718064 Si / 1000 Ang^3
#
#
#
# Elastic Constant Matrix: (Units=GPa)
#
#
# Indices 1 2 3 4 5 6 
#
# 1 147.7262 21.5436 13.2018 0.0017 6.1858 -0.0004
# 2 21.5436 97.5240 -13.7658 -0.0049 -0.4611 0.0397
# 3 13.2018 -13.7658 71.9433 0.0072 10.0833 -0.0151
# 4 0.0017 -0.0049 0.0072 25.4950 -0.0050 -3.6092
# 5 6.1858 -0.4611 10.0833 -0.0050 27.0558 -0.0009
# 6 -0.0004 0.0397 -0.0151 -3.6092 -0.0009 24.7303
#
#
#
# Elastic Compliance Matrix: (Units=1/GPa)
#
#
# Indices 1 2 3 4 5 6 
#
# 1 0.007216 -0.001813 -0.001515 0.000000 -0.001116 0.000002
# 2 -0.001813 0.011003 0.002483 -0.000001 -0.000323 -0.000016
# 3 -0.001515 0.002483 0.015403 -0.000004 -0.005352 0.000005
# 4 0.000000 -0.000001 -0.000004 0.040051 0.000009 0.005845
# 5 -0.001116 -0.000323 -0.005352 0.000009 0.039205 0.000000
# 6 0.000002 -0.000016 0.000005 0.005845 0.000000 0.041289
#
#
# Mechanical properties :
#
#
# Convention : Reuss Voigt Hill
#
# Bulk Modulus (GPa) = 31.31473 39.90585 35.61029
# Shear Modulus (GPa) = 30.02997 35.20381 32.61689
#
# Velocity S-wave (km/s) = 3.63968 3.94076 3.79321
# Velocity P-wave (km/s) = 5.61043 6.18950 5.90707
#
# Compressibility (1/GPa) = 0.03193386
#
# Stress axis : x y z
#
# Youngs Moduli (GPa) = 138.58509 90.88075 64.92220
#
# Poissons Ratio (x) = 0.16477 0.09833
# Poissons Ratio (y) = 0.25127 -0.16123
# Poissons Ratio (z) = 0.20990 -0.22570
#
# Static dielectric constant tensor:
#      x y z
#    x 3.916010 -0.000030 0.137220 
#    y -0.000030 4.919290 0.000040 
#    z 0.137220 0.000040 4.225350 
# 
# 
# High freq. dielectric constant tensor:
#      x y z
#    x 1.889810 -0.000010 0.004570 
#    y -0.000010 1.906700 0.000000 
#    z 0.004570 0.000000 1.876480 
# 
# From -- ./inp_files/299999.got.cif
#   From: 2010.06.25/outbox.cif.g09.slc.cpg/sg15_150_cif.got.tgz:299999.got - 2010.06.28 07:06:18.
