data_PCOD8143397
_publ_section_title
;
Structure prediction by ZEFSAII (Michael W. Deem and Ramdas Pophale) SiO2 
 PCOD8143397
Probable space group: C 2/C
;
_chemical_formula_sum "Si O2"
_cell_formula_units_Z 48
_cell_length_a 30.735083
_cell_length_b 7.481677
_cell_length_c 9.246163
_cell_angle_alpha 90.000000
_cell_angle_beta 89.116208
_cell_angle_gamma 90.000000
_cell_volume 2125.901909
_symmetry_space_group_name_H-M "C 2/C"
_symmetry_group_IT_number 15
_symmetry_cell_setting 'monoclinic'
loop_
_space_group_symop_operation_xyz
x,y,z
-x,y,1/2-z
-x,-y,-z
x,-y,1/2+z
1/2+x,1/2+y,z
1/2-x,1/2+y,1/2-z
1/2-x,1/2-y,-z
1/2+x,1/2-y,1/2+z
loop_
_atom_site_type_symbol
_atom_site_label
_atom_site_fract_x
_atom_site_fract_y
_atom_site_fract_z
Si Si1 0.027114 0.245497 0.892682
Si Si2 0.033907 0.641059 0.868703
Si Si3 0.597033 0.568383 0.382060
Si Si4 0.739851 0.511733 0.481432
Si Si5 0.346842 0.602733 0.852859
Si Si6 0.278944 0.811638 0.720701
O O1 0.048922 0.442827 0.917909
O O2 0.065782 0.102653 0.904154
O O3 0.000000 0.212496 0.750000
O O4 0.989690 0.228824 0.015085
O O5 0.000000 0.590788 0.750000
O O6 0.073695 0.760523 0.810660
O O7 0.613938 0.637404 0.537908
O O8 0.637000 0.529146 0.273923
O O9 0.692624 0.513531 0.557234
O O10 0.741559 0.355203 0.362201
O O11 0.774820 0.477867 0.609946
O O12 0.753386 0.679641 0.378727
O O13 0.329202 0.779162 0.768412
#
# Coordination Sequence:
#
# PCOD8143397 Si02
#       6
#     8   8   8   8   8   8
#     4  10  21  40  66  94 125 175 231 261 314 413
#     4  10  21  40  66  93 125 176 227 267 315 402
#     4  12  23  40  64  95 143 171 208 286 353 386
#     4  11  23  44  72  93 127 179 230 281 330 405
#     4  12  24  42  63 100 136 169 221 283 346 405
#     4  11  23  44  69  95 125 174 230 278 332 409
#
# _framework density 22.578654
#
# number of rings (size 3 to 8) (size 9 to 14) (size 15 to 20)
#    0.000    1.000    3.333    3.500    0.000    0.000 
#    3.000    0.000    0.000    0.000    0.000    0.000 
#    0.000    0.000    0.000    0.000    0.000    0.000 
#
# Total GULP energy -297352.801856 kJ/mol
# GULP energy per Si atom -12389.700077 kJ/mol
# Density = 2.252726 g / cm^3
# Si number density = 22.578654 Si / 1000 Ang^3
#
#
#
# Elastic Constant Matrix: (Units=GPa)
#
#
# Indices 1 2 3 4 5 6 
#
# 1 110.8885 64.8600 48.7803 0.0000 7.4221 0.0000
# 2 64.8600 86.3213 29.8225 0.0000 1.3281 0.0000
# 3 48.7803 29.8225 119.1543 0.0000 8.9430 0.0000
# 4 0.0000 0.0000 0.0000 37.9096 0.0000 5.5375
# 5 7.4221 1.3281 8.9430 0.0000 41.4057 0.0000
# 6 0.0000 0.0000 0.0000 5.5375 0.0000 37.9396
#
#
#
# Elastic Compliance Matrix: (Units=1/GPa)
#
#
# Indices 1 2 3 4 5 6 
#
# 1 0.018085 -0.012097 -0.004230 0.000000 -0.001940 0.000000
# 2 -0.012097 0.020776 -0.000366 0.000000 0.001581 0.000000
# 3 -0.004230 -0.000366 0.010326 0.000000 -0.001460 0.000000
# 4 0.000000 0.000000 0.000000 0.026953 0.000000 -0.003934
# 5 -0.001940 0.001581 -0.001460 0.000000 0.024764 0.000000
# 6 0.000000 0.000000 0.000000 -0.003934 0.000000 0.026932
#
#
# Mechanical properties :
#
#
# Convention : Reuss Voigt Hill
#
# Bulk Modulus (GPa) = 63.29421 67.03217 65.16319
# Shear Modulus (GPa) = 30.03210 34.97774 32.50492
#
# Velocity S-wave (km/s) = 3.65102 3.94020 3.79836
# Velocity P-wave (km/s) = 6.77251 7.10302 6.93974
#
# Compressibility (1/GPa) = 0.01579923
#
# Stress axis : x y z
#
# Youngs Moduli (GPa) = 55.29594 48.13185 96.84694
#
# Poissons Ratio (x) = 0.58225 0.40969
# Poissons Ratio (y) = 0.66891 0.03547
# Poissons Ratio (z) = 0.23392 0.01763
#
# Static dielectric constant tensor:
#      x y z
#    x 3.890870 0.000000 0.126660 
#    y 0.000000 4.175110 0.000000 
#    z 0.126660 0.000000 4.540700 
# 
# 
# High freq. dielectric constant tensor:
#      x y z
#    x 1.867720 0.000000 0.003530 
#    y 0.000000 1.888050 0.000000 
#    z 0.003530 0.000000 1.921440 
# 
# From -- ./inp_files/68603.got.cif
#   From: 2010.06.25/outbox.cif.g09.slc.cpg/sg15_35_cif.got.tgz:68603.got - 2010.06.28 07:06:18.
