data_PCOD8143739
_publ_section_title
;
Structure prediction by ZEFSAII (Michael W. Deem and Ramdas Pophale) SiO2 
 PCOD8143739
Probable space group: C 2/C
;
_chemical_formula_sum "Si O2"
_cell_formula_units_Z 44
_cell_length_a 5.337257
_cell_length_b 27.018214
_cell_length_c 13.567515
_cell_angle_alpha 90.000000
_cell_angle_beta 76.387390
_cell_angle_gamma 90.000000
_cell_volume 1901.519431
_symmetry_space_group_name_H-M "C 2/C"
_symmetry_group_IT_number 15
_symmetry_cell_setting 'monoclinic'
loop_
_space_group_symop_operation_xyz
x,y,z
-x,y,1/2-z
-x,-y,-z
x,-y,1/2+z
1/2+x,1/2+y,z
1/2-x,1/2+y,1/2-z
1/2-x,1/2-y,-z
1/2+x,1/2-y,1/2+z
loop_
_atom_site_type_symbol
_atom_site_label
_atom_site_fract_x
_atom_site_fract_y
_atom_site_fract_z
Si Si1 0.663721 0.372672 0.440066
Si Si2 0.500000 0.865084 0.750000
Si Si3 0.584162 0.208917 0.886394
Si Si4 0.799627 0.188257 0.075093
Si Si5 0.000000 0.152137 0.750000
Si Si6 0.000000 0.928897 0.750000
Si Si7 0.769888 0.971495 0.968427
O O1 0.467868 0.361741 0.547905
O O2 0.533430 0.382095 0.344390
O O3 0.805554 0.421905 0.463159
O O4 0.826683 0.322265 0.419026
O O5 0.463209 0.828510 0.846827
O O6 0.239175 0.896189 0.764836
O O7 0.547395 0.268398 0.878089
O O8 0.748588 0.187164 0.780263
O O9 0.756740 0.204730 0.967512
O O10 0.126253 0.962491 0.651961
O O11 0.500000 0.000000 0.000000
O O12 0.000000 0.000000 0.000000
#
# Coordination Sequence:
#
# PCOD8143739 Si02
#       7
#     8   4   8   8   4   4   8
#     4  11  23  45  69 102 145 195 239 310 363 439
#     4  12  23  44  76 107 146 193 238 298 363 432
#     4  10  21  41  64 102 147 192 245 294 357 437
#     4  10  22  38  69 102 145 193 243 293 362 429
#     4  10  23  39  66 100 150 190 242 285 365 440
#     4  12  26  51  78 109 144 189 244 311 374 444
#     4  12  29  51  79 109 144 188 249 313 380 446
#
# _framework density 23.139389999999999
#
# number of rings (size 3 to 8) (size 9 to 14) (size 15 to 20)
#    0.000    1.091    1.818    3.818    5.091    0.727 
#    6.545    0.000    0.000    0.000    0.000    0.000 
#    0.000    0.000    0.000    0.000    0.000    0.000 
#
# Total GULP energy -272573.369692 kJ/mol
# GULP energy per Si atom -12389.698622 kJ/mol
# Density = 2.308672 g / cm^3
# Si number density = 23.139390 Si / 1000 Ang^3
#
#
#
# Elastic Constant Matrix: (Units=GPa)
#
#
# Indices 1 2 3 4 5 6 
#
# 1 119.6539 51.6752 40.9501 0.0000 -14.5337 0.0000
# 2 51.6752 122.6365 65.8924 0.0000 -3.9870 0.0000
# 3 40.9501 65.8924 141.7614 0.0000 -26.3029 0.0000
# 4 0.0000 0.0000 0.0000 23.6275 0.0000 -15.5563
# 5 -14.5337 -3.9870 -26.3029 0.0000 36.3865 0.0000
# 6 0.0000 0.0000 0.0000 -15.5563 0.0000 34.8913
#
#
#
# Elastic Compliance Matrix: (Units=1/GPa)
#
#
# Indices 1 2 3 4 5 6 
#
# 1 0.010743 -0.004119 -0.000550 0.000000 0.003442 0.000000
# 2 -0.004119 0.012709 -0.005502 0.000000 -0.004230 0.000000
# 3 -0.000550 -0.005502 0.011108 0.000000 0.007207 0.000000
# 4 0.000000 0.000000 0.000000 0.059910 0.000000 0.026711
# 5 0.003442 -0.004230 0.007207 0.000000 0.033604 0.000000
# 6 0.000000 0.000000 0.000000 0.026711 0.000000 0.040569
#
#
# Mechanical properties :
#
#
# Convention : Reuss Voigt Hill
#
# Bulk Modulus (GPa) = 70.34100 77.89857 74.11979
# Shear Modulus (GPa) = 25.81000 34.01667 29.91333
#
# Velocity S-wave (km/s) = 3.34340 3.83832 3.59938
# Velocity P-wave (km/s) = 6.73567 7.30627 7.02676
#
# Compressibility (1/GPa) = 0.01421646
#
# Stress axis : x y z
#
# Youngs Moduli (GPa) = 93.08622 78.68646 90.02881
#
# Poissons Ratio (x) = 0.32413 0.04950
# Poissons Ratio (y) = 0.38345 0.49535
# Poissons Ratio (z) = 0.05118 0.43294
#
# Static dielectric constant tensor:
#      x y z
#    x 3.913350 0.000000 -0.026700 
#    y 0.000000 4.253460 0.000000 
#    z -0.026700 0.000000 4.446050 
# 
# 
# High freq. dielectric constant tensor:
#      x y z
#    x 1.909100 0.000000 -0.010750 
#    y 0.000000 1.907950 0.000000 
#    z -0.010750 0.000000 1.937720 
# 
# From -- ./inp_files/73900.got.cif
#   From: 2010.06.25/outbox.cif.g09.slc.cpg/sg15_37_cif.got.tgz:73900.got - 2010.06.28 07:06:18.
