data_PCOD8143852
_publ_section_title
;
Structure prediction by ZEFSAII (Michael W. Deem and Ramdas Pophale) SiO2 
 PCOD8143852
Probable space group: C 2/C
;
_chemical_formula_sum "Si O2"
_cell_formula_units_Z 32
_cell_length_a 19.259525
_cell_length_b 10.199528
_cell_length_c 8.866450
_cell_angle_alpha 90.000000
_cell_angle_beta 126.873821
_cell_angle_gamma 90.000000
_cell_volume 1393.295060
_symmetry_space_group_name_H-M "C 2/C"
_symmetry_group_IT_number 15
_symmetry_cell_setting 'monoclinic'
loop_
_space_group_symop_operation_xyz
x,y,z
-x,y,1/2-z
-x,-y,-z
x,-y,1/2+z
1/2+x,1/2+y,z
1/2-x,1/2+y,1/2-z
1/2-x,1/2-y,-z
1/2+x,1/2-y,1/2+z
loop_
_atom_site_type_symbol
_atom_site_label
_atom_site_fract_x
_atom_site_fract_y
_atom_site_fract_z
Si Si1 0.666513 0.174939 0.338071
Si Si2 0.958473 0.140583 0.977309
Si Si3 0.706407 0.069434 0.063030
Si Si4 0.630696 0.681250 0.338493
O O1 0.750000 0.250000 0.500000
O O2 0.681130 0.101614 0.199630
O O3 0.655470 0.063565 0.451738
O O4 0.586147 0.278572 0.219509
O O5 0.887923 0.124672 0.018502
O O6 0.042142 0.221934 0.139100
O O7 0.000000 0.000000 0.000000
O O8 0.812134 0.069899 0.176761
O O9 0.679049 0.180835 0.909359
#
# Coordination Sequence:
#
# PCOD8143852 Si02
#       4
#     8   8   8   8
#     4  11  25  42  68 101 135 184 228 286 345 410
#     4  10  21  41  65  98 137 176 232 279 345 412
#     4  10  23  41  69  95 137 174 234 279 345 409
#     4   9  21  40  65  94 134 182 216 292 340 408
#
# _framework density 22.967139
#
# number of rings (size 3 to 8) (size 9 to 14) (size 15 to 20)
#    0.000    2.000    0.000    1.500   14.000    1.000 
#    0.000    0.000    0.000    0.000    0.000    0.000 
#    0.000    0.000    0.000    0.000    0.000    0.000 
#
# Total GULP energy -198228.212424 kJ/mol
# GULP energy per Si atom -12389.263277 kJ/mol
# Density = 2.291486 g / cm^3
# Si number density = 22.967139 Si / 1000 Ang^3
#
#
#
# Elastic Constant Matrix: (Units=GPa)
#
#
# Indices 1 2 3 4 5 6 
#
# 1 66.4054 31.9419 19.7627 0.0000 13.0301 0.0000
# 2 31.9419 148.6215 67.4916 0.0000 4.3929 0.0000
# 3 19.7627 67.4916 135.9231 0.0000 12.9912 0.0000
# 4 0.0000 0.0000 0.0000 51.3026 0.0000 0.0998
# 5 13.0301 4.3929 12.9912 0.0000 24.9655 0.0000
# 6 0.0000 0.0000 0.0000 0.0998 0.0000 34.2838
#
#
#
# Elastic Compliance Matrix: (Units=1/GPa)
#
#
# Indices 1 2 3 4 5 6 
#
# 1 0.018636 -0.003745 0.000017 0.000000 -0.009077 0.000000
# 2 -0.003745 0.009453 -0.004396 0.000000 0.002579 0.000000
# 3 0.000017 -0.004396 0.009960 0.000000 -0.004418 0.000000
# 4 0.000000 0.000000 0.000000 0.019492 0.000000 -0.000057
# 5 -0.009077 0.002579 -0.004418 0.000000 0.046638 0.000000
# 6 0.000000 0.000000 0.000000 -0.000057 0.000000 0.029168
#
#
# Mechanical properties :
#
#
# Convention : Reuss Voigt Hill
#
# Bulk Modulus (GPa) = 45.86665 65.48248 55.67457
# Shear Modulus (GPa) = 31.87499 37.56063 34.71781
#
# Velocity S-wave (km/s) = 3.72943 4.04840 3.89219
# Velocity P-wave (km/s) = 6.20957 7.10113 6.67026
#
# Compressibility (1/GPa) = 0.02180233
#
# Stress axis : x y z
#
# Youngs Moduli (GPa) = 53.65880 105.78144 100.40499
#
# Poissons Ratio (x) = 0.39615 -0.00175
# Poissons Ratio (y) = 0.20095 0.44138
# Poissons Ratio (z) = -0.00094 0.46502
#
# Static dielectric constant tensor:
#      x y z
#    x 4.293690 0.000000 0.620210 
#    y 0.000000 4.513920 0.000000 
#    z 0.620210 0.000000 5.148050 
# 
# 
# High freq. dielectric constant tensor:
#      x y z
#    x 1.890820 0.000000 0.015680 
#    y 0.000000 1.906690 0.000000 
#    z 0.015680 0.000000 1.918610 
# 
# From -- ./inp_files/45964.got.cif
#   From: 2010.06.25/outbox.cif.g09.slc.cpg/sg15_23_cif.got.tgz:45964.got - 2010.06.28 07:06:18.
