data_PCOD8143988
_publ_section_title
;
Structure prediction by ZEFSAII (Michael W. Deem and Ramdas Pophale) SiO2 
 PCOD8143988
Probable space group: C 2/C
;
_chemical_formula_sum "Si O2"
_cell_formula_units_Z 56
_cell_length_a 17.883949
_cell_length_b 14.224699
_cell_length_c 13.041063
_cell_angle_alpha 90.000000
_cell_angle_beta 50.828708
_cell_angle_gamma 90.000000
_cell_volume 2571.979346
_symmetry_space_group_name_H-M "C 2/C"
_symmetry_group_IT_number 15
_symmetry_cell_setting 'monoclinic'
loop_
_space_group_symop_operation_xyz
x,y,z
-x,y,1/2-z
-x,-y,-z
x,-y,1/2+z
1/2+x,1/2+y,z
1/2-x,1/2+y,1/2-z
1/2-x,1/2-y,-z
1/2+x,1/2-y,1/2+z
loop_
_atom_site_type_symbol
_atom_site_label
_atom_site_fract_x
_atom_site_fract_y
_atom_site_fract_z
Si Si1 0.938214 0.823738 0.907870
Si Si2 0.255858 0.829059 0.908583
Si Si3 0.000000 0.523277 0.750000
Si Si4 0.180741 0.017365 0.068062
Si Si5 0.940641 0.795612 0.501418
Si Si6 0.352371 0.124235 0.001800
Si Si7 0.500000 0.591396 0.750000
Si Si8 0.440215 0.120963 0.135648
O O1 0.869956 0.915232 0.971787
O O2 0.864708 0.736844 0.990611
O O3 0.000000 0.813146 0.750000
O O4 0.012870 0.836919 0.936268
O O5 0.359660 0.819196 0.766346
O O6 0.250000 0.750000 0.000000
O O7 0.175053 0.806847 0.892401
O O8 0.245513 0.935284 0.961288
O O9 0.908662 0.587882 0.853060
O O10 0.977633 0.464850 0.668637
O O11 0.243178 0.085606 0.087805
O O12 0.091667 0.970791 0.206880
O O13 0.973292 0.847613 0.370645
O O14 0.968254 0.686520 0.466840
O O15 0.395733 0.081503 0.068916
#
# Coordination Sequence:
#
# PCOD8143988 Si02
#       8
#     8   8   4   8   8   8   4   8
#     4  11  24  45  65  91 136 181 216 266 325 395
#     4  11  23  42  69 101 131 169 220 278 339 386
#     4  12  21  45  64  94 136 166 224 276 338 400
#     4  11  23  42  68  96 131 176 212 275 326 400
#     4  10  24  42  67  97 131 173 219 276 332 394
#     4  11  25  42  66  97 128 177 226 268 327 399
#     4  10  21  41  68  96 130 160 220 274 336 382
#     4  11  23  41  67  96 130 176 216 276 334 393
#
# _framework density 21.773112999999999
#
# number of rings (size 3 to 8) (size 9 to 14) (size 15 to 20)
#    0.000    1.143    2.857    3.857    2.000    3.429 
#    0.000    0.000    0.000    0.000    0.000    0.000 
#    0.000    0.000    0.000    0.000    0.000    0.000 
#
# Total GULP energy -347176.091684 kJ/mol
# GULP energy per Si atom -12399.146132 kJ/mol
# Density = 2.172356 g / cm^3
# Si number density = 21.773113 Si / 1000 Ang^3
#
#
#
# Elastic Constant Matrix: (Units=GPa)
#
#
# Indices 1 2 3 4 5 6 
#
# 1 108.0581 35.5637 4.4264 0.0000 12.8882 0.0000
# 2 35.5637 91.2410 3.2574 0.0000 12.3800 0.0000
# 3 4.4264 3.2574 54.0680 0.0000 11.2084 0.0000
# 4 0.0000 0.0000 0.0000 11.9247 0.0000 -3.8187
# 5 12.8882 12.3800 11.2084 0.0000 40.6762 0.0000
# 6 0.0000 0.0000 0.0000 -3.8187 0.0000 41.9482
#
#
#
# Elastic Compliance Matrix: (Units=1/GPa)
#
#
# Indices 1 2 3 4 5 6 
#
# 1 0.010809 -0.003910 -0.000197 0.000000 -0.002180 0.000000
# 2 -0.003910 0.012847 0.000106 0.000000 -0.002700 0.000000
# 3 -0.000197 0.000106 0.019619 0.000000 -0.005376 0.000000
# 4 0.000000 0.000000 0.000000 0.086377 0.000000 0.007863
# 5 -0.002180 -0.002700 -0.005376 0.000000 0.027578 0.000000
# 6 0.000000 0.000000 0.000000 0.007863 0.000000 0.024555
#
#
# Mechanical properties :
#
#
# Convention : Reuss Voigt Hill
#
# Bulk Modulus (GPa) = 28.35112 37.76245 33.05678
# Shear Modulus (GPa) = 24.80811 32.91780 28.86295
#
# Velocity S-wave (km/s) = 3.37915 3.89248 3.64486
# Velocity P-wave (km/s) = 5.31736 6.13051 5.73835
#
# Compressibility (1/GPa) = 0.03527198
#
# Stress axis : x y z
#
# Youngs Moduli (GPa) = 92.51209 77.84067 50.96992
#
# Poissons Ratio (x) = 0.30439 0.01006
# Poissons Ratio (y) = 0.36176 -0.00540
# Poissons Ratio (z) = 0.01826 -0.00824
#
# Static dielectric constant tensor:
#      x y z
#    x 4.294410 0.000000 -0.165780 
#    y 0.000000 3.998290 0.000000 
#    z -0.165780 0.000000 3.846830 
# 
# 
# High freq. dielectric constant tensor:
#      x y z
#    x 1.867330 0.000000 -0.006710 
#    y 0.000000 1.864350 0.000000 
#    z -0.006710 0.000000 1.843220 
# 
# From -- ./inp_files/105672.got.cif
#   From: 2010.06.25/outbox.cif.g09.slc.cpg/sg15_53_cif.got.tgz:105672.got - 2010.06.28 07:06:18.
