data_PCOD8143106
_publ_section_title
;
Structure prediction by ZEFSAII (Michael W. Deem and Ramdas Pophale) SiO2 
 PCOD8143106
Probable space group: C 2/C
;
_chemical_formula_sum "Si O2"
_cell_formula_units_Z 48
_cell_length_a 31.230479
_cell_length_b 5.440585
_cell_length_c 21.590567
_cell_angle_alpha 90.000000
_cell_angle_beta 143.607939
_cell_angle_gamma 90.000000
_cell_volume 2176.546870
_symmetry_space_group_name_H-M "C 2/C"
_symmetry_group_IT_number 15
_symmetry_cell_setting 'monoclinic'
loop_
_space_group_symop_operation_xyz
x,y,z
-x,y,1/2-z
-x,-y,-z
x,-y,1/2+z
1/2+x,1/2+y,z
1/2-x,1/2+y,1/2-z
1/2-x,1/2-y,-z
1/2+x,1/2-y,1/2+z
loop_
_atom_site_type_symbol
_atom_site_label
_atom_site_fract_x
_atom_site_fract_y
_atom_site_fract_z
Si Si1 0.156463 0.398545 0.182831
Si Si2 0.404762 0.872458 0.582103
Si Si3 0.065491 0.674408 0.245330
Si Si4 0.929295 0.842862 0.818860
Si Si5 0.295753 0.621502 0.372640
Si Si6 0.587522 0.244453 0.015290
O O1 0.121469 0.171114 0.179532
O O2 0.214019 0.540460 0.294363
O O3 0.206446 0.331879 0.182021
O O4 0.090633 0.556220 0.077102
O O5 0.396414 0.900855 0.645999
O O6 0.481948 0.748395 0.657365
O O7 0.336860 0.708035 0.482433
O O8 0.405530 0.128141 0.545667
O O9 0.076192 0.431023 0.216763
O O10 0.099454 0.924361 0.254991
O O11 0.012413 0.891597 0.933921
O O12 0.343892 0.414563 0.396263
#
# Coordination Sequence:
#
# PCOD8143106 Si02
#       6
#     8   8   8   8   8   8
#     4  11  24  38  61  91 125 161 202 255 305 372
#     4   9  21  38  64  89 118 160 212 248 295 371
#     4  10  22  40  65  92 122 162 203 257 303 354
#     4  11  24  40  63  96 126 157 202 257 311 354
#     4  11  21  39  62  87 120 164 206 246 309 365
#     4  10  21  40  62  90 120 162 204 251 304 359
#
# _framework density 22.053279
#
# number of rings (size 3 to 8) (size 9 to 14) (size 15 to 20)
#    0.000    1.667    3.333    0.500    4.667    2.000 
#    0.000    1.667    0.000    0.000    0.000    0.000 
#    0.000    0.000    0.000    0.000    0.000    0.000 
#
# Total GULP energy -297393.294499 kJ/mol
# GULP energy per Si atom -12391.387271 kJ/mol
# Density = 2.200308 g / cm^3
# Si number density = 22.053279 Si / 1000 Ang^3
#
#
#
# Elastic Constant Matrix: (Units=GPa)
#
#
# Indices 1 2 3 4 5 6 
#
# 1 43.7436 0.8784 25.1973 -0.0031 -3.0766 0.0016
# 2 0.8784 69.5240 12.9307 -0.0079 -0.1431 0.0006
# 3 25.1973 12.9307 114.1085 -0.0037 -7.3006 -0.0001
# 4 -0.0031 -0.0079 -0.0037 20.5369 0.0003 2.6886
# 5 -3.0766 -0.1431 -7.3006 0.0003 21.6814 0.0009
# 6 0.0016 0.0006 -0.0001 2.6886 0.0009 25.4550
#
#
#
# Elastic Compliance Matrix: (Units=1/GPa)
#
#
# Indices 1 2 3 4 5 6 
#
# 1 0.026299 0.000746 -0.005777 0.000003 0.001791 -0.000002
# 2 0.000746 0.014719 -0.001860 0.000006 -0.000423 -0.000001
# 3 -0.005777 -0.001860 0.010421 0.000000 0.002677 0.000000
# 4 0.000003 0.000006 0.000000 0.049376 0.000000 -0.005215
# 5 0.001791 -0.000423 0.002677 0.000000 0.047275 -0.000002
# 6 -0.000002 -0.000001 0.000000 -0.005215 -0.000002 0.039836
#
#
# Mechanical properties :
#
#
# Convention : Reuss Voigt Hill
#
# Bulk Modulus (GPa) = 26.55512 33.93212 30.24362
# Shear Modulus (GPa) = 23.33598 26.09264 24.71431
#
# Velocity S-wave (km/s) = 3.25647 3.44345 3.35126
# Velocity P-wave (km/s) = 5.11927 5.58834 5.35894
#
# Compressibility (1/GPa) = 0.03765753
#
# Stress axis : x y z
#
# Youngs Moduli (GPa) = 38.02376 67.93884 95.95684
#
# Poissons Ratio (x) = -0.05068 0.55437
# Poissons Ratio (y) = -0.02836 0.17846
# Poissons Ratio (z) = 0.21967 0.12635
#
# Static dielectric constant tensor:
#      x y z
#    x 3.621830 -0.000010 -0.098380 
#    y -0.000010 3.891510 0.000000 
#    z -0.098380 0.000000 4.009270 
# 
# 
# High freq. dielectric constant tensor:
#      x y z
#    x 1.838180 0.000000 -0.005830 
#    y 0.000000 1.864410 0.000000 
#    z -0.005830 0.000000 1.871410 
# 
# From -- ./inp_files/220846.got.cif
#   From: 2010.06.25/outbox.cif.g09.slc.cpg/sg15_111_cif.got.tgz:220846.got - 2010.06.28 07:06:18.
