data_PCOD8143829
_publ_section_title
;
Structure prediction by ZEFSAII (Michael W. Deem and Ramdas Pophale) SiO2 
 PCOD8143829
Probable space group: C 2/C
;
_chemical_formula_sum "Si O2"
_cell_formula_units_Z 56
_cell_length_a 15.064742
_cell_length_b 23.071270
_cell_length_c 8.557891
_cell_angle_alpha 90.000000
_cell_angle_beta 65.063346
_cell_angle_gamma 90.000000
_cell_volume 2697.113599
_symmetry_space_group_name_H-M "C 2/C"
_symmetry_group_IT_number 15
_symmetry_cell_setting 'monoclinic'
loop_
_space_group_symop_operation_xyz
x,y,z
-x,y,1/2-z
-x,-y,-z
x,-y,1/2+z
1/2+x,1/2+y,z
1/2-x,1/2+y,1/2-z
1/2-x,1/2-y,-z
1/2+x,1/2-y,1/2+z
loop_
_atom_site_type_symbol
_atom_site_label
_atom_site_fract_x
_atom_site_fract_y
_atom_site_fract_z
Si Si1 0.403041 0.583655 0.880567
Si Si2 0.605034 0.228072 0.226616
Si Si3 0.093804 0.965119 0.776706
Si Si4 0.455046 0.886934 0.613267
Si Si5 0.807405 0.537983 0.062370
Si Si6 0.855381 0.423255 0.190265
Si Si7 0.754526 0.828613 0.381413
O O1 0.500000 0.618175 0.750000
O O2 0.392239 0.534180 0.755143
O O3 0.315009 0.629646 0.954956
O O4 0.417823 0.549991 0.032817
O O5 0.500000 0.253282 0.250000
O O6 0.583437 0.179429 0.374468
O O7 0.673955 0.279109 0.241645
O O8 0.661396 0.197995 0.039493
O O9 0.195965 0.938542 0.639031
O O10 0.000000 0.940848 0.750000
O O11 0.500000 0.896955 0.750000
O O12 0.362820 0.928661 0.659713
O O13 0.534483 0.902695 0.424257
O O14 0.817029 0.469718 0.091544
O O15 0.856341 0.550000 0.860456
O O16 0.784847 0.367041 0.232746
#
# Coordination Sequence:
#
# PCOD8143829 Si02
#       7
#     8   8   8   8   8   8   8
#     4  11  22  37  60  91 128 168 221 264 324 387
#     4  10  21  41  65  94 123 169 225 276 320 376
#     4  11  23  37  57  88 134 173 209 265 323 389
#     4  11  22  43  67  95 131 171 215 275 324 390
#     4  12  25  40  66  98 140 177 208 265 339 405
#     4  12  24  40  65 101 138 169 218 263 335 399
#     4  11  22  38  66  95 124 170 221 270 323 387
#
# _framework density 20.762936
#
# number of rings (size 3 to 8) (size 9 to 14) (size 15 to 20)
#    0.000    0.857    4.286    5.571    2.000    0.000 
#    0.000    0.714    0.000    0.000    0.000    0.000 
#    0.000    0.000    0.000    0.000    0.000    0.000 
#
# Total GULP energy -347057.621135 kJ/mol
# GULP energy per Si atom -12394.915041 kJ/mol
# Density = 2.071568 g / cm^3
# Si number density = 20.762936 Si / 1000 Ang^3
#
#
#
# Elastic Constant Matrix: (Units=GPa)
#
#
# Indices 1 2 3 4 5 6 
#
# 1 135.9054 56.9350 38.2488 0.0000 -24.0661 0.0000
# 2 56.9350 104.7066 38.5225 0.0000 -1.1105 0.0000
# 3 38.2488 38.5225 101.7641 0.0000 -13.1483 0.0000
# 4 0.0000 0.0000 0.0000 21.2029 0.0000 -15.0033
# 5 -24.0661 -1.1105 -13.1483 0.0000 34.6840 0.0000
# 6 0.0000 0.0000 0.0000 -15.0033 0.0000 36.2755
#
#
#
# Elastic Compliance Matrix: (Units=1/GPa)
#
#
# Indices 1 2 3 4 5 6 
#
# 1 0.011343 -0.005654 -0.001188 0.000000 0.007239 0.000000
# 2 -0.005654 0.013970 -0.003798 0.000000 -0.004916 0.000000
# 3 -0.001188 -0.003798 0.012186 0.000000 0.003674 0.000000
# 4 0.000000 0.000000 0.000000 0.066677 0.000000 0.027577
# 5 0.007239 -0.004916 0.003674 0.000000 0.035090 0.000000
# 6 0.000000 0.000000 0.000000 0.027577 0.000000 0.038973
#
#
# Mechanical properties :
#
#
# Convention : Reuss Voigt Hill
#
# Bulk Modulus (GPa) = 61.65808 67.75428 64.70618
# Shear Modulus (GPa) = 24.39919 32.34382 28.37151
#
# Velocity S-wave (km/s) = 3.43174 3.95114 3.70056
# Velocity P-wave (km/s) = 6.74264 7.31563 7.03497
#
# Compressibility (1/GPa) = 0.01621848
#
# Stress axis : x y z
#
# Youngs Moduli (GPa) = 88.16109 71.58065 82.06422
#
# Poissons Ratio (x) = 0.40472 0.09746
# Poissons Ratio (y) = 0.49847 0.31171
# Poissons Ratio (z) = 0.10470 0.27189
#
# Static dielectric constant tensor:
#      x y z
#    x 4.139760 0.000000 -0.400730 
#    y 0.000000 3.817760 0.000000 
#    z -0.400730 0.000000 3.527230 
# 
# 
# High freq. dielectric constant tensor:
#      x y z
#    x 1.834310 0.000000 -0.030600 
#    y 0.000000 1.799410 0.000000 
#    z -0.030600 0.000000 1.792050 
# 
# From -- ./inp_files/42104.got.cif
#   From: 2010.06.25/outbox.cif.g09.slc.cpg/sg15_22_cif.got.tgz:42104.got - 2010.06.28 07:06:18.
