data_PCOD8143644
_publ_section_title
;
Structure prediction by ZEFSAII (Michael W. Deem and Ramdas Pophale) SiO2 
 PCOD8143644
Probable space group: C 2/C
;
_chemical_formula_sum "Si O2"
_cell_formula_units_Z 48
_cell_length_a 17.538016
_cell_length_b 8.461938
_cell_length_c 27.614840
_cell_angle_alpha 90.000000
_cell_angle_beta 146.534251
_cell_angle_gamma 90.000000
_cell_volume 2259.903185
_symmetry_space_group_name_H-M "C 2/C"
_symmetry_group_IT_number 15
_symmetry_cell_setting 'monoclinic'
loop_
_space_group_symop_operation_xyz
x,y,z
-x,y,1/2-z
-x,-y,-z
x,-y,1/2+z
1/2+x,1/2+y,z
1/2-x,1/2+y,1/2-z
1/2-x,1/2-y,-z
1/2+x,1/2-y,1/2+z
loop_
_atom_site_type_symbol
_atom_site_label
_atom_site_fract_x
_atom_site_fract_y
_atom_site_fract_z
Si Si1 0.261502 0.303415 0.226544
Si Si2 0.955973 0.638811 0.131321
Si Si3 0.633107 0.116062 0.761182
Si Si4 0.363691 0.536406 0.202259
Si Si5 0.362329 0.401225 0.919389
Si Si6 0.270724 0.152166 0.944239
O O1 0.394149 0.194935 0.308237
O O2 0.194943 0.361672 0.240489
O O3 0.319714 0.455365 0.228952
O O4 0.147142 0.207337 0.134208
O O5 0.878801 0.777526 0.119565
O O6 0.988358 0.481927 0.180694
O O7 0.859456 0.587487 0.035722
O O8 0.607270 0.281089 0.773297
O O9 0.736095 0.022715 0.850829
O O10 0.500000 0.461276 0.250000
O O11 0.245421 0.498285 0.099810
O O12 0.352537 0.292931 0.961501
O O13 0.500000 0.500000 0.000000
#
# Coordination Sequence:
#
# PCOD8143644 Si02
#       6
#     8   8   8   8   8   8
#     4  10  21  41  63  88 129 170 203 252 317 377
#     4  10  21  41  62  88 122 165 210 244 321 372
#     4  11  24  37  64  93 124 159 208 263 309 370
#     4  11  22  39  62  93 124 158 205 259 310 367
#     4  10  22  38  62  89 122 162 211 251 304 372
#     4  10  22  40  64  86 123 169 201 258 310 385
#
# _framework density 21.239847000000001
#
# number of rings (size 3 to 8) (size 9 to 14) (size 15 to 20)
#    0.000    1.667    1.667    3.000    2.333    1.333 
#    0.000    5.000    0.000    0.000    0.000    0.000 
#    0.000    0.000    0.000    0.000    0.000    0.000 
#
# Total GULP energy -297480.572322 kJ/mol
# GULP energy per Si atom -12395.023847 kJ/mol
# Density = 2.119150 g / cm^3
# Si number density = 21.239847 Si / 1000 Ang^3
#
#
#
# Elastic Constant Matrix: (Units=GPa)
#
#
# Indices 1 2 3 4 5 6 
#
# 1 63.4260 14.1168 31.3897 0.0000 -2.1079 0.0000
# 2 14.1168 109.6935 73.0151 0.0000 -13.8372 0.0001
# 3 31.3897 73.0151 135.1549 0.0000 -3.3394 0.0000
# 4 0.0000 0.0000 0.0000 36.7838 0.0000 -0.0945
# 5 -2.1079 -13.8372 -3.3394 0.0000 25.1856 0.0000
# 6 0.0000 0.0001 0.0000 -0.0945 0.0000 20.6039
#
#
#
# Elastic Compliance Matrix: (Units=1/GPa)
#
#
# Indices 1 2 3 4 5 6 
#
# 1 0.017896 0.000966 -0.004643 0.000000 0.001413 0.000000
# 2 0.000966 0.015561 -0.008445 0.000000 0.007510 0.000000
# 3 -0.004643 -0.008445 0.012958 0.000000 -0.003310 0.000000
# 4 0.000000 0.000000 0.000000 0.027186 0.000000 0.000125
# 5 0.001413 0.007510 -0.003310 0.000000 0.043511 0.000000
# 6 0.000000 0.000000 0.000000 0.000125 0.000000 0.048535
#
#
# Mechanical properties :
#
#
# Convention : Reuss Voigt Hill
#
# Bulk Modulus (GPa) = 45.10669 60.59083 52.84876
# Shear Modulus (GPa) = 25.34440 29.16484 27.25462
#
# Velocity S-wave (km/s) = 3.45809 3.70958 3.58604
# Velocity P-wave (km/s) = 6.10143 6.85105 6.48708
#
# Compressibility (1/GPa) = 0.02216966
#
# Stress axis : x y z
#
# Youngs Moduli (GPa) = 55.87728 64.26438 77.17325
#
# Poissons Ratio (x) = -0.06206 0.35833
# Poissons Ratio (y) = -0.05396 0.65174
# Poissons Ratio (z) = 0.25945 0.54272
#
# Static dielectric constant tensor:
#      x y z
#    x 3.749910 0.000000 -0.115200 
#    y 0.000000 3.995320 0.000000 
#    z -0.115200 0.000000 3.819010 
# 
# 
# High freq. dielectric constant tensor:
#      x y z
#    x 1.831680 0.000000 -0.010030 
#    y 0.000000 1.835370 0.000000 
#    z -0.010030 0.000000 1.832080 
# 
# From -- ./inp_files/176894.got.cif
#   From: 2010.06.25/outbox.cif.g09.slc.cpg/sg15_89_cif.got.tgz:176894.got - 2010.06.28 07:06:18.
