data_PCOD8143657
_publ_section_title
;
Structure prediction by ZEFSAII (Michael W. Deem and Ramdas Pophale) SiO2 
 PCOD8143657
Probable space group: C 2/C
;
_chemical_formula_sum "Si O2"
_cell_formula_units_Z 36
_cell_length_a 12.804222
_cell_length_b 11.352855
_cell_length_c 23.522425
_cell_angle_alpha 90.000000
_cell_angle_beta 29.499556
_cell_angle_gamma 90.000000
_cell_volume 1683.733117
_symmetry_space_group_name_H-M "C 2/C"
_symmetry_group_IT_number 15
_symmetry_cell_setting 'monoclinic'
loop_
_space_group_symop_operation_xyz
x,y,z
-x,y,1/2-z
-x,-y,-z
x,-y,1/2+z
1/2+x,1/2+y,z
1/2-x,1/2+y,1/2-z
1/2-x,1/2-y,-z
1/2+x,1/2-y,1/2+z
loop_
_atom_site_type_symbol
_atom_site_label
_atom_site_fract_x
_atom_site_fract_y
_atom_site_fract_z
Si Si1 0.553663 0.493335 0.146276
Si Si2 0.743771 0.220630 0.437685
Si Si3 0.500000 0.851014 0.750000
Si Si4 0.220771 0.640874 0.863404
Si Si5 0.691754 0.479274 0.451113
O O1 0.571347 0.626372 0.163653
O O2 0.711013 0.405273 0.106283
O O3 0.313518 0.447998 0.271028
O O4 0.610976 0.498384 0.053133
O O5 0.750000 0.250000 0.500000
O O6 0.529478 0.150797 0.522570
O O7 0.770414 0.347656 0.396240
O O8 0.321180 0.770340 0.804749
O O9 0.612509 0.932654 0.649896
O O10 0.500000 0.500000 0.500000
#
# Coordination Sequence:
#
# PCOD8143657 Si02
#       5
#     8   8   4   8   8
#     4   9  22  39  65  91 122 170 205 263 315 370
#     4  10  21  41  62  91 128 160 210 269 307 374
#     4  10  22  38  62  92 124 164 210 258 310 378
#     4  10  21  42  65  90 127 161 223 252 312 390
#     4  11  22  40  63  93 131 162 207 261 321 371
#
# _framework density 21.381060999999999
#
# number of rings (size 3 to 8) (size 9 to 14) (size 15 to 20)
#    0.000    2.222    2.222    0.667    0.000    8.889 
#    0.000    4.444    0.000    0.000    0.000    0.000 
#    0.000    0.000    0.000    0.000    0.000    0.000 
#
# Total GULP energy -222997.778195 kJ/mol
# GULP energy per Si atom -12388.765455 kJ/mol
# Density = 2.133240 g / cm^3
# Si number density = 21.381061 Si / 1000 Ang^3
#
#
#
# Elastic Constant Matrix: (Units=GPa)
#
#
# Indices 1 2 3 4 5 6 
#
# 1 84.7491 24.7716 14.9362 -0.0029 17.0734 0.0009
# 2 24.7716 180.3897 53.2485 -0.0019 4.6249 -0.0003
# 3 14.9362 53.2485 78.3567 -0.0099 20.7552 -0.0008
# 4 -0.0029 -0.0019 -0.0099 39.8595 0.0010 4.8168
# 5 17.0734 4.6249 20.7552 0.0010 27.3020 -0.0001
# 6 0.0009 -0.0003 -0.0008 4.8168 -0.0001 25.6452
#
#
#
# Elastic Compliance Matrix: (Units=1/GPa)
#
#
# Indices 1 2 3 4 5 6 
#
# 1 0.014072 -0.002042 0.001183 0.000002 -0.009353 -0.000001
# 2 -0.002042 0.007435 -0.005845 -0.000001 0.004461 0.000000
# 3 0.001183 -0.005845 0.020588 0.000005 -0.015401 -0.000001
# 4 0.000002 -0.000001 0.000005 0.025671 -0.000006 -0.004822
# 5 -0.009353 0.004461 -0.015401 -0.000006 0.053428 0.000001
# 6 -0.000001 0.000000 -0.000001 -0.004822 0.000001 0.039899
#
#
# Mechanical properties :
#
#
# Convention : Reuss Voigt Hill
#
# Bulk Modulus (GPa) = 34.85890 58.82312 46.84101
# Shear Modulus (GPa) = 27.16446 35.26394 31.21420
#
# Velocity S-wave (km/s) = 3.56826 4.06557 3.82501
# Velocity P-wave (km/s) = 5.77198 7.04344 6.43917
#
# Compressibility (1/GPa) = 0.02868707
#
# Stress axis : x y z
#
# Youngs Moduli (GPa) = 71.06222 134.50121 48.57194
#
# Poissons Ratio (x) = 0.27461 -0.05744
# Poissons Ratio (y) = 0.14509 0.28390
# Poissons Ratio (z) = -0.08403 0.78614
#
# Static dielectric constant tensor:
#      x y z
#    x 3.680350 0.000010 -0.038550 
#    y 0.000010 4.794310 -0.000010 
#    z -0.038550 -0.000010 3.699600 
# 
# 
# High freq. dielectric constant tensor:
#      x y z
#    x 1.825580 0.000000 -0.004260 
#    y 0.000000 1.868810 0.000000 
#    z -0.004260 0.000000 1.822450 
# 
# From -- ./inp_files/295569.got.cif
#   From: 2010.06.25/outbox.cif.g09.slc.cpg/sg15_148_cif.got.tgz:295569.got - 2010.06.28 07:06:18.
