data_PCOD8143108
_publ_section_title
;
Structure prediction by ZEFSAII (Michael W. Deem and Ramdas Pophale) SiO2 
 PCOD8143108
Probable space group: C 2/C
;
_chemical_formula_sum "Si O2"
_cell_formula_units_Z 48
_cell_length_a 8.028950
_cell_length_b 14.689393
_cell_length_c 26.747104
_cell_angle_alpha 90.000000
_cell_angle_beta 139.072211
_cell_angle_gamma 90.000000
_cell_volume 2066.578137
_symmetry_space_group_name_H-M "C 2/C"
_symmetry_group_IT_number 15
_symmetry_cell_setting 'monoclinic'
loop_
_space_group_symop_operation_xyz
x,y,z
-x,y,1/2-z
-x,-y,-z
x,-y,1/2+z
1/2+x,1/2+y,z
1/2-x,1/2+y,1/2-z
1/2-x,1/2-y,-z
1/2+x,1/2-y,1/2+z
loop_
_atom_site_type_symbol
_atom_site_label
_atom_site_fract_x
_atom_site_fract_y
_atom_site_fract_z
Si Si1 0.217569 0.259824 0.202819
Si Si2 0.649655 0.052762 0.733656
Si Si3 0.590426 0.289071 0.565498
Si Si4 0.707349 0.478322 0.873785
Si Si5 0.379861 0.129854 0.324113
Si Si6 0.645087 0.894859 0.490310
O O1 0.500000 0.280094 0.250000
O O2 0.096297 0.356443 0.189780
O O3 0.076681 0.216504 0.123287
O O4 0.208500 0.188919 0.247052
O O5 0.500000 0.069189 0.750000
O O6 0.531142 0.963910 0.681264
O O7 0.951761 0.036549 0.808968
O O8 0.514677 0.191831 0.525068
O O9 0.370236 0.363216 0.503512
O O10 0.861362 0.316263 0.603839
O O11 0.717522 0.393198 0.837213
O O12 0.949732 0.541690 0.915605
O O13 0.726244 0.447551 0.934835
#
# Coordination Sequence:
#
# PCOD8143108 Si02
#       6
#     8   8   8   8   8   8
#     4  10  21  40  65  93 126 160 205 266 320 370
#     4  12  24  39  63  92 124 163 212 267 319 371
#     4  10  21  40  62  90 122 165 206 246 315 373
#     4  11  23  40  60  89 123 164 209 255 315 366
#     4  11  22  39  65  91 123 159 206 267 318 371
#     4  10  22  40  61  83 127 169 203 249 295 383
#
# _framework density 23.226800000000001
#
# number of rings (size 3 to 8) (size 9 to 14) (size 15 to 20)
#    0.000    1.333    0.000    8.000    0.000    4.000 
#    0.000    6.667    0.000    0.000    0.000    0.000 
#    0.000    0.000    0.000    0.000    0.000    0.000 
#
# Total GULP energy -297557.985377 kJ/mol
# GULP energy per Si atom -12398.249391 kJ/mol
# Density = 2.317393 g / cm^3
# Si number density = 23.226800 Si / 1000 Ang^3
#
#
#
# Elastic Constant Matrix: (Units=GPa)
#
#
# Indices 1 2 3 4 5 6 
#
# 1 61.5869 8.0937 16.8177 -0.0001 4.5720 0.0001
# 2 8.0937 104.0044 5.1145 -0.0002 6.3032 0.0000
# 3 16.8177 5.1145 54.1985 -0.0009 15.0668 -0.0001
# 4 -0.0001 -0.0002 -0.0009 41.7910 -0.0002 4.5548
# 5 4.5720 6.3032 15.0668 -0.0002 22.9334 0.0000
# 6 0.0001 0.0000 -0.0001 4.5548 0.0000 20.9493
#
#
#
# Elastic Compliance Matrix: (Units=1/GPa)
#
#
# Indices 1 2 3 4 5 6 
#
# 1 0.017873 -0.001142 -0.005548 0.000000 0.000396 0.000000
# 2 -0.001142 0.009853 0.000140 0.000000 -0.002572 0.000000
# 3 -0.005548 0.000140 0.024300 0.000000 -0.014897 0.000000
# 4 0.000000 0.000000 0.000000 0.024509 0.000000 -0.005329
# 5 0.000396 -0.002572 -0.014897 0.000000 0.054020 0.000000
# 6 0.000000 0.000000 0.000000 -0.005329 0.000000 0.048893
#
#
# Mechanical properties :
#
#
# Convention : Reuss Voigt Hill
#
# Bulk Modulus (GPa) = 25.69040 31.09350 28.39195
# Shear Modulus (GPa) = 24.32799 29.78566 27.05683
#
# Velocity S-wave (km/s) = 3.23988 3.58492 3.41676
# Velocity P-wave (km/s) = 5.00804 5.52734 5.27409
#
# Compressibility (1/GPa) = 0.03892504
#
# Stress axis : x y z
#
# Youngs Moduli (GPa) = 55.95035 101.49331 41.15152
#
# Poissons Ratio (x) = 0.11591 0.22832
# Poissons Ratio (y) = 0.06390 -0.00575
# Poissons Ratio (z) = 0.31042 -0.01417
#
# Static dielectric constant tensor:
#      x y z
#    x 3.828750 0.000000 0.023530 
#    y 0.000000 4.355760 0.000000 
#    z 0.023530 0.000000 4.589960 
# 
# 
# High freq. dielectric constant tensor:
#      x y z
#    x 1.895870 0.000000 0.013770 
#    y 0.000000 1.931460 0.000000 
#    z 0.013770 0.000000 1.923630 
# 
# From -- ./inp_files/308123.got.cif
#   From: 2010.06.25/outbox.cif.g09.slc.cpg/sg15_155_cif.got.tgz:308123.got - 2010.06.28 07:06:18.
