data_PCOD8143856
_publ_section_title
;
Structure prediction by ZEFSAII (Michael W. Deem and Ramdas Pophale) SiO2 
 PCOD8143856
Probable space group: C 2/C
;
_chemical_formula_sum "Si O2"
_cell_formula_units_Z 64
_cell_length_a 20.985536
_cell_length_b 27.652818
_cell_length_c 11.109450
_cell_angle_alpha 90.000000
_cell_angle_beta 150.480220
_cell_angle_gamma 90.000000
_cell_volume 3176.550303
_symmetry_space_group_name_H-M "C 2/C"
_symmetry_group_IT_number 15
_symmetry_cell_setting 'monoclinic'
loop_
_space_group_symop_operation_xyz
x,y,z
-x,y,1/2-z
-x,-y,-z
x,-y,1/2+z
1/2+x,1/2+y,z
1/2-x,1/2+y,1/2-z
1/2-x,1/2-y,-z
1/2+x,1/2-y,1/2+z
loop_
_atom_site_type_symbol
_atom_site_label
_atom_site_fract_x
_atom_site_fract_y
_atom_site_fract_z
Si Si1 0.651077 0.681768 0.514058
Si Si2 0.225504 0.711539 0.173564
Si Si3 0.592707 0.949661 0.784064
Si Si4 0.513442 0.696277 0.632124
Si Si5 0.726201 0.634620 0.865659
Si Si6 0.354558 0.840712 0.173595
Si Si7 0.899954 0.699209 0.294380
Si Si8 0.559668 0.942291 0.216008
O O1 0.692685 0.732609 0.638654
O O2 0.701211 0.638490 0.682261
O O3 0.715182 0.676017 0.490519
O O4 0.500000 0.679305 0.250000
O O5 0.365477 0.700776 0.344924
O O6 0.205044 0.689172 0.272474
O O7 0.121838 0.686726 0.913721
O O8 0.500000 0.941307 0.750000
O O9 0.533175 0.937035 0.554635
O O10 0.631689 0.006133 0.837781
O O11 0.725507 0.919346 0.020269
O O12 0.500000 0.690466 0.750000
O O13 0.590613 0.650061 0.706410
O O14 0.590408 0.744467 0.721746
O O15 0.845034 0.670651 0.090136
O O16 0.463159 0.823984 0.446240
O O17 0.341854 0.898171 0.135863
O O18 0.500000 0.934418 0.250000
#
# Coordination Sequence:
#
# PCOD8143856 Si02
#       8
#     8   8   8   8   8   8   8   8
#     4  12  25  42  61  88 128 176 222 266 319 393
#     4  12  24  41  58  86 130 172 220 263 310 390
#     4  10  22  41  68  98 131 166 216 275 338 390
#     4  12  24  39  56  86 128 172 212 258 314 381
#     4  12  24  39  63  90 127 165 215 267 327 389
#     4  12  24  37  65  91 128 166 212 265 335 384
#     4  12  23  38  59  92 122 167 211 266 317 375
#     4  10  21  41  66 100 133 165 210 279 339 390
#
# _framework density 20.147642999999999
#
# number of rings (size 3 to 8) (size 9 to 14) (size 15 to 20)
#    0.000    0.500    5.000    4.875    0.000    0.000 
#    0.000    0.000    0.000    3.750    0.000    0.000 
#    0.000    0.000    0.000    0.000    0.000    0.000 
#
# Total GULP energy -396574.824002 kJ/mol
# GULP energy per Si atom -12392.963250 kJ/mol
# Density = 2.010179 g / cm^3
# Si number density = 20.147643 Si / 1000 Ang^3
#
#
#
# Elastic Constant Matrix: (Units=GPa)
#
#
# Indices 1 2 3 4 5 6 
#
# 1 164.2294 54.3880 66.9401 0.0000 12.1887 0.0000
# 2 54.3880 120.4668 48.2419 0.0000 14.5519 0.0000
# 3 66.9401 48.2419 112.2571 0.0000 16.4441 0.0000
# 4 0.0000 0.0000 0.0000 19.0671 0.0000 -9.5403
# 5 12.1887 14.5519 16.4441 0.0000 45.7781 0.0000
# 6 0.0000 0.0000 0.0000 -9.5403 0.0000 19.6540
#
#
#
# Elastic Compliance Matrix: (Units=1/GPa)
#
#
# Indices 1 2 3 4 5 6 
#
# 1 0.008494 -0.002175 -0.004117 0.000000 -0.000091 0.000000
# 2 -0.002175 0.010715 -0.003054 0.000000 -0.001730 0.000000
# 3 -0.004117 -0.003054 0.013060 0.000000 -0.002624 0.000000
# 4 0.000000 0.000000 0.000000 0.069271 0.000000 0.033625
# 5 -0.000091 -0.001730 -0.002624 0.000000 0.023361 0.000000
# 6 0.000000 0.000000 0.000000 0.033625 0.000000 0.067202
#
#
# Mechanical properties :
#
#
# Convention : Reuss Voigt Hill
#
# Bulk Modulus (GPa) = 73.65689 81.78812 77.72250
# Shear Modulus (GPa) = 23.22098 32.05872 27.63985
#
# Velocity S-wave (km/s) = 3.39859 3.99330 3.70789
# Velocity P-wave (km/s) = 7.21377 7.87048 7.54927
#
# Compressibility (1/GPa) = 0.01357646
#
# Stress axis : x y z
#
# Youngs Moduli (GPa) = 117.72563 93.32552 76.56874
#
# Poissons Ratio (x) = 0.20301 0.31524
# Poissons Ratio (y) = 0.25608 0.23386
# Poissons Ratio (z) = 0.48469 0.28504
#
# Static dielectric constant tensor:
#      x y z
#    x 3.986930 0.000000 -0.026320 
#    y 0.000000 3.709680 0.000000 
#    z -0.026320 0.000000 3.808980 
# 
# 
# High freq. dielectric constant tensor:
#      x y z
#    x 1.806080 0.000000 -0.019420 
#    y 0.000000 1.765310 0.000000 
#    z -0.019420 0.000000 1.782690 
# 
# From -- ./inp_files/115010.got.cif
#   From: 2010.06.25/outbox.cif.g09.slc.cpg/sg15_58_cif.got.tgz:115010.got - 2010.06.28 07:06:18.
