data_PCOD8143716
_publ_section_title
;
Structure prediction by ZEFSAII (Michael W. Deem and Ramdas Pophale) SiO2 
 PCOD8143716
Probable space group: C 2/C
;
_chemical_formula_sum "Si O2"
_cell_formula_units_Z 32
_cell_length_a 10.858009
_cell_length_b 10.284020
_cell_length_c 12.626548
_cell_angle_alpha 90.000000
_cell_angle_beta 65.249736
_cell_angle_gamma 90.000000
_cell_volume 1280.416153
_symmetry_space_group_name_H-M "C 2/C"
_symmetry_group_IT_number 15
_symmetry_cell_setting 'monoclinic'
loop_
_space_group_symop_operation_xyz
x,y,z
-x,y,1/2-z
-x,-y,-z
x,-y,1/2+z
1/2+x,1/2+y,z
1/2-x,1/2+y,1/2-z
1/2-x,1/2-y,-z
1/2+x,1/2-y,1/2+z
loop_
_atom_site_type_symbol
_atom_site_label
_atom_site_fract_x
_atom_site_fract_y
_atom_site_fract_z
Si Si1 0.641867 0.377297 0.749428
Si Si2 0.100155 0.902899 0.407458
Si Si3 0.416835 0.808661 0.046993
Si Si4 0.821672 0.562088 0.997516
O O1 0.500000 0.336325 0.750000
O O2 0.639453 0.530947 0.781986
O O3 0.668637 0.282406 0.840793
O O4 0.761200 0.361881 0.621752
O O5 0.236883 0.890759 0.427252
O O6 0.012045 0.771362 0.430113
O O7 0.000000 0.000000 0.500000
O O8 0.316285 0.904446 0.017707
O O9 0.522360 0.897161 0.076853
#
# Coordination Sequence:
#
# PCOD8143716 Si02
#       4
#     8   8   8   8
#     4  11  23  40  66  96 129 180 213 265 344 385
#     4  10  21  41  63  93 132 167 214 274 323 387
#     4  10  24  41  66  94 132 172 221 275 325 390
#     4  11  23  43  66  97 132 171 225 268 331 401
#
# _framework density 24.991875
#
# number of rings (size 3 to 8) (size 9 to 14) (size 15 to 20)
#    0.000    1.500    5.000    0.750    3.500    4.000 
#    0.000    3.750    0.000    0.000    0.000    0.000 
#    0.000    0.000    0.000    0.000    0.000    0.000 
#
# Total GULP energy -198287.526240 kJ/mol
# GULP energy per Si atom -12392.970390 kJ/mol
# Density = 2.493499 g / cm^3
# Si number density = 24.991875 Si / 1000 Ang^3
#
#
#
# Elastic Constant Matrix: (Units=GPa)
#
#
# Indices 1 2 3 4 5 6 
#
# 1 57.5764 5.2974 7.6813 0.0000 -8.9661 0.0000
# 2 5.2974 117.7528 10.6661 0.0000 0.4608 0.0000
# 3 7.6813 10.6661 45.7783 0.0000 0.9759 0.0000
# 4 0.0000 0.0000 0.0000 26.3048 0.0000 -7.2628
# 5 -8.9661 0.4608 0.9759 0.0000 20.0557 0.0000
# 6 0.0000 0.0000 0.0000 -7.2628 0.0000 42.6334
#
#
#
# Elastic Compliance Matrix: (Units=1/GPa)
#
#
# Indices 1 2 3 4 5 6 
#
# 1 0.019226 -0.000603 -0.003272 0.000000 0.008768 0.000000
# 2 -0.000603 0.008695 -0.001917 0.000000 -0.000376 0.000000
# 3 -0.003272 -0.001917 0.022894 0.000000 -0.002533 0.000000
# 4 0.000000 0.000000 0.000000 0.039892 0.000000 0.006796
# 5 0.008768 -0.000376 -0.002533 0.000000 0.053913 0.000000
# 6 0.000000 0.000000 0.000000 0.006796 0.000000 0.024613
#
#
# Mechanical properties :
#
#
# Convention : Reuss Voigt Hill
#
# Bulk Modulus (GPa) = 25.49028 29.82190 27.65609
# Shear Modulus (GPa) = 25.78737 30.96296 28.37517
#
# Velocity S-wave (km/s) = 3.21570 3.52365 3.37319
# Velocity P-wave (km/s) = 4.89992 5.33979 5.12457
#
# Compressibility (1/GPa) = 0.03923064
#
# Stress axis : x y z
#
# Youngs Moduli (GPa) = 52.01382 115.01435 43.67944
#
# Poissons Ratio (x) = 0.06933 0.14294
# Poissons Ratio (y) = 0.03135 0.08372
# Poissons Ratio (z) = 0.17021 0.22044
#
# Static dielectric constant tensor:
#      x y z
#    x 4.016940 0.000000 -0.776920 
#    y 0.000000 5.039720 0.000000 
#    z -0.776920 0.000000 2.487290 
# 
# 
# High freq. dielectric constant tensor:
#      x y z
#    x 1.980760 0.000000 -0.018040 
#    y 0.000000 2.017800 0.000000 
#    z -0.018040 0.000000 1.962900 
# 
# From -- ./inp_files/83873.got.cif
#   From: 2010.06.25/outbox.cif.g09.slc.cpg/sg15_42_cif.got.tgz:83873.got - 2010.06.28 07:06:18.
