data_PCOD8143865
_publ_section_title
;
Structure prediction by ZEFSAII (Michael W. Deem and Ramdas Pophale) SiO2 
 PCOD8143865
Probable space group: C 2/C
;
_chemical_formula_sum "Si O2"
_cell_formula_units_Z 64
_cell_length_a 23.407091
_cell_length_b 17.544555
_cell_length_c 15.524107
_cell_angle_alpha 90.000000
_cell_angle_beta 150.959034
_cell_angle_gamma 90.000000
_cell_volume 3094.762835
_symmetry_space_group_name_H-M "C 2/C"
_symmetry_group_IT_number 15
_symmetry_cell_setting 'monoclinic'
loop_
_space_group_symop_operation_xyz
x,y,z
-x,y,1/2-z
-x,-y,-z
x,-y,1/2+z
1/2+x,1/2+y,z
1/2-x,1/2+y,1/2-z
1/2-x,1/2-y,-z
1/2+x,1/2-y,1/2+z
loop_
_atom_site_type_symbol
_atom_site_label
_atom_site_fract_x
_atom_site_fract_y
_atom_site_fract_z
Si Si1 0.373865 0.484747 0.406525
Si Si2 0.679330 0.075954 0.049506
Si Si3 0.504128 0.377933 0.059924
Si Si4 0.184932 0.615970 0.722816
Si Si5 0.827938 0.250268 0.686465
Si Si6 0.417128 0.957418 0.251393
Si Si7 0.775734 0.218103 0.263358
Si Si8 0.985221 0.381385 0.831485
O O1 0.288682 0.523760 0.222426
O O2 0.463242 0.422390 0.485174
O O3 0.450126 0.554363 0.549914
O O4 0.294361 0.442736 0.372271
O O5 0.685716 0.160447 0.098661
O O6 0.672536 0.078882 0.936491
O O7 0.554842 0.040966 0.911129
O O8 0.621989 0.336174 0.245884
O O9 0.406962 0.312640 0.920234
O O10 0.096677 0.591729 0.681324
O O11 0.234002 0.701317 0.798415
O O12 0.116469 0.607393 0.542238
O O13 0.750000 0.250000 0.500000
O O14 0.754487 0.271065 0.675347
O O15 0.933633 0.309192 0.813718
O O16 0.395455 0.048404 0.232152
O O17 0.000000 0.365044 0.750000
#
# Coordination Sequence:
#
# PCOD8143865 Si02
#       8
#     8   8   8   8   8   8   8   8
#     4  10  21  41  66  86 126 175 213 259 323 392
#     4  10  22  42  63  89 129 169 212 266 328 377
#     4  10  23  41  61  91 124 172 211 254 320 400
#     4  12  22  38  67  94 126 165 220 270 330 381
#     4  12  26  39  64  98 134 169 212 267 336 392
#     4  11  23  38  64  99 121 164 220 273 315 379
#     4  11  24  43  64  90 129 170 212 266 331 386
#     4  12  23  40  62  97 133 164 211 273 328 394
#
# _framework density 20.680098999999998
#
# number of rings (size 3 to 8) (size 9 to 14) (size 15 to 20)
#    0.000    1.000    5.000    1.875    5.250    0.500 
#    0.000    1.250    0.000    6.000    0.000    0.000 
#    0.000    0.000    0.000    0.000    0.000    0.000 
#
# Total GULP energy -396594.605916 kJ/mol
# GULP energy per Si atom -12393.581435 kJ/mol
# Density = 2.063303 g / cm^3
# Si number density = 20.680099 Si / 1000 Ang^3
#
#
#
# Elastic Constant Matrix: (Units=GPa)
#
#
# Indices 1 2 3 4 5 6 
#
# 1 82.2179 40.0444 24.9588 0.0000 1.6422 0.0000
# 2 40.0444 143.9894 40.0060 0.0000 -1.9454 0.0000
# 3 24.9588 40.0060 70.0954 0.0000 1.4370 0.0000
# 4 0.0000 0.0000 0.0000 33.3988 0.0000 7.8755
# 5 1.6422 -1.9454 1.4370 0.0000 23.4190 0.0000
# 6 0.0000 0.0000 0.0000 7.8755 0.0000 39.1915
#
#
#
# Elastic Compliance Matrix: (Units=1/GPa)
#
#
# Indices 1 2 3 4 5 6 
#
# 1 0.014769 -0.003170 -0.003427 0.000000 -0.001089 0.000000
# 2 -0.003170 0.008956 -0.004008 0.000000 0.001212 0.000000
# 3 -0.003427 -0.004008 0.017798 0.000000 -0.001185 0.000000
# 4 0.000000 0.000000 0.000000 0.031431 0.000000 -0.006316
# 5 -0.001089 0.001212 -0.001185 0.000000 0.042950 0.000000
# 6 0.000000 0.000000 0.000000 -0.006316 0.000000 0.026785
#
#
# Mechanical properties :
#
#
# Convention : Reuss Voigt Hill
#
# Bulk Modulus (GPa) = 49.22810 56.25790 52.74300
# Shear Modulus (GPa) = 29.29620 31.95474 30.62547
#
# Velocity S-wave (km/s) = 3.76791 3.93516 3.85244
# Velocity P-wave (km/s) = 6.54108 6.92172 6.73409
#
# Compressibility (1/GPa) = 0.02031360
#
# Stress axis : x y z
#
# Youngs Moduli (GPa) = 67.71019 111.65157 56.18478
#
# Poissons Ratio (x) = 0.35391 0.19256
# Poissons Ratio (y) = 0.21463 0.22519
# Poissons Ratio (z) = 0.23206 0.44749
#
# Static dielectric constant tensor:
#      x y z
#    x 3.694540 0.000000 0.219120 
#    y 0.000000 4.283300 0.000000 
#    z 0.219120 0.000000 3.708100 
# 
# 
# High freq. dielectric constant tensor:
#      x y z
#    x 1.797050 0.000000 0.023940 
#    y 0.000000 1.834260 0.000000 
#    z 0.023940 0.000000 1.790030 
# 
# From -- ./inp_files/174243.got.cif
#   From: 2010.06.25/outbox.cif.g09.slc.cpg/sg15_88_cif.got.tgz:174243.got - 2010.06.28 07:06:18.
