data_PCOD8143038
_publ_section_title
;
Structure prediction by ZEFSAII (Michael W. Deem and Ramdas Pophale) SiO2 
 PCOD8143038
Probable space group: C 2/C
;
_chemical_formula_sum "Si O2"
_cell_formula_units_Z 56
_cell_length_a 26.201124
_cell_length_b 10.864347
_cell_length_c 14.957190
_cell_angle_alpha 90.000000
_cell_angle_beta 40.313682
_cell_angle_gamma 90.000000
_cell_volume 2754.602696
_symmetry_space_group_name_H-M "C 2/C"
_symmetry_group_IT_number 15
_symmetry_cell_setting 'monoclinic'
loop_
_space_group_symop_operation_xyz
x,y,z
-x,y,1/2-z
-x,-y,-z
x,-y,1/2+z
1/2+x,1/2+y,z
1/2-x,1/2+y,1/2-z
1/2-x,1/2-y,-z
1/2+x,1/2-y,1/2+z
loop_
_atom_site_type_symbol
_atom_site_label
_atom_site_fract_x
_atom_site_fract_y
_atom_site_fract_z
Si Si1 0.501372 0.440023 0.898748
Si Si2 0.911420 0.305394 0.864186
Si Si3 0.755797 0.473915 0.806948
Si Si4 0.685789 0.776559 0.331409
Si Si5 0.536923 0.189966 0.918355
Si Si6 0.890486 0.971704 0.389374
Si Si7 0.411858 0.938284 0.697297
O O1 0.491717 0.294186 0.922995
O O2 0.583543 0.453513 0.733361
O O3 0.431891 0.491296 0.928557
O O4 0.500000 0.500000 0.000000
O O5 0.915875 0.164615 0.828963
O O6 0.870164 0.386291 0.841747
O O7 0.000000 0.359016 0.750000
O O8 0.860191 0.321583 0.020032
O O9 0.726756 0.357751 0.785795
O O10 0.752019 0.611100 0.767787
O O11 0.846497 0.447148 0.707535
O O12 0.702799 0.482261 0.967845
O O13 0.621722 0.760225 0.338633
O O14 0.550117 0.072479 0.836948
O O15 0.481539 0.154491 0.075801
#
# Coordination Sequence:
#
# PCOD8143038 Si02
#       7
#     8   8   8   8   8   8   8
#     4  11  20  38  65  91 119 166 205 255 318 359
#     4  11  18  39  63  86 114 160 211 258 297 355
#     4  10  23  43  58  93 129 162 202 261 316 374
#     4  10  22  41  64  87 127 163 207 254 312 377
#     4  10  21  40  60  90 123 162 207 251 304 373
#     4  10  23  39  60  95 127 149 211 266 297 376
#     4  10  22  39  61  88 124 161 208 253 304 379
#
# _framework density 20.329612000000001
#
# number of rings (size 3 to 8) (size 9 to 14) (size 15 to 20)
#    0.000    1.714    2.857    2.571    2.000    2.286 
#   12.857    1.429    0.000    0.000    0.000    0.000 
#    0.000    0.000    0.000    0.000    0.000    0.000 
#
# Total GULP energy -346992.308959 kJ/mol
# GULP energy per Si atom -12392.582463 kJ/mol
# Density = 2.028334 g / cm^3
# Si number density = 20.329612 Si / 1000 Ang^3
#
#
#
# Elastic Constant Matrix: (Units=GPa)
#
#
# Indices 1 2 3 4 5 6 
#
# 1 41.9195 31.1537 15.2578 0.0001 5.3727 0.0000
# 2 31.1537 129.5026 42.5472 0.0004 7.4306 -0.0002
# 3 15.2578 42.5472 82.9641 0.0001 4.9367 -0.0001
# 4 0.0001 0.0004 0.0001 33.2331 -0.0001 -0.1126
# 5 5.3727 7.4306 4.9367 -0.0001 36.6103 0.0000
# 6 0.0000 -0.0002 -0.0001 -0.1126 0.0000 27.4879
#
#
#
# Elastic Compliance Matrix: (Units=1/GPa)
#
#
# Indices 1 2 3 4 5 6 
#
# 1 0.029640 -0.006294 -0.002057 0.000000 -0.002795 0.000000
# 2 -0.006294 0.010680 -0.004280 0.000000 -0.000667 0.000000
# 3 -0.002057 -0.004280 0.014675 0.000000 -0.000808 0.000000
# 4 0.000000 0.000000 0.000000 0.030091 0.000000 0.000123
# 5 -0.002795 -0.000667 -0.000808 0.000000 0.027969 0.000000
# 6 0.000000 0.000000 0.000000 0.000123 0.000000 0.036380
#
#
# Mechanical properties :
#
#
# Convention : Reuss Voigt Hill
#
# Bulk Modulus (GPa) = 33.63282 48.03371 40.83326
# Shear Modulus (GPa) = 27.08435 30.49475 28.78955
#
# Velocity S-wave (km/s) = 3.65397 3.87721 3.76724
# Velocity P-wave (km/s) = 5.86359 6.61229 6.24916
#
# Compressibility (1/GPa) = 0.02973286
#
# Stress axis : x y z
#
# Youngs Moduli (GPa) = 33.73846 93.62882 68.14411
#
# Poissons Ratio (x) = 0.58931 0.14016
# Poissons Ratio (y) = 0.21235 0.29167
# Poissons Ratio (z) = 0.06939 0.40074
#
# Static dielectric constant tensor:
#      x y z
#    x 3.475560 0.000000 -0.078440 
#    y 0.000000 3.839100 0.000000 
#    z -0.078440 0.000000 3.716860 
# 
# 
# High freq. dielectric constant tensor:
#      x y z
#    x 1.771000 0.000000 -0.006400 
#    y 0.000000 1.804720 0.000000 
#    z -0.006400 0.000000 1.795350 
# 
# From -- ./inp_files/181556.got.cif
#   From: 2010.06.25/outbox.cif.g09.slc.cpg/sg15_91_cif.got.tgz:181556.got - 2010.06.28 07:06:18.
