data_PCOD8143171
_publ_section_title
;
Structure prediction by ZEFSAII (Michael W. Deem and Ramdas Pophale) SiO2 
 PCOD8143171
Probable space group: C 2/C
;
_chemical_formula_sum "Si O2"
_cell_formula_units_Z 52
_cell_length_a 11.327898
_cell_length_b 16.761582
_cell_length_c 13.561104
_cell_angle_alpha 90.000000
_cell_angle_beta 75.160944
_cell_angle_gamma 90.000000
_cell_volume 2489.018964
_symmetry_space_group_name_H-M "C 2/C"
_symmetry_group_IT_number 15
_symmetry_cell_setting 'monoclinic'
loop_
_space_group_symop_operation_xyz
x,y,z
-x,y,1/2-z
-x,-y,-z
x,-y,1/2+z
1/2+x,1/2+y,z
1/2-x,1/2+y,1/2-z
1/2-x,1/2-y,-z
1/2+x,1/2-y,1/2+z
loop_
_atom_site_type_symbol
_atom_site_label
_atom_site_fract_x
_atom_site_fract_y
_atom_site_fract_z
Si Si1 0.047007 0.436371 0.631661
Si Si2 0.305523 0.342637 0.901638
Si Si3 0.913504 0.744733 0.361742
Si Si4 0.675508 0.994428 0.934676
Si Si5 0.500000 0.249120 0.750000
Si Si6 0.357540 0.295500 0.104026
Si Si7 0.286121 0.842009 0.187858
O O1 0.105459 0.348857 0.619657
O O2 0.153626 0.490095 0.557128
O O3 0.000000 0.465419 0.750000
O O4 0.935628 0.440093 0.579715
O O5 0.293225 0.438234 0.889815
O O6 0.433309 0.309497 0.837336
O O7 0.197939 0.294033 0.868256
O O8 0.298018 0.330735 0.019746
O O9 0.779736 0.784506 0.379246
O O10 0.000000 0.759321 0.250000
O O11 0.994269 0.786735 0.431416
O O12 0.686255 0.074423 0.869124
O O13 0.587628 0.194286 0.798173
O O14 0.309493 0.352714 0.202198
#
# Coordination Sequence:
#
# PCOD8143171 Si02
#       7
#     8   8   8   8   4   8   8
#     4  10  23  38  65  90 128 160 215 259 321 361
#     4  10  21  40  63  91 128 166 209 257 310 373
#     4   9  18  40  63  89 116 170 206 252 301 384
#     4  11  24  39  62 101 125 160 207 280 305 369
#     4  10  24  42  60  92 124 180 202 250 308 392
#     4   9  19  39  68  84 121 173 213 246 312 380
#     4  10  23  39  65  92 126 156 217 256 310 370
#
# _framework density 20.891767000000002
#
# number of rings (size 3 to 8) (size 9 to 14) (size 15 to 20)
#    0.000    2.154    1.538    0.000    7.538    3.077 
#    4.154    0.769    0.000    0.000    0.000    0.000 
#    0.000    0.000    0.000    0.000    0.000    0.000 
#
# Total GULP energy -322138.459934 kJ/mol
# GULP energy per Si atom -12389.940767 kJ/mol
# Density = 2.084422 g / cm^3
# Si number density = 20.891767 Si / 1000 Ang^3
#
#
#
# Elastic Constant Matrix: (Units=GPa)
#
#
# Indices 1 2 3 4 5 6 
#
# 1 116.6125 50.4793 13.1237 0.0000 2.0114 0.0000
# 2 50.4793 134.4959 50.7714 0.0000 -8.3129 0.0000
# 3 13.1237 50.7714 91.0751 0.0000 -1.8542 0.0000
# 4 0.0000 0.0000 0.0000 19.5461 0.0000 1.0181
# 5 2.0114 -8.3129 -1.8542 0.0000 23.0029 0.0000
# 6 0.0000 0.0000 0.0000 1.0181 0.0000 27.2845
#
#
#
# Elastic Compliance Matrix: (Units=1/GPa)
#
#
# Indices 1 2 3 4 5 6 
#
# 1 0.010421 -0.004402 0.000903 0.000000 -0.002429 0.000000
# 2 -0.004402 0.011486 -0.005686 0.000000 0.004077 0.000000
# 3 0.000903 -0.005686 0.013999 0.000000 -0.001005 0.000000
# 4 0.000000 0.000000 0.000000 0.051261 0.000000 -0.001913
# 5 -0.002429 0.004077 -0.001005 0.000000 0.045078 0.000000
# 6 0.000000 0.000000 0.000000 -0.001913 0.000000 0.036722
#
#
# Mechanical properties :
#
#
# Convention : Reuss Voigt Hill
#
# Bulk Modulus (GPa) = 57.02493 63.43692 60.23092
# Shear Modulus (GPa) = 25.88231 29.15397 27.51814
#
# Velocity S-wave (km/s) = 3.52359 3.73966 3.63323
# Velocity P-wave (km/s) = 6.62638 7.00551 6.81858
#
# Compressibility (1/GPa) = 0.01753619
#
# Stress axis : x y z
#
# Youngs Moduli (GPa) = 95.95614 87.06407 71.43433
#
# Poissons Ratio (x) = 0.38330 -0.06451
# Poissons Ratio (y) = 0.42244 0.40614
# Poissons Ratio (z) = -0.08665 0.49501
#
# Static dielectric constant tensor:
#      x y z
#    x 3.916120 0.000000 0.181490 
#    y 0.000000 3.640450 0.000000 
#    z 0.181490 0.000000 3.904650 
# 
# 
# High freq. dielectric constant tensor:
#      x y z
#    x 1.809860 0.000000 0.010900 
#    y 0.000000 1.804060 0.000000 
#    z 0.010900 0.000000 1.819450 
# 
# From -- ./inp_files/144167.got.cif
#   From: 2010.06.25/outbox.cif.g09.slc.cpg/sg15_73_cif.got.tgz:144167.got - 2010.06.28 07:06:18.
