data_PCOD8143043
_publ_section_title
;
Structure prediction by ZEFSAII (Michael W. Deem and Ramdas Pophale) SiO2 
 PCOD8143043
Probable space group: C 2/C
;
_chemical_formula_sum "Si O2"
_cell_formula_units_Z 36
_cell_length_a 12.242771
_cell_length_b 25.270285
_cell_length_c 5.504558
_cell_angle_alpha 90.000000
_cell_angle_beta 112.124328
_cell_angle_gamma 90.000000
_cell_volume 1577.597605
_symmetry_space_group_name_H-M "C 2/C"
_symmetry_group_IT_number 15
_symmetry_cell_setting 'monoclinic'
loop_
_space_group_symop_operation_xyz
x,y,z
-x,y,1/2-z
-x,-y,-z
x,-y,1/2+z
1/2+x,1/2+y,z
1/2-x,1/2+y,1/2-z
1/2-x,1/2-y,-z
1/2+x,1/2-y,1/2+z
loop_
_atom_site_type_symbol
_atom_site_label
_atom_site_fract_x
_atom_site_fract_y
_atom_site_fract_z
Si Si1 0.634613 0.468468 0.377629
Si Si2 0.168656 0.705783 0.201062
Si Si3 0.500000 0.133503 0.750000
Si Si4 0.125240 0.810480 0.952526
Si Si5 0.791736 0.377801 0.373816
O O1 0.500000 0.447168 0.250000
O O2 0.657899 0.502578 0.639522
O O3 0.731410 0.421836 0.492691
O O4 0.114309 0.765243 0.155171
O O5 0.171368 0.677238 0.463638
O O6 0.301752 0.712400 0.214275
O O7 0.090841 0.670179 0.963282
O O8 0.586306 0.099327 0.645321
O O9 0.189570 0.863514 0.096820
O O10 0.000000 0.829188 0.750000
#
# Coordination Sequence:
#
# PCOD8143043 Si02
#       5
#     8   8   4   8   8
#     4  10  25  47  73 103 137 171 222 294 359 409
#     4  10  21  40  60  93 138 178 216 275 328 398
#     4  10  22  42  62  92 136 180 220 272 336 398
#     4  10  22  37  61  97 136 173 226 271 332 401
#     4  11  24  40  70  93 131 181 227 276 340 414
#
# _framework density 22.819504999999999
#
# number of rings (size 3 to 8) (size 9 to 14) (size 15 to 20)
#    0.000    1.778    1.111    1.333    9.333    0.889 
#    4.000    1.111    0.000    0.000    0.000    0.000 
#    0.000    0.000    0.000    0.000    0.000    0.000 
#
# Total GULP energy -223013.944007 kJ/mol
# GULP energy per Si atom -12389.663556 kJ/mol
# Density = 2.276757 g / cm^3
# Si number density = 22.819505 Si / 1000 Ang^3
#
#
#
# Elastic Constant Matrix: (Units=GPa)
#
#
# Indices 1 2 3 4 5 6 
#
# 1 162.9158 45.8047 44.2493 0.0000 3.5109 0.0000
# 2 45.8047 59.9628 13.3351 0.0000 -8.5412 0.0000
# 3 44.2493 13.3351 95.7892 0.0000 -0.1993 0.0000
# 4 0.0000 0.0000 0.0000 22.2961 0.0000 -6.1524
# 5 3.5109 -8.5412 -0.1993 0.0000 35.2882 0.0000
# 6 0.0000 0.0000 0.0000 -6.1524 0.0000 33.9743
#
#
#
# Elastic Compliance Matrix: (Units=1/GPa)
#
#
# Indices 1 2 3 4 5 6 
#
# 1 0.008863 -0.006406 -0.003208 0.000000 -0.002451 0.000000
# 2 -0.006406 0.022471 -0.000156 0.000000 0.006075 0.000000
# 3 -0.003208 -0.000156 0.011944 0.000000 0.000349 0.000000
# 4 0.000000 0.000000 0.000000 0.047210 0.000000 0.008549
# 5 -0.002451 0.006075 0.000349 0.000000 0.030054 0.000000
# 6 0.000000 0.000000 0.000000 0.008549 0.000000 0.030982
#
#
# Mechanical properties :
#
#
# Convention : Reuss Voigt Hill
#
# Bulk Modulus (GPa) = 42.12718 58.38289 50.25504
# Shear Modulus (GPa) = 27.93651 32.66365 30.30008
#
# Velocity S-wave (km/s) = 3.50271 3.78748 3.64787
# Velocity P-wave (km/s) = 5.90421 6.69080 6.30978
#
# Compressibility (1/GPa) = 0.02373764
#
# Stress axis : x y z
#
# Youngs Moduli (GPa) = 112.82441 44.50222 83.72536
#
# Poissons Ratio (x) = 0.28509 0.26856
# Poissons Ratio (y) = 0.72278 0.01308
# Poissons Ratio (z) = 0.36190 0.00695
#
# Static dielectric constant tensor:
#      x y z
#    x 3.985940 0.000000 -0.993720 
#    y 0.000000 3.663770 0.000000 
#    z -0.993720 0.000000 2.538860 
# 
# 
# High freq. dielectric constant tensor:
#      x y z
#    x 1.915960 0.000000 0.004780 
#    y 0.000000 1.858420 0.000000 
#    z 0.004780 0.000000 1.902920 
# 
# From -- ./inp_files/5115.got.cif
#   From: 2010.06.25/outbox.cif.g09.slc.cpg/sg15_3_cif.got.tgz:5115.got - 2010.06.28 07:06:18.
