data_PCOD8143670
_publ_section_title
;
Structure prediction by ZEFSAII (Michael W. Deem and Ramdas Pophale) SiO2 
 PCOD8143670
Probable space group: C 2/C
;
_chemical_formula_sum "Si O2"
_cell_formula_units_Z 40
_cell_length_a 5.002345
_cell_length_b 13.271587
_cell_length_c 29.498476
_cell_angle_alpha 90.000000
_cell_angle_beta 93.612966
_cell_angle_gamma 90.000000
_cell_volume 1954.483716
_symmetry_space_group_name_H-M "C 2/C"
_symmetry_group_IT_number 15
_symmetry_cell_setting 'monoclinic'
loop_
_space_group_symop_operation_xyz
x,y,z
-x,y,1/2-z
-x,-y,-z
x,-y,1/2+z
1/2+x,1/2+y,z
1/2-x,1/2+y,1/2-z
1/2-x,1/2-y,-z
1/2+x,1/2-y,1/2+z
loop_
_atom_site_type_symbol
_atom_site_label
_atom_site_fract_x
_atom_site_fract_y
_atom_site_fract_z
Si Si1 0.907088 0.220450 0.340177
Si Si2 0.731326 0.461063 0.718777
Si Si3 0.590429 0.684987 0.700363
Si Si4 0.050559 0.206244 0.055123
Si Si5 0.973202 0.382983 0.989398
O O1 0.672624 0.304258 0.334005
O O2 0.006620 0.212573 0.392421
O O3 0.164135 0.245072 0.312140
O O4 0.768911 0.116344 0.322922
O O5 0.500000 0.429236 0.750000
O O6 0.688143 0.571044 0.697565
O O7 0.000000 0.457427 0.750000
O O8 0.500000 0.716835 0.750000
O O9 0.333734 0.152017 0.049354
O O10 0.829376 0.137784 0.028495
O O11 0.048259 0.319556 0.035183
O O12 0.000000 0.500000 0.000000
#
# Coordination Sequence:
#
# PCOD8143670 Si02
#       5
#     8   8   8   8   8
#     4  12  23  38  61  87 119 151 194 251 291 334
#     4  11  23  38  57  82 113 153 197 235 283 345
#     4  11  23  39  58  83 116 157 195 233 289 345
#     4  10  23  38  59  93 115 147 202 237 287 364
#     4  10  21  41  63  83 120 158 186 238 301 354
#
# _framework density 20.465762000000002
#
# number of rings (size 3 to 8) (size 9 to 14) (size 15 to 20)
#    0.000    1.200    0.000    7.800    0.000    3.200 
#    0.000    0.000    0.000    0.000    0.000    0.000 
#    0.000    0.000    0.000    0.000    0.000    0.000 
#
# Total GULP energy -248099.164715 kJ/mol
# GULP energy per Si atom -12404.958236 kJ/mol
# Density = 2.041918 g / cm^3
# Si number density = 20.465762 Si / 1000 Ang^3
#
#
#
# Elastic Constant Matrix: (Units=GPa)
#
#
# Indices 1 2 3 4 5 6 
#
# 1 120.5666 38.7854 27.8966 0.0000 -0.5863 0.0000
# 2 38.7854 138.1773 64.7557 0.0000 -4.6428 0.0000
# 3 27.8966 64.7557 107.3554 0.0000 -1.3053 0.0000
# 4 0.0000 0.0000 0.0000 15.5664 0.0000 4.5295
# 5 -0.5863 -4.6428 -1.3053 0.0000 27.4449 0.0000
# 6 0.0000 0.0000 0.0000 4.5295 0.0000 30.0003
#
#
#
# Elastic Compliance Matrix: (Units=1/GPa)
#
#
# Indices 1 2 3 4 5 6 
#
# 1 0.009222 -0.002051 -0.001162 0.000000 -0.000205 0.000000
# 2 -0.002051 0.010601 -0.005843 0.000000 0.001472 0.000000
# 3 -0.001162 -0.005843 0.013137 0.000000 -0.000389 0.000000
# 4 0.000000 0.000000 0.000000 0.067193 0.000000 -0.010145
# 5 -0.000205 0.001472 -0.000389 0.000000 0.036663 0.000000
# 6 0.000000 0.000000 0.000000 -0.010145 0.000000 0.034865
#
#
# Mechanical properties :
#
#
# Convention : Reuss Voigt Hill
#
# Bulk Modulus (GPa) = 67.35345 69.88608 68.61977
# Shear Modulus (GPa) = 25.67519 30.24642 27.96080
#
# Velocity S-wave (km/s) = 3.54580 3.84852 3.70026
# Velocity P-wave (km/s) = 7.05304 7.34643 7.20123
#
# Compressibility (1/GPa) = 0.01484705
#
# Stress axis : x y z
#
# Youngs Moduli (GPa) = 108.43938 94.33365 76.12284
#
# Poissons Ratio (x) = 0.19348 0.08843
# Poissons Ratio (y) = 0.22241 0.44481
# Poissons Ratio (z) = 0.12597 0.55123
#
# Static dielectric constant tensor:
#      x y z
#    x 3.882880 0.000000 0.035140 
#    y 0.000000 3.724740 0.000000 
#    z 0.035140 0.000000 3.507020 
# 
# 
# High freq. dielectric constant tensor:
#      x y z
#    x 1.824150 0.000000 0.004500 
#    y 0.000000 1.805760 0.000000 
#    z 0.004500 0.000000 1.784430 
# 
# From -- ./inp_files/285176.got.cif
#   From: 2010.06.25/outbox.cif.g09.slc.cpg/sg15_143_cif.got.tgz:285176.got - 2010.06.28 07:06:18.
