data_PCOD8143685
_publ_section_title
;
Structure prediction by ZEFSAII (Michael W. Deem and Ramdas Pophale) SiO2 
 PCOD8143685
Probable space group: C 2/C
;
_chemical_formula_sum "Si O2"
_cell_formula_units_Z 48
_cell_length_a 21.368264
_cell_length_b 19.268698
_cell_length_c 9.512868
_cell_angle_alpha 90.000000
_cell_angle_beta 141.702444
_cell_angle_gamma 90.000000
_cell_volume 2427.428812
_symmetry_space_group_name_H-M "C 2/C"
_symmetry_group_IT_number 15
_symmetry_cell_setting 'monoclinic'
loop_
_space_group_symop_operation_xyz
x,y,z
-x,y,1/2-z
-x,-y,-z
x,-y,1/2+z
1/2+x,1/2+y,z
1/2-x,1/2+y,1/2-z
1/2-x,1/2-y,-z
1/2+x,1/2-y,1/2+z
loop_
_atom_site_type_symbol
_atom_site_label
_atom_site_fract_x
_atom_site_fract_y
_atom_site_fract_z
Si Si1 0.594721 0.468971 0.249480
Si Si2 0.609527 0.281658 0.691763
Si Si3 0.500000 0.349220 0.250000
Si Si4 0.218312 0.640234 0.874442
Si Si5 0.000000 0.713375 0.750000
Si Si6 0.610135 0.918528 0.435270
Si Si7 0.224147 0.973951 0.212676
O O1 0.569588 0.393976 0.267905
O O2 0.689925 0.466846 0.312893
O O3 0.627734 0.514641 0.441492
O O4 0.500000 0.500000 0.000000
O O5 0.563414 0.299979 0.461459
O O6 0.676904 0.215979 0.771175
O O7 0.528301 0.262364 0.669114
O O8 0.674492 0.348179 0.857274
O O9 0.145300 0.590860 0.836602
O O10 0.229443 0.600369 0.746648
O O11 0.906753 0.661599 0.538234
O O12 0.500000 0.956794 0.250000
O O13 0.694300 0.963586 0.664847
#
# Coordination Sequence:
#
# PCOD8143685 Si02
#       7
#     8   8   4   8   4   8   8
#     4  12  24  41  64  94 128 159 204 263 330 372
#     4  10  22  42  64  86 129 166 212 249 307 377
#     4  12  24  40  60  98 128 152 204 274 302 362
#     4  10  21  41  63  88 123 173 206 246 314 384
#     4   8  20  42  66  90 118 184 206 244 312 386
#     4   9  20  41  63  93 126 165 211 257 312 374
#     4  12  22  41  66  97 121 166 206 263 322 374
#
# _framework density 19.774011000000002
#
# number of rings (size 3 to 8) (size 9 to 14) (size 15 to 20)
#    0.500    1.000    3.333    2.000    2.333    0.667 
#    4.500    0.833    0.000    0.000    0.000    0.000 
#    0.000    0.000    0.000    0.000    0.000    0.000 
#
# Total GULP energy -297402.373460 kJ/mol
# GULP energy per Si atom -12391.765561 kJ/mol
# Density = 1.972900 g / cm^3
# Si number density = 19.774011 Si / 1000 Ang^3
#
#
#
# Elastic Constant Matrix: (Units=GPa)
#
#
# Indices 1 2 3 4 5 6 
#
# 1 99.0288 36.9596 48.5012 0.0000 0.2536 0.0000
# 2 36.9596 81.5335 43.8783 0.0000 -3.2435 0.0000
# 3 48.5012 43.8783 102.1847 0.0000 -5.3614 0.0000
# 4 0.0000 0.0000 0.0000 32.4965 0.0000 -9.4126
# 5 0.2536 -3.2435 -5.3614 0.0000 26.8467 0.0000
# 6 0.0000 0.0000 0.0000 -9.4126 0.0000 28.5006
#
#
#
# Elastic Compliance Matrix: (Units=1/GPa)
#
#
# Indices 1 2 3 4 5 6 
#
# 1 0.013984 -0.003623 -0.005166 0.000000 -0.001601 0.000000
# 2 -0.003623 0.016898 -0.005485 0.000000 0.000980 0.000000
# 3 -0.005166 -0.005485 0.014715 0.000000 0.002325 0.000000
# 4 0.000000 0.000000 0.000000 0.034028 0.000000 0.011238
# 5 -0.001601 0.000980 0.002325 0.000000 0.037846 0.000000
# 6 0.000000 0.000000 0.000000 0.011238 0.000000 0.038798
#
#
# Mechanical properties :
#
#
# Convention : Reuss Voigt Hill
#
# Bulk Modulus (GPa) = 58.65034 60.15836 59.40435
# Shear Modulus (GPa) = 26.24650 27.79592 27.02121
#
# Velocity S-wave (km/s) = 3.64720 3.75331 3.70063
# Velocity P-wave (km/s) = 6.88918 7.01941 6.95460
#
# Compressibility (1/GPa) = 0.01705020
#
# Stress axis : x y z
#
# Youngs Moduli (GPa) = 71.50812 59.17865 67.95558
#
# Poissons Ratio (x) = 0.21439 0.35106
# Poissons Ratio (y) = 0.25906 0.37274
# Poissons Ratio (z) = 0.36941 0.32460
#
# Static dielectric constant tensor:
#      x y z
#    x 4.009680 0.000000 0.182440 
#    y 0.000000 3.587960 0.000000 
#    z 0.182440 0.000000 3.470890 
# 
# 
# High freq. dielectric constant tensor:
#      x y z
#    x 1.784240 0.000000 0.008290 
#    y 0.000000 1.770330 0.000000 
#    z 0.008290 0.000000 1.746190 
# 
# From -- ./inp_files/40315.got.cif
#   From: 2010.06.25/outbox.cif.g09.slc.cpg/sg15_21_cif.got.tgz:40315.got - 2010.06.28 07:06:18.
