data_PCOD8143626
_publ_section_title
;
Structure prediction by ZEFSAII (Michael W. Deem and Ramdas Pophale) SiO2 
 PCOD8143626
Probable space group: C 2/C
;
_chemical_formula_sum "Si O2"
_cell_formula_units_Z 52
_cell_length_a 20.789326
_cell_length_b 10.897585
_cell_length_c 17.555862
_cell_angle_alpha 90.000000
_cell_angle_beta 139.248539
_cell_angle_gamma 90.000000
_cell_volume 2596.324993
_symmetry_space_group_name_H-M "C 2/C"
_symmetry_group_IT_number 15
_symmetry_cell_setting 'monoclinic'
loop_
_space_group_symop_operation_xyz
x,y,z
-x,y,1/2-z
-x,-y,-z
x,-y,1/2+z
1/2+x,1/2+y,z
1/2-x,1/2+y,1/2-z
1/2-x,1/2-y,-z
1/2+x,1/2-y,1/2+z
loop_
_atom_site_type_symbol
_atom_site_label
_atom_site_fract_x
_atom_site_fract_y
_atom_site_fract_z
Si Si1 0.436467 0.002105 0.259080
Si Si2 0.635776 0.760589 0.899305
Si Si3 0.540676 0.157835 0.464193
Si Si4 0.000000 0.954860 0.250000
Si Si5 0.334439 0.824187 0.273468
Si Si6 0.553233 0.580136 0.149566
Si Si7 0.890177 0.150984 0.885634
O O1 0.500000 0.932137 0.250000
O O2 0.398514 0.127776 0.185676
O O3 0.507345 0.030546 0.395129
O O4 0.350386 0.917592 0.216593
O O5 0.604801 0.769532 0.959659
O O6 0.595059 0.632624 0.831444
O O7 0.750000 0.750000 0.000000
O O8 0.606313 0.133238 0.597780
O O9 0.440527 0.233040 0.390172
O O10 0.995316 0.048466 0.314579
O O11 0.371044 0.692269 0.278391
O O12 0.219040 0.813610 0.186228
O O13 0.616120 0.465491 0.175415
O O14 0.457635 0.613343 0.016003
#
# Coordination Sequence:
#
# PCOD8143626 Si02
#       7
#     8   8   8   4   8   8   8
#     4  10  22  42  60  91 129 161 208 268 317 370
#     4  11  23  38  70  95 122 167 215 264 315 375
#     4  10  21  41  61  94 124 163 212 268 309 368
#     4  12  22  46  66  92 130 166 212 270 312 370
#     4  11  25  38  67  91 128 172 208 257 324 393
#     4  10  24  42  63  93 129 168 206 267 321 371
#     4  10  22  43  64  92 127 163 217 259 317 378
#
# _framework density 20.028309
#
# number of rings (size 3 to 8) (size 9 to 14) (size 15 to 20)
#    0.000    1.538    3.846    0.462    9.692    0.000 
#    0.000    0.769    0.000    0.000    0.000    0.000 
#    0.000    0.000    0.000    0.000    0.000    0.000 
#
# Total GULP energy -322297.697790 kJ/mol
# GULP energy per Si atom -12396.065300 kJ/mol
# Density = 1.998272 g / cm^3
# Si number density = 20.028309 Si / 1000 Ang^3
#
#
#
# Elastic Constant Matrix: (Units=GPa)
#
#
# Indices 1 2 3 4 5 6 
#
# 1 159.2068 55.5484 59.8742 0.0000 11.5273 0.0000
# 2 55.5484 54.7406 24.8874 0.0000 -9.0254 0.0000
# 3 59.8742 24.8874 65.9718 0.0000 15.9086 0.0000
# 4 0.0000 0.0000 0.0000 1.0120 0.0000 -2.4716
# 5 11.5273 -9.0254 15.9086 0.0000 42.4510 0.0000
# 6 0.0000 0.0000 0.0000 -2.4716 0.0000 36.6506
#
#
#
# Elastic Compliance Matrix: (Units=1/GPa)
#
#
# Indices 1 2 3 4 5 6 
#
# 1 0.012658 -0.010198 -0.006914 0.000000 -0.003014 0.000000
# 2 -0.010198 0.033530 -0.006354 0.000000 0.012279 0.000000
# 3 -0.006914 -0.006354 0.026058 0.000000 -0.009239 0.000000
# 4 0.000000 0.000000 0.000000 1.182943 0.000000 0.079774
# 5 -0.003014 0.012279 -0.009239 0.000000 0.030448 0.000000
# 6 0.000000 0.000000 0.000000 0.079774 0.000000 0.032664
#
#
# Mechanical properties :
#
#
# Convention : Reuss Voigt Hill
#
# Bulk Modulus (GPa) = 39.50554 62.28215 50.89384
# Shear Modulus (GPa) = 3.63988 25.33000 14.48494
#
# Velocity S-wave (km/s) = 1.34956 3.56013 2.69220
# Velocity P-wave (km/s) = 4.71127 6.93282 5.92706
#
# Compressibility (1/GPa) = 0.02531290
#
# Stress axis : x y z
#
# Youngs Moduli (GPa) = 79.00297 29.82377 38.37642
#
# Poissons Ratio (x) = 0.30415 0.26532
# Poissons Ratio (y) = 0.80570 0.24386
# Poissons Ratio (z) = 0.54620 0.18951
#
# Static dielectric constant tensor:
#      x y z
#    x 3.792770 0.000000 -0.127350 
#    y 0.000000 3.599560 0.000000 
#    z -0.127350 0.000000 3.704520 
# 
# 
# High freq. dielectric constant tensor:
#      x y z
#    x 1.799690 0.000000 -0.008640 
#    y 0.000000 1.774240 0.000000 
#    z -0.008640 0.000000 1.774430 
# 
# From -- ./inp_files/215104.got.cif
#   From: 2010.06.25/outbox.cif.g09.slc.cpg/sg15_108_cif.got.tgz:215104.got - 2010.06.28 07:06:18.
