data_PCOD8143105
_publ_section_title
;
Structure prediction by ZEFSAII (Michael W. Deem and Ramdas Pophale) SiO2 
 PCOD8143105
Probable space group: C 2/C
;
_chemical_formula_sum "Si O2"
_cell_formula_units_Z 48
_cell_length_a 27.198084
_cell_length_b 8.362863
_cell_length_c 20.571132
_cell_angle_alpha 90.000000
_cell_angle_beta 30.372345
_cell_angle_gamma 90.000000
_cell_volume 2365.775287
_symmetry_space_group_name_H-M "C 2/C"
_symmetry_group_IT_number 15
_symmetry_cell_setting 'monoclinic'
loop_
_space_group_symop_operation_xyz
x,y,z
-x,y,1/2-z
-x,-y,-z
x,-y,1/2+z
1/2+x,1/2+y,z
1/2-x,1/2+y,1/2-z
1/2-x,1/2-y,-z
1/2+x,1/2-y,1/2+z
loop_
_atom_site_type_symbol
_atom_site_label
_atom_site_fract_x
_atom_site_fract_y
_atom_site_fract_z
Si Si1 0.983737 0.675972 0.044372
Si Si2 0.306350 0.223916 0.335478
Si Si3 0.771709 0.999736 0.970574
Si Si4 0.647265 0.770810 0.916902
Si Si5 0.811493 0.355609 0.149333
Si Si6 0.609632 0.222845 0.606789
O O1 0.911145 0.676263 0.188255
O O2 0.938936 0.777449 0.035423
O O3 0.000000 0.500000 0.000000
O O4 0.088239 0.739163 0.949203
O O5 0.321712 0.368197 0.368368
O O6 0.233015 0.270950 0.362387
O O7 0.262219 0.071097 0.422129
O O8 0.853312 0.866383 0.889987
O O9 0.677640 0.930472 0.040768
O O10 0.741683 0.665798 0.791384
O O11 0.672472 0.957796 0.881443
O O12 0.613464 0.726319 0.027268
O O13 0.500000 0.176841 0.750000
#
# Coordination Sequence:
#
# PCOD8143105 Si02
#       6
#     8   8   8   8   8   8
#     4   9  21  36  64  93 115 159 205 254 309 370
#     4  10  21  42  64  92 125 160 217 252 313 373
#     4  10  24  41  63  89 126 171 203 263 303 374
#     4  10  22  40  61  92 120 158 208 253 314 367
#     4  10  21  40  62  90 120 160 197 262 313 363
#     4  11  25  41  63  91 127 168 208 253 316 377
#
# _framework density 20.289332000000002
#
# number of rings (size 3 to 8) (size 9 to 14) (size 15 to 20)
#    0.000    2.000    1.667    0.000   11.667    2.667 
#    0.000    5.000    0.000    0.000    0.000    0.000 
#    0.000    0.000    0.000    0.000    0.000    0.000 
#
# Total GULP energy -297629.790857 kJ/mol
# GULP energy per Si atom -12401.241286 kJ/mol
# Density = 2.024315 g / cm^3
# Si number density = 20.289332 Si / 1000 Ang^3
#
#
#
# Elastic Constant Matrix: (Units=GPa)
#
#
# Indices 1 2 3 4 5 6 
#
# 1 91.1562 2.7654 59.0097 -0.0008 2.9319 0.0023
# 2 2.7654 44.2184 16.5907 0.0004 -0.8802 0.0078
# 3 59.0097 16.5907 132.7303 0.0005 1.2380 0.0050
# 4 -0.0008 0.0004 0.0005 26.0085 -0.0007 10.1210
# 5 2.9319 -0.8802 1.2380 -0.0007 42.9345 -0.0012
# 6 0.0023 0.0078 0.0050 10.1210 -0.0012 18.3415
#
#
#
# Elastic Compliance Matrix: (Units=1/GPa)
#
#
# Indices 1 2 3 4 5 6 
#
# 1 0.015553 0.001681 -0.007117 0.000001 -0.000822 -0.000001
# 2 0.001681 0.023924 -0.003742 0.000004 0.000484 -0.000012
# 3 -0.007117 -0.003742 0.011165 0.000000 0.000087 0.000000
# 4 0.000001 0.000004 0.000000 0.048963 0.000000 -0.027018
# 5 -0.000822 0.000484 0.000087 0.000000 0.023355 0.000001
# 6 -0.000001 -0.000012 0.000000 -0.027018 0.000001 0.069430
#
#
# Mechanical properties :
#
#
# Convention : Reuss Voigt Hill
#
# Bulk Modulus (GPa) = 30.97370 47.20403 39.08886
# Shear Modulus (GPa) = 22.57267 30.10620 26.33943
#
# Velocity S-wave (km/s) = 3.33909 3.85625 3.60695
# Velocity P-wave (km/s) = 5.49228 6.56837 6.05428
#
# Compressibility (1/GPa) = 0.03228546
#
# Stress axis : x y z
#
# Youngs Moduli (GPa) = 64.29719 41.79969 89.56467
#
# Poissons Ratio (x) = -0.07028 0.63743
# Poissons Ratio (y) = -0.10810 0.33518
# Poissons Ratio (z) = 0.45760 0.15643
#
# Static dielectric constant tensor:
#      x y z
#    x 4.219020 0.000030 -0.236290 
#    y 0.000030 3.461540 0.000020 
#    z -0.236290 0.000020 3.871040 
# 
# 
# High freq. dielectric constant tensor:
#      x y z
#    x 1.809050 0.000000 0.002520 
#    y 0.000000 1.779300 0.000000 
#    z 0.002520 0.000000 1.794610 
# 
# From -- ./inp_files/180720.got.cif
#   From: 2010.06.25/outbox.cif.g09.slc.cpg/sg15_91_cif.got.tgz:180720.got - 2010.06.28 07:06:18.
