data_PCOD8143848
_publ_section_title
;
Structure prediction by ZEFSAII (Michael W. Deem and Ramdas Pophale) SiO2 
 PCOD8143848
Probable space group: C 2/C
;
_chemical_formula_sum "Si O2"
_cell_formula_units_Z 44
_cell_length_a 5.027170
_cell_length_b 16.603641
_cell_length_c 24.582460
_cell_angle_alpha 90.000000
_cell_angle_beta 114.574748
_cell_angle_gamma 90.000000
_cell_volume 1866.020902
_symmetry_space_group_name_H-M "C 2/C"
_symmetry_group_IT_number 15
_symmetry_cell_setting 'monoclinic'
loop_
_space_group_symop_operation_xyz
x,y,z
-x,y,1/2-z
-x,-y,-z
x,-y,1/2+z
1/2+x,1/2+y,z
1/2-x,1/2+y,1/2-z
1/2-x,1/2-y,-z
1/2+x,1/2-y,1/2+z
loop_
_atom_site_type_symbol
_atom_site_label
_atom_site_fract_x
_atom_site_fract_y
_atom_site_fract_z
Si Si1 0.335996 0.547456 0.144655
Si Si2 0.095457 0.461792 0.315541
Si Si3 0.091566 0.184310 0.700862
Si Si4 0.308397 0.228992 0.924792
Si Si5 0.639009 0.170503 0.048301
Si Si6 0.500000 0.328548 0.750000
O O1 0.604195 0.502224 0.138929
O O2 0.136847 0.586226 0.080303
O O3 0.468054 0.617170 0.193924
O O4 0.151849 0.479530 0.161009
O O5 0.159362 0.366666 0.310272
O O6 0.000000 0.501929 0.250000
O O7 0.212486 0.272391 0.726819
O O8 0.000000 0.139872 0.750000
O O9 0.795628 0.189791 0.640276
O O10 0.526108 0.303190 0.932402
O O11 0.018799 0.260252 0.930329
O O12 0.471984 0.161942 0.976164
#
# Coordination Sequence:
#
# PCOD8143848 Si02
#       6
#     8   8   8   8   8   4
#     4  12  24  41  65  95 128 172 218 269 322 390
#     4  12  25  43  59  91 141 174 205 262 343 389
#     4  12  26  42  65 100 133 176 213 277 329 401
#     4  10  22  40  67  95 133 164 220 273 335 371
#     4  10  21  41  65  98 127 170 216 281 320 383
#     4  12  24  36  70  96 128 158 234 270 314 390
#
# _framework density 23.579587
#
# number of rings (size 3 to 8) (size 9 to 14) (size 15 to 20)
#    0.000    0.727    4.545    3.273    2.545    0.000 
#    0.000    1.818    0.000    0.000    0.000    0.000 
#    0.000    0.000    0.000    0.000    0.000    0.000 
#
# Total GULP energy -272829.147566 kJ/mol
# GULP energy per Si atom -12401.324889 kJ/mol
# Density = 2.352592 g / cm^3
# Si number density = 23.579587 Si / 1000 Ang^3
#
#
#
# Elastic Constant Matrix: (Units=GPa)
#
#
# Indices 1 2 3 4 5 6 
#
# 1 81.1933 19.8386 30.6326 0.0000 10.6316 0.0000
# 2 19.8386 81.0271 27.5815 0.0000 5.6375 0.0000
# 3 30.6326 27.5815 156.9474 0.0000 12.1040 0.0000
# 4 0.0000 0.0000 0.0000 19.0667 0.0000 -3.5740
# 5 10.6316 5.6375 12.1040 0.0000 30.4798 0.0000
# 6 0.0000 0.0000 0.0000 -3.5740 0.0000 29.0084
#
#
#
# Elastic Compliance Matrix: (Units=1/GPa)
#
#
# Indices 1 2 3 4 5 6 
#
# 1 0.014184 -0.002522 -0.002042 0.000000 -0.003670 0.000000
# 2 -0.002522 0.013648 -0.001835 0.000000 -0.000916 0.000000
# 3 -0.002042 -0.001835 0.007233 0.000000 -0.001821 0.000000
# 4 0.000000 0.000000 0.000000 0.053687 0.000000 0.006615
# 5 -0.003670 -0.000916 -0.001821 0.000000 0.034981 0.000000
# 6 0.000000 0.000000 0.000000 0.006615 0.000000 0.035288
#
#
# Mechanical properties :
#
#
# Convention : Reuss Voigt Hill
#
# Bulk Modulus (GPa) = 44.91419 52.80814 48.86116
# Shear Modulus (GPa) = 27.89536 31.78533 29.84035
#
# Velocity S-wave (km/s) = 3.44325 3.67550 3.56127
# Velocity P-wave (km/s) = 5.90739 6.36056 6.13816
#
# Compressibility (1/GPa) = 0.02226468
#
# Stress axis : x y z
#
# Youngs Moduli (GPa) = 70.50431 73.27298 138.25353
#
# Poissons Ratio (x) = 0.18481 0.28232
# Poissons Ratio (y) = 0.17783 0.25376
# Poissons Ratio (z) = 0.14397 0.13449
#
# Static dielectric constant tensor:
#      x y z
#    x 4.162250 0.000000 0.170970 
#    y 0.000000 3.915050 0.000000 
#    z 0.170970 0.000000 4.522840 
# 
# 
# High freq. dielectric constant tensor:
#      x y z
#    x 1.942950 0.000000 0.013550 
#    y 0.000000 1.908860 0.000000 
#    z 0.013550 0.000000 1.933560 
# 
# From -- ./inp_files/285631.got.cif
#   From: 2010.06.25/outbox.cif.g09.slc.cpg/sg15_143_cif.got.tgz:285631.got - 2010.06.28 07:06:18.
