data_PCOD8143576
_publ_section_title
;
Structure prediction by ZEFSAII (Michael W. Deem and Ramdas Pophale) SiO2 
 PCOD8143576
Probable space group: C 2/C
;
_chemical_formula_sum "Si O2"
_cell_formula_units_Z 48
_cell_length_a 11.954591
_cell_length_b 21.605968
_cell_length_c 10.683794
_cell_angle_alpha 90.000000
_cell_angle_beta 51.273100
_cell_angle_gamma 90.000000
_cell_volume 2152.805065
_symmetry_space_group_name_H-M "C 2/C"
_symmetry_group_IT_number 15
_symmetry_cell_setting 'monoclinic'
loop_
_space_group_symop_operation_xyz
x,y,z
-x,y,1/2-z
-x,-y,-z
x,-y,1/2+z
1/2+x,1/2+y,z
1/2-x,1/2+y,1/2-z
1/2-x,1/2-y,-z
1/2+x,1/2-y,1/2+z
loop_
_atom_site_type_symbol
_atom_site_label
_atom_site_fract_x
_atom_site_fract_y
_atom_site_fract_z
Si Si1 0.505042 0.657671 0.602565
Si Si2 0.341197 0.007289 0.057603
Si Si3 0.991928 0.286496 0.512264
Si Si4 0.000000 0.566632 0.750000
Si Si5 0.219108 0.132358 0.240033
Si Si6 0.294956 0.881542 0.194236
Si Si7 0.000000 0.785498 0.750000
O O1 0.500000 0.634445 0.750000
O O2 0.504852 0.731597 0.602359
O O3 0.639363 0.631524 0.430362
O O4 0.358345 0.634303 0.637349
O O5 0.245365 0.060620 0.187838
O O6 0.266017 0.941069 0.125856
O O7 0.368541 0.024784 0.893681
O O8 0.500000 0.000000 0.000000
O O9 0.870121 0.333272 0.643562
O O10 0.961120 0.258194 0.395136
O O11 0.145418 0.321420 0.419742
O O12 0.075000 0.609687 0.799118
O O13 0.129780 0.168812 0.196718
#
# Coordination Sequence:
#
# PCOD8143576 Si02
#       7
#     8   8   8   4   8   8   4
#     4  11  27  45  60  97 139 184 224 276 342 403
#     4  10  22  42  66  98 127 174 222 274 334 409
#     4  11  22  41  70  96 136 180 227 281 333 408
#     4  10  21  40  74  98 128 167 228 286 340 394
#     4  11  23  40  68 100 137 173 230 276 347 403
#     4  11  24  44  67  98 135 178 228 281 340 401
#     4  10  23  36  66 110 140 169 218 292 358 390
#
# _framework density 22.296492000000001
#
# number of rings (size 3 to 8) (size 9 to 14) (size 15 to 20)
#    0.000    1.333    3.333    3.000    4.667    6.000 
#    3.000    0.000    0.000    0.000    0.000    0.000 
#    0.000    0.000    0.000    0.000    0.000    0.000 
#
# Total GULP energy -297425.131724 kJ/mol
# GULP energy per Si atom -12392.713822 kJ/mol
# Density = 2.224574 g / cm^3
# Si number density = 22.296492 Si / 1000 Ang^3
#
#
#
# Elastic Constant Matrix: (Units=GPa)
#
#
# Indices 1 2 3 4 5 6 
#
# 1 43.3497 21.3563 34.7839 0.0000 -3.4812 0.0000
# 2 21.3563 144.8176 59.2342 0.0000 -7.6959 0.0000
# 3 34.7839 59.2342 159.4315 0.0000 -5.3886 0.0000
# 4 0.0000 0.0000 0.0000 25.6039 0.0000 -3.3763
# 5 -3.4812 -7.6959 -5.3886 0.0000 33.2989 0.0000
# 6 0.0000 0.0000 0.0000 -3.3763 0.0000 16.7129
#
#
#
# Elastic Compliance Matrix: (Units=1/GPa)
#
#
# Indices 1 2 3 4 5 6 
#
# 1 0.028514 -0.001881 -0.005466 0.000000 0.001662 0.000000
# 2 -0.001881 0.008332 -0.002641 0.000000 0.001302 0.000000
# 3 -0.005466 -0.002641 0.008452 0.000000 0.000186 0.000000
# 4 0.000000 0.000000 0.000000 0.040126 0.000000 0.008106
# 5 0.001662 0.001302 0.000186 0.000000 0.030536 0.000000
# 6 0.000000 0.000000 0.000000 0.008106 0.000000 0.061472
#
#
# Mechanical properties :
#
#
# Convention : Reuss Voigt Hill
#
# Bulk Modulus (GPa) = 39.49095 64.26085 51.87590
# Shear Modulus (GPa) = 24.28961 30.60476 27.44719
#
# Velocity S-wave (km/s) = 3.30417 3.70892 3.51238
# Velocity P-wave (km/s) = 5.68392 6.87205 6.30603
#
# Compressibility (1/GPa) = 0.02532226
#
# Stress axis : x y z
#
# Youngs Moduli (GPa) = 35.07007 120.01701 118.30851
#
# Poissons Ratio (x) = 0.22574 0.64669
# Poissons Ratio (y) = 0.06596 0.31249
# Poissons Ratio (z) = 0.19170 0.31700
#
# Static dielectric constant tensor:
#      x y z
#    x 3.785190 0.000000 0.305000 
#    y 0.000000 4.642170 0.000000 
#    z 0.305000 0.000000 6.284250 
# 
# 
# High freq. dielectric constant tensor:
#      x y z
#    x 1.851300 0.000000 -0.011000 
#    y 0.000000 1.891540 0.000000 
#    z -0.011000 0.000000 1.887650 
# 
# From -- ./inp_files/89453.got.cif
#   From: 2010.06.25/outbox.cif.g09.slc.cpg/sg15_45_cif.got.tgz:89453.got - 2010.06.28 07:06:18.
