data_PCOD8143479
_publ_section_title
;
Structure prediction by ZEFSAII (Michael W. Deem and Ramdas Pophale) SiO2 
 PCOD8143479
Probable space group: C 2/C
;
_chemical_formula_sum "Si O2"
_cell_formula_units_Z 36
_cell_length_a 16.168949
_cell_length_b 9.245949
_cell_length_c 27.226701
_cell_angle_alpha 90.000000
_cell_angle_beta 24.932002
_cell_angle_gamma 90.000000
_cell_volume 1715.811356
_symmetry_space_group_name_H-M "C 2/C"
_symmetry_group_IT_number 15
_symmetry_cell_setting 'monoclinic'
loop_
_space_group_symop_operation_xyz
x,y,z
-x,y,1/2-z
-x,-y,-z
x,-y,1/2+z
1/2+x,1/2+y,z
1/2-x,1/2+y,1/2-z
1/2-x,1/2-y,-z
1/2+x,1/2-y,1/2+z
loop_
_atom_site_type_symbol
_atom_site_label
_atom_site_fract_x
_atom_site_fract_y
_atom_site_fract_z
Si Si1 0.421986 0.578569 0.373005
Si Si2 0.000000 0.389265 0.750000
Si Si3 0.936225 0.596342 0.870854
Si Si4 0.712320 0.135938 0.917317
Si Si5 0.647500 0.002832 0.848952
O O1 0.276194 0.540743 0.496377
O O2 0.404255 0.744818 0.365092
O O3 0.371972 0.477578 0.353180
O O4 0.639157 0.558364 0.276894
O O5 0.033497 0.489786 0.779078
O O6 0.807581 0.294411 0.865655
O O7 0.081912 0.603180 0.839030
O O8 0.652612 0.102130 0.894037
O O9 0.512171 0.127296 0.057461
#
# Coordination Sequence:
#
# PCOD8143479 Si02
#       5
#     8   4   8   8   8
#     4  10  21  45  65  87 128 173 201 258 315 383
#     4  12  24  42  58 102 130 160 208 278 298 372
#     4  10  26  39  65  94 127 161 217 255 315 364
#     4  10  22  40  67  90 126 161 210 253 322 368
#     4  10  21  40  68  90 117 171 209 249 308 384
#
# _framework density 20.981327
#
# number of rings (size 3 to 8) (size 9 to 14) (size 15 to 20)
#    0.000    1.778    2.222    0.000    6.222    5.333 
#    0.000    2.222    0.000    0.000    0.000    0.000 
#    0.000    0.000    0.000    0.000    0.000    0.000 
#
# Total GULP energy -223154.975348 kJ/mol
# GULP energy per Si atom -12397.498630 kJ/mol
# Density = 2.093357 g / cm^3
# Si number density = 20.981327 Si / 1000 Ang^3
#
#
#
# Elastic Constant Matrix: (Units=GPa)
#
#
# Indices 1 2 3 4 5 6 
#
# 1 108.5045 52.1702 49.7000 -0.0006 1.9800 0.0004
# 2 52.1702 102.5707 36.4379 -0.0002 11.0321 -0.0003
# 3 49.7000 36.4379 119.3013 -0.0124 -25.5813 -0.0018
# 4 -0.0006 -0.0002 -0.0124 33.4846 -0.0027 7.5158
# 5 1.9800 11.0321 -25.5813 -0.0027 32.3501 -0.0003
# 6 0.0004 -0.0003 -0.0018 7.5158 -0.0003 23.0382
#
#
#
# Elastic Compliance Matrix: (Units=1/GPa)
#
#
# Indices 1 2 3 4 5 6 
#
# 1 0.013939 -0.005012 -0.004928 -0.000002 -0.003041 0.000000
# 2 -0.005012 0.014586 -0.004056 -0.000002 -0.007874 0.000001
# 3 -0.004928 -0.004056 0.014492 0.000007 0.013145 -0.000001
# 4 -0.000002 -0.000002 0.000007 0.032224 0.000009 -0.010513
# 5 -0.003041 -0.007874 0.013145 0.000009 0.044178 -0.000001
# 6 0.000000 0.000001 -0.000001 -0.010513 -0.000001 0.046836
#
#
# Mechanical properties :
#
#
# Convention : Reuss Voigt Hill
#
# Bulk Modulus (GPa) = 66.55012 67.44363 66.99688
# Shear Modulus (GPa) = 25.09351 30.57913 27.83632
#
# Velocity S-wave (km/s) = 3.46206 3.82179 3.64637
# Velocity P-wave (km/s) = 6.91150 7.18952 7.05188
#
# Compressibility (1/GPa) = 0.01502627
#
# Stress axis : x y z
#
# Youngs Moduli (GPa) = 71.74254 68.55788 69.00166
#
# Poissons Ratio (x) = 0.34360 0.34004
# Poissons Ratio (y) = 0.35956 0.27984
# Poissons Ratio (z) = 0.35355 0.27804
#
# Static dielectric constant tensor:
#      x y z
#    x 3.652880 0.000000 -0.098040 
#    y 0.000000 3.559560 0.000010 
#    z -0.098040 0.000010 4.098270 
# 
# 
# High freq. dielectric constant tensor:
#      x y z
#    x 1.817570 0.000000 -0.002280 
#    y 0.000000 1.799710 0.000000 
#    z -0.002280 0.000000 1.837680 
# 
# From -- ./inp_files/158642.got.cif
#   From: 2010.06.25/outbox.cif.g09.slc.cpg/sg15_80_cif.got.tgz:158642.got - 2010.06.28 07:06:18.
