data_PCOD8143549
_publ_section_title
;
Structure prediction by ZEFSAII (Michael W. Deem and Ramdas Pophale) SiO2 
 PCOD8143549
Probable space group: C 2/C
;
_chemical_formula_sum "Si O2"
_cell_formula_units_Z 60
_cell_length_a 11.811337
_cell_length_b 32.422625
_cell_length_c 18.604239
_cell_angle_alpha 90.000000
_cell_angle_beta 25.228613
_cell_angle_gamma 90.000000
_cell_volume 3036.716716
_symmetry_space_group_name_H-M "C 2/C"
_symmetry_group_IT_number 15
_symmetry_cell_setting 'monoclinic'
loop_
_space_group_symop_operation_xyz
x,y,z
-x,y,1/2-z
-x,-y,-z
x,-y,1/2+z
1/2+x,1/2+y,z
1/2-x,1/2+y,1/2-z
1/2-x,1/2-y,-z
1/2+x,1/2-y,1/2+z
loop_
_atom_site_type_symbol
_atom_site_label
_atom_site_fract_x
_atom_site_fract_y
_atom_site_fract_z
Si Si1 0.523808 0.665381 0.100986
Si Si2 0.948159 0.570693 0.863153
Si Si3 0.000000 0.296179 0.250000
Si Si4 0.654151 0.582305 0.283923
Si Si5 0.310192 0.754488 0.687620
Si Si6 0.761697 0.699744 0.636959
Si Si7 0.853496 0.371030 0.533600
Si Si8 0.795285 0.489256 0.803081
O O1 0.371726 0.625428 0.155522
O O2 0.337097 0.704546 0.201503
O O3 0.794416 0.673210 0.904418
O O4 0.595887 0.650631 0.141756
O O5 0.033523 0.608011 0.867326
O O6 0.000000 0.582091 0.750000
O O7 0.107228 0.529937 0.794760
O O8 0.637677 0.562740 0.057880
O O9 0.132242 0.265284 0.228979
O O10 0.820618 0.549432 0.234469
O O11 0.782093 0.593270 0.132694
O O12 0.338483 0.721111 0.733318
O O13 0.602499 0.765427 0.490945
O O14 0.500000 0.681026 0.750000
O O15 0.975730 0.664122 0.526183
O O16 0.000000 0.480234 0.750000
O O17 0.500000 0.500000 0.000000
#
# Coordination Sequence:
#
# PCOD8143549 Si02
#       8
#     8   8   4   8   8   8   8   8
#     4  11  22  37  65  97 130 160 218 277 339 374
#     4  10  21  40  70  97 128 166 217 267 335 391
#     4  12  22  34  70 104 120 164 226 288 326 388
#     4  11  23  40  66  98 130 170 207 273 339 390
#     4  12  23  42  65  94 126 171 225 277 327 389
#     4  12  26  45  60  88 137 186 223 265 329 402
#     4  11  24  41  64  97 134 166 213 282 333 387
#     4  11  22  45  69  99 130 174 220 272 326 405
#
# _framework density 19.758182000000001
#
# number of rings (size 3 to 8) (size 9 to 14) (size 15 to 20)
#    0.000    0.800    6.667    3.200    3.733    0.533 
#    2.400    0.667    0.000    0.000    0.000    0.000 
#    0.000    0.000    0.000    0.000    0.000    0.000 
#
# Total GULP energy -371777.194632 kJ/mol
# GULP energy per Si atom -12392.573154 kJ/mol
# Density = 1.971321 g / cm^3
# Si number density = 19.758182 Si / 1000 Ang^3
#
#
#
# Elastic Constant Matrix: (Units=GPa)
#
#
# Indices 1 2 3 4 5 6 
#
# 1 78.3535 22.5958 24.0662 0.0007 -7.1625 -0.0009
# 2 22.5958 88.9320 7.6544 -0.0004 9.3507 -0.0001
# 3 24.0662 7.6544 85.7268 0.0047 9.5561 -0.0098
# 4 0.0007 -0.0004 0.0047 42.9330 -0.0005 1.1973
# 5 -7.1625 9.3507 9.5561 -0.0005 26.8011 0.0056
# 6 -0.0009 -0.0001 -0.0098 1.1973 0.0056 35.9453
#
#
#
# Elastic Compliance Matrix: (Units=1/GPa)
#
#
# Indices 1 2 3 4 5 6 
#
# 1 0.016324 -0.004528 -0.005041 0.000000 0.007740 -0.000002
# 2 -0.004528 0.012959 0.000784 0.000000 -0.006011 0.000001
# 3 -0.005041 0.000784 0.013737 -0.000002 -0.006519 0.000005
# 4 0.000000 0.000000 -0.000002 0.023314 0.000001 -0.000777
# 5 0.007740 -0.006011 -0.006519 0.000001 0.043802 -0.000008
# 6 -0.000002 0.000001 0.000005 -0.000777 -0.000008 0.027846
#
#
# Mechanical properties :
#
#
# Convention : Reuss Voigt Hill
#
# Bulk Modulus (GPa) = 39.29132 40.18277 39.73704
# Shear Modulus (GPa) = 30.48122 34.38227 32.43175
#
# Velocity S-wave (km/s) = 3.93200 4.17604 4.05586
# Velocity P-wave (km/s) = 6.36737 6.60559 6.48758
#
# Compressibility (1/GPa) = 0.02545091
#
# Stress axis : x y z
#
# Youngs Moduli (GPa) = 61.25856 77.16376 72.79682
#
# Poissons Ratio (x) = 0.34936 0.36699
# Poissons Ratio (y) = 0.27735 -0.05707
# Poissons Ratio (z) = 0.30882 -0.06049
#
# Static dielectric constant tensor:
#      x y z
#    x 3.440110 0.000010 0.319650 
#    y 0.000010 3.816600 -0.000010 
#    z 0.319650 -0.000010 3.813080 
# 
# 
# High freq. dielectric constant tensor:
#      x y z
#    x 1.746260 0.000000 0.014390 
#    y 0.000000 1.779010 0.000000 
#    z 0.014390 0.000000 1.780970 
# 
# From -- ./inp_files/201399.got.cif
#   From: 2010.06.25/outbox.cif.g09.slc.cpg/sg15_101_cif.got.tgz:201399.got - 2010.06.28 07:06:18.
