data_PCOD8143911
_publ_section_title
;
Structure prediction by ZEFSAII (Michael W. Deem and Ramdas Pophale) SiO2 
 PCOD8143911
Probable space group: C 2/C
;
_chemical_formula_sum "Si O2"
_cell_formula_units_Z 60
_cell_length_a 19.332222
_cell_length_b 24.080732
_cell_length_c 7.756330
_cell_angle_alpha 90.000000
_cell_angle_beta 137.775994
_cell_angle_gamma 90.000000
_cell_volume 2426.593269
_symmetry_space_group_name_H-M "C 2/C"
_symmetry_group_IT_number 15
_symmetry_cell_setting 'monoclinic'
loop_
_space_group_symop_operation_xyz
x,y,z
-x,y,1/2-z
-x,-y,-z
x,-y,1/2+z
1/2+x,1/2+y,z
1/2-x,1/2+y,1/2-z
1/2-x,1/2-y,-z
1/2+x,1/2-y,1/2+z
loop_
_atom_site_type_symbol
_atom_site_label
_atom_site_fract_x
_atom_site_fract_y
_atom_site_fract_z
Si Si1 0.956178 0.163923 0.933204
Si Si2 0.267376 0.715421 0.702590
Si Si3 0.839181 0.814791 0.862819
Si Si4 0.712751 0.482369 0.088627
Si Si5 0.984005 0.565345 0.955159
Si Si6 0.342072 0.901707 0.511926
Si Si7 0.794959 0.580589 0.411669
Si Si8 0.500000 0.436299 0.750000
O O1 0.889991 0.201093 0.949121
O O2 0.888604 0.165848 0.634710
O O3 0.967020 0.101869 0.026757
O O4 0.070759 0.187624 0.113888
O O5 0.250000 0.750000 0.500000
O O6 0.217757 0.755112 0.756101
O O7 0.204273 0.659057 0.581200
O O8 0.750042 0.858233 0.653897
O O9 0.753406 0.448300 0.332249
O O10 0.751002 0.546564 0.166866
O O11 0.757338 0.454528 0.003752
O O12 0.589714 0.478171 0.859366
O O13 0.918589 0.588973 0.993753
O O14 0.921232 0.580082 0.660460
O O15 0.000000 0.500000 0.000000
O O16 0.097489 0.593460 0.190534
#
# Coordination Sequence:
#
# PCOD8143911 Si02
#       8
#     8   8   8   8   8   8   8   4
#     4  10  22  42  69  96 144 179 230 296 356 421
#     4  10  22  43  74 102 139 195 237 301 362 432
#     4  10  23  45  70 103 143 187 245 292 359 433
#     4  11  24  39  66  97 140 181 235 286 365 424
#     4  10  21  41  67  97 134 183 238 294 362 432
#     4  10  21  41  66  97 136 185 231 289 365 424
#     4  11  24  42  67 103 138 189 231 302 356 432
#     4  12  22  40  64 102 130 186 232 280 358 430
#
# _framework density 24.726025
#
# number of rings (size 3 to 8) (size 9 to 14) (size 15 to 20)
#    0.000    1.600    4.000    0.000    1.867    5.867 
#    0.000    8.667    0.000    0.000    0.000    0.000 
#    0.000    0.000    0.000    0.000    0.000    0.000 
#
# Total GULP energy -371778.885211 kJ/mol
# GULP energy per Si atom -12392.629507 kJ/mol
# Density = 2.466975 g / cm^3
# Si number density = 24.726025 Si / 1000 Ang^3
#
#
#
# Elastic Constant Matrix: (Units=GPa)
#
#
# Indices 1 2 3 4 5 6 
#
# 1 61.5159 28.8348 22.6506 0.0000 40.6820 0.0000
# 2 28.8348 148.1300 27.1610 0.0000 44.7126 0.0000
# 3 22.6506 27.1610 81.2333 0.0000 36.7579 0.0000
# 4 0.0000 0.0000 0.0000 20.0480 0.0000 1.8501
# 5 40.6820 44.7126 36.7579 0.0000 56.8040 0.0000
# 6 0.0000 0.0000 0.0000 1.8501 0.0000 28.7821
#
#
#
# Elastic Compliance Matrix: (Units=1/GPa)
#
#
# Indices 1 2 3 4 5 6 
#
# 1 0.031203 0.000912 0.002024 0.000000 -0.024375 0.000000
# 2 0.000912 0.008886 0.000333 0.000000 -0.007863 0.000000
# 3 0.002024 0.000333 0.017547 0.000000 -0.013066 0.000000
# 4 0.000000 0.000000 0.000000 0.050178 0.000000 -0.003225
# 5 -0.024375 -0.007863 -0.013066 0.000000 0.049706 0.000000
# 6 0.000000 0.000000 0.000000 -0.003225 0.000000 0.034951
#
#
# Mechanical properties :
#
#
# Convention : Reuss Voigt Hill
#
# Bulk Modulus (GPa) = 15.58273 49.79689 32.68981
# Shear Modulus (GPa) = 24.11698 35.27568 29.69633
#
# Velocity S-wave (km/s) = 3.12648 3.78122 3.46933
# Velocity P-wave (km/s) = 4.39875 6.26471 5.41275
#
# Compressibility (1/GPa) = 0.06417359
#
# Stress axis : x y z
#
# Youngs Moduli (GPa) = 32.04852 112.54134 56.98973
#
# Poissons Ratio (x) = -0.10269 -0.11535
# Poissons Ratio (y) = -0.02924 -0.01895
# Poissons Ratio (z) = -0.06487 -0.03742
#
# Static dielectric constant tensor:
#      x y z
#    x 7.577090 0.000000 2.198900 
#    y 0.000000 4.050570 0.000000 
#    z 2.198900 0.000000 7.529080 
# 
# 
# High freq. dielectric constant tensor:
#      x y z
#    x 2.011430 0.000000 0.008030 
#    y 0.000000 1.961720 0.000000 
#    z 0.008030 0.000000 1.998110 
# 
# From -- ./inp_files/58774.got.cif
#   From: 2010.06.25/outbox.cif.g09.slc.cpg/sg15_30_cif.got.tgz:58774.got - 2010.06.28 07:06:18.
