data_PCOD8143026
_publ_section_title
;
Structure prediction by ZEFSAII (Michael W. Deem and Ramdas Pophale) SiO2 
 PCOD8143026
Probable space group: C 2/C
;
_chemical_formula_sum "Si O2"
_cell_formula_units_Z 40
_cell_length_a 17.846399
_cell_length_b 12.935019
_cell_length_c 11.911814
_cell_angle_alpha 90.000000
_cell_angle_beta 132.754154
_cell_angle_gamma 90.000000
_cell_volume 2019.078971
_symmetry_space_group_name_H-M "C 2/C"
_symmetry_group_IT_number 15
_symmetry_cell_setting 'monoclinic'
loop_
_space_group_symop_operation_xyz
x,y,z
-x,y,1/2-z
-x,-y,-z
x,-y,1/2+z
1/2+x,1/2+y,z
1/2-x,1/2+y,1/2-z
1/2-x,1/2-y,-z
1/2+x,1/2-y,1/2+z
loop_
_atom_site_type_symbol
_atom_site_label
_atom_site_fract_x
_atom_site_fract_y
_atom_site_fract_z
Si Si1 0.002780 0.870334 0.121435
Si Si2 0.456369 0.159428 0.458517
Si Si3 0.144677 0.460281 0.235543
Si Si4 0.161980 0.026986 0.187265
Si Si5 0.297793 0.151461 0.488411
O O1 0.038650 0.764543 0.103328
O O2 0.083216 0.958297 0.174852
O O3 0.000000 0.852980 0.250000
O O4 0.892137 0.905700 0.964767
O O5 0.570178 0.123361 0.604073
O O6 0.394073 0.180781 0.509289
O O7 0.401675 0.075083 0.323310
O O8 0.252121 0.453951 0.280027
O O9 0.162245 0.434360 0.383484
O O10 0.207733 0.106012 0.322705
O O11 0.250000 0.250000 0.500000
#
# Coordination Sequence:
#
# PCOD8143026 Si02
#       5
#     8   8   8   8   8
#     4  11  23  40  60  85 118 155 192 245 299 343
#     4  10  23  38  60  91 119 152 199 239 288 357
#     4  10  21  40  60  85 120 156 194 243 289 342
#     4  10  23  40  59  87 117 152 202 240 285 357
#     4  11  21  38  64  90 118 156 193 240 295 344
#
# _framework density 19.811012000000002
#
# number of rings (size 3 to 8) (size 9 to 14) (size 15 to 20)
#    0.000    1.600    0.000    4.200    0.000    8.000 
#    0.000    6.000    0.000    0.000    0.000    0.000 
#    0.000    0.000    0.000    0.000    0.000    0.000 
#
# Total GULP energy -248101.347636 kJ/mol
# GULP energy per Si atom -12405.067382 kJ/mol
# Density = 1.976592 g / cm^3
# Si number density = 19.811012 Si / 1000 Ang^3
#
#
#
# Elastic Constant Matrix: (Units=GPa)
#
#
# Indices 1 2 3 4 5 6 
#
# 1 132.1979 61.0912 80.6021 0.0000 -14.3680 0.0000
# 2 61.0912 86.6848 40.1183 0.0000 -13.1681 0.0000
# 3 80.6021 40.1183 131.5235 0.0000 -7.3786 0.0000
# 4 0.0000 0.0000 0.0000 27.9067 0.0000 -7.0403
# 5 -14.3680 -13.1681 -7.3786 0.0000 36.1276 0.0000
# 6 0.0000 0.0000 0.0000 -7.0403 0.0000 37.5931
#
#
#
# Elastic Compliance Matrix: (Units=1/GPa)
#
#
# Indices 1 2 3 4 5 6 
#
# 1 0.015550 -0.007324 -0.007180 0.000000 0.002048 0.000000
# 2 -0.007324 0.017513 -0.000666 0.000000 0.003334 0.000000
# 3 -0.007180 -0.000666 0.012172 0.000000 -0.000612 0.000000
# 4 0.000000 0.000000 0.000000 0.037611 0.000000 0.007044
# 5 0.002048 0.003334 -0.000612 0.000000 0.029584 0.000000
# 6 0.000000 0.000000 0.000000 0.007044 0.000000 0.027920
#
#
# Mechanical properties :
#
#
# Convention : Reuss Voigt Hill
#
# Bulk Modulus (GPa) = 67.14573 79.33662 73.24118
# Shear Modulus (GPa) = 28.46476 31.56510 30.01493
#
# Velocity S-wave (km/s) = 3.79465 3.99596 3.89660
# Velocity P-wave (km/s) = 7.29149 7.83734 7.56934
#
# Compressibility (1/GPa) = 0.01489298
#
# Stress axis : x y z
#
# Youngs Moduli (GPa) = 64.31004 57.10121 82.15317
#
# Poissons Ratio (x) = 0.41824 0.58989
# Poissons Ratio (y) = 0.47104 0.05473
# Poissons Ratio (z) = 0.46177 0.03804
#
# Static dielectric constant tensor:
#      x y z
#    x 3.702490 0.000000 0.092600 
#    y 0.000000 3.540590 0.000000 
#    z 0.092600 0.000000 3.877150 
# 
# 
# High freq. dielectric constant tensor:
#      x y z
#    x 1.781620 0.000000 0.006710 
#    y 0.000000 1.776090 0.000000 
#    z 0.006710 0.000000 1.788610 
# 
# From -- ./inp_files/96012.got.cif
#   From: 2010.06.25/outbox.cif.g09.slc.cpg/sg15_49_cif.got.tgz:96012.got - 2010.06.28 07:06:18.
