data_PCOD8143822
_publ_section_title
;
Structure prediction by ZEFSAII (Michael W. Deem and Ramdas Pophale) SiO2 
 PCOD8143822
Probable space group: C 2/C
;
_chemical_formula_sum "Si O2"
_cell_formula_units_Z 48
_cell_length_a 9.144566
_cell_length_b 16.401577
_cell_length_c 34.227907
_cell_angle_alpha 90.000000
_cell_angle_beta 150.916860
_cell_angle_gamma 90.000000
_cell_volume 2495.371610
_symmetry_space_group_name_H-M "C 2/C"
_symmetry_group_IT_number 15
_symmetry_cell_setting 'monoclinic'
loop_
_space_group_symop_operation_xyz
x,y,z
-x,y,1/2-z
-x,-y,-z
x,-y,1/2+z
1/2+x,1/2+y,z
1/2-x,1/2+y,1/2-z
1/2-x,1/2-y,-z
1/2+x,1/2-y,1/2+z
loop_
_atom_site_type_symbol
_atom_site_label
_atom_site_fract_x
_atom_site_fract_y
_atom_site_fract_z
Si Si1 0.553480 0.006051 0.073268
Si Si2 0.188460 0.772871 0.941652
Si Si3 0.347693 0.115949 0.832723
Si Si4 0.162452 0.585373 0.826509
Si Si5 0.543270 0.557281 0.399217
Si Si6 0.715801 0.166546 0.512794
O O1 0.862558 0.020440 0.121254
O O2 0.413093 0.096816 0.046665
O O3 0.611778 0.959309 0.127565
O O4 0.322635 0.953135 0.994095
O O5 0.951711 0.847022 0.879637
O O6 0.494405 0.813493 0.996706
O O7 0.062236 0.692567 0.891598
O O8 0.250000 0.750000 0.000000
O O9 0.444897 0.088732 0.812629
O O10 0.000000 0.142825 0.750000
O O11 0.248283 0.490225 0.843885
O O12 0.000000 0.617368 0.750000
O O13 0.460449 0.639634 0.896841
O O14 0.750000 0.250000 0.500000
#
# Coordination Sequence:
#
# PCOD8143822 Si02
#       6
#     8   8   8   8   8   8
#     4   9  19  37  62  89 119 157 203 249 300 374
#     4  11  22  38  65  95 124 162 209 259 304 373
#     4  12  25  39  61  94 127 163 210 262 315 370
#     4  11  24  40  64  87 126 166 207 261 319 367
#     4   9  19  38  64  85 118 161 200 246 307 368
#     4  10  21  41  65  93 123 163 211 254 311 374
#
# _framework density 19.235612
#
# number of rings (size 3 to 8) (size 9 to 14) (size 15 to 20)
#    0.000    1.667    3.333    2.000    2.333    4.667 
#    0.000    0.833    3.667    0.000    0.000    0.000 
#    0.000    0.000    0.000    0.000    0.000    0.000 
#
# Total GULP energy -297395.717070 kJ/mol
# GULP energy per Si atom -12391.488211 kJ/mol
# Density = 1.919183 g / cm^3
# Si number density = 19.235612 Si / 1000 Ang^3
#
#
#
# Elastic Constant Matrix: (Units=GPa)
#
#
# Indices 1 2 3 4 5 6 
#
# 1 126.2180 57.1667 52.5930 0.0002 -8.4787 0.0008
# 2 57.1667 134.2881 30.6717 -0.0010 -7.0626 -0.0006
# 3 52.5930 30.6717 84.0559 -0.0013 -3.3995 -0.0007
# 4 0.0002 -0.0010 -0.0013 13.7310 -0.0005 -1.3879
# 5 -8.4787 -7.0626 -3.3995 -0.0005 34.4106 0.0005
# 6 0.0008 -0.0006 -0.0007 -1.3879 0.0005 33.5149
#
#
#
# Elastic Compliance Matrix: (Units=1/GPa)
#
#
# Indices 1 2 3 4 5 6 
#
# 1 0.012348 -0.003731 -0.006298 -0.000001 0.001655 -0.000001
# 2 -0.003731 0.009317 -0.001029 0.000001 0.000891 0.000000
# 3 -0.006298 -0.001029 0.016206 0.000002 -0.000162 0.000001
# 4 -0.000001 0.000001 0.000002 0.073134 0.000001 0.003028
# 5 0.001655 0.000891 -0.000162 0.000001 0.029635 0.000000
# 6 -0.000001 0.000000 0.000001 0.003028 0.000000 0.029963
#
#
# Mechanical properties :
#
#
# Convention : Reuss Voigt Hill
#
# Bulk Modulus (GPa) = 63.47062 69.49166 66.48114
# Shear Modulus (GPa) = 25.25624 29.94001 27.59813
#
# Velocity S-wave (km/s) = 3.62746 3.94952 3.79191
# Velocity P-wave (km/s) = 7.11426 7.55005 7.33539
#
# Compressibility (1/GPa) = 0.01575532
#
# Stress axis : x y z
#
# Youngs Moduli (GPa) = 80.98491 107.33108 61.70477
#
# Poissons Ratio (x) = 0.40047 0.38859
# Poissons Ratio (y) = 0.30217 0.06350
# Poissons Ratio (z) = 0.51001 0.11046
#
# Static dielectric constant tensor:
#      x y z
#    x 4.107530 0.000030 0.048500 
#    y 0.000030 4.233970 0.000000 
#    z 0.048500 0.000000 3.341340 
# 
# 
# High freq. dielectric constant tensor:
#      x y z
#    x 1.752320 0.000000 0.005570 
#    y 0.000000 1.766620 0.000000 
#    z 0.005570 0.000000 1.727850 
# 
# From -- ./inp_files/189798.got.cif
#   From: 2010.06.25/outbox.cif.g09.slc.cpg/sg15_95_cif.got.tgz:189798.got - 2010.06.28 07:06:18.
