data_PCOD8143937
_publ_section_title
;
Structure prediction by ZEFSAII (Michael W. Deem and Ramdas Pophale) SiO2 
 PCOD8143937
Probable space group: C 2/C
;
_chemical_formula_sum "Si O2"
_cell_formula_units_Z 60
_cell_length_a 17.621268
_cell_length_b 10.876151
_cell_length_c 30.480850
_cell_angle_alpha 90.000000
_cell_angle_beta 152.362495
_cell_angle_gamma 90.000000
_cell_volume 2709.825918
_symmetry_space_group_name_H-M "C 2/C"
_symmetry_group_IT_number 15
_symmetry_cell_setting 'monoclinic'
loop_
_space_group_symop_operation_xyz
x,y,z
-x,y,1/2-z
-x,-y,-z
x,-y,1/2+z
1/2+x,1/2+y,z
1/2-x,1/2+y,1/2-z
1/2-x,1/2-y,-z
1/2+x,1/2-y,1/2+z
loop_
_atom_site_type_symbol
_atom_site_label
_atom_site_fract_x
_atom_site_fract_y
_atom_site_fract_z
Si Si1 0.858130 0.254227 0.757666
Si Si2 0.969879 0.692979 0.664114
Si Si3 0.479277 0.779415 0.069311
Si Si4 0.684655 0.563999 0.399871
Si Si5 0.500000 0.613824 0.750000
Si Si6 0.314057 0.455328 0.444244
Si Si7 0.540736 0.422330 0.407607
Si Si8 0.751873 0.484599 0.188500
O O1 0.674032 0.201284 0.668816
O O2 0.980722 0.211646 0.859864
O O3 0.870746 0.400671 0.758931
O O4 0.926829 0.199146 0.748976
O O5 0.913379 0.717759 0.585367
O O6 0.940728 0.822742 0.672877
O O7 0.867925 0.588713 0.637645
O O8 0.155552 0.646230 0.761758
O O9 0.373791 0.890646 0.993468
O O10 0.439450 0.652154 0.023948
O O11 0.651839 0.468166 0.344405
O O12 0.641699 0.498948 0.423871
O O13 0.351097 0.579543 0.492106
O O14 0.335218 0.490416 0.403911
O O15 0.375565 0.494078 0.336887
#
# Coordination Sequence:
#
# PCOD8143937 Si02
#       8
#     8   8   8   8   4   8   8   8
#     4  11  25  44  62  92 135 176 208 266 332 395
#     4  11  21  39  68  98 123 165 218 277 319 379
#     4  11  20  41  68  94 124 163 222 273 328 379
#     4  10  21  41  67  92 123 166 227 269 321 381
#     4  10  26  42  62  92 136 172 208 268 328 396
#     4  11  22  39  66 101 127 167 217 280 317 380
#     4  11  21  42  65  89 129 174 214 265 322 390
#     4  12  25  39  65 102 135 169 218 266 335 385
#
# _framework density 22.141642999999998
#
# number of rings (size 3 to 8) (size 9 to 14) (size 15 to 20)
#    0.000    1.067    5.333    1.600    5.600    0.533 
#    0.000    2.000    0.000    0.000    0.000    0.000 
#    0.000    0.000    0.000    0.000    0.000    0.000 
#
# Total GULP energy -371738.848098 kJ/mol
# GULP energy per Si atom -12391.294937 kJ/mol
# Density = 2.209125 g / cm^3
# Si number density = 22.141643 Si / 1000 Ang^3
#
#
#
# Elastic Constant Matrix: (Units=GPa)
#
#
# Indices 1 2 3 4 5 6 
#
# 1 58.6089 5.3456 -0.3557 0.0001 -13.0673 -0.0001
# 2 5.3456 68.7927 5.9917 0.0002 -12.5255 0.0000
# 3 -0.3557 5.9917 44.5991 0.0000 -10.2467 -0.0003
# 4 0.0001 0.0002 0.0000 41.0383 0.0002 2.6145
# 5 -13.0673 -12.5255 -10.2467 0.0002 42.1950 0.0000
# 6 -0.0001 0.0000 -0.0003 2.6145 0.0000 14.7067
#
#
#
# Elastic Compliance Matrix: (Units=1/GPa)
#
#
# Indices 1 2 3 4 5 6 
#
# 1 0.018443 -0.000487 0.001580 0.000000 0.005951 0.000000
# 2 -0.000487 0.015429 -0.001122 0.000000 0.004157 0.000000
# 3 0.001580 -0.001122 0.023958 0.000000 0.005974 0.000001
# 4 0.000000 0.000000 0.000000 0.024647 0.000000 -0.004382
# 5 0.005951 0.004157 0.005974 0.000000 0.028227 0.000000
# 6 0.000000 0.000000 0.000001 -0.004382 0.000000 0.068775
#
#
# Mechanical properties :
#
#
# Convention : Reuss Voigt Hill
#
# Bulk Modulus (GPa) = 17.30961 21.55152 19.43057
# Shear Modulus (GPa) = 25.15163 30.32260 27.73712
#
# Velocity S-wave (km/s) = 3.37403 3.70467 3.54321
# Velocity P-wave (km/s) = 4.79723 5.29660 5.05309
#
# Compressibility (1/GPa) = 0.05777136
#
# Stress axis : x y z
#
# Youngs Moduli (GPa) = 54.22102 64.81377 41.73992
#
# Poissons Ratio (x) = 0.03158 -0.06594
# Poissons Ratio (y) = 0.02642 0.04682
# Poissons Ratio (z) = -0.08565 0.07270
#
# Static dielectric constant tensor:
#      x y z
#    x 4.076660 0.000000 -0.052850 
#    y 0.000000 3.878950 0.000000 
#    z -0.052850 0.000000 4.040360 
# 
# 
# High freq. dielectric constant tensor:
#      x y z
#    x 1.876710 0.000000 -0.000980 
#    y 0.000000 1.854490 0.000000 
#    z -0.000980 0.000000 1.870050 
# 
# From -- ./inp_files/225033.got.cif
#   From: 2010.06.25/outbox.cif.g09.slc.cpg/sg15_113_cif.got.tgz:225033.got - 2010.06.28 07:06:18.
