data_PCOD8143107
_publ_section_title
;
Structure prediction by ZEFSAII (Michael W. Deem and Ramdas Pophale) SiO2 
 PCOD8143107
Probable space group: C 2/C
;
_chemical_formula_sum "Si O2"
_cell_formula_units_Z 48
_cell_length_a 15.393615
_cell_length_b 8.740919
_cell_length_c 27.272997
_cell_angle_alpha 90.000000
_cell_angle_beta 39.124582
_cell_angle_gamma 90.000000
_cell_volume 2315.612735
_symmetry_space_group_name_H-M "C 2/C"
_symmetry_group_IT_number 15
_symmetry_cell_setting 'monoclinic'
loop_
_space_group_symop_operation_xyz
x,y,z
-x,y,1/2-z
-x,-y,-z
x,-y,1/2+z
1/2+x,1/2+y,z
1/2-x,1/2+y,1/2-z
1/2-x,1/2-y,-z
1/2+x,1/2-y,1/2+z
loop_
_atom_site_type_symbol
_atom_site_label
_atom_site_fract_x
_atom_site_fract_y
_atom_site_fract_z
Si Si1 0.749002 0.770232 0.577131
Si Si2 0.170833 0.649539 0.299368
Si Si3 0.557054 0.383374 0.084678
Si Si4 0.898813 0.430742 0.084645
Si Si5 0.030693 0.531002 0.681458
Si Si6 0.021002 0.221352 0.367407
O O1 0.669112 0.659347 0.575864
O O2 0.893165 0.822740 0.490024
O O3 0.778976 0.672793 0.612875
O O4 0.661870 0.921135 0.626269
O O5 0.171593 0.561741 0.351185
O O6 0.098909 0.549078 0.288507
O O7 0.323094 0.692594 0.217385
O O8 0.090930 0.810252 0.339438
O O9 0.553002 0.564834 0.087466
O O10 0.989856 0.322769 0.079192
O O11 0.000000 0.500000 0.000000
O O12 0.062291 0.688481 0.638685
O O13 0.000000 0.578898 0.750000
#
# Coordination Sequence:
#
# PCOD8143107 Si02
#       6
#     8   8   8   8   8   8
#     4  10  22  40  63  87 126 161 203 252 316 371
#     4  10  21  42  66  88 126 162 209 261 315 376
#     4  10  21  40  62  90 122 164 201 256 312 365
#     4  11  22  42  64  94 122 163 207 259 314 372
#     4  10  22  40  60  88 125 165 206 258 312 372
#     4  11  24  39  62  94 125 163 213 255 307 373
#
# _framework density 20.728854999999999
#
# number of rings (size 3 to 8) (size 9 to 14) (size 15 to 20)
#    0.000    1.667    1.667    3.000    2.333    4.000 
#    3.000    0.833    0.000    0.000    0.000    0.000 
#    0.000    0.000    0.000    0.000    0.000    0.000 
#
# Total GULP energy -297645.110319 kJ/mol
# GULP energy per Si atom -12401.879597 kJ/mol
# Density = 2.068168 g / cm^3
# Si number density = 20.728855 Si / 1000 Ang^3
#
#
#
# Elastic Constant Matrix: (Units=GPa)
#
#
# Indices 1 2 3 4 5 6 
#
# 1 100.0173 46.2619 39.6391 -0.0001 25.1265 0.0000
# 2 46.2619 135.5776 35.1666 -0.0002 13.0467 -0.0001
# 3 39.6391 35.1666 87.7508 0.0000 10.9795 0.0000
# 4 -0.0001 -0.0002 0.0000 26.8843 0.0000 4.7516
# 5 25.1265 13.0467 10.9795 0.0000 36.4783 0.0000
# 6 0.0000 -0.0001 0.0000 4.7516 0.0000 35.4035
#
#
#
# Elastic Compliance Matrix: (Units=1/GPa)
#
#
# Indices 1 2 3 4 5 6 
#
# 1 0.015357 -0.003269 -0.004624 0.000000 -0.008017 0.000000
# 2 -0.003269 0.009074 -0.002115 0.000000 -0.000357 0.000000
# 3 -0.004624 -0.002115 0.014381 0.000000 -0.000387 0.000000
# 4 0.000000 0.000000 0.000000 0.038100 0.000000 -0.005114
# 5 -0.008017 -0.000357 -0.000387 0.000000 0.033180 0.000000
# 6 0.000000 0.000000 0.000000 -0.005114 0.000000 0.028932
#
#
# Mechanical properties :
#
#
# Convention : Reuss Voigt Hill
#
# Bulk Modulus (GPa) = 53.20407 62.83121 58.01764
# Shear Modulus (GPa) = 30.24694 33.23843 31.74269
#
# Velocity S-wave (km/s) = 3.82405 4.00870 3.91746
# Velocity P-wave (km/s) = 6.72460 7.19743 6.96503
#
# Compressibility (1/GPa) = 0.01879556
#
# Stress axis : x y z
#
# Youngs Moduli (GPa) = 65.11678 110.20035 69.53784
#
# Poissons Ratio (x) = 0.36028 0.32153
# Poissons Ratio (y) = 0.21289 0.14708
# Poissons Ratio (z) = 0.30109 0.23309
#
# Static dielectric constant tensor:
#      x y z
#    x 3.789570 0.000000 0.180910 
#    y 0.000000 3.983910 0.000000 
#    z 0.180910 0.000000 3.692910 
# 
# 
# High freq. dielectric constant tensor:
#      x y z
#    x 1.807430 0.000000 0.012180 
#    y 0.000000 1.825440 0.000000 
#    z 0.012180 0.000000 1.808410 
# 
# From -- ./inp_files/295444.got.cif
#   From: 2010.06.25/outbox.cif.g09.slc.cpg/sg15_148_cif.got.tgz:295444.got - 2010.06.28 07:06:18.
