data_PCOD8143650
_publ_section_title
;
Structure prediction by ZEFSAII (Michael W. Deem and Ramdas Pophale) SiO2 
 PCOD8143650
Probable space group: C 2/C
;
_chemical_formula_sum "Si O2"
_cell_formula_units_Z 60
_cell_length_a 26.430051
_cell_length_b 9.389243
_cell_length_c 11.221599
_cell_angle_alpha 90.000000
_cell_angle_beta 95.884669
_cell_angle_gamma 90.000000
_cell_volume 2770.056750
_symmetry_space_group_name_H-M "C 2/C"
_symmetry_group_IT_number 15
_symmetry_cell_setting 'monoclinic'
loop_
_space_group_symop_operation_xyz
x,y,z
-x,y,1/2-z
-x,-y,-z
x,-y,1/2+z
1/2+x,1/2+y,z
1/2-x,1/2+y,1/2-z
1/2-x,1/2-y,-z
1/2+x,1/2-y,1/2+z
loop_
_atom_site_type_symbol
_atom_site_label
_atom_site_fract_x
_atom_site_fract_y
_atom_site_fract_z
Si Si1 0.000000 0.430124 0.750000
Si Si2 0.632545 0.557059 0.745175
Si Si3 0.195281 0.788230 0.846666
Si Si4 0.473714 0.468836 0.864658
Si Si5 0.904597 0.695684 0.122011
Si Si6 0.645802 0.025409 0.748081
Si Si7 0.312462 0.788189 0.890774
Si Si8 0.049956 0.345643 0.124923
O O1 0.048815 0.329615 0.775445
O O2 0.007823 0.529382 0.633144
O O3 0.660407 0.411095 0.783684
O O4 0.584437 0.524243 0.647821
O O5 0.614751 0.642373 0.860591
O O6 0.672730 0.655098 0.686996
O O7 0.190952 0.638998 0.774591
O O8 0.253869 0.832127 0.858087
O O9 0.174855 0.757666 0.973265
O O10 0.500000 0.533620 0.750000
O O11 0.476581 0.300391 0.847358
O O12 0.500000 0.500000 0.000000
O O13 0.859450 0.583291 0.141020
O O14 0.924466 0.669090 0.996342
O O15 0.594408 0.116910 0.728423
O O16 0.655418 0.929381 0.633260
#
# Coordination Sequence:
#
# PCOD8143650 Si02
#       8
#     4   8   8   8   8   8   8   8
#     4  10  22  40  60  88 128 170 238 274 328 398
#     4  11  25  43  66  99 139 177 223 293 347 416
#     4  11  22  42  70  95 135 172 227 285 365 415
#     4  12  27  43  66 100 139 186 235 282 347 418
#     4  10  23  38  60  90 125 174 222 276 335 397
#     4  10  21  41  62  90 128 165 224 274 344 412
#     4  10  24  42  67 101 127 177 224 292 351 431
#     4  11  21  40  61  89 123 175 225 271 330 399
#
# _framework density 21.660205999999999
#
# number of rings (size 3 to 8) (size 9 to 14) (size 15 to 20)
#    0.000    1.333    2.000    2.800    6.533    0.000 
#    2.400    0.000    0.000    8.800    0.000    0.000 
#    0.000    0.000    0.000    0.000    0.000    0.000 
#
# Total GULP energy -371844.577869 kJ/mol
# GULP energy per Si atom -12394.819262 kJ/mol
# Density = 2.161091 g / cm^3
# Si number density = 21.660206 Si / 1000 Ang^3
#
#
#
# Elastic Constant Matrix: (Units=GPa)
#
#
# Indices 1 2 3 4 5 6 
#
# 1 73.8831 35.5028 32.3036 0.0000 -0.8418 0.0000
# 2 35.5028 123.0068 35.7526 0.0000 -0.0569 0.0000
# 3 32.3036 35.7526 115.9947 0.0000 -12.6278 0.0000
# 4 0.0000 0.0000 0.0000 16.8024 0.0000 1.6295
# 5 -0.8418 -0.0569 -12.6278 0.0000 35.4630 0.0000
# 6 0.0000 0.0000 0.0000 1.6295 0.0000 29.4979
#
#
#
# Elastic Compliance Matrix: (Units=1/GPa)
#
#
# Indices 1 2 3 4 5 6 
#
# 1 0.016960 -0.003838 -0.003638 0.000000 -0.000899 0.000000
# 2 -0.003838 0.009833 -0.002049 0.000000 -0.000805 0.000000
# 3 -0.003638 -0.002049 0.010670 0.000000 0.003710 0.000000
# 4 0.000000 0.000000 0.000000 0.059836 0.000000 -0.003305
# 5 -0.000899 -0.000805 0.003710 0.000000 0.029497 0.000000
# 6 0.000000 0.000000 0.000000 -0.003305 0.000000 0.034083
#
#
# Mechanical properties :
#
#
# Convention : Reuss Voigt Hill
#
# Bulk Modulus (GPa) = 54.31507 57.77806 56.04656
# Shear Modulus (GPa) = 26.87223 30.30771 28.58997
#
# Velocity S-wave (km/s) = 3.52607 3.74469 3.63703
# Velocity P-wave (km/s) = 6.45817 6.74015 6.60067
#
# Compressibility (1/GPa) = 0.01841110
#
# Stress axis : x y z
#
# Youngs Moduli (GPa) = 58.96396 101.70161 93.72245
#
# Poissons Ratio (x) = 0.39033 0.34096
# Poissons Ratio (y) = 0.22630 0.19208
# Poissons Ratio (z) = 0.21451 0.20844
#
# Static dielectric constant tensor:
#      x y z
#    x 3.925760 0.000000 -0.168220 
#    y 0.000000 4.088180 0.000000 
#    z -0.168220 0.000000 3.781770 
# 
# 
# High freq. dielectric constant tensor:
#      x y z
#    x 1.850510 0.000000 -0.016110 
#    y 0.000000 1.867480 0.000000 
#    z -0.016110 0.000000 1.837980 
# 
# From -- ./inp_files/125588.got.cif
#   From: 2010.06.25/outbox.cif.g09.slc.cpg/sg15_63_cif.got.tgz:125588.got - 2010.06.28 07:06:18.
