data_PCOD8143771
_publ_section_title
;
Structure prediction by ZEFSAII (Michael W. Deem and Ramdas Pophale) SiO2 
 PCOD8143771
Probable space group: C 2/C
;
_chemical_formula_sum "Si O2"
_cell_formula_units_Z 48
_cell_length_a 16.225000
_cell_length_b 8.130971
_cell_length_c 18.768874
_cell_angle_alpha 90.000000
_cell_angle_beta 69.835843
_cell_angle_gamma 90.000000
_cell_volume 2324.321764
_symmetry_space_group_name_H-M "C 2/C"
_symmetry_group_IT_number 15
_symmetry_cell_setting 'monoclinic'
loop_
_space_group_symop_operation_xyz
x,y,z
-x,y,1/2-z
-x,-y,-z
x,-y,1/2+z
1/2+x,1/2+y,z
1/2-x,1/2+y,1/2-z
1/2-x,1/2-y,-z
1/2+x,1/2-y,1/2+z
loop_
_atom_site_type_symbol
_atom_site_label
_atom_site_fract_x
_atom_site_fract_y
_atom_site_fract_z
Si Si1 0.793387 0.172560 0.576182
Si Si2 0.309196 0.482392 0.930002
Si Si3 0.797691 0.613896 0.652635
Si Si4 0.052826 0.393528 0.927304
Si Si5 0.825346 0.023596 0.198731
Si Si6 0.992289 0.863165 0.334799
O O1 0.711316 0.292622 0.586043
O O2 0.801497 0.020521 0.518084
O O3 0.885801 0.269815 0.546507
O O4 0.776636 0.096332 0.658272
O O5 0.235037 0.607017 0.920207
O O6 0.404744 0.534144 0.874658
O O7 0.888701 0.518903 0.636551
O O8 0.808295 0.792707 0.679752
O O9 0.719976 0.509521 0.712662
O O10 0.993245 0.294215 0.887851
O O11 0.000000 0.500000 0.000000
O O12 0.928459 0.987006 0.171124
O O13 0.000000 0.804110 0.250000
#
# Coordination Sequence:
#
# PCOD8143771 Si02
#       6
#     8   8   8   8   8   8
#     4   9  22  42  63  92 130 171 210 265 315 398
#     4  10  21  41  64  92 129 162 217 260 322 367
#     4  11  23  42  63  91 126 172 207 265 324 391
#     4  10  24  43  63  92 133 170 217 261 325 387
#     4  11  23  41  67  88 130 169 212 258 334 386
#     4  11  23  41  68  95 129 165 217 273 319 383
#
# _framework density 20.651185000000002
#
# number of rings (size 3 to 8) (size 9 to 14) (size 15 to 20)
#    0.000    1.667    1.667    3.000    4.667    2.000 
#    6.000    2.500    0.000    0.000    0.000    0.000 
#    0.000    0.000    0.000    0.000    0.000    0.000 
#
# Total GULP energy -297528.137278 kJ/mol
# GULP energy per Si atom -12397.005720 kJ/mol
# Density = 2.060418 g / cm^3
# Si number density = 20.651185 Si / 1000 Ang^3
#
#
#
# Elastic Constant Matrix: (Units=GPa)
#
#
# Indices 1 2 3 4 5 6 
#
# 1 99.1236 51.5254 46.9999 0.0000 -1.2960 0.0000
# 2 51.5254 116.8629 46.4423 0.0000 -1.3336 0.0000
# 3 46.9999 46.4423 97.2175 0.0000 -0.1370 0.0000
# 4 0.0000 0.0000 0.0000 29.7521 0.0000 -8.8460
# 5 -1.2960 -1.3336 -0.1370 0.0000 34.8837 0.0000
# 6 0.0000 0.0000 0.0000 -8.8460 0.0000 19.2264
#
#
#
# Elastic Compliance Matrix: (Units=1/GPa)
#
#
# Indices 1 2 3 4 5 6 
#
# 1 0.014825 -0.004548 -0.004994 0.000000 0.000357 0.000000
# 2 -0.004548 0.011962 -0.003516 0.000000 0.000275 0.000000
# 3 -0.004994 -0.003516 0.014380 0.000000 -0.000263 0.000000
# 4 0.000000 0.000000 0.000000 0.038938 0.000000 0.017915
# 5 0.000357 0.000275 -0.000263 0.000000 0.028689 0.000000
# 6 0.000000 0.000000 0.000000 0.017915 0.000000 0.060255
#
#
# Mechanical properties :
#
#
# Convention : Reuss Voigt Hill
#
# Bulk Modulus (GPa) = 66.43543 67.01545 66.72544
# Shear Modulus (GPa) = 24.97738 27.98819 26.48278
#
# Velocity S-wave (km/s) = 3.48154 3.68541 3.58493
# Velocity P-wave (km/s) = 6.95713 7.11556 7.03679
#
# Compressibility (1/GPa) = 0.01505221
#
# Stress axis : x y z
#
# Youngs Moduli (GPa) = 67.45371 83.59528 69.54198
#
# Poissons Ratio (x) = 0.38016 0.34731
# Poissons Ratio (y) = 0.30675 0.24449
# Poissons Ratio (z) = 0.33688 0.29390
#
# Static dielectric constant tensor:
#      x y z
#    x 3.845840 0.000000 0.241340 
#    y 0.000000 3.701580 0.000000 
#    z 0.241340 0.000000 3.899710 
# 
# 
# High freq. dielectric constant tensor:
#      x y z
#    x 1.810650 0.000000 0.011720 
#    y 0.000000 1.803010 0.000000 
#    z 0.011720 0.000000 1.814550 
# 
# From -- ./inp_files/208947.got.cif
#   From: 2010.06.25/outbox.cif.g09.slc.cpg/sg15_105_cif.got.tgz:208947.got - 2010.06.28 07:06:18.
