data_PCOD8143874
_publ_section_title
;
Structure prediction by ZEFSAII (Michael W. Deem and Ramdas Pophale) SiO2 
 PCOD8143874
Probable space group: C 2/C
;
_chemical_formula_sum "Si O2"
_cell_formula_units_Z 40
_cell_length_a 8.948894
_cell_length_b 12.047245
_cell_length_c 15.884708
_cell_angle_alpha 90.000000
_cell_angle_beta 98.697788
_cell_angle_gamma 90.000000
_cell_volume 1692.828240
_symmetry_space_group_name_H-M "C 2/C"
_symmetry_group_IT_number 15
_symmetry_cell_setting 'monoclinic'
loop_
_space_group_symop_operation_xyz
x,y,z
-x,y,1/2-z
-x,-y,-z
x,-y,1/2+z
1/2+x,1/2+y,z
1/2-x,1/2+y,1/2-z
1/2-x,1/2-y,-z
1/2+x,1/2-y,1/2+z
loop_
_atom_site_type_symbol
_atom_site_label
_atom_site_fract_x
_atom_site_fract_y
_atom_site_fract_z
Si Si1 0.881469 0.724751 0.815973
Si Si2 0.000076 0.484735 0.100110
Si Si3 0.451275 0.578056 0.107363
Si Si4 0.315651 0.177458 0.327429
Si Si5 0.173159 0.901831 0.084825
O O1 0.874289 0.608617 0.865576
O O2 0.932604 0.818715 0.886604
O O3 0.715413 0.758855 0.764012
O O4 0.000000 0.713608 0.750000
O O5 0.038124 0.598605 0.153785
O O6 0.839068 0.446341 0.122391
O O7 0.000000 0.500000 0.000000
O O8 0.330414 0.597568 0.171050
O O9 0.547011 0.465382 0.130163
O O10 0.355329 0.570752 0.014338
O O11 0.333232 0.270221 0.401389
#
# Coordination Sequence:
#
# PCOD8143874 Si02
#       5
#     8   8   8   8   8
#     4  10  22  41  67  92 134 177 216 271 338 386
#     4  12  23  41  73  99 130 177 225 268 331 399
#     4  10  21  41  66  90 132 172 210 270 329 389
#     4  11  23  42  68  91 132 173 215 275 327 390
#     4  11  22  42  66  96 130 169 220 268 328 393
#
# _framework density 23.629095
#
# number of rings (size 3 to 8) (size 9 to 14) (size 15 to 20)
#    0.000    1.200    6.000    1.800    2.800    0.000 
#    3.600    3.000    0.000    0.000    0.000    0.000 
#    0.000    0.000    0.000    0.000    0.000    0.000 
#
# Total GULP energy -247945.838812 kJ/mol
# GULP energy per Si atom -12397.291941 kJ/mol
# Density = 2.357531 g / cm^3
# Si number density = 23.629095 Si / 1000 Ang^3
#
#
#
# Elastic Constant Matrix: (Units=GPa)
#
#
# Indices 1 2 3 4 5 6 
#
# 1 61.3874 52.6437 18.8530 0.0000 23.1268 0.0000
# 2 52.6437 145.0615 40.9859 0.0000 24.1123 0.0000
# 3 18.8530 40.9859 84.5159 0.0000 31.3973 0.0000
# 4 0.0000 0.0000 0.0000 48.7727 0.0000 11.8044
# 5 23.1268 24.1123 31.3973 0.0000 35.3962 0.0000
# 6 0.0000 0.0000 0.0000 11.8044 0.0000 41.7773
#
#
#
# Elastic Compliance Matrix: (Units=1/GPa)
#
#
# Indices 1 2 3 4 5 6 
#
# 1 0.028810 -0.008857 0.003908 0.000000 -0.016256 0.000000
# 2 -0.008857 0.010929 -0.004039 0.000000 0.001925 0.000000
# 3 0.003908 -0.004039 0.019159 0.000000 -0.016796 0.000000
# 4 0.000000 0.000000 0.000000 0.022008 0.000000 -0.006219
# 5 -0.016256 0.001925 -0.016796 0.000000 0.052460 0.000000
# 6 0.000000 0.000000 0.000000 -0.006219 0.000000 0.025694
#
#
# Mechanical properties :
#
#
# Convention : Reuss Voigt Hill
#
# Bulk Modulus (GPa) = 24.43796 57.32558 40.88177
# Shear Modulus (GPa) = 26.22228 37.08806 31.65517
#
# Velocity S-wave (km/s) = 3.33490 3.96611 3.66412
# Velocity P-wave (km/s) = 5.01931 6.72953 5.93633
#
# Compressibility (1/GPa) = 0.04091995
#
# Stress axis : x y z
#
# Youngs Moduli (GPa) = 34.71052 91.49704 52.19501
#
# Poissons Ratio (x) = 0.81041 -0.20396
# Poissons Ratio (y) = 0.30744 0.21084
# Poissons Ratio (z) = -0.13564 0.36960
#
# Static dielectric constant tensor:
#      x y z
#    x 4.123230 0.000000 0.526460 
#    y 0.000000 4.609010 0.000000 
#    z 0.526460 0.000000 4.210260 
# 
# 
# High freq. dielectric constant tensor:
#      x y z
#    x 1.908420 0.000000 0.038680 
#    y 0.000000 1.947190 0.000000 
#    z 0.038680 0.000000 1.928560 
# 
# From -- ./inp_files/187974.got.cif
#   From: 2010.06.25/outbox.cif.g09.slc.cpg/sg15_94_cif.got.tgz:187974.got - 2010.06.28 07:06:18.
