data_PCOD8143640
_publ_section_title
;
Structure prediction by ZEFSAII (Michael W. Deem and Ramdas Pophale) SiO2 
 PCOD8143640
Probable space group: C 2/C
;
_chemical_formula_sum "Si O2"
_cell_formula_units_Z 44
_cell_length_a 8.083045
_cell_length_b 27.934960
_cell_length_c 12.300970
_cell_angle_alpha 90.000000
_cell_angle_beta 131.598903
_cell_angle_gamma 90.000000
_cell_volume 2077.084400
_symmetry_space_group_name_H-M "C 2/C"
_symmetry_group_IT_number 15
_symmetry_cell_setting 'monoclinic'
loop_
_space_group_symop_operation_xyz
x,y,z
-x,y,1/2-z
-x,-y,-z
x,-y,1/2+z
1/2+x,1/2+y,z
1/2-x,1/2+y,1/2-z
1/2-x,1/2-y,-z
1/2+x,1/2-y,1/2+z
loop_
_atom_site_type_symbol
_atom_site_label
_atom_site_fract_x
_atom_site_fract_y
_atom_site_fract_z
Si Si1 0.316090 0.427141 0.301158
Si Si2 0.910146 0.327462 0.595045
Si Si3 0.427060 0.321509 0.342278
Si Si4 0.500000 0.003137 0.750000
Si Si5 0.242619 0.233644 0.373318
Si Si6 0.325624 0.934382 0.497302
O O1 0.310866 0.370826 0.330279
O O2 0.211935 0.461856 0.345198
O O3 0.568691 0.443103 0.408004
O O4 0.161780 0.437119 0.127644
O O5 0.660072 0.308555 0.499044
O O6 0.913454 0.383486 0.575097
O O7 0.000000 0.312648 0.750000
O O8 0.058846 0.303282 0.565458
O O9 0.500000 0.328798 0.250000
O O10 0.260744 0.278838 0.298474
O O11 0.478062 0.971717 0.630103
O O12 0.250000 0.250000 0.500000
O O13 0.000000 0.209941 0.250000
#
# Coordination Sequence:
#
# PCOD8143640 Si02
#       6
#     8   8   8   4   8   8
#     4  10  22  39  63  91 119 159 206 247 301 369
#     4  11  21  41  65  86 121 168 210 241 301 377
#     4  11  21  42  67  84 119 172 211 239 298 388
#     4  12  22  36  66  94 124 150 196 270 316 334
#     4  12  26  39  61  96 128 151 205 268 314 346
#     4  10  21  41  62  87 121 161 206 242 297 381
#
# _framework density 21.183540000000001
#
# number of rings (size 3 to 8) (size 9 to 14) (size 15 to 20)
#    0.000    1.091    4.545    4.364    1.273    0.000 
#    0.000    0.000    4.000    0.000    0.000    0.000 
#    0.000    0.000    0.000    0.000    0.000    0.000 
#
# Total GULP energy -272620.519315 kJ/mol
# GULP energy per Si atom -12391.841787 kJ/mol
# Density = 2.113533 g / cm^3
# Si number density = 21.183540 Si / 1000 Ang^3
#
#
#
# Elastic Constant Matrix: (Units=GPa)
#
#
# Indices 1 2 3 4 5 6 
#
# 1 82.1592 47.2490 18.7890 0.0000 2.7448 0.0000
# 2 47.2490 83.1754 13.5718 0.0000 11.3040 0.0000
# 3 18.7890 13.5718 99.3950 0.0000 5.7095 0.0000
# 4 0.0000 0.0000 0.0000 24.6020 0.0000 8.2619
# 5 2.7448 11.3040 5.7095 0.0000 24.5732 0.0000
# 6 0.0000 0.0000 0.0000 8.2619 0.0000 36.2545
#
#
#
# Elastic Compliance Matrix: (Units=1/GPa)
#
#
# Indices 1 2 3 4 5 6 
#
# 1 0.018757 -0.010743 -0.002273 0.000000 0.003375 0.000000
# 2 -0.010743 0.019182 -0.000152 0.000000 -0.007588 0.000000
# 3 -0.002273 -0.000152 0.010635 0.000000 -0.002147 0.000000
# 4 0.000000 0.000000 0.000000 0.044016 0.000000 -0.010031
# 5 0.003375 -0.007588 -0.002147 0.000000 0.044307 0.000000
# 6 0.000000 0.000000 0.000000 -0.010031 0.000000 0.029869
#
#
# Mechanical properties :
#
#
# Convention : Reuss Voigt Hill
#
# Bulk Modulus (GPa) = 44.97009 47.10547 46.03778
# Shear Modulus (GPa) = 24.93612 29.42726 27.18169
#
# Velocity S-wave (km/s) = 3.43468 3.73118 3.58600
# Velocity P-wave (km/s) = 6.08311 6.39120 6.23906
#
# Compressibility (1/GPa) = 0.02223700
#
# Stress axis : x y z
#
# Youngs Moduli (GPa) = 53.31476 52.13335 94.03255
#
# Poissons Ratio (x) = 0.56006 0.21370
# Poissons Ratio (y) = 0.57275 0.01434
# Poissons Ratio (z) = 0.12116 0.00795
#
# Static dielectric constant tensor:
#      x y z
#    x 3.696690 0.000000 -0.036750 
#    y 0.000000 3.823590 0.000000 
#    z -0.036750 0.000000 3.860360 
# 
# 
# High freq. dielectric constant tensor:
#      x y z
#    x 1.820970 0.000000 0.006380 
#    y 0.000000 1.833140 0.000000 
#    z 0.006380 0.000000 1.838350 
# 
# From -- ./inp_files/81590.got.cif
#   From: 2010.06.25/outbox.cif.g09.slc.cpg/sg15_41_cif.got.tgz:81590.got - 2010.06.28 07:06:18.
