data_PCOD8143833
_publ_section_title
;
Structure prediction by ZEFSAII (Michael W. Deem and Ramdas Pophale) SiO2 
 PCOD8143833
Probable space group: C 2/C
;
_chemical_formula_sum "Si O2"
_cell_formula_units_Z 36
_cell_length_a 7.715259
_cell_length_b 9.619685
_cell_length_c 20.624318
_cell_angle_alpha 90.000000
_cell_angle_beta 75.200645
_cell_angle_gamma 90.000000
_cell_volume 1479.923945
_symmetry_space_group_name_H-M "C 2/C"
_symmetry_group_IT_number 15
_symmetry_cell_setting 'monoclinic'
loop_
_space_group_symop_operation_xyz
x,y,z
-x,y,1/2-z
-x,-y,-z
x,-y,1/2+z
1/2+x,1/2+y,z
1/2-x,1/2+y,1/2-z
1/2-x,1/2-y,-z
1/2+x,1/2-y,1/2+z
loop_
_atom_site_type_symbol
_atom_site_label
_atom_site_fract_x
_atom_site_fract_y
_atom_site_fract_z
Si Si1 0.607664 0.206768 0.805426
Si Si2 0.500000 0.219923 0.250000
Si Si3 0.952894 0.211845 0.969001
Si Si4 0.526817 0.051602 0.120310
Si Si5 0.557123 0.437733 0.905988
O O1 0.500000 0.174520 0.750000
O O2 0.820054 0.188266 0.773782
O O3 0.551056 0.360001 0.837137
O O4 0.560071 0.101028 0.868730
O O5 0.468079 0.123108 0.192021
O O6 0.049361 0.351850 0.931655
O O7 0.750000 0.250000 0.000000
O O8 0.037953 0.155651 0.028162
O O9 0.964506 0.089586 0.912606
O O10 0.738484 0.037204 0.092912
#
# Coordination Sequence:
#
# PCOD8143833 Si02
#       5
#     8   4   8   8   8
#     4  11  24  45  68 101 135 177 222 275 333 401
#     4  10  24  44  62  98 142 174 218 276 330 390
#     4   9  19  41  67  93 134 173 218 283 328 390
#     4  10  21  41  65  94 135 170 221 278 325 395
#     4   9  21  43  65  94 134 173 223 276 330 395
#
# _framework density 24.325575000000001
#
# number of rings (size 3 to 8) (size 9 to 14) (size 15 to 20)
#    0.000    2.222    1.111    0.000    3.111    0.889 
#   16.000   10.000    0.000    0.000    0.000    0.000 
#    0.000    0.000    0.000    0.000    0.000    0.000 
#
# Total GULP energy -223065.831571 kJ/mol
# GULP energy per Si atom -12392.546198 kJ/mol
# Density = 2.427021 g / cm^3
# Si number density = 24.325575 Si / 1000 Ang^3
#
#
#
# Elastic Constant Matrix: (Units=GPa)
#
#
# Indices 1 2 3 4 5 6 
#
# 1 58.6200 46.5835 32.2508 0.0000 -8.2212 0.0000
# 2 46.5835 143.3214 47.6110 0.0000 -21.3003 0.0000
# 3 32.2508 47.6110 92.7530 0.0000 -22.9288 0.0000
# 4 0.0000 0.0000 0.0000 58.1961 0.0000 -13.8890
# 5 -8.2212 -21.3003 -22.9288 0.0000 24.7821 0.0000
# 6 0.0000 0.0000 0.0000 -13.8890 0.0000 29.7279
#
#
#
# Elastic Compliance Matrix: (Units=1/GPa)
#
#
# Indices 1 2 3 4 5 6 
#
# 1 0.025273 -0.006622 -0.006123 0.000000 -0.002973 0.000000
# 2 -0.006622 0.010497 -0.001813 0.000000 0.005148 0.000000
# 3 -0.006123 -0.001813 0.016795 0.000000 0.011949 0.000000
# 4 0.000000 0.000000 0.000000 0.019340 0.000000 0.009036
# 5 -0.002973 0.005148 0.011949 0.000000 0.054846 0.000000
# 6 0.000000 0.000000 0.000000 0.009036 0.000000 0.037860
#
#
# Mechanical properties :
#
#
# Convention : Reuss Voigt Hill
#
# Bulk Modulus (GPa) = 42.64744 60.84278 51.74511
# Shear Modulus (GPa) = 24.80838 33.75784 29.28311
#
# Velocity S-wave (km/s) = 3.19697 3.72929 3.47335
# Velocity P-wave (km/s) = 5.58547 6.60376 6.11585
#
# Compressibility (1/GPa) = 0.02344807
#
# Stress axis : x y z
#
# Youngs Moduli (GPa) = 39.56717 95.26398 59.54122
#
# Poissons Ratio (x) = 0.63086 0.36460
# Poissons Ratio (y) = 0.26202 0.10795
# Poissons Ratio (z) = 0.24229 0.17272
#
# Static dielectric constant tensor:
#      x y z
#    x 3.854560 0.000000 -0.212970 
#    y 0.000000 4.761290 0.000000 
#    z -0.212970 0.000000 4.839170 
# 
# 
# High freq. dielectric constant tensor:
#      x y z
#    x 1.923580 0.000000 -0.022080 
#    y 0.000000 1.972470 0.000000 
#    z -0.022080 0.000000 1.983840 
# 
# From -- ./inp_files/229323.got.cif
#   From: 2010.06.25/outbox.cif.g09.slc.cpg/sg15_115_cif.got.tgz:229323.got - 2010.06.28 07:06:18.
