data_PCOD8143024
_publ_section_title
;
Structure prediction by ZEFSAII (Michael W. Deem and Ramdas Pophale) SiO2 
 PCOD8143024
Probable space group: C 2/C
;
_chemical_formula_sum "Si O2"
_cell_formula_units_Z 56
_cell_length_a 12.986912
_cell_length_b 12.088215
_cell_length_c 18.210307
_cell_angle_alpha 90.000000
_cell_angle_beta 67.874764
_cell_angle_gamma 90.000000
_cell_volume 2648.295624
_symmetry_space_group_name_H-M "C 2/C"
_symmetry_group_IT_number 15
_symmetry_cell_setting 'monoclinic'
loop_
_space_group_symop_operation_xyz
x,y,z
-x,y,1/2-z
-x,-y,-z
x,-y,1/2+z
1/2+x,1/2+y,z
1/2-x,1/2+y,1/2-z
1/2-x,1/2-y,-z
1/2+x,1/2-y,1/2+z
loop_
_atom_site_type_symbol
_atom_site_label
_atom_site_fract_x
_atom_site_fract_y
_atom_site_fract_z
Si Si1 0.618171 0.477205 0.381107
Si Si2 0.162547 0.487574 0.359672
Si Si3 0.604977 0.623675 0.524947
Si Si4 0.458711 0.060312 0.333723
Si Si5 0.622877 0.608094 0.236592
Si Si6 0.834117 0.363412 0.288023
Si Si7 0.653903 0.142028 0.999705
O O1 0.625117 0.530652 0.459018
O O2 0.500250 0.416304 0.398795
O O3 0.643121 0.575037 0.316034
O O4 0.710667 0.381551 0.352732
O O5 0.280839 0.549370 0.337065
O O6 0.169550 0.390327 0.297594
O O7 0.116636 0.448469 0.450798
O O8 0.064545 0.566457 0.358709
O O9 0.587355 0.746138 0.495246
O O10 0.712297 0.645857 0.547732
O O11 0.500000 0.128872 0.250000
O O12 0.362482 0.113394 0.409095
O O13 0.418036 0.940405 0.313398
O O14 0.500000 0.564167 0.250000
O O15 0.628853 0.737236 0.215835
#
# Coordination Sequence:
#
# PCOD8143024 Si02
#       7
#     8   8   8   8   8   8   8
#     4  10  21  41  60  89 124 163 204 253 298 375
#     4  10  22  37  61  87 121 153 203 254 296 357
#     4  10  22  37  63  85 124 162 201 250 312 356
#     4  10  21  40  60  84 121 158 201 251 300 368
#     4  11  22  38  63  89 122 158 205 251 306 355
#     4  10  21  40  63  87 121 166 200 245 308 367
#     4  11  21  39  59  92 120 158 202 255 302 358
#
# _framework density 21.145675000000001
#
# number of rings (size 3 to 8) (size 9 to 14) (size 15 to 20)
#    0.000    1.714    1.429    3.429    2.000    0.000 
#    0.000    1.429    0.000    0.000    0.000    0.000 
#    0.000    0.000    0.000    0.000    0.000    0.000 
#
# Total GULP energy -346878.138601 kJ/mol
# GULP energy per Si atom -12388.504950 kJ/mol
# Density = 2.109755 g / cm^3
# Si number density = 21.145675 Si / 1000 Ang^3
#
#
#
# Elastic Constant Matrix: (Units=GPa)
#
#
# Indices 1 2 3 4 5 6 
#
# 1 95.4597 29.0879 29.3969 0.0000 -18.9096 0.0000
# 2 29.0879 81.1418 28.3328 0.0000 -9.8387 0.0000
# 3 29.3969 28.3328 103.6893 0.0000 -12.9716 0.0000
# 4 0.0000 0.0000 0.0000 27.1685 0.0000 -3.2200
# 5 -18.9096 -9.8387 -12.9716 0.0000 32.2712 0.0000
# 6 0.0000 0.0000 0.0000 -3.2200 0.0000 25.9459
#
#
#
# Elastic Compliance Matrix: (Units=1/GPa)
#
#
# Indices 1 2 3 4 5 6 
#
# 1 0.013316 -0.003311 -0.002128 0.000000 0.005938 0.000000
# 2 -0.003311 0.014691 -0.002904 0.000000 0.001372 0.000000
# 3 -0.002128 -0.002904 0.011345 0.000000 0.002428 0.000000
# 4 0.000000 0.000000 0.000000 0.037357 0.000000 0.004636
# 5 0.005938 0.001372 0.002428 0.000000 0.035861 0.000000
# 6 0.000000 0.000000 0.000000 0.004636 0.000000 0.039117
#
#
# Mechanical properties :
#
#
# Convention : Reuss Voigt Hill
#
# Bulk Modulus (GPa) = 44.11704 50.43624 47.27664
# Shear Modulus (GPa) = 28.42083 29.97534 29.19808
#
# Velocity S-wave (km/s) = 3.67011 3.76914 3.71995
# Velocity P-wave (km/s) = 6.23444 6.54564 6.39194
#
# Compressibility (1/GPa) = 0.02266698
#
# Stress axis : x y z
#
# Youngs Moduli (GPa) = 75.09819 68.06753 88.14673
#
# Poissons Ratio (x) = 0.22534 0.18755
# Poissons Ratio (y) = 0.24862 0.25599
# Poissons Ratio (z) = 0.15979 0.19768
#
# Static dielectric constant tensor:
#      x y z
#    x 3.933510 0.000000 -0.325650 
#    y 0.000000 3.566900 0.000000 
#    z -0.325650 0.000000 3.959110 
# 
# 
# High freq. dielectric constant tensor:
#      x y z
#    x 1.839470 0.000000 -0.020090 
#    y 0.000000 1.803310 0.000000 
#    z -0.020090 0.000000 1.831450 
# 
# From -- ./inp_files/237528.got.cif
#   From: 2010.06.25/outbox.cif.g09.slc.cpg/sg15_119_cif.got.tgz:237528.got - 2010.06.28 07:06:18.
