data_PCOD8143723
_publ_section_title
;
Structure prediction by ZEFSAII (Michael W. Deem and Ramdas Pophale) SiO2 
 PCOD8143723
Probable space group: C 2/C
;
_chemical_formula_sum "Si O2"
_cell_formula_units_Z 48
_cell_length_a 11.141871
_cell_length_b 13.819397
_cell_length_c 15.337559
_cell_angle_alpha 90.000000
_cell_angle_beta 97.357274
_cell_angle_gamma 90.000000
_cell_volume 2342.141281
_symmetry_space_group_name_H-M "C 2/C"
_symmetry_group_IT_number 15
_symmetry_cell_setting 'monoclinic'
loop_
_space_group_symop_operation_xyz
x,y,z
-x,y,1/2-z
-x,-y,-z
x,-y,1/2+z
1/2+x,1/2+y,z
1/2-x,1/2+y,1/2-z
1/2-x,1/2-y,-z
1/2+x,1/2-y,1/2+z
loop_
_atom_site_type_symbol
_atom_site_label
_atom_site_fract_x
_atom_site_fract_y
_atom_site_fract_z
Si Si1 0.500000 0.343506 0.250000
Si Si2 0.595949 0.969136 0.582226
Si Si3 0.349756 0.756842 0.877691
Si Si4 0.000000 0.452539 0.250000
Si Si5 0.863619 0.956176 0.090287
Si Si6 0.977242 0.857103 0.524935
Si Si7 0.077682 0.733581 0.832892
O O1 0.582937 0.269602 0.204496
O O2 0.410706 0.410660 0.184864
O O3 0.603266 0.854278 0.572651
O O4 0.500000 0.000000 0.500000
O O5 0.564468 0.984413 0.681888
O O6 0.720129 0.027457 0.576642
O O7 0.210312 0.777463 0.846717
O O8 0.370897 0.667260 0.945718
O O9 0.088314 0.381864 0.315218
O O10 0.934772 0.056072 0.082782
O O11 0.898427 0.883496 0.013747
O O12 0.994916 0.760851 0.585361
O O13 0.000000 0.785070 0.750000
#
# Coordination Sequence:
#
# PCOD8143723 Si02
#       7
#     4   8   8   4   8   8   8
#     4  10  23  43  64  98 122 176 206 281 313 388
#     4  12  25  44  64 100 132 175 212 273 323 392
#     4  11  22  42  67  84 135 167 218 251 337 384
#     4  10  25  41  62  96 130 168 222 257 329 382
#     4  10  23  40  66  95 130 155 226 260 325 374
#     4  10  21  41  63  95 118 174 206 269 316 384
#     4  10  22  39  66  93 121 169 219 262 317 390
#
# _framework density 20.494067000000001
#
# number of rings (size 3 to 8) (size 9 to 14) (size 15 to 20)
#    0.500    1.000    1.667    3.000    3.500    0.000 
#    9.000    2.500    0.000    0.000    0.000    0.000 
#    0.000    0.000    0.000    0.000    0.000    0.000 
#
# Total GULP energy -297394.802169 kJ/mol
# GULP energy per Si atom -12391.450090 kJ/mol
# Density = 2.044742 g / cm^3
# Si number density = 20.494067 Si / 1000 Ang^3
#
#
#
# Elastic Constant Matrix: (Units=GPa)
#
#
# Indices 1 2 3 4 5 6 
#
# 1 125.5078 44.6637 63.4090 0.0000 1.5452 0.0000
# 2 44.6637 88.9565 31.7061 0.0000 5.4732 0.0000
# 3 63.4090 31.7061 87.8930 0.0000 -0.1504 0.0000
# 4 0.0000 0.0000 0.0000 50.9555 0.0000 -5.4356
# 5 1.5452 5.4732 -0.1504 0.0000 28.7312 0.0000
# 6 0.0000 0.0000 0.0000 -5.4356 0.0000 27.4732
#
#
#
# Elastic Compliance Matrix: (Units=1/GPa)
#
#
# Indices 1 2 3 4 5 6 
#
# 1 0.013580 -0.003814 -0.008421 0.000000 -0.000048 0.000000
# 2 -0.003814 0.014151 -0.002357 0.000000 -0.002503 0.000000
# 3 -0.008421 -0.002357 0.018305 0.000000 0.000998 0.000000
# 4 0.000000 0.000000 0.000000 0.020048 0.000000 0.003967
# 5 -0.000048 -0.002503 0.000998 0.000000 0.035290 0.000000
# 6 0.000000 0.000000 0.000000 0.003967 0.000000 0.037184
#
#
# Mechanical properties :
#
#
# Convention : Reuss Voigt Hill
#
# Bulk Modulus (GPa) = 59.34612 64.65723 62.00168
# Shear Modulus (GPa) = 28.84172 32.27054 30.55613
#
# Velocity S-wave (km/s) = 3.75550 3.97246 3.86550
# Velocity P-wave (km/s) = 6.91560 7.25661 7.08816
#
# Compressibility (1/GPa) = 0.01685030
#
# Stress axis : x y z
#
# Youngs Moduli (GPa) = 73.63710 70.66854 54.62946
#
# Poissons Ratio (x) = 0.26952 0.46006
# Poissons Ratio (y) = 0.28084 0.12879
# Poissons Ratio (z) = 0.62013 0.16660
#
# Static dielectric constant tensor:
#      x y z
#    x 3.553140 0.000000 -0.186980 
#    y 0.000000 3.717630 0.000000 
#    z -0.186980 0.000000 3.861950 
# 
# 
# High freq. dielectric constant tensor:
#      x y z
#    x 1.786170 0.000000 -0.011300 
#    y 0.000000 1.804720 0.000000 
#    z -0.011300 0.000000 1.816860 
# 
# From -- ./inp_files/143783.got.cif
#   From: 2010.06.25/outbox.cif.g09.slc.cpg/sg15_72_cif.got.tgz:143783.got - 2010.06.28 07:06:18.
