data_PCOD8143838
_publ_section_title
;
Structure prediction by ZEFSAII (Michael W. Deem and Ramdas Pophale) SiO2 
 PCOD8143838
Probable space group: C 2/C
;
_chemical_formula_sum "Si O2"
_cell_formula_units_Z 48
_cell_length_a 12.073507
_cell_length_b 13.859606
_cell_length_c 21.312459
_cell_angle_alpha 90.000000
_cell_angle_beta 40.910355
_cell_angle_gamma 90.000000
_cell_volume 2335.489352
_symmetry_space_group_name_H-M "C 2/C"
_symmetry_group_IT_number 15
_symmetry_cell_setting 'monoclinic'
loop_
_space_group_symop_operation_xyz
x,y,z
-x,y,1/2-z
-x,-y,-z
x,-y,1/2+z
1/2+x,1/2+y,z
1/2-x,1/2+y,1/2-z
1/2-x,1/2-y,-z
1/2+x,1/2-y,1/2+z
loop_
_atom_site_type_symbol
_atom_site_label
_atom_site_fract_x
_atom_site_fract_y
_atom_site_fract_z
Si Si1 0.825954 0.826458 0.886074
Si Si2 0.805401 0.147825 0.784948
Si Si3 0.991752 0.551615 0.185067
Si Si4 0.135712 0.753993 0.110920
Si Si5 0.663598 0.425954 0.747395
Si Si6 0.559333 0.856888 0.102227
O O1 0.790419 0.853797 0.829421
O O2 0.868825 0.712271 0.873795
O O3 0.978492 0.891590 0.850767
O O4 0.653215 0.842375 0.996635
O O5 0.781948 0.192238 0.864686
O O6 0.636751 0.170231 0.819461
O O7 0.953352 0.195659 0.679492
O O8 0.843987 0.034466 0.775759
O O9 0.111894 0.643160 0.138289
O O10 0.077995 0.470824 0.105360
O O11 0.000000 0.504092 0.250000
O O12 0.803464 0.581480 0.242270
O O13 0.250000 0.750000 0.000000
#
# Coordination Sequence:
#
# PCOD8143838 Si02
#       6
#     8   8   8   8   8   8
#     4  10  21  41  65  96 116 168 211 255 303 378
#     4  10  22  44  60  95 125 166 211 262 298 382
#     4  11  24  42  59  94 125 165 199 265 312 370
#     4  11  23  38  65  90 128 165 211 254 315 363
#     4  10  23  40  70  84 130 163 214 251 307 373
#     4  10  24  40  66  88 132 156 213 256 316 367
#
# _framework density 20.552437999999999
#
# number of rings (size 3 to 8) (size 9 to 14) (size 15 to 20)
#    0.000    1.667    1.667    3.000    9.333    1.333 
#    0.000    0.833    0.000    0.000    0.000    0.000 
#    0.000    0.000    0.000    0.000    0.000    0.000 
#
# Total GULP energy -297448.812831 kJ/mol
# GULP energy per Si atom -12393.700535 kJ/mol
# Density = 2.050566 g / cm^3
# Si number density = 20.552438 Si / 1000 Ang^3
#
#
#
# Elastic Constant Matrix: (Units=GPa)
#
#
# Indices 1 2 3 4 5 6 
#
# 1 93.0826 26.0418 23.4561 0.0000 3.5647 0.0000
# 2 26.0418 101.7735 24.0875 0.0000 -5.4834 0.0000
# 3 23.4561 24.0875 115.1871 0.0003 3.7830 0.0001
# 4 0.0000 0.0000 0.0003 27.8811 0.0000 -3.2136
# 5 3.5647 -5.4834 3.7830 0.0000 19.5706 0.0000
# 6 0.0000 0.0000 0.0001 -3.2136 0.0000 31.3325
#
#
#
# Elastic Compliance Matrix: (Units=1/GPa)
#
#
# Indices 1 2 3 4 5 6 
#
# 1 0.012081 -0.002811 -0.001785 0.000000 -0.002643 0.000000
# 2 -0.002811 0.011212 -0.001904 0.000000 0.004022 0.000000
# 3 -0.001785 -0.001904 0.009511 0.000000 -0.002047 0.000000
# 4 0.000000 0.000000 0.000000 0.036296 0.000000 0.003723
# 5 -0.002643 0.004022 -0.002047 0.000000 0.053101 0.000000
# 6 0.000000 0.000000 0.000000 0.003723 0.000000 0.032298
#
#
# Mechanical properties :
#
#
# Convention : Reuss Voigt Hill
#
# Bulk Modulus (GPa) = 50.49979 50.80156 50.65068
# Shear Modulus (GPa) = 28.71908 31.52068 30.11988
#
# Velocity S-wave (km/s) = 3.74218 3.92046 3.83236
# Velocity P-wave (km/s) = 6.58000 6.72793 6.65438
#
# Compressibility (1/GPa) = 0.01980206
#
# Stress axis : x y z
#
# Youngs Moduli (GPa) = 82.77648 89.18674 105.14638
#
# Poissons Ratio (x) = 0.25071 0.18773
# Poissons Ratio (y) = 0.23269 0.20024
# Poissons Ratio (z) = 0.14779 0.16984
#
# Static dielectric constant tensor:
#      x y z
#    x 3.746960 0.000000 0.087590 
#    y 0.000000 3.971950 0.000000 
#    z 0.087590 0.000000 4.151220 
# 
# 
# High freq. dielectric constant tensor:
#      x y z
#    x 1.797060 0.000000 -0.007780 
#    y 0.000000 1.825410 0.000000 
#    z -0.007780 0.000000 1.794080 
# 
# From -- ./inp_files/238936.got.cif
#   From: 2010.06.25/outbox.cif.g09.slc.cpg/sg15_120_cif.got.tgz:238936.got - 2010.06.28 07:06:18.
