data_PCOD8143496
_publ_section_title
;
Structure prediction by ZEFSAII (Michael W. Deem and Ramdas Pophale) SiO2 
 PCOD8143496
Probable space group: C 2/C
;
_chemical_formula_sum "Si O2"
_cell_formula_units_Z 64
_cell_length_a 13.340836
_cell_length_b 14.534284
_cell_length_c 28.957567
_cell_angle_alpha 90.000000
_cell_angle_beta 34.224809
_cell_angle_gamma 90.000000
_cell_volume 3158.028729
_symmetry_space_group_name_H-M "C 2/C"
_symmetry_group_IT_number 15
_symmetry_cell_setting 'monoclinic'
loop_
_space_group_symop_operation_xyz
x,y,z
-x,y,1/2-z
-x,-y,-z
x,-y,1/2+z
1/2+x,1/2+y,z
1/2-x,1/2+y,1/2-z
1/2-x,1/2-y,-z
1/2+x,1/2-y,1/2+z
loop_
_atom_site_type_symbol
_atom_site_label
_atom_site_fract_x
_atom_site_fract_y
_atom_site_fract_z
Si Si1 0.554100 0.492769 0.350109
Si Si2 0.198448 0.846542 0.581800
Si Si3 0.534505 0.082271 0.452407
Si Si4 0.055026 0.078671 0.444847
Si Si5 0.080962 0.333460 0.669316
Si Si6 0.081217 0.487993 0.830958
Si Si7 0.685244 0.317513 0.064870
Si Si8 0.822302 0.650727 0.935512
O O1 0.441111 0.570597 0.367034
O O2 0.625051 0.531802 0.371399
O O3 0.723352 0.470695 0.253455
O O4 0.437142 0.402137 0.405734
O O5 0.301571 0.856743 0.591043
O O6 0.103647 0.746009 0.614894
O O7 0.335529 0.850181 0.486215
O O8 0.572654 0.046566 0.386567
O O9 0.360922 0.144062 0.521366
O O10 0.500000 0.000000 0.500000
O O11 0.212780 0.137453 0.407063
O O12 0.884554 0.142565 0.500103
O O13 0.000000 0.000000 0.500000
O O14 0.070897 0.237348 0.646122
O O15 0.000000 0.316747 0.750000
O O16 0.960415 0.405218 0.687604
O O17 0.938931 0.566703 0.872857
O O18 0.750000 0.250000 0.000000
#
# Coordination Sequence:
#
# PCOD8143496 Si02
#       8
#     8   8   8   8   8   8   8   8
#     4  11  25  42  65  98 138 176 218 282 342 395
#     4  10  22  42  65  98 127 171 229 272 329 400
#     4  12  22  44  72  96 133 181 226 276 337 402
#     4  11  20  39  72  93 126 175 224 268 333 404
#     4  12  25  44  67 102 138 177 226 287 349 404
#     4  12  24  43  67  99 143 174 221 287 340 402
#     4  12  25  45  71 101 137 178 235 281 335 411
#     4  10  21  40  68  97 127 171 227 278 321 402
#
# _framework density 20.265806000000001
#
# number of rings (size 3 to 8) (size 9 to 14) (size 15 to 20)
#    0.000    0.750    6.250    2.250    0.000    2.500 
#    2.250    0.000    2.750    0.000    0.000    0.000 
#    0.000    0.000    0.000    0.000    0.000    0.000 
#
# Total GULP energy -396856.482029 kJ/mol
# GULP energy per Si atom -12401.765063 kJ/mol
# Density = 2.021968 g / cm^3
# Si number density = 20.265806 Si / 1000 Ang^3
#
#
#
# Elastic Constant Matrix: (Units=GPa)
#
#
# Indices 1 2 3 4 5 6 
#
# 1 94.1708 33.8546 28.0255 -0.0002 2.8231 0.0000
# 2 33.8546 114.6127 40.5844 -0.0004 2.7246 -0.0003
# 3 28.0255 40.5844 96.8359 -0.0019 2.8577 -0.0002
# 4 -0.0002 -0.0004 -0.0019 23.3255 0.0001 4.0319
# 5 2.8231 2.7246 2.8577 0.0001 34.3395 -0.0003
# 6 0.0000 -0.0003 -0.0002 4.0319 -0.0003 33.2176
#
#
#
# Elastic Compliance Matrix: (Units=1/GPa)
#
#
# Indices 1 2 3 4 5 6 
#
# 1 0.012350 -0.002788 -0.002388 0.000000 -0.000595 0.000000
# 2 -0.002788 0.010882 -0.003744 0.000000 -0.000323 0.000000
# 3 -0.002388 -0.003744 0.012604 0.000001 -0.000555 0.000000
# 4 0.000000 0.000000 0.000001 0.043790 0.000000 -0.005315
# 5 -0.000595 -0.000323 -0.000555 0.000000 0.029242 0.000000
# 6 0.000000 0.000000 0.000000 -0.005315 0.000000 0.030750
#
#
# Mechanical properties :
#
#
# Convention : Reuss Voigt Hill
#
# Bulk Modulus (GPa) = 55.57274 56.72759 56.15016
# Shear Modulus (GPa) = 30.58916 31.72019 31.15468
#
# Velocity S-wave (km/s) = 3.88931 3.96056 3.92510
# Velocity P-wave (km/s) = 6.90293 6.99766 6.95046
#
# Compressibility (1/GPa) = 0.01799443
#
# Stress axis : x y z
#
# Youngs Moduli (GPa) = 80.97229 91.89372 79.34273
#
# Poissons Ratio (x) = 0.25621 0.18948
# Poissons Ratio (y) = 0.22576 0.29708
# Poissons Ratio (z) = 0.19337 0.34408
#
# Static dielectric constant tensor:
#      x y z
#    x 4.905640 -0.000010 -0.364180 
#    y -0.000010 3.762920 0.000000 
#    z -0.364180 0.000000 3.685930 
# 
# 
# High freq. dielectric constant tensor:
#      x y z
#    x 1.801510 0.000000 0.001210 
#    y 0.000000 1.804460 0.000000 
#    z 0.001210 0.000000 1.777050 
# 
# From -- ./inp_files/293051.got.cif
#   From: 2010.06.25/outbox.cif.g09.slc.cpg/sg15_147_cif.got.tgz:293051.got - 2010.06.28 07:06:18.
