data_PCOD8143971
_publ_section_title
;
Structure prediction by ZEFSAII (Michael W. Deem and Ramdas Pophale) SiO2 
 PCOD8143971
Probable space group: C 2/C
;
_chemical_formula_sum "Si O2"
_cell_formula_units_Z 48
_cell_length_a 5.189953
_cell_length_b 23.775824
_cell_length_c 18.433716
_cell_angle_alpha 90.000000
_cell_angle_beta 77.338808
_cell_angle_gamma 90.000000
_cell_volume 2219.324124
_symmetry_space_group_name_H-M "C 2/C"
_symmetry_group_IT_number 15
_symmetry_cell_setting 'monoclinic'
loop_
_space_group_symop_operation_xyz
x,y,z
-x,y,1/2-z
-x,-y,-z
x,-y,1/2+z
1/2+x,1/2+y,z
1/2-x,1/2+y,1/2-z
1/2-x,1/2-y,-z
1/2+x,1/2-y,1/2+z
loop_
_atom_site_type_symbol
_atom_site_label
_atom_site_fract_x
_atom_site_fract_y
_atom_site_fract_z
Si Si1 0.865501 0.582052 0.049129
Si Si2 0.459182 0.579715 0.954916
Si Si3 0.000000 0.578801 0.750000
Si Si4 0.382780 0.695084 0.903979
Si Si5 0.584065 0.203909 0.471039
Si Si6 0.500000 0.650795 0.750000
Si Si7 0.806645 0.993207 0.330339
O O1 0.782258 0.647632 0.069223
O O2 0.796129 0.550819 0.128234
O O3 0.682035 0.556151 0.996264
O O4 0.173157 0.574567 0.011377
O O5 0.551919 0.644434 0.930852
O O6 0.457567 0.544967 0.880226
O O7 0.731319 0.614925 0.773994
O O8 0.954149 0.540233 0.681496
O O9 0.448694 0.760368 0.915133
O O10 0.369684 0.690221 0.818407
O O11 0.099620 0.680799 0.953966
O O12 0.750000 0.250000 0.500000
O O13 0.000000 0.005272 0.250000
#
# Coordination Sequence:
#
# PCOD8143971 Si02
#       7
#     8   8   4   8   8   4   8
#     4  11  26  43  66  98 133 179 221 271 331 408
#     4  11  23  42  68  97 130 169 228 273 332 393
#     4  12  26  42  65  98 137 168 216 274 344 394
#     4  10  22  40  67  99 128 169 218 283 325 391
#     4  10  21  41  68  93 129 171 223 268 326 383
#     4  12  26  42  69 100 133 168 220 278 346 384
#     4  12  27  43  67  98 139 177 220 275 337 403
#
# _framework density 21.628205999999999
#
# number of rings (size 3 to 8) (size 9 to 14) (size 15 to 20)
#    0.000    1.000    4.167    1.000    9.333    0.000 
#    0.000    2.500    0.000    0.000    0.000    0.000 
#    0.000    0.000    0.000    0.000    0.000    0.000 
#
# Total GULP energy -297333.543304 kJ/mol
# GULP energy per Si atom -12388.897638 kJ/mol
# Density = 2.157898 g / cm^3
# Si number density = 21.628206 Si / 1000 Ang^3
#
#
#
# Elastic Constant Matrix: (Units=GPa)
#
#
# Indices 1 2 3 4 5 6 
#
# 1 94.4543 32.6330 34.9171 0.0000 14.5586 0.0000
# 2 32.6330 129.4133 76.0509 0.0000 -9.1990 0.0000
# 3 34.9171 76.0509 154.0028 0.0000 -4.4240 0.0000
# 4 0.0000 0.0000 0.0000 33.0540 0.0000 -9.2246
# 5 14.5586 -9.1990 -4.4240 0.0000 24.4757 0.0000
# 6 0.0000 0.0000 0.0000 -9.2246 0.0000 -8.3528
#
#
#
# Elastic Compliance Matrix: (Units=1/GPa)
#
#
# Indices 1 2 3 4 5 6 
#
# 1 0.013851 -0.003064 -0.001907 0.000000 -0.009735 0.000000
# 2 -0.003064 0.011809 -0.004983 0.000000 0.005360 0.000000
# 3 -0.001907 -0.004983 0.009414 0.000000 0.000963 0.000000
# 4 0.000000 0.000000 0.000000 0.023126 0.000000 -0.025540
# 5 -0.009735 0.005360 0.000963 0.000000 0.048836 0.000000
# 6 0.000000 0.000000 0.000000 -0.025540 0.000000 -0.091515
#
#
# Mechanical properties :
#
#
# Convention : Reuss Voigt Hill
#
# Bulk Modulus (GPa) = 65.93528 73.89696 69.91612
# Shear Modulus (GPa) = 123.50025 25.45332 74.47678
#
# Velocity S-wave (km/s) = 7.56475 3.43426 5.87450
# Velocity P-wave (km/s) = 10.33695 7.06871 8.85492
#
# Compressibility (1/GPa) = 0.01516639
#
# Stress axis : x y z
#
# Youngs Moduli (GPa) = 72.19559 84.68024 106.22275
#
# Poissons Ratio (x) = 0.25947 0.20257
# Poissons Ratio (y) = 0.22121 0.52931
# Poissons Ratio (z) = 0.13768 0.42196
#
# Static dielectric constant tensor:
#      x y z
#    x 1.807020 0.000000 -2.522190 
#    y 0.000000 6.976950 0.000000 
#    z -2.522190 0.000000 0.726980 
# 
# 
# High freq. dielectric constant tensor:
#      x y z
#    x 1.849770 0.000000 0.001880 
#    y 0.000000 1.854420 0.000000 
#    z 0.001880 0.000000 1.838740 
# 
# From -- ./inp_files/185276.got.cif
#   From: 2010.06.25/outbox.cif.g09.slc.cpg/sg15_93_cif.got.tgz:185276.got - 2010.06.28 07:06:18.
