data_PCOD8143706
_publ_section_title
;
Structure prediction by ZEFSAII (Michael W. Deem and Ramdas Pophale) SiO2 
 PCOD8143706
Probable space group: C 2/C
;
_chemical_formula_sum "Si O2"
_cell_formula_units_Z 56
_cell_length_a 29.189990
_cell_length_b 11.690735
_cell_length_c 8.498309
_cell_angle_alpha 90.000000
_cell_angle_beta 66.990234
_cell_angle_gamma 90.000000
_cell_volume 2669.334097
_symmetry_space_group_name_H-M "C 2/C"
_symmetry_group_IT_number 15
_symmetry_cell_setting 'monoclinic'
loop_
_space_group_symop_operation_xyz
x,y,z
-x,y,1/2-z
-x,-y,-z
x,-y,1/2+z
1/2+x,1/2+y,z
1/2-x,1/2+y,1/2-z
1/2-x,1/2-y,-z
1/2+x,1/2-y,1/2+z
loop_
_atom_site_type_symbol
_atom_site_label
_atom_site_fract_x
_atom_site_fract_y
_atom_site_fract_z
Si Si1 0.525745 0.897276 0.382184
Si Si2 0.137956 0.118549 0.440768
Si Si3 0.581465 0.535668 0.809592
Si Si4 0.136755 0.628269 0.798116
Si Si5 0.254306 0.625749 0.067507
Si Si6 0.499806 0.337541 0.923899
Si Si7 0.804247 0.460954 0.565673
O O1 0.500000 0.896689 0.250000
O O2 0.584880 0.917402 0.300234
O O3 0.517618 0.777181 0.491107
O O4 0.500000 0.000000 0.500000
O O5 0.093493 0.093009 0.625531
O O6 0.134034 0.242859 0.367716
O O7 0.189814 0.099734 0.456334
O O8 0.131104 0.020490 0.316764
O O9 0.538420 0.440992 0.867411
O O10 0.556545 0.634334 0.948326
O O11 0.154830 0.546461 0.915525
O O12 0.173618 0.621992 0.598456
O O13 0.218212 0.618688 0.267294
O O14 0.250000 0.750000 0.000000
O O15 0.239667 0.534928 0.953927
O O16 0.500000 0.288942 0.750000
#
# Coordination Sequence:
#
# PCOD8143706 Si02
#       7
#     8   8   8   8   8   8   8
#     4  11  24  42  64  95 134 172 221 271 323 399
#     4  12  24  43  67 100 135 170 234 273 339 411
#     4  11  23  41  66  95 132 176 216 280 327 399
#     4  11  23  45  69 100 132 182 226 274 341 408
#     4  11  23  47  68 102 130 176 225 282 344 405
#     4  10  21  41  63  91 133 171 219 267 333 382
#     4  10  24  46  71  92 141 175 221 284 344 407
#
# _framework density 20.979013999999999
#
# number of rings (size 3 to 8) (size 9 to 14) (size 15 to 20)
#    0.000    1.143    4.286    1.714    0.000    2.857 
#   10.286    0.000    0.000    0.000    0.000    0.000 
#    0.000    0.000    0.000    0.000    0.000    0.000 
#
# Total GULP energy -346961.520768 kJ/mol
# GULP energy per Si atom -12391.482885 kJ/mol
# Density = 2.093126 g / cm^3
# Si number density = 20.979014 Si / 1000 Ang^3
#
#
#
# Elastic Constant Matrix: (Units=GPa)
#
#
# Indices 1 2 3 4 5 6 
#
# 1 141.9238 39.1677 29.6488 0.0000 4.9275 0.0000
# 2 39.1677 134.1293 79.3612 0.0000 -10.0307 0.0000
# 3 29.6488 79.3612 123.1227 0.0000 3.1875 0.0000
# 4 0.0000 0.0000 0.0000 35.0339 0.0000 1.3322
# 5 4.9275 -10.0307 3.1875 0.0000 29.3021 0.0000
# 6 0.0000 0.0000 0.0000 1.3322 0.0000 30.9863
#
#
#
# Elastic Compliance Matrix: (Units=1/GPa)
#
#
# Indices 1 2 3 4 5 6 
#
# 1 0.007806 -0.002180 -0.000422 0.000000 -0.002013 0.000000
# 2 -0.002180 0.013433 -0.008286 0.000000 0.005866 0.000000
# 3 -0.000422 -0.008286 0.013674 0.000000 -0.004253 0.000000
# 4 0.000000 0.000000 0.000000 0.028591 0.000000 -0.001229
# 5 -0.002013 0.005866 -0.004253 0.000000 0.036936 0.000000
# 6 0.000000 0.000000 0.000000 -0.001229 0.000000 0.032325
#
#
# Mechanical properties :
#
#
# Convention : Reuss Voigt Hill
#
# Bulk Modulus (GPa) = 76.11819 77.28126 76.69972
# Shear Modulus (GPa) = 31.46227 35.79767 33.62997
#
# Velocity S-wave (km/s) = 3.87680 4.13529 4.00813
# Velocity P-wave (km/s) = 7.51007 7.72775 7.61969
#
# Compressibility (1/GPa) = 0.01313746
#
# Stress axis : x y z
#
# Youngs Moduli (GPa) = 128.10990 74.44273 73.12937
#
# Poissons Ratio (x) = 0.16229 0.03089
# Poissons Ratio (y) = 0.27928 0.60591
# Poissons Ratio (z) = 0.05411 0.61680
#
# Static dielectric constant tensor:
#      x y z
#    x 3.894570 0.000000 -0.047740 
#    y 0.000000 4.009490 0.000000 
#    z -0.047740 0.000000 3.967520 
# 
# 
# High freq. dielectric constant tensor:
#      x y z
#    x 1.833380 0.000000 0.006680 
#    y 0.000000 1.831130 0.000000 
#    z 0.006680 0.000000 1.820550 
# 
# From -- ./inp_files/65410.got.cif
#   From: 2010.06.25/outbox.cif.g09.slc.cpg/sg15_33_cif.got.tgz:65410.got - 2010.06.28 07:06:18.
