data_PCOD8143243
_publ_section_title
;
Structure prediction by ZEFSAII (Michael W. Deem and Ramdas Pophale) SiO2 
 PCOD8143243
Probable space group: C 2/C
;
_chemical_formula_sum "Si O2"
_cell_formula_units_Z 60
_cell_length_a 14.043758
_cell_length_b 14.522198
_cell_length_c 15.410265
_cell_angle_alpha 90.000000
_cell_angle_beta 109.730512
_cell_angle_gamma 90.000000
_cell_volume 2958.350700
_symmetry_space_group_name_H-M "C 2/C"
_symmetry_group_IT_number 15
_symmetry_cell_setting 'monoclinic'
loop_
_space_group_symop_operation_xyz
x,y,z
-x,y,1/2-z
-x,-y,-z
x,-y,1/2+z
1/2+x,1/2+y,z
1/2-x,1/2+y,1/2-z
1/2-x,1/2-y,-z
1/2+x,1/2-y,1/2+z
loop_
_atom_site_type_symbol
_atom_site_label
_atom_site_fract_x
_atom_site_fract_y
_atom_site_fract_z
Si Si1 0.059410 0.143085 0.570117
Si Si2 0.000000 0.151185 0.250000
Si Si3 0.660486 0.655266 0.044036
Si Si4 0.843320 0.358499 0.479906
Si Si5 0.810956 0.538016 0.370623
Si Si6 0.676076 0.675821 0.433988
Si Si7 0.474084 0.830213 0.843109
Si Si8 0.355952 0.470511 0.812052
O O1 0.110342 0.139051 0.492304
O O2 0.069897 0.238895 0.625009
O O3 0.944528 0.113549 0.520593
O O4 0.110370 0.067815 0.644138
O O5 0.093336 0.205647 0.330863
O O6 0.048986 0.086796 0.192888
O O7 0.731141 0.642901 0.983057
O O8 0.701166 0.594290 0.135760
O O9 0.645121 0.762166 0.069535
O O10 0.864143 0.448038 0.428085
O O11 0.921251 0.360762 0.582558
O O12 0.756545 0.600794 0.425679
O O13 0.892450 0.590706 0.336654
O O14 0.723342 0.499682 0.283791
O O15 0.750000 0.750000 0.500000
O O16 0.500000 0.815032 0.750000
#
# Coordination Sequence:
#
# PCOD8143243 Si02
#       8
#     8   4   8   8   8   8   8   8
#     4  11  23  39  67  98 129 169 215 267 339 398
#     4  10  24  38  62 100 130 166 220 272 330 400
#     4  10  21  40  64  92 127 164 211 267 327 388
#     4  10  23  41  66  89 123 175 215 266 327 391
#     4  11  24  41  66  92 133 170 219 272 324 397
#     4  11  22  44  66  97 135 178 214 273 343 395
#     4  11  24  43  65  91 130 173 223 270 317 391
#     4  11  23  36  62  97 131 160 208 274 325 393
#
# _framework density 20.281571
#
# number of rings (size 3 to 8) (size 9 to 14) (size 15 to 20)
#    0.000    1.333    2.667    2.400    4.667    3.200 
#    0.000    0.000    2.933    0.000    0.000    0.000 
#    0.000    0.000    0.000    0.000    0.000    0.000 
#
# Total GULP energy -371754.750158 kJ/mol
# GULP energy per Si atom -12391.825005 kJ/mol
# Density = 2.023541 g / cm^3
# Si number density = 20.281571 Si / 1000 Ang^3
#
#
#
# Elastic Constant Matrix: (Units=GPa)
#
#
# Indices 1 2 3 4 5 6 
#
# 1 87.3696 23.6159 26.7699 0.0000 0.4192 0.0000
# 2 23.6159 95.0889 58.5866 0.0000 5.3712 0.0000
# 3 26.7699 58.5866 114.1285 0.0000 8.3096 0.0000
# 4 0.0000 0.0000 0.0000 -2.8583 0.0000 0.9853
# 5 0.4192 5.3712 8.3096 0.0000 37.5811 0.0000
# 6 0.0000 0.0000 0.0000 0.9853 0.0000 21.1944
#
#
#
# Elastic Compliance Matrix: (Units=1/GPa)
#
#
# Indices 1 2 3 4 5 6 
#
# 1 0.012577 -0.001920 -0.002006 0.000000 0.000578 0.000000
# 2 -0.001920 0.015682 -0.007560 0.000000 -0.000548 0.000000
# 3 -0.002006 -0.007560 0.013246 0.000000 -0.001826 0.000000
# 4 0.000000 0.000000 0.000000 -0.344337 0.000000 0.016008
# 5 0.000578 -0.000548 -0.001826 0.000000 0.027085 0.000000
# 6 0.000000 0.000000 0.000000 0.016008 0.000000 0.046438
#
#
# Mechanical properties :
#
#
# Convention : Reuss Voigt Hill
#
# Bulk Modulus (GPa) = 53.95921 57.17019 55.56470
# Shear Modulus (GPa) = -24.98016 23.69108 -0.64454
#
# Velocity S-wave (km/s) = -3.51332 3.42147 -0.56435
# Velocity P-wave (km/s) = 3.19451 6.62254 5.19918
#
# Compressibility (1/GPa) = 0.01853252
#
# Stress axis : x y z
#
# Youngs Moduli (GPa) = 79.51289 63.76666 75.49164
#
# Poissons Ratio (x) = 0.12242 0.15147
# Poissons Ratio (y) = 0.15265 0.57072
# Poissons Ratio (z) = 0.15954 0.48208
#
# Static dielectric constant tensor:
#      x y z
#    x 4.047120 0.000000 -0.063140 
#    y 0.000000 3.627730 0.000000 
#    z -0.063140 0.000000 3.969010 
# 
# 
# High freq. dielectric constant tensor:
#      x y z
#    x 1.807070 0.000000 0.004860 
#    y 0.000000 1.782900 0.000000 
#    z 0.004860 0.000000 1.799410 
# 
# From -- ./inp_files/154033.got.cif
#   From: 2010.06.25/outbox.cif.g09.slc.cpg/sg15_78_cif.got.tgz:154033.got - 2010.06.28 07:06:18.
