data_PCOD8143288
_publ_section_title
;
Structure prediction by ZEFSAII (Michael W. Deem and Ramdas Pophale) SiO2 
 PCOD8143288
Probable space group: C 2/C
;
_chemical_formula_sum "Si O2"
_cell_formula_units_Z 56
_cell_length_a 26.450401
_cell_length_b 12.287893
_cell_length_c 24.145518
_cell_angle_alpha 90.000000
_cell_angle_beta 19.271781
_cell_angle_gamma 90.000000
_cell_volume 2590.152352
_symmetry_space_group_name_H-M "C 2/C"
_symmetry_group_IT_number 15
_symmetry_cell_setting 'monoclinic'
loop_
_space_group_symop_operation_xyz
x,y,z
-x,y,1/2-z
-x,-y,-z
x,-y,1/2+z
1/2+x,1/2+y,z
1/2-x,1/2+y,1/2-z
1/2-x,1/2-y,-z
1/2+x,1/2-y,1/2+z
loop_
_atom_site_type_symbol
_atom_site_label
_atom_site_fract_x
_atom_site_fract_y
_atom_site_fract_z
Si Si1 0.063731 0.196998 0.846181
Si Si2 0.770920 0.403596 0.793750
Si Si3 0.745281 0.109504 0.614176
Si Si4 0.144084 0.165375 0.639093
Si Si5 0.908743 0.823058 0.719302
Si Si6 0.158033 0.991895 0.804698
Si Si7 0.325891 0.568819 0.411458
O O1 0.093398 0.315031 0.842739
O O2 0.096273 0.209880 0.747909
O O3 0.181999 0.108012 0.749723
O O4 0.889585 0.160538 0.035307
O O5 0.786122 0.491942 0.826839
O O6 0.786249 0.464902 0.718572
O O7 0.619627 0.196243 0.765742
O O8 0.723737 0.100612 0.570046
O O9 0.913046 0.151134 0.457880
O O10 0.250000 0.250000 0.500000
O O11 0.000000 0.147028 0.750000
O O12 0.227331 0.048322 0.557470
O O13 0.841528 0.895066 0.739660
O O14 0.810571 0.846260 0.876769
O O15 0.000000 0.000000 0.000000
O O16 0.500000 0.564362 0.250000
#
# Coordination Sequence:
#
# PCOD8143288 Si02
#       7
#     8   8   8   8   8   8   8
#     4  11  21  43  64  91 128 165 207 262 311 369
#     4  11  24  41  66  90 126 164 210 259 311 371
#     4  11  22  40  61  91 121 162 207 253 313 371
#     4  11  20  34  61  90 123 164 203 250 314 372
#     4  11  21  39  63  85 123 162 203 257 306 367
#     4  10  21  40  65  86 121 167 205 251 313 356
#     4   9  18  36  58  84 119 161 202 246 309 372
#
# _framework density 21.620349999999998
#
# number of rings (size 3 to 8) (size 9 to 14) (size 15 to 20)
#    0.000    1.429    4.286    3.857    2.000    0.000 
#    2.571    2.143    0.000    0.857    0.000    0.000 
#    0.000    0.000    0.000    0.000    0.000    0.000 
#
# Total GULP energy -347135.495626 kJ/mol
# GULP energy per Si atom -12397.696272 kJ/mol
# Density = 2.157114 g / cm^3
# Si number density = 21.620350 Si / 1000 Ang^3
#
#
#
# Elastic Constant Matrix: (Units=GPa)
#
#
# Indices 1 2 3 4 5 6 
#
# 1 109.1784 29.0350 8.4482 0.0017 23.3196 -0.0094
# 2 29.0350 142.5997 23.0837 -0.0327 -4.8456 -0.0495
# 3 8.4482 23.0837 22.7026 -0.0189 6.7918 -0.0110
# 4 0.0017 -0.0327 -0.0189 32.2327 0.0134 -16.9047
# 5 23.3196 -4.8456 6.7918 0.0134 19.2486 0.0019
# 6 -0.0094 -0.0495 -0.0110 -16.9047 0.0019 -2.4212
#
#
#
# Elastic Compliance Matrix: (Units=1/GPa)
#
#
# Indices 1 2 3 4 5 6 
#
# 1 0.014260 -0.004445 0.005273 0.000001 -0.020256 -0.000010
# 2 -0.004445 0.010386 -0.012633 -0.000015 0.012458 -0.000025
# 3 0.005273 -0.012633 0.064614 -0.000001 -0.032367 -0.000075
# 4 0.000001 -0.000015 -0.000001 0.006655 -0.000005 -0.046466
# 5 -0.020256 0.012458 -0.032367 -0.000005 0.091048 0.000074
# 6 -0.000010 -0.000025 -0.000075 -0.046466 0.000074 -0.088597
#
#
# Mechanical properties :
#
#
# Convention : Reuss Voigt Hill
#
# Bulk Modulus (GPa) = 15.23248 43.95717 29.59482
# Shear Modulus (GPa) = 34.75620 24.07294 29.41457
#
# Velocity S-wave (km/s) = 4.01380 3.34044 3.69250
# Velocity P-wave (km/s) = 5.34243 5.93747 5.64779
#
# Compressibility (1/GPa) = 0.06564921
#
# Stress axis : x y z
#
# Youngs Moduli (GPa) = 70.12674 96.28243 15.47659
#
# Poissons Ratio (x) = 0.42801 -0.08161
# Poissons Ratio (y) = 0.31174 0.19552
# Poissons Ratio (z) = -0.36980 1.21635
#
# Static dielectric constant tensor:
#      x y z
#    x 4.387670 -0.000070 0.276290 
#    y -0.000070 4.465180 0.000040 
#    z 0.276290 0.000040 3.619550 
# 
# 
# High freq. dielectric constant tensor:
#      x y z
#    x 1.861040 0.000000 0.019540 
#    y 0.000000 1.865570 0.000000 
#    z 0.019540 0.000000 1.805940 
# 
# From -- ./inp_files/304253.got.cif
#   From: 2010.06.25/outbox.cif.g09.slc.cpg/sg15_153_cif.got.tgz:304253.got - 2010.06.28 07:06:18.
