data_PCOD8143693
_publ_section_title
;
Structure prediction by ZEFSAII (Michael W. Deem and Ramdas Pophale) SiO2 
 PCOD8143693
Probable space group: C 2/C
;
_chemical_formula_sum "Si O2"
_cell_formula_units_Z 32
_cell_length_a 9.308981
_cell_length_b 12.958381
_cell_length_c 14.403275
_cell_angle_alpha 90.000000
_cell_angle_beta 61.563750
_cell_angle_gamma 90.000000
_cell_volume 1527.828700
_symmetry_space_group_name_H-M "C 2/C"
_symmetry_group_IT_number 15
_symmetry_cell_setting 'monoclinic'
loop_
_space_group_symop_operation_xyz
x,y,z
-x,y,1/2-z
-x,-y,-z
x,-y,1/2+z
1/2+x,1/2+y,z
1/2-x,1/2+y,1/2-z
1/2-x,1/2-y,-z
1/2+x,1/2-y,1/2+z
loop_
_atom_site_type_symbol
_atom_site_label
_atom_site_fract_x
_atom_site_fract_y
_atom_site_fract_z
Si Si1 0.752551 0.973383 0.012292
Si Si2 0.403888 0.376254 0.597952
Si Si3 0.824178 0.979457 0.285454
Si Si4 0.451141 0.834979 0.166579
O O1 0.913255 0.907799 0.987526
O O2 0.734259 0.992489 0.908618
O O3 0.592381 0.911709 0.089949
O O4 0.773660 0.082616 0.061251
O O5 0.353262 0.419496 0.714255
O O6 0.408130 0.252182 0.603787
O O7 0.712424 0.900081 0.263740
O O8 0.000000 0.926499 0.250000
O O9 0.500000 0.783857 0.250000
#
# Coordination Sequence:
#
# PCOD8143693 Si02
#       4
#     8   8   8   8
#     4  10  21  41  63  89 132 165 213 268 313 377
#     4  10  22  40  64  94 127 163 215 268 311 378
#     4  10  22  43  59  91 133 163 210 272 313 377
#     4  12  22  39  67  95 123 176 216 252 329 380
#
# _framework density 20.944756999999999
#
# number of rings (size 3 to 8) (size 9 to 14) (size 15 to 20)
#    0.000    1.500    2.500    3.750    0.000    1.000 
#    4.500    0.000    0.000    0.000    0.000    0.000 
#    0.000    0.000    0.000    0.000    0.000    0.000 
#
# Total GULP energy -198383.411167 kJ/mol
# GULP energy per Si atom -12398.963198 kJ/mol
# Density = 2.089709 g / cm^3
# Si number density = 20.944757 Si / 1000 Ang^3
#
#
#
# Elastic Constant Matrix: (Units=GPa)
#
#
# Indices 1 2 3 4 5 6 
#
# 1 83.0840 54.7454 37.7047 0.0000 -10.0153 0.0000
# 2 54.7454 94.3678 15.0867 0.0000 -16.5894 0.0000
# 3 37.7047 15.0867 90.3058 0.0000 1.3274 0.0000
# 4 0.0000 0.0000 0.0000 13.9315 0.0000 -1.4487
# 5 -10.0153 -16.5894 1.3274 0.0000 30.1849 0.0000
# 6 0.0000 0.0000 0.0000 -1.4487 0.0000 33.2176
#
#
#
# Elastic Compliance Matrix: (Units=1/GPa)
#
#
# Indices 1 2 3 4 5 6 
#
# 1 0.023992 -0.012379 -0.007971 0.000000 0.001508 0.000000
# 2 -0.012379 0.018512 0.001988 0.000000 0.005979 0.000000
# 3 -0.007971 0.001988 0.014101 0.000000 -0.002172 0.000000
# 4 0.000000 0.000000 0.000000 0.072107 0.000000 0.003145
# 5 0.001508 0.005979 -0.002172 0.000000 0.037011 0.000000
# 6 0.000000 0.000000 0.000000 0.003145 0.000000 0.030242
#
#
# Mechanical properties :
#
#
# Convention : Reuss Voigt Hill
#
# Bulk Modulus (GPa) = 50.30062 53.64792 51.97427
# Shear Modulus (GPa) = 20.89292 26.14818 23.52055
#
# Velocity S-wave (km/s) = 3.16179 3.53715 3.35473
# Velocity P-wave (km/s) = 6.11532 6.50781 6.31462
#
# Compressibility (1/GPa) = 0.01988047
#
# Stress axis : x y z
#
# Youngs Moduli (GPa) = 41.68059 54.02047 70.91455
#
# Poissons Ratio (x) = 0.66872 0.56528
# Poissons Ratio (y) = 0.51596 -0.14098
# Poissons Ratio (z) = 0.33225 -0.10740
#
# Static dielectric constant tensor:
#      x y z
#    x 3.994560 0.000000 0.158100 
#    y 0.000000 3.479330 0.000000 
#    z 0.158100 0.000000 3.858160 
# 
# 
# High freq. dielectric constant tensor:
#      x y z
#    x 1.824040 0.000000 0.002380 
#    y 0.000000 1.795420 0.000000 
#    z 0.002380 0.000000 1.831110 
# 
# From -- ./inp_files/75295.got.cif
#   From: 2010.06.25/outbox.cif.g09.slc.cpg/sg15_38_cif.got.tgz:75295.got - 2010.06.28 07:06:18.
