data_PCOD8143326
_publ_section_title
;
Structure prediction by ZEFSAII (Michael W. Deem and Ramdas Pophale) SiO2 
 PCOD8143326
Probable space group: C 2/C
;
_chemical_formula_sum "Si O2"
_cell_formula_units_Z 60
_cell_length_a 22.018377
_cell_length_b 23.696845
_cell_length_c 8.654292
_cell_angle_alpha 90.000000
_cell_angle_beta 37.954921
_cell_angle_gamma 90.000000
_cell_volume 2777.228751
_symmetry_space_group_name_H-M "C 2/C"
_symmetry_group_IT_number 15
_symmetry_cell_setting 'monoclinic'
loop_
_space_group_symop_operation_xyz
x,y,z
-x,y,1/2-z
-x,-y,-z
x,-y,1/2+z
1/2+x,1/2+y,z
1/2-x,1/2+y,1/2-z
1/2-x,1/2-y,-z
1/2+x,1/2-y,1/2+z
loop_
_atom_site_type_symbol
_atom_site_label
_atom_site_fract_x
_atom_site_fract_y
_atom_site_fract_z
Si Si1 0.762128 0.844508 0.086070
Si Si2 0.076356 0.172175 0.726606
Si Si3 0.717552 0.158369 0.346942
Si Si4 0.566245 0.579658 0.374322
Si Si5 0.105693 0.431543 0.476675
Si Si6 0.391673 0.736898 0.536474
Si Si7 0.000000 0.001019 0.750000
Si Si8 0.395745 0.952866 0.378931
O O1 0.682849 0.880265 0.342908
O O2 0.712326 0.815941 0.034052
O O3 0.836175 0.885329 0.846218
O O4 0.815189 0.802147 0.095445
O O5 0.173355 0.154624 0.440699
O O6 0.000000 0.194902 0.750000
O O7 0.103768 0.220810 0.792730
O O8 0.030459 0.119419 0.913624
O O9 0.646993 0.199327 0.389432
O O10 0.677299 0.095251 0.415026
O O11 0.577110 0.541222 0.505069
O O12 0.560557 0.538611 0.241000
O O13 0.092503 0.450369 0.327443
O O14 0.145470 0.485289 0.493361
O O15 0.000000 0.410141 0.750000
O O16 0.500000 0.730265 0.250000
O O17 0.500000 0.943105 0.250000
#
# Coordination Sequence:
#
# PCOD8143326 Si02
#       8
#     8   8   8   8   8   8   4   8
#     4  11  23  42  67  93 134 174 218 272 342 395
#     4  12  23  43  65  89 134 175 217 271 337 390
#     4  11  24  42  66  97 128 175 222 279 334 394
#     4  11  20  39  58  90 130 173 210 268 324 378
#     4  10  22  39  65  95 131 173 219 271 333 397
#     4  12  24  43  69  96 128 175 225 275 337 400
#     4  10  22  32  60  94 128 168 228 256 308 402
#     4  10  21  40  65  92 133 171 218 277 333 389
#
# _framework density 21.60427
#
# number of rings (size 3 to 8) (size 9 to 14) (size 15 to 20)
#    0.000    1.067    3.333    3.600    0.000    6.400 
#    0.000    3.333    0.000    0.800    0.000    0.000 
#    0.000    0.000    0.000    0.000    0.000    0.000 
#
# Total GULP energy -371992.882401 kJ/mol
# GULP energy per Si atom -12399.762747 kJ/mol
# Density = 2.155510 g / cm^3
# Si number density = 21.604270 Si / 1000 Ang^3
#
#
#
# Elastic Constant Matrix: (Units=GPa)
#
#
# Indices 1 2 3 4 5 6 
#
# 1 67.4948 27.8501 32.3848 0.0000 2.4638 0.0000
# 2 27.8501 82.7823 54.9581 0.0000 -6.1776 0.0000
# 3 32.3848 54.9581 129.1202 0.0000 -4.6082 0.0000
# 4 0.0000 0.0000 0.0000 38.1453 0.0000 7.0648
# 5 2.4638 -6.1776 -4.6082 0.0000 32.2189 0.0000
# 6 0.0000 0.0000 0.0000 7.0648 0.0000 41.5974
#
#
#
# Elastic Compliance Matrix: (Units=1/GPa)
#
#
# Indices 1 2 3 4 5 6 
#
# 1 0.018061 -0.004464 -0.002724 0.000000 -0.002627 0.000000
# 2 -0.004464 0.018100 -0.006481 0.000000 0.002885 0.000000
# 3 -0.002724 -0.006481 0.011207 0.000000 0.000568 0.000000
# 4 0.000000 0.000000 0.000000 0.027067 0.000000 -0.004597
# 5 -0.002627 0.002885 0.000568 0.000000 0.031873 0.000000
# 6 0.000000 0.000000 0.000000 -0.004597 0.000000 0.024821
#
#
# Mechanical properties :
#
#
# Convention : Reuss Voigt Hill
#
# Bulk Modulus (GPa) = 49.92628 56.64259 53.28443
# Shear Modulus (GPa) = 30.27698 33.33926 31.80812
#
# Velocity S-wave (km/s) = 3.74764 3.93259 3.84123
# Velocity P-wave (km/s) = 6.47194 6.84803 6.66264
#
# Compressibility (1/GPa) = 0.02002953
#
# Stress axis : x y z
#
# Youngs Moduli (GPa) = 55.36925 55.24920 89.23159
#
# Poissons Ratio (x) = 0.24663 0.24303
# Poissons Ratio (y) = 0.24716 0.57834
# Poissons Ratio (z) = 0.15080 0.35809
#
# Static dielectric constant tensor:
#      x y z
#    x 4.080880 0.000000 0.192730 
#    y 0.000000 3.983820 0.000000 
#    z 0.192730 0.000000 4.087120 
# 
# 
# High freq. dielectric constant tensor:
#      x y z
#    x 1.853890 0.000000 0.008520 
#    y 0.000000 1.847220 0.000000 
#    z 0.008520 0.000000 1.858640 
# 
# From -- ./inp_files/63504.got.cif
#   From: 2010.06.25/outbox.cif.g09.slc.cpg/sg15_32_cif.got.tgz:63504.got - 2010.06.28 07:06:18.
