data_PCOD8143435
_publ_section_title
;
Structure prediction by ZEFSAII (Michael W. Deem and Ramdas Pophale) SiO2 
 PCOD8143435
Probable space group: C 2/C
;
_chemical_formula_sum "Si O2"
_cell_formula_units_Z 52
_cell_length_a 12.148585
_cell_length_b 14.872225
_cell_length_c 24.371408
_cell_angle_alpha 90.000000
_cell_angle_beta 146.466890
_cell_angle_gamma 90.000000
_cell_volume 2432.487946
_symmetry_space_group_name_H-M "C 2/C"
_symmetry_group_IT_number 15
_symmetry_cell_setting 'monoclinic'
loop_
_space_group_symop_operation_xyz
x,y,z
-x,y,1/2-z
-x,-y,-z
x,-y,1/2+z
1/2+x,1/2+y,z
1/2-x,1/2+y,1/2-z
1/2-x,1/2-y,-z
1/2+x,1/2-y,1/2+z
loop_
_atom_site_type_symbol
_atom_site_label
_atom_site_fract_x
_atom_site_fract_y
_atom_site_fract_z
Si Si1 0.861735 0.416014 0.898264
Si Si2 0.452771 0.893187 0.409764
Si Si3 0.869859 0.667927 0.072180
Si Si4 0.680253 0.782858 0.785671
Si Si5 0.000000 0.794541 0.750000
Si Si6 0.925035 0.900073 0.959840
Si Si7 0.693045 0.187720 0.924712
O O1 0.812885 0.520056 0.862515
O O2 0.678176 0.356905 0.802809
O O3 0.068884 0.394858 0.953089
O O4 0.893654 0.392261 0.975418
O O5 0.327029 0.801900 0.350648
O O6 0.583426 0.898694 0.407519
O O7 0.716926 0.618046 0.048020
O O8 0.081034 0.699533 0.185695
O O9 0.750000 0.750000 0.000000
O O10 0.500000 0.758065 0.750000
O O11 0.793905 0.875405 0.851291
O O12 0.958886 0.735379 0.679403
O O13 0.120908 0.838261 0.036468
O O14 0.000000 0.000000 0.000000
O O15 0.750000 0.250000 0.000000
#
# Coordination Sequence:
#
# PCOD8143435 Si02
#       7
#     8   8   8   8   4   8   8
#     4  11  24  40  66 104 135 173 228 285 336 414
#     4  11  23  43  67  97 140 175 221 284 349 404
#     4  11  23  44  66  96 137 174 233 279 336 416
#     4  10  21  40  67  90 130 179 218 274 346 398
#     4  12  24  44  70 102 136 182 234 274 346 414
#     4  11  24  45  68  97 132 181 231 283 337 405
#     4  12  23  45  70  97 140 181 227 284 348 406
#
# _framework density 21.377289999999999
#
# number of rings (size 3 to 8) (size 9 to 14) (size 15 to 20)
#    0.000    0.923    3.077    4.615    1.077    0.000 
#    9.692    0.000    0.000    0.000    0.000    0.000 
#    0.000    0.000    0.000    0.000    0.000    0.000 
#
# Total GULP energy -322158.658187 kJ/mol
# GULP energy per Si atom -12390.717623 kJ/mol
# Density = 2.132863 g / cm^3
# Si number density = 21.377290 Si / 1000 Ang^3
#
#
#
# Elastic Constant Matrix: (Units=GPa)
#
#
# Indices 1 2 3 4 5 6 
#
# 1 121.5341 48.1458 48.9708 -0.0003 7.4379 0.0001
# 2 48.1458 126.9872 69.8728 -0.0001 -3.2588 0.0000
# 3 48.9708 69.8728 128.4948 0.0007 -7.6170 -0.0004
# 4 -0.0003 -0.0001 0.0007 27.8322 0.0001 8.8884
# 5 7.4379 -3.2588 -7.6170 0.0001 36.0095 0.0000
# 6 0.0001 0.0000 -0.0004 8.8884 0.0000 28.8037
#
#
#
# Elastic Compliance Matrix: (Units=1/GPa)
#
#
# Indices 1 2 3 4 5 6 
#
# 1 0.010550 -0.002521 -0.002828 0.000000 -0.003006 0.000000
# 2 -0.002521 0.011842 -0.005453 0.000000 0.000439 0.000000
# 3 -0.002828 -0.005453 0.011981 0.000000 0.002625 0.000000
# 4 0.000000 0.000000 0.000000 0.039858 0.000000 -0.012300
# 5 -0.003006 0.000439 0.002625 0.000000 0.028986 0.000000
# 6 0.000000 0.000000 0.000000 -0.012300 0.000000 0.038513
#
#
# Mechanical properties :
#
#
# Convention : Reuss Voigt Hill
#
# Bulk Modulus (GPa) = 78.31043 78.99942 78.65493
# Shear Modulus (GPa) = 29.83456 32.53085 31.18271
#
# Velocity S-wave (km/s) = 3.73985 3.90519 3.82342
# Velocity P-wave (km/s) = 7.44048 7.57424 7.50766
#
# Compressibility (1/GPa) = 0.01276969
#
# Stress axis : x y z
#
# Youngs Moduli (GPa) = 94.78351 84.44393 83.46599
#
# Poissons Ratio (x) = 0.21289 0.23605
# Poissons Ratio (y) = 0.23895 0.45512
# Poissons Ratio (z) = 0.26806 0.46045
#
# Static dielectric constant tensor:
#      x y z
#    x -7.007220 0.000000 -2.833390 
#    y 0.000000 3.873360 0.000000 
#    z -2.833390 0.000000 3.313620 
# 
# 
# High freq. dielectric constant tensor:
#      x y z
#    x 1.861280 0.000000 0.006670 
#    y 0.000000 1.832280 0.000000 
#    z 0.006670 0.000000 1.837470 
# 
# From -- ./inp_files/269995.got.cif
#   From: 2010.06.25/outbox.cif.g09.slc.cpg/sg15_135_cif.got.tgz:269995.got - 2010.06.28 07:06:18.
