data_PCOD8143783
_publ_section_title
;
Structure prediction by ZEFSAII (Michael W. Deem and Ramdas Pophale) SiO2 
 PCOD8143783
Probable space group: C 2/C
;
_chemical_formula_sum "Si O2"
_cell_formula_units_Z 40
_cell_length_a 14.988849
_cell_length_b 23.955616
_cell_length_c 9.344708
_cell_angle_alpha 90.000000
_cell_angle_beta 143.906744
_cell_angle_gamma 90.000000
_cell_volume 1976.656960
_symmetry_space_group_name_H-M "C 2/C"
_symmetry_group_IT_number 15
_symmetry_cell_setting 'monoclinic'
loop_
_space_group_symop_operation_xyz
x,y,z
-x,y,1/2-z
-x,-y,-z
x,-y,1/2+z
1/2+x,1/2+y,z
1/2-x,1/2+y,1/2-z
1/2-x,1/2-y,-z
1/2+x,1/2-y,1/2+z
loop_
_atom_site_type_symbol
_atom_site_label
_atom_site_fract_x
_atom_site_fract_y
_atom_site_fract_z
Si Si1 0.371404 0.443954 0.979176
Si Si2 0.862613 0.649663 0.276549
Si Si3 0.703025 0.156060 0.632380
Si Si4 0.924759 0.932876 0.518013
Si Si5 0.660287 0.756272 0.526894
O O1 0.212701 0.410938 0.792353
O O2 0.350245 0.509784 0.983298
O O3 0.500000 0.417767 0.250000
O O4 0.430655 0.441037 0.895137
O O5 0.802692 0.690314 0.324603
O O6 0.045343 0.648573 0.513831
O O7 0.815991 0.671126 0.058841
O O8 0.790696 0.098187 0.762797
O O9 0.811006 0.203062 0.837024
O O10 0.000000 0.900014 0.750000
O O11 0.750000 0.750000 0.500000
O O12 0.500000 0.760887 0.250000
#
# Coordination Sequence:
#
# PCOD8143783 Si02
#       5
#     8   8   8   8   8
#     4  10  21  41  64  96 127 165 211 257 310 376
#     4  11  25  42  65  93 130 166 210 257 316 379
#     4  11  24  44  64  93 129 169 208 256 317 376
#     4  10  22  39  67  95 127 167 211 255 310 373
#     4  12  26  45  65  94 129 162 210 265 317 376
#
# _framework density 20.236187999999999
#
# number of rings (size 3 to 8) (size 9 to 14) (size 15 to 20)
#    0.000    1.200    4.000    1.200    5.600    0.800 
#    3.600    0.000    4.400    0.000    0.000    0.000 
#    0.000    0.000    0.000    0.000    0.000    0.000 
#
# Total GULP energy -247826.780304 kJ/mol
# GULP energy per Si atom -12391.339015 kJ/mol
# Density = 2.019013 g / cm^3
# Si number density = 20.236188 Si / 1000 Ang^3
#
#
#
# Elastic Constant Matrix: (Units=GPa)
#
#
# Indices 1 2 3 4 5 6 
#
# 1 103.2753 29.3713 24.5301 0.0000 -23.6552 0.0000
# 2 29.3713 87.7411 36.0358 0.0000 -1.5798 0.0000
# 3 24.5301 36.0358 96.0658 0.0000 -22.7893 0.0000
# 4 0.0000 0.0000 0.0000 34.6261 0.0000 -4.1691
# 5 -23.6552 -1.5798 -22.7893 0.0000 19.6537 0.0000
# 6 0.0000 0.0000 0.0000 -4.1691 0.0000 31.1087
#
#
#
# Elastic Compliance Matrix: (Units=1/GPa)
#
#
# Indices 1 2 3 4 5 6 
#
# 1 0.015900 -0.006487 0.003848 0.000000 0.023077 0.000000
# 2 -0.006487 0.016768 -0.008506 0.000000 -0.016323 0.000000
# 3 0.003848 -0.008506 0.018697 0.000000 0.025628 0.000000
# 4 0.000000 0.000000 0.000000 0.029354 0.000000 0.003934
# 5 0.023077 -0.016323 0.025628 0.000000 0.107061 0.000000
# 6 0.000000 0.000000 0.000000 0.003934 0.000000 0.032673
#
#
# Mechanical properties :
#
#
# Convention : Reuss Voigt Hill
#
# Bulk Modulus (GPa) = 34.39360 51.88407 43.13884
# Shear Modulus (GPa) = 19.80715 30.22072 25.01393
#
# Velocity S-wave (km/s) = 3.13197 3.86865 3.51963
# Velocity P-wave (km/s) = 5.48744 6.75649 6.15476
#
# Compressibility (1/GPa) = 0.02907517
#
# Stress axis : x y z
#
# Youngs Moduli (GPa) = 62.89432 59.63654 53.48402
#
# Poissons Ratio (x) = 0.38688 -0.20581
# Poissons Ratio (y) = 0.40802 0.45492
# Poissons Ratio (z) = -0.24202 0.50725
#
# Static dielectric constant tensor:
#      x y z
#    x 3.712640 0.000000 -0.264140 
#    y 0.000000 3.618400 0.000000 
#    z -0.264140 0.000000 3.847400 
# 
# 
# High freq. dielectric constant tensor:
#      x y z
#    x 1.798690 0.000000 -0.018330 
#    y 0.000000 1.779450 0.000000 
#    z -0.018330 0.000000 1.801960 
# 
# From -- ./inp_files/33329.got.cif
#   From: 2010.06.25/outbox.cif.g09.slc.cpg/sg15_17_cif.got.tgz:33329.got - 2010.06.28 07:06:18.
