data_PCOD8143630
_publ_section_title
;
Structure prediction by ZEFSAII (Michael W. Deem and Ramdas Pophale) SiO2 
 PCOD8143630
Probable space group: C 2/C
;
_chemical_formula_sum "Si O2"
_cell_formula_units_Z 52
_cell_length_a 22.067697
_cell_length_b 14.106035
_cell_length_c 8.179855
_cell_angle_alpha 90.000000
_cell_angle_beta 103.942329
_cell_angle_gamma 90.000000
_cell_volume 2471.271441
_symmetry_space_group_name_H-M "C 2/C"
_symmetry_group_IT_number 15
_symmetry_cell_setting 'monoclinic'
loop_
_space_group_symop_operation_xyz
x,y,z
-x,y,1/2-z
-x,-y,-z
x,-y,1/2+z
1/2+x,1/2+y,z
1/2-x,1/2+y,1/2-z
1/2-x,1/2-y,-z
1/2+x,1/2-y,1/2+z
loop_
_atom_site_type_symbol
_atom_site_label
_atom_site_fract_x
_atom_site_fract_y
_atom_site_fract_z
Si Si1 0.390719 0.761155 0.984573
Si Si2 0.278208 0.110141 0.895807
Si Si3 0.437925 0.560430 0.429551
Si Si4 0.302903 0.912535 0.775139
Si Si5 0.704979 0.281077 0.828918
Si Si6 0.500000 0.288658 0.750000
Si Si7 0.869237 0.898776 0.212094
O O1 0.356776 0.859595 0.915547
O O2 0.389306 0.692329 0.829321
O O3 0.360724 0.708183 0.123669
O O4 0.461651 0.776961 0.095160
O O5 0.297385 0.206711 0.820424
O O6 0.204106 0.104168 0.872604
O O7 0.305578 0.024477 0.805697
O O8 0.313468 0.108882 0.091675
O O9 0.500000 0.500000 0.500000
O O10 0.452258 0.645660 0.317950
O O11 0.384269 0.494408 0.319374
O O12 0.410162 0.605892 0.575330
O O13 0.232903 0.879153 0.779056
O O14 0.750000 0.250000 0.000000
#
# Coordination Sequence:
#
# PCOD8143630 Si02
#       7
#     8   8   8   8   8   4   8
#     4  11  25  41  62  90 133 170 226 273 324 399
#     4  12  24  40  70  97 135 177 205 278 352 392
#     4  12  23  38  59  91 135 178 224 253 316 406
#     4  11  24  40  62  97 129 171 218 268 337 405
#     4  10  21  41  61  95 132 165 217 270 328 402
#     4  12  26  42  62  88 128 190 212 282 326 376
#     4  12  23  38  62  95 135 176 210 264 329 411
#
# _framework density 21.041799999999999
#
# number of rings (size 3 to 8) (size 9 to 14) (size 15 to 20)
#    0.000    0.615    6.154    3.231    6.462    0.000 
#    0.000    0.000    0.000    3.692    0.000    0.000 
#    0.000    0.000    0.000    0.000    0.000    0.000 
#
# Total GULP energy -322336.585446 kJ/mol
# GULP energy per Si atom -12397.560979 kJ/mol
# Density = 2.099391 g / cm^3
# Si number density = 21.041800 Si / 1000 Ang^3
#
#
#
# Elastic Constant Matrix: (Units=GPa)
#
#
# Indices 1 2 3 4 5 6 
#
# 1 71.3531 21.7974 35.6772 0.0000 3.2796 0.0000
# 2 21.7974 44.5794 15.1936 0.0000 7.9696 0.0000
# 3 35.6772 15.1936 101.7175 0.0000 -0.4504 0.0000
# 4 0.0000 0.0000 0.0000 38.8915 0.0000 -4.8094
# 5 3.2796 7.9696 -0.4504 0.0000 51.2801 0.0000
# 6 0.0000 0.0000 0.0000 -4.8094 0.0000 20.2064
#
#
#
# Elastic Compliance Matrix: (Units=1/GPa)
#
#
# Indices 1 2 3 4 5 6 
#
# 1 0.019074 -0.007402 -0.005585 0.000000 -0.000119 0.000000
# 2 -0.007402 0.027233 -0.001488 0.000000 -0.003772 0.000000
# 3 -0.005585 -0.001488 0.012015 0.000000 0.000694 0.000000
# 4 0.000000 0.000000 0.000000 0.026492 0.000000 0.006306
# 5 -0.000119 -0.003772 0.000694 0.000000 0.020101 0.000000
# 6 0.000000 0.000000 0.000000 0.006306 0.000000 0.050990
#
#
# Mechanical properties :
#
#
# Convention : Reuss Voigt Hill
#
# Bulk Modulus (GPa) = 34.04616 40.33182 37.18899
# Shear Modulus (GPa) = 25.68771 31.74106 28.71439
#
# Velocity S-wave (km/s) = 3.49778 3.88812 3.69810
# Velocity P-wave (km/s) = 5.70333 6.27421 5.99557
#
# Compressibility (1/GPa) = 0.02937189
#
# Stress axis : x y z
#
# Youngs Moduli (GPa) = 52.42756 36.72083 83.22591
#
# Poissons Ratio (x) = 0.27179 0.46482
# Poissons Ratio (y) = 0.38805 0.12387
# Poissons Ratio (z) = 0.29281 0.05465
#
# Static dielectric constant tensor:
#      x y z
#    x 4.103220 0.000000 -0.105470 
#    y 0.000000 3.645680 0.000000 
#    z -0.105470 0.000000 4.138830 
# 
# 
# High freq. dielectric constant tensor:
#      x y z
#    x 1.811090 0.000000 -0.001390 
#    y 0.000000 1.805270 0.000000 
#    z -0.001390 0.000000 1.850580 
# 
# From -- ./inp_files/55366.got.cif
#   From: 2010.06.25/outbox.cif.g09.slc.cpg/sg15_28_cif.got.tgz:55366.got - 2010.06.28 07:06:18.
