data_PCOD8143109
_publ_section_title
;
Structure prediction by ZEFSAII (Michael W. Deem and Ramdas Pophale) SiO2 
 PCOD8143109
Probable space group: C 2/C
;
_chemical_formula_sum "Si O2"
_cell_formula_units_Z 48
_cell_length_a 10.966830
_cell_length_b 11.503024
_cell_length_c 24.657975
_cell_angle_alpha 90.000000
_cell_angle_beta 45.811825
_cell_angle_gamma 90.000000
_cell_volume 2230.502410
_symmetry_space_group_name_H-M "C 2/C"
_symmetry_group_IT_number 15
_symmetry_cell_setting 'monoclinic'
loop_
_space_group_symop_operation_xyz
x,y,z
-x,y,1/2-z
-x,-y,-z
x,-y,1/2+z
1/2+x,1/2+y,z
1/2-x,1/2+y,1/2-z
1/2-x,1/2-y,-z
1/2+x,1/2-y,1/2+z
loop_
_atom_site_type_symbol
_atom_site_label
_atom_site_fract_x
_atom_site_fract_y
_atom_site_fract_z
Si Si1 0.751591 0.807521 0.869311
Si Si2 0.396788 0.981031 0.145661
Si Si3 0.340669 0.628620 0.692262
Si Si4 0.571059 0.782595 0.030651
Si Si5 0.570461 0.373730 0.843261
Si Si6 0.952877 0.660689 0.204077
O O1 0.752578 0.695963 0.828663
O O2 0.928054 0.819884 0.847410
O O3 0.727748 0.931576 0.847676
O O4 0.591349 0.785107 0.959529
O O5 0.293042 0.895731 0.217809
O O6 0.510698 0.909367 0.068781
O O7 0.526474 0.059699 0.142421
O O8 0.438483 0.512354 0.643432
O O9 0.493517 0.710032 0.669855
O O10 0.438541 0.685978 0.094189
O O11 0.750000 0.750000 0.000000
O O12 0.748380 0.346272 0.759933
O O13 0.000000 0.632803 0.250000
#
# Coordination Sequence:
#
# PCOD8143109 Si02
#       6
#     8   8   8   8   8   8
#     4  10  23  41  67  91 130 172 212 267 328 387
#     4  10  21  40  62  90 125 166 218 263 320 382
#     4  10  22  38  62  96 121 165 223 261 321 383
#     4  10  21  40  63  93 129 168 215 257 326 397
#     4  10  22  40  63  95 127 172 211 267 329 385
#     4  10  22  38  59  93 128 161 214 275 322 372
#
# _framework density 21.519815999999999
#
# number of rings (size 3 to 8) (size 9 to 14) (size 15 to 20)
#    0.000    2.000    1.667    0.500    2.333   11.333 
#    0.000    1.667    0.000   11.000    0.000    0.000 
#    0.000    0.000    0.000    0.000    0.000    0.000 
#
# Total GULP energy -297335.942137 kJ/mol
# GULP energy per Si atom -12388.997589 kJ/mol
# Density = 2.147084 g / cm^3
# Si number density = 21.519816 Si / 1000 Ang^3
#
#
#
# Elastic Constant Matrix: (Units=GPa)
#
#
# Indices 1 2 3 4 5 6 
#
# 1 66.8845 7.4021 16.8062 0.0000 24.6445 0.0000
# 2 7.4021 102.9555 32.1135 0.0000 18.4209 0.0000
# 3 16.8062 32.1135 106.2798 0.0000 23.6137 0.0000
# 4 0.0000 0.0000 0.0000 40.9944 0.0000 7.6275
# 5 24.6445 18.4209 23.6137 0.0000 28.9379 0.0000
# 6 0.0000 0.0000 0.0000 7.6275 0.0000 26.8640
#
#
#
# Elastic Compliance Matrix: (Units=1/GPa)
#
#
# Indices 1 2 3 4 5 6 
#
# 1 0.022169 0.001927 0.000464 0.000000 -0.020485 0.000000
# 2 0.001927 0.011547 -0.002194 0.000000 -0.007201 0.000000
# 3 0.000464 -0.002194 0.011941 0.000000 -0.008742 0.000000
# 4 0.000000 0.000000 0.000000 0.025754 0.000000 -0.007312
# 5 -0.020485 -0.007201 -0.008742 0.000000 0.063720 0.000000
# 6 0.000000 0.000000 0.000000 -0.007312 0.000000 0.039301
#
#
# Mechanical properties :
#
#
# Convention : Reuss Voigt Hill
#
# Bulk Modulus (GPa) = 21.71525 43.19593 32.45559
# Shear Modulus (GPa) = 26.40057 34.01247 30.20652
#
# Velocity S-wave (km/s) = 3.50637 3.97989 3.75061
# Velocity P-wave (km/s) = 5.14836 6.42149 5.81984
#
# Compressibility (1/GPa) = 0.04605059
#
# Stress axis : x y z
#
# Youngs Moduli (GPa) = 45.10728 86.60166 83.74432
#
# Poissons Ratio (x) = -0.16685 -0.03882
# Poissons Ratio (y) = -0.08691 0.18371
# Poissons Ratio (z) = -0.02091 0.18998
#
# Static dielectric constant tensor:
#      x y z
#    x 3.623280 0.000000 0.363070 
#    y 0.000000 4.590050 0.000000 
#    z 0.363070 0.000000 4.579450 
# 
# 
# High freq. dielectric constant tensor:
#      x y z
#    x 1.815450 0.000000 0.026660 
#    y 0.000000 1.871630 0.000000 
#    z 0.026660 0.000000 1.840680 
# 
# From -- ./inp_files/196027.got.cif
#   From: 2010.06.25/outbox.cif.g09.slc.cpg/sg15_99_cif.got.tgz:196027.got - 2010.06.28 07:06:18.
