data_PCOD8143147
_publ_section_title
;
Structure prediction by ZEFSAII (Michael W. Deem and Ramdas Pophale) SiO2 
 PCOD8143147
Probable space group: C 2/C
;
_chemical_formula_sum "Si O2"
_cell_formula_units_Z 44
_cell_length_a 18.122046
_cell_length_b 8.931241
_cell_length_c 13.069343
_cell_angle_alpha 90.000000
_cell_angle_beta 124.124901
_cell_angle_gamma 90.000000
_cell_volume 1751.083775
_symmetry_space_group_name_H-M "C 2/C"
_symmetry_group_IT_number 15
_symmetry_cell_setting 'monoclinic'
loop_
_space_group_symop_operation_xyz
x,y,z
-x,y,1/2-z
-x,-y,-z
x,-y,1/2+z
1/2+x,1/2+y,z
1/2-x,1/2+y,1/2-z
1/2-x,1/2-y,-z
1/2+x,1/2-y,1/2+z
loop_
_atom_site_type_symbol
_atom_site_label
_atom_site_fract_x
_atom_site_fract_y
_atom_site_fract_z
Si Si1 0.864383 0.907963 0.197479
Si Si2 0.500000 0.825636 0.750000
Si Si3 0.878337 0.231640 0.912643
Si Si4 0.895822 0.491086 0.317951
Si Si5 0.424587 0.648968 0.392568
Si Si6 0.215917 0.997132 0.561900
O O1 0.827311 0.820258 0.268057
O O2 0.919469 0.790746 0.170966
O O3 0.917520 0.054357 0.281141
O O4 0.785398 0.954429 0.058812
O O5 0.516261 0.933263 0.664809
O O6 0.882523 0.412537 0.913207
O O7 0.817825 0.171532 0.958208
O O8 0.974082 0.144366 0.985167
O O9 0.907683 0.320365 0.350950
O O10 0.816097 0.518932 0.176709
O O11 0.352278 0.596873 0.419544
#
# Coordination Sequence:
#
# PCOD8143147 Si02
#       6
#     8   4   8   8   8   8
#     4  10  21  40  63  89 121 165 213 249 303 373
#     4  10  22  40  60  90 128 166 208 250 306 368
#     4  10  22  40  64  92 126 167 208 256 310 370
#     4  11  24  41  63  97 130 162 207 262 317 366
#     4  11  23  42  67  93 124 166 212 256 309 376
#     4  11  22  41  68  93 127 166 206 259 312 372
#
# _framework density 25.127296999999999
#
# number of rings (size 3 to 8) (size 9 to 14) (size 15 to 20)
#    0.000    1.455    0.000    7.091    0.000    5.818 
#    0.000   12.727    0.000    0.000    0.000    0.000 
#    0.000    0.000    0.000    0.000    0.000    0.000 
#
# Total GULP energy -272537.500729 kJ/mol
# GULP energy per Si atom -12388.068215 kJ/mol
# Density = 2.507011 g / cm^3
# Si number density = 25.127297 Si / 1000 Ang^3
#
#
#
# Elastic Constant Matrix: (Units=GPa)
#
#
# Indices 1 2 3 4 5 6 
#
# 1 38.5916 19.5224 22.3461 0.0000 -5.1514 0.0000
# 2 19.5224 159.2330 6.1578 0.0000 -16.3025 0.0000
# 3 22.3461 6.1578 113.2086 0.0000 -2.2251 0.0000
# 4 0.0000 0.0000 0.0000 13.3293 0.0000 4.8095
# 5 -5.1514 -16.3025 -2.2251 0.0000 19.0064 0.0000
# 6 0.0000 0.0000 0.0000 4.8095 0.0000 11.6021
#
#
#
# Elastic Compliance Matrix: (Units=1/GPa)
#
#
# Indices 1 2 3 4 5 6 
#
# 1 0.031642 -0.003116 -0.005974 0.000000 0.005204 0.000000
# 2 -0.003116 0.007199 0.000329 0.000000 0.005369 0.000000
# 3 -0.005974 0.000329 0.009991 0.000000 -0.000167 0.000000
# 4 0.000000 0.000000 0.000000 0.088218 0.000000 -0.036570
# 5 0.005204 0.005369 -0.000167 0.000000 0.058610 0.000000
# 6 0.000000 0.000000 0.000000 -0.036570 0.000000 0.101351
#
#
# Mechanical properties :
#
#
# Convention : Reuss Voigt Hill
#
# Bulk Modulus (GPa) = 31.93737 45.23176 38.58456
# Shear Modulus (GPa) = 15.38603 26.32135 20.85369
#
# Velocity S-wave (km/s) = 2.47720 3.24005 2.88396
# Velocity P-wave (km/s) = 4.57382 5.66016 5.14574
#
# Compressibility (1/GPa) = 0.03131129
#
# Stress axis : x y z
#
# Youngs Moduli (GPa) = 31.60313 138.90718 100.08725
#
# Poissons Ratio (x) = 0.43278 0.59793
# Poissons Ratio (y) = 0.09846 -0.03292
# Poissons Ratio (z) = 0.18880 -0.04569
#
# Static dielectric constant tensor:
#      x y z
#    x 4.297990 0.000000 0.077580 
#    y 0.000000 5.039340 0.000000 
#    z 0.077580 0.000000 4.505540 
# 
# 
# High freq. dielectric constant tensor:
#      x y z
#    x 1.968030 0.000000 0.005230 
#    y 0.000000 2.029490 0.000000 
#    z 0.005230 0.000000 1.994810 
# 
# From -- ./inp_files/172108.got.cif
#   From: 2010.06.25/outbox.cif.g09.slc.cpg/sg15_87_cif.got.tgz:172108.got - 2010.06.28 07:06:18.
