data_PCOD8143637
_publ_section_title
;
Structure prediction by ZEFSAII (Michael W. Deem and Ramdas Pophale) SiO2 
 PCOD8143637
Probable space group: C 2/C
;
_chemical_formula_sum "Si O2"
_cell_formula_units_Z 48
_cell_length_a 18.285709
_cell_length_b 11.454862
_cell_length_c 11.481439
_cell_angle_alpha 90.000000
_cell_angle_beta 77.298715
_cell_angle_gamma 90.000000
_cell_volume 2346.056385
_symmetry_space_group_name_H-M "C 2/C"
_symmetry_group_IT_number 15
_symmetry_cell_setting 'monoclinic'
loop_
_space_group_symop_operation_xyz
x,y,z
-x,y,1/2-z
-x,-y,-z
x,-y,1/2+z
1/2+x,1/2+y,z
1/2-x,1/2+y,1/2-z
1/2-x,1/2-y,-z
1/2+x,1/2-y,1/2+z
loop_
_atom_site_type_symbol
_atom_site_label
_atom_site_fract_x
_atom_site_fract_y
_atom_site_fract_z
Si Si1 0.900700 0.384949 0.678059
Si Si2 0.264817 0.729935 0.666860
Si Si3 0.555492 0.805885 0.588936
Si Si4 0.537634 0.466365 0.112607
Si Si5 0.819707 0.397761 0.112005
Si Si6 0.796499 0.933842 0.957284
O O1 0.846081 0.284221 0.653580
O O2 0.915919 0.372345 0.807965
O O3 0.865036 0.511865 0.675569
O O4 0.977586 0.368137 0.577357
O O5 0.228842 0.695332 0.801036
O O6 0.209563 0.822409 0.625650
O O7 0.276481 0.609756 0.593100
O O8 0.539519 0.671995 0.620650
O O9 0.619400 0.817751 0.471683
O O10 0.500000 0.510331 0.250000
O O11 0.620548 0.517767 0.082265
O O12 0.500000 0.500000 0.000000
O O13 0.763749 0.465322 0.046102
#
# Coordination Sequence:
#
# PCOD8143637 Si02
#       6
#     8   8   8   8   8   8
#     4  10  21  41  62  85 138 168 213 275 343 385
#     4  10  22  42  62  92 128 169 218 284 326 396
#     4  11  23  41  63  97 131 176 220 280 337 400
#     4  12  27  45  71 100 137 181 224 280 342 404
#     4  11  23  37  68  96 123 175 228 270 335 406
#     4  10  24  41  65  91 131 170 222 274 339 393
#
# _framework density 20.459866999999999
#
# number of rings (size 3 to 8) (size 9 to 14) (size 15 to 20)
#    0.000    1.333    1.667    3.500    4.667    4.000 
#    0.000    3.333    0.000    0.000    0.000    0.000 
#    0.000    0.000    0.000    0.000    0.000    0.000 
#
# Total GULP energy -297531.200047 kJ/mol
# GULP energy per Si atom -12397.133335 kJ/mol
# Density = 2.041330 g / cm^3
# Si number density = 20.459867 Si / 1000 Ang^3
#
#
#
# Elastic Constant Matrix: (Units=GPa)
#
#
# Indices 1 2 3 4 5 6 
#
# 1 118.9414 20.5416 30.1599 0.0000 3.3001 0.0000
# 2 20.5416 48.7804 11.4384 0.0000 -0.6975 0.0000
# 3 30.1599 11.4384 104.8837 0.0000 -6.8588 0.0000
# 4 0.0000 0.0000 0.0000 32.0028 0.0000 -5.7161
# 5 3.3001 -0.6975 -6.8588 0.0000 24.1217 0.0000
# 6 0.0000 0.0000 0.0000 -5.7161 0.0000 27.0360
#
#
#
# Elastic Compliance Matrix: (Units=1/GPa)
#
#
# Indices 1 2 3 4 5 6 
#
# 1 0.009724 -0.003527 -0.002553 0.000000 -0.002158 0.000000
# 2 -0.003527 0.022317 -0.001371 0.000000 0.000738 0.000000
# 3 -0.002553 -0.001371 0.010636 0.000000 0.003334 0.000000
# 4 0.000000 0.000000 0.000000 0.032474 0.000000 0.006866
# 5 -0.002158 0.000738 0.003334 0.000000 0.042721 0.000000
# 6 0.000000 0.000000 0.000000 0.006866 0.000000 0.038439
#
#
# Mechanical properties :
#
#
# Convention : Reuss Voigt Hill
#
# Bulk Modulus (GPa) = 36.00353 44.09836 40.05094
# Shear Modulus (GPa) = 27.70521 30.66314 29.18417
#
# Velocity S-wave (km/s) = 3.68384 3.87550 3.78088
# Velocity P-wave (km/s) = 5.97742 6.45185 6.21916
#
# Compressibility (1/GPa) = 0.02777506
#
# Stress axis : x y z
#
# Youngs Moduli (GPa) = 102.84076 44.80803 94.02068
#
# Poissons Ratio (x) = 0.15804 0.24000
# Poissons Ratio (y) = 0.36272 0.12894
# Poissons Ratio (z) = 0.26251 0.06145
#
# Static dielectric constant tensor:
#      x y z
#    x 4.074070 0.000000 0.007740 
#    y 0.000000 3.734820 0.000000 
#    z 0.007740 0.000000 3.898640 
# 
# 
# High freq. dielectric constant tensor:
#      x y z
#    x 1.819310 0.000000 -0.005770 
#    y 0.000000 1.804350 0.000000 
#    z -0.005770 0.000000 1.799840 
# 
# From -- ./inp_files/103675.got.cif
#   From: 2010.06.25/outbox.cif.g09.slc.cpg/sg15_52_cif.got.tgz:103675.got - 2010.06.28 07:06:18.
