data_PCOD8143742
_publ_section_title
;
Structure prediction by ZEFSAII (Michael W. Deem and Ramdas Pophale) SiO2 
 PCOD8143742
Probable space group: C 2/C
;
_chemical_formula_sum "Si O2"
_cell_formula_units_Z 52
_cell_length_a 5.237873
_cell_length_b 18.516176
_cell_length_c 21.916290
_cell_angle_alpha 90.000000
_cell_angle_beta 88.914670
_cell_angle_gamma 90.000000
_cell_volume 2125.178341
_symmetry_space_group_name_H-M "C 2/C"
_symmetry_group_IT_number 15
_symmetry_cell_setting 'monoclinic'
loop_
_space_group_symop_operation_xyz
x,y,z
-x,y,1/2-z
-x,-y,-z
x,-y,1/2+z
1/2+x,1/2+y,z
1/2-x,1/2+y,1/2-z
1/2-x,1/2-y,-z
1/2+x,1/2-y,1/2+z
loop_
_atom_site_type_symbol
_atom_site_label
_atom_site_fract_x
_atom_site_fract_y
_atom_site_fract_z
Si Si1 0.500000 0.419654 0.250000
Si Si2 0.000000 0.757089 0.750000
Si Si3 0.500000 0.149417 0.250000
Si Si4 0.723271 0.040930 0.868864
Si Si5 0.166534 0.656333 0.656031
Si Si6 0.111786 0.191425 0.425789
Si Si7 0.075615 0.172491 0.564887
Si Si8 0.621700 0.883377 0.879769
O O1 0.654261 0.468558 0.199806
O O2 0.671830 0.364061 0.285544
O O3 0.250993 0.803260 0.753836
O O4 0.970483 0.713052 0.686453
O O5 0.473537 0.102471 0.188983
O O6 0.454934 0.082363 0.867704
O O7 0.897533 0.090118 0.912128
O O8 0.687131 0.964115 0.902453
O O9 0.327294 0.699709 0.603388
O O10 0.011985 0.174811 0.494122
O O11 0.174900 0.277844 0.419743
O O12 0.383548 0.150440 0.417285
O O13 0.882683 0.164725 0.382644
#
# Coordination Sequence:
#
# PCOD8143742 Si02
#       8
#     4   4   4   8   8   8   8   8
#     4  10  21  41  64 106 146 196 240 298 360 432
#     4  12  24  44  72 109 147 190 244 306 358 438
#     4  12  29  43  72 105 151 194 230 306 376 438
#     4  11  26  43  74 106 150 199 243 309 365 457
#     4  11  23  41  72 109 146 191 252 305 365 439
#     4  11  28  53  76 110 147 196 249 314 370 439
#     4  10  27  48  79 104 146 195 257 309 365 436
#     4  12  30  49  74 109 155 194 244 303 385 446
#
# _framework density 24.468533999999998
#
# number of rings (size 3 to 8) (size 9 to 14) (size 15 to 20)
#    0.000    0.923    1.538    2.308   17.231    3.077 
#    0.000    0.000    0.000    0.000    0.000    0.000 
#    0.000    0.000    0.000    0.000    0.000    0.000 
#
# Total GULP energy -322304.294630 kJ/mol
# GULP energy per Si atom -12396.319024 kJ/mol
# Density = 2.441284 g / cm^3
# Si number density = 24.468534 Si / 1000 Ang^3
#
#
#
# Elastic Constant Matrix: (Units=GPa)
#
#
# Indices 1 2 3 4 5 6 
#
# 1 111.7254 15.1291 22.4406 0.0000 -14.4608 0.0000
# 2 15.1291 113.9409 15.7963 0.0000 -9.7705 0.0000
# 3 22.4406 15.7963 102.7442 0.0000 -7.1230 0.0000
# 4 0.0000 0.0000 0.0000 23.0535 0.0000 -2.7278
# 5 -14.4608 -9.7705 -7.1230 0.0000 41.5751 0.0000
# 6 0.0000 0.0000 0.0000 -2.7278 0.0000 30.4108
#
#
#
# Elastic Compliance Matrix: (Units=1/GPa)
#
#
# Indices 1 2 3 4 5 6 
#
# 1 0.009800 -0.000800 -0.001816 0.000000 0.002910 0.000000
# 2 -0.000800 0.009183 -0.001120 0.000000 0.001688 0.000000
# 3 -0.001816 -0.001120 0.010363 0.000000 0.000881 0.000000
# 4 0.000000 0.000000 0.000000 0.043843 0.000000 0.003933
# 5 0.002910 0.001688 0.000881 0.000000 0.025612 0.000000
# 6 0.000000 0.000000 0.000000 0.003933 0.000000 0.033236
#
#
# Mechanical properties :
#
#
# Convention : Reuss Voigt Hill
#
# Bulk Modulus (GPa) = 45.71646 48.34917 47.03282
# Shear Modulus (GPa) = 34.06005 37.34418 35.70212
#
# Velocity S-wave (km/s) = 3.73499 3.91092 3.82397
# Velocity P-wave (km/s) = 6.10938 6.34006 6.22579
#
# Compressibility (1/GPa) = 0.02187396
#
# Stress axis : x y z
#
# Youngs Moduli (GPa) = 102.03925 108.90016 96.49949
#
# Poissons Ratio (x) = 0.08712 0.17522
# Poissons Ratio (y) = 0.08163 0.10808
# Poissons Ratio (z) = 0.18528 0.12197
#
# Static dielectric constant tensor:
#      x y z
#    x 4.696120 0.000000 -0.058940 
#    y 0.000000 4.183170 0.000000 
#    z -0.058940 0.000000 4.638880 
# 
# 
# High freq. dielectric constant tensor:
#      x y z
#    x 1.987990 0.000000 -0.003110 
#    y 0.000000 1.962110 0.000000 
#    z -0.003110 0.000000 1.977650 
# 
# From -- ./inp_files/227515.got.cif
#   From: 2010.06.25/outbox.cif.g09.slc.cpg/sg15_114_cif.got.tgz:227515.got - 2010.06.28 07:06:18.
