data_PCOD8143561
_publ_section_title
;
Structure prediction by ZEFSAII (Michael W. Deem and Ramdas Pophale) SiO2 
 PCOD8143561
Probable space group: C 2/C
;
_chemical_formula_sum "Si O2"
_cell_formula_units_Z 64
_cell_length_a 9.386009
_cell_length_b 29.169669
_cell_length_c 17.896050
_cell_angle_alpha 90.000000
_cell_angle_beta 40.605352
_cell_angle_gamma 90.000000
_cell_volume 3188.947113
_symmetry_space_group_name_H-M "C 2/C"
_symmetry_group_IT_number 15
_symmetry_cell_setting 'monoclinic'
loop_
_space_group_symop_operation_xyz
x,y,z
-x,y,1/2-z
-x,-y,-z
x,-y,1/2+z
1/2+x,1/2+y,z
1/2-x,1/2+y,1/2-z
1/2-x,1/2-y,-z
1/2+x,1/2-y,1/2+z
loop_
_atom_site_type_symbol
_atom_site_label
_atom_site_fract_x
_atom_site_fract_y
_atom_site_fract_z
Si Si1 0.673673 0.032080 0.971449
Si Si2 0.638105 0.875467 0.415974
Si Si3 0.900159 0.564892 0.214695
Si Si4 0.990100 0.285796 0.839524
Si Si5 0.923127 0.814358 0.406027
Si Si6 0.409907 0.514617 0.616292
Si Si7 0.256354 0.356854 0.821105
Si Si8 0.786994 0.615881 0.785199
O O1 0.595605 0.052264 0.081445
O O2 0.730183 0.074155 0.895763
O O3 0.899003 0.005901 0.898824
O O4 0.500000 0.000000 0.000000
O O5 0.809757 0.839079 0.380508
O O6 0.396813 0.868328 0.546815
O O7 0.627495 0.873370 0.331712
O O8 0.784529 0.517982 0.282204
O O9 0.740828 0.601054 0.238510
O O10 0.000000 0.587575 0.250000
O O11 0.034852 0.231849 0.831517
O O12 0.000000 0.300150 0.750000
O O13 0.177132 0.311158 0.811798
O O14 0.752629 0.301624 0.961372
O O15 0.099824 0.846642 0.376742
O O16 0.500000 0.500000 0.500000
O O17 0.317818 0.566265 0.656122
O O18 0.500000 0.347580 0.750000
O O19 0.000000 0.623743 0.750000
#
# Coordination Sequence:
#
# PCOD8143561 Si02
#       8
#     8   8   8   8   8   8   8   8
#     4  11  24  39  62  87 119 163 209 258 313 372
#     4  10  22  43  63  89 126 165 217 258 313 387
#     4  11  23  41  58  85 122 162 213 254 308 377
#     4  10  21  40  71  97 129 169 214 260 330 399
#     4  10  22  43  67  99 127 170 218 266 322 390
#     4  12  26  40  62  89 127 169 214 269 312 377
#     4  10  24  40  63  96 128 164 207 266 320 387
#     4  12  26  41  65  94 129 169 216 275 324 376
#
# _framework density 20.069320999999999
#
# number of rings (size 3 to 8) (size 9 to 14) (size 15 to 20)
#    0.000    1.250    2.500    2.625    5.250    3.500 
#    0.000    0.000    0.000    6.000    0.000    0.000 
#    0.000    0.000    0.000    0.000    0.000    0.000 
#
# Total GULP energy -396851.249615 kJ/mol
# GULP energy per Si atom -12401.601550 kJ/mol
# Density = 2.002364 g / cm^3
# Si number density = 20.069321 Si / 1000 Ang^3
#
#
#
# Elastic Constant Matrix: (Units=GPa)
#
#
# Indices 1 2 3 4 5 6 
#
# 1 145.9238 54.8158 52.3585 0.0000 -10.6534 0.0000
# 2 54.8158 140.1850 39.3647 0.0000 -4.0590 0.0000
# 3 52.3585 39.3647 67.3660 0.0000 -0.1063 0.0000
# 4 0.0000 0.0000 0.0000 30.5646 0.0000 -5.7741
# 5 -10.6534 -4.0590 -0.1063 0.0000 39.5322 0.0000
# 6 0.0000 0.0000 0.0000 -5.7741 0.0000 27.8843
#
#
#
# Elastic Compliance Matrix: (Units=1/GPa)
#
#
# Indices 1 2 3 4 5 6 
#
# 1 0.010224 -0.002027 -0.006758 0.000000 0.002529 0.000000
# 2 -0.002027 0.008965 -0.003663 0.000000 0.000364 0.000000
# 3 -0.006758 -0.003663 0.022233 0.000000 -0.002137 0.000000
# 4 0.000000 0.000000 0.000000 0.034050 0.000000 0.007051
# 5 0.002529 0.000364 -0.002137 0.000000 0.026009 0.000000
# 6 0.000000 0.000000 0.000000 0.007051 0.000000 0.037322
#
#
# Mechanical properties :
#
#
# Convention : Reuss Voigt Hill
#
# Bulk Modulus (GPa) = 60.50508 71.83921 66.17214
# Shear Modulus (GPa) = 29.54963 33.39193 31.47078
#
# Velocity S-wave (km/s) = 3.84132 4.08343 3.96422
# Velocity P-wave (km/s) = 7.06313 7.62272 7.34825
#
# Compressibility (1/GPa) = 0.01652754
#
# Stress axis : x y z
#
# Youngs Moduli (GPa) = 97.81289 111.54418 44.97732
#
# Poissons Ratio (x) = 0.22609 0.30394
# Poissons Ratio (y) = 0.19825 0.16474
# Poissons Ratio (z) = 0.66099 0.40856
#
# Static dielectric constant tensor:
#      x y z
#    x 3.358470 0.000000 0.125110 
#    y 0.000000 5.199270 0.000000 
#    z 0.125110 0.000000 3.963430 
# 
# 
# High freq. dielectric constant tensor:
#      x y z
#    x 1.783140 0.000000 0.004880 
#    y 0.000000 1.790660 0.000000 
#    z 0.004880 0.000000 1.792780 
# 
# From -- ./inp_files/194209.got.cif
#   From: 2010.06.25/outbox.cif.g09.slc.cpg/sg15_98_cif.got.tgz:194209.got - 2010.06.28 07:06:18.
