data_PCOD8143587
_publ_section_title
;
Structure prediction by ZEFSAII (Michael W. Deem and Ramdas Pophale) SiO2 
 PCOD8143587
Probable space group: C 2/C
;
_chemical_formula_sum "Si O2"
_cell_formula_units_Z 44
_cell_length_a 17.263266
_cell_length_b 8.698783
_cell_length_c 14.468533
_cell_angle_alpha 90.000000
_cell_angle_beta 98.756726
_cell_angle_gamma 90.000000
_cell_volume 2147.404867
_symmetry_space_group_name_H-M "C 2/C"
_symmetry_group_IT_number 15
_symmetry_cell_setting 'monoclinic'
loop_
_space_group_symop_operation_xyz
x,y,z
-x,y,1/2-z
-x,-y,-z
x,-y,1/2+z
1/2+x,1/2+y,z
1/2-x,1/2+y,1/2-z
1/2-x,1/2-y,-z
1/2+x,1/2-y,1/2+z
loop_
_atom_site_type_symbol
_atom_site_label
_atom_site_fract_x
_atom_site_fract_y
_atom_site_fract_z
Si Si1 0.253897 0.602695 0.619114
Si Si2 0.863948 0.105988 0.803467
Si Si3 0.000000 0.096871 0.250000
Si Si4 0.150962 0.120621 0.039608
Si Si5 0.493715 0.201106 0.922394
Si Si6 0.395615 0.091404 0.403371
O O1 0.284743 0.603822 0.729374
O O2 0.214070 0.766746 0.596468
O O3 0.326063 0.580651 0.561159
O O4 0.192522 0.465062 0.592735
O O5 0.894528 0.279514 0.823570
O O6 0.926569 0.007881 0.759061
O O7 0.847646 0.035358 0.901194
O O8 0.976716 0.203125 0.159522
O O9 0.064861 0.197721 0.024324
O O10 0.449329 0.048928 0.877535
O O11 0.569834 0.157559 0.994938
#
# Coordination Sequence:
#
# PCOD8143587 Si02
#       6
#     8   8   4   8   8   8
#     4  10  21  41  59  91 122 165 201 255 318 367
#     4  11  23  37  63  92 119 162 211 253 308 378
#     4  10  24  40  60  92 124 166 200 262 310 370
#     4   9  21  40  60  83 127 161 200 263 310 365
#     4   9  21  44  60  88 126 161 207 260 310 371
#     4  10  22  40  65  91 121 163 210 257 310 372
#
# _framework density 20.489849
#
# number of rings (size 3 to 8) (size 9 to 14) (size 15 to 20)
#    0.000    2.182    0.000    1.091    5.091    2.909 
#   19.636    0.000    0.000    0.000    0.000    0.000 
#    0.000    0.000    0.000    0.000    0.000    0.000 
#
# Total GULP energy -272886.203343 kJ/mol
# GULP energy per Si atom -12403.918334 kJ/mol
# Density = 2.044321 g / cm^3
# Si number density = 20.489849 Si / 1000 Ang^3
#
#
#
# Elastic Constant Matrix: (Units=GPa)
#
#
# Indices 1 2 3 4 5 6 
#
# 1 74.3572 49.3222 44.1417 0.0000 3.9352 0.0000
# 2 49.3222 123.4563 58.1419 0.0000 0.6812 0.0000
# 3 44.1417 58.1419 77.8521 0.0000 9.2483 0.0000
# 4 0.0000 0.0000 0.0000 34.2816 0.0000 3.3490
# 5 3.9352 0.6812 9.2483 0.0000 37.7554 0.0000
# 6 0.0000 0.0000 0.0000 3.3490 0.0000 19.1819
#
#
#
# Elastic Compliance Matrix: (Units=1/GPa)
#
#
# Indices 1 2 3 4 5 6 
#
# 1 0.021745 -0.004442 -0.009015 0.000000 0.000022 0.000000
# 2 -0.004442 0.013569 -0.007870 0.000000 0.002146 0.000000
# 3 -0.009015 -0.007870 0.024416 0.000000 -0.004899 0.000000
# 4 0.000000 0.000000 0.000000 0.029676 0.000000 -0.005181
# 5 0.000022 0.002146 -0.004899 0.000000 0.027645 0.000000
# 6 0.000000 0.000000 0.000000 -0.005181 0.000000 0.053037
#
#
# Mechanical properties :
#
#
# Convention : Reuss Voigt Hill
#
# Bulk Modulus (GPa) = 58.55964 64.31968 61.43966
# Shear Modulus (GPa) = 22.89005 26.51443 24.70224
#
# Velocity S-wave (km/s) = 3.34599 3.60116 3.47592
# Velocity P-wave (km/s) = 6.60071 6.98214 6.79411
#
# Compressibility (1/GPa) = 0.01707661
#
# Stress axis : x y z
#
# Youngs Moduli (GPa) = 45.98654 73.69530 40.95733
#
# Poissons Ratio (x) = 0.32738 0.36921
# Poissons Ratio (y) = 0.20429 0.32234
# Poissons Ratio (z) = 0.41455 0.57999
#
# Static dielectric constant tensor:
#      x y z
#    x 3.719560 0.000000 -0.013110 
#    y 0.000000 3.899480 0.000000 
#    z -0.013110 0.000000 3.558390 
# 
# 
# High freq. dielectric constant tensor:
#      x y z
#    x 1.797110 0.000000 0.010160 
#    y 0.000000 1.814180 0.000000 
#    z 0.010160 0.000000 1.794430 
# 
# From -- ./inp_files/159383.got.cif
#   From: 2010.06.25/outbox.cif.g09.slc.cpg/sg15_80_cif.got.tgz:159383.got - 2010.06.28 07:06:18.
