data_PCOD8143744
_publ_section_title
;
Structure prediction by ZEFSAII (Michael W. Deem and Ramdas Pophale) SiO2 
 PCOD8143744
Probable space group: C 2/C
;
_chemical_formula_sum "Si O2"
_cell_formula_units_Z 40
_cell_length_a 11.537106
_cell_length_b 12.414211
_cell_length_c 14.458717
_cell_angle_alpha 90.000000
_cell_angle_beta 85.085303
_cell_angle_gamma 90.000000
_cell_volume 2063.222536
_symmetry_space_group_name_H-M "C 2/C"
_symmetry_group_IT_number 15
_symmetry_cell_setting 'monoclinic'
loop_
_space_group_symop_operation_xyz
x,y,z
-x,y,1/2-z
-x,-y,-z
x,-y,1/2+z
1/2+x,1/2+y,z
1/2-x,1/2+y,1/2-z
1/2-x,1/2-y,-z
1/2+x,1/2-y,1/2+z
loop_
_atom_site_type_symbol
_atom_site_label
_atom_site_fract_x
_atom_site_fract_y
_atom_site_fract_z
Si Si1 0.617873 0.042450 0.452914
Si Si2 0.796920 0.970803 0.105326
Si Si3 0.882879 0.225566 0.514196
Si Si4 0.559727 0.674756 0.339702
Si Si5 0.371728 0.097152 0.721588
O O1 0.719644 0.019315 0.519044
O O2 0.583459 0.166504 0.433184
O O3 0.500000 0.000000 0.500000
O O4 0.659020 0.984443 0.357712
O O5 0.895911 0.880633 0.077139
O O6 0.721253 0.925370 0.193608
O O7 0.857409 0.083847 0.123419
O O8 0.750000 0.250000 0.500000
O O9 0.958824 0.210759 0.416780
O O10 0.500000 0.630638 0.250000
O O11 0.638389 0.779301 0.311710
O O12 0.500000 0.073324 0.750000
#
# Coordination Sequence:
#
# PCOD8143744 Si02
#       5
#     8   8   8   8   8
#     4  11  20  41  64  89 120 164 208 256 299 376
#     4  11  25  38  63  93 123 163 204 259 318 363
#     4  10  21  41  64  85 123 166 204 247 321 371
#     4  11  23  41  62  90 126 163 209 254 310 382
#     4  11  22  40  63  90 121 165 211 246 314 380
#
# _framework density 19.387146999999999
#
# number of rings (size 3 to 8) (size 9 to 14) (size 15 to 20)
#    0.000    1.200    4.000    4.200    8.400    0.800 
#    0.000    1.000    0.000    0.000    0.000    0.000 
#    0.000    0.000    0.000    0.000    0.000    0.000 
#
# Total GULP energy -247906.829847 kJ/mol
# GULP energy per Si atom -12395.341492 kJ/mol
# Density = 1.934302 g / cm^3
# Si number density = 19.387147 Si / 1000 Ang^3
#
#
#
# Elastic Constant Matrix: (Units=GPa)
#
#
# Indices 1 2 3 4 5 6 
#
# 1 64.4275 59.4546 35.2925 0.0000 -0.3392 0.0000
# 2 59.4546 168.4372 70.4539 0.0000 13.8258 0.0000
# 3 35.2925 70.4539 129.2278 0.0000 4.1626 0.0000
# 4 0.0000 0.0000 0.0000 24.7891 0.0000 5.3306
# 5 -0.3392 13.8258 4.1626 0.0000 31.7879 0.0000
# 6 0.0000 0.0000 0.0000 5.3306 0.0000 32.0093
#
#
#
# Elastic Compliance Matrix: (Units=1/GPa)
#
#
# Indices 1 2 3 4 5 6 
#
# 1 0.024085 -0.007802 -0.002452 0.000000 0.003971 0.000000
# 2 -0.007802 0.010476 -0.003446 0.000000 -0.004188 0.000000
# 3 -0.002452 -0.003446 0.010283 0.000000 0.000126 0.000000
# 4 0.000000 0.000000 0.000000 0.041839 0.000000 -0.006968
# 5 0.003971 -0.004188 0.000126 0.000000 0.033306 0.000000
# 6 0.000000 0.000000 0.000000 -0.006968 0.000000 0.032401
#
#
# Mechanical properties :
#
#
# Convention : Reuss Voigt Hill
#
# Bulk Modulus (GPa) = 57.32609 76.94381 67.13495
# Shear Modulus (GPa) = 26.93915 30.84337 28.89126
#
# Velocity S-wave (km/s) = 3.73169 3.99296 3.86453
# Velocity P-wave (km/s) = 6.94267 7.81233 7.39030
#
# Compressibility (1/GPa) = 0.01744406
#
# Stress axis : x y z
#
# Youngs Moduli (GPa) = 41.51942 95.45736 97.25261
#
# Poissons Ratio (x) = 0.74474 0.23848
# Poissons Ratio (y) = 0.32393 0.33511
# Poissons Ratio (z) = 0.10181 0.32892
#
# Static dielectric constant tensor:
#      x y z
#    x 3.426680 0.000000 -0.141140 
#    y 0.000000 4.219490 0.000000 
#    z -0.141140 0.000000 3.692720 
# 
# 
# High freq. dielectric constant tensor:
#      x y z
#    x 1.734480 0.000000 -0.018060 
#    y 0.000000 1.776110 0.000000 
#    z -0.018060 0.000000 1.768380 
# 
# From -- ./inp_files/141709.got.cif
#   From: 2010.06.25/outbox.cif.g09.slc.cpg/sg15_71_cif.got.tgz:141709.got - 2010.06.28 07:06:18.
