data_PCOD8143475
_publ_section_title
;
Structure prediction by ZEFSAII (Michael W. Deem and Ramdas Pophale) SiO2 
 PCOD8143475
Probable space group: C 2/C
;
_chemical_formula_sum "Si O2"
_cell_formula_units_Z 40
_cell_length_a 10.130267
_cell_length_b 17.136165
_cell_length_c 10.228408
_cell_angle_alpha 90.000000
_cell_angle_beta 92.718983
_cell_angle_gamma 90.000000
_cell_volume 1773.590574
_symmetry_space_group_name_H-M "C 2/C"
_symmetry_group_IT_number 15
_symmetry_cell_setting 'monoclinic'
loop_
_space_group_symop_operation_xyz
x,y,z
-x,y,1/2-z
-x,-y,-z
x,-y,1/2+z
1/2+x,1/2+y,z
1/2-x,1/2+y,1/2-z
1/2-x,1/2-y,-z
1/2+x,1/2-y,1/2+z
loop_
_atom_site_type_symbol
_atom_site_label
_atom_site_fract_x
_atom_site_fract_y
_atom_site_fract_z
Si Si1 0.764852 0.196841 0.670754
Si Si2 0.844548 0.421170 0.916482
Si Si3 0.380065 0.314761 0.659958
Si Si4 0.536269 0.214272 0.466762
Si Si5 0.141453 0.441934 0.288041
O O1 0.720843 0.271700 0.749643
O O2 0.667506 0.181816 0.543676
O O3 0.913988 0.218111 0.631584
O O4 0.759520 0.118290 0.758275
O O5 0.698636 0.383906 0.912909
O O6 0.849715 0.480393 0.796720
O O7 0.960498 0.357916 0.896447
O O8 0.858650 0.463728 0.057998
O O9 0.500000 0.350808 0.750000
O O10 0.430458 0.252075 0.558479
O O11 0.000000 0.400077 0.250000
#
# Coordination Sequence:
#
# PCOD8143475 Si02
#       5
#     8   8   8   8   8
#     4  10  21  40  68 100 140 181 235 291 363 418
#     4  12  26  43  73 106 145 192 242 300 371 430
#     4  10  22  45  69  98 141 185 247 307 353 431
#     4  10  21  40  70 101 135 183 241 295 350 431
#     4  12  25  45  67 106 150 185 235 305 359 436
#
# _framework density 22.553121000000001
#
# number of rings (size 3 to 8) (size 9 to 14) (size 15 to 20)
#    0.000    1.200    4.000    1.800    2.800    3.200 
#    0.000    4.000    0.000    0.000    0.000    0.000 
#    0.000    0.000    0.000    0.000    0.000    0.000 
#
# Total GULP energy -247999.488830 kJ/mol
# GULP energy per Si atom -12399.974442 kJ/mol
# Density = 2.250179 g / cm^3
# Si number density = 22.553121 Si / 1000 Ang^3
#
#
#
# Elastic Constant Matrix: (Units=GPa)
#
#
# Indices 1 2 3 4 5 6 
#
# 1 65.4823 44.1379 46.7381 0.0000 4.2646 0.0000
# 2 44.1379 96.2990 52.2848 0.0000 8.2968 0.0000
# 3 46.7381 52.2848 106.9132 0.0000 1.7952 0.0000
# 4 0.0000 0.0000 0.0000 34.9407 0.0000 -1.2961
# 5 4.2646 8.2968 1.7952 0.0000 28.7425 0.0000
# 6 0.0000 0.0000 0.0000 -1.2961 0.0000 22.9776
#
#
#
# Elastic Compliance Matrix: (Units=1/GPa)
#
#
# Indices 1 2 3 4 5 6 
#
# 1 0.025912 -0.007675 -0.007555 0.000000 -0.001157 0.000000
# 2 -0.007675 0.016806 -0.004806 0.000000 -0.003412 0.000000
# 3 -0.007555 -0.004806 0.014980 0.000000 0.001573 0.000000
# 4 0.000000 0.000000 0.000000 0.028680 0.000000 0.001618
# 5 -0.001157 -0.003412 0.001573 0.000000 0.035850 0.000000
# 6 0.000000 0.000000 0.000000 0.001618 0.000000 0.043612
#
#
# Mechanical properties :
#
#
# Convention : Reuss Voigt Hill
#
# Bulk Modulus (GPa) = 56.73527 61.66847 59.20187
# Shear Modulus (GPa) = 23.60858 25.70108 24.65483
#
# Velocity S-wave (km/s) = 3.23894 3.37943 3.30993
# Velocity P-wave (km/s) = 6.26087 6.52920 6.39644
#
# Compressibility (1/GPa) = 0.01762572
#
# Stress axis : x y z
#
# Youngs Moduli (GPa) = 38.59154 59.50418 66.75549
#
# Poissons Ratio (x) = 0.45670 0.50434
# Poissons Ratio (y) = 0.29620 0.32083
# Poissons Ratio (z) = 0.29156 0.28598
#
# Static dielectric constant tensor:
#      x y z
#    x 4.213720 0.000000 0.016440 
#    y 0.000000 3.708510 0.000000 
#    z 0.016440 0.000000 4.264240 
# 
# 
# High freq. dielectric constant tensor:
#      x y z
#    x 1.881560 0.000000 -0.003060 
#    y 0.000000 1.864310 0.000000 
#    z -0.003060 0.000000 1.906870 
# 
# From -- ./inp_files/76712.got.cif
#   From: 2010.06.25/outbox.cif.g09.slc.cpg/sg15_39_cif.got.tgz:76712.got - 2010.06.28 07:06:18.
