data_PCOD8143186
_publ_section_title
;
Structure prediction by ZEFSAII (Michael W. Deem and Ramdas Pophale) SiO2 
 PCOD8143186
Probable space group: C 2/C
;
_chemical_formula_sum "Si O2"
_cell_formula_units_Z 40
_cell_length_a 22.489385
_cell_length_b 8.480993
_cell_length_c 10.535199
_cell_angle_alpha 90.000000
_cell_angle_beta 106.982602
_cell_angle_gamma 90.000000
_cell_volume 1921.779867
_symmetry_space_group_name_H-M "C 2/C"
_symmetry_group_IT_number 15
_symmetry_cell_setting 'monoclinic'
loop_
_space_group_symop_operation_xyz
x,y,z
-x,y,1/2-z
-x,-y,-z
x,-y,1/2+z
1/2+x,1/2+y,z
1/2-x,1/2+y,1/2-z
1/2-x,1/2-y,-z
1/2+x,1/2-y,1/2+z
loop_
_atom_site_type_symbol
_atom_site_label
_atom_site_fract_x
_atom_site_fract_y
_atom_site_fract_z
Si Si1 0.838053 0.838833 0.335296
Si Si2 0.663535 0.064219 0.990095
Si Si3 0.225822 0.462228 0.779910
Si Si4 0.470108 0.067481 0.106078
Si Si5 0.978133 0.090932 0.864073
O O1 0.849621 0.746751 0.476568
O O2 0.795417 0.721541 0.219242
O O3 0.800179 0.002734 0.329989
O O4 0.904299 0.876767 0.314256
O O5 0.698886 0.066796 0.878243
O O6 0.602172 0.963788 0.934027
O O7 0.701451 0.977566 0.127130
O O8 0.500000 0.987718 0.250000
O O9 0.481421 0.251973 0.113585
O O10 0.500000 0.000000 0.000000
O O11 0.000000 0.997360 0.750000
O O12 0.000000 0.000000 0.000000
#
# Coordination Sequence:
#
# PCOD8143186 Si02
#       5
#     8   8   8   8   8
#     4  10  23  43  63  94 128 163 221 254 323 384
#     4  10  21  40  63  94 124 164 217 258 315 382
#     4  10  22  39  65  91 128 166 208 268 312 379
#     4  11  20  39  67  92 128 167 214 263 315 382
#     4  11  25  45  63  95 132 169 214 270 321 387
#
# _framework density 20.814039999999999
#
# number of rings (size 3 to 8) (size 9 to 14) (size 15 to 20)
#    1.200    0.400    2.000    4.200    0.000    4.800 
#    3.600    0.000    0.000    0.000    0.000    0.000 
#    0.000    0.000    0.000    0.000    0.000    0.000 
#
# Total GULP energy -247772.568705 kJ/mol
# GULP energy per Si atom -12388.628435 kJ/mol
# Density = 2.076667 g / cm^3
# Si number density = 20.814040 Si / 1000 Ang^3
#
#
#
# Elastic Constant Matrix: (Units=GPa)
#
#
# Indices 1 2 3 4 5 6 
#
# 1 162.6764 51.1795 45.2271 0.0000 13.3866 0.0000
# 2 51.1795 56.1736 34.2620 0.0000 5.6929 0.0000
# 3 45.2271 34.2620 148.6741 0.0000 -10.9264 0.0000
# 4 0.0000 0.0000 0.0000 23.6258 0.0000 6.0902
# 5 13.3866 5.6929 -10.9264 0.0000 29.7840 0.0000
# 6 0.0000 0.0000 0.0000 6.0902 0.0000 38.3056
#
#
#
# Elastic Compliance Matrix: (Units=1/GPa)
#
#
# Indices 1 2 3 4 5 6 
#
# 1 0.009005 -0.007060 -0.001347 0.000000 -0.003192 0.000000
# 2 -0.007060 0.027296 -0.004412 0.000000 -0.003663 0.000000
# 3 -0.001347 -0.004412 0.008488 0.000000 0.004563 0.000000
# 4 0.000000 0.000000 0.000000 0.044135 0.000000 -0.007017
# 5 -0.003192 -0.003663 0.004563 0.000000 0.037384 0.000000
# 6 0.000000 0.000000 0.000000 -0.007017 0.000000 0.027222
#
#
# Mechanical properties :
#
#
# Convention : Reuss Voigt Hill
#
# Bulk Modulus (GPa) = 52.21405 69.87346 61.04375
# Shear Modulus (GPa) = 26.94660 34.13344 30.54002
#
# Velocity S-wave (km/s) = 3.60201 4.05399 3.83466
# Velocity P-wave (km/s) = 6.51458 7.45361 6.99986
#
# Compressibility (1/GPa) = 0.01915194
#
# Stress axis : x y z
#
# Youngs Moduli (GPa) = 111.04416 36.63521 117.81288
#
# Poissons Ratio (x) = 0.25863 0.15872
# Poissons Ratio (y) = 0.78392 0.51980
# Poissons Ratio (z) = 0.14960 0.16164
#
# Static dielectric constant tensor:
#      x y z
#    x 4.112110 0.000000 -0.544850 
#    y 0.000000 3.486730 0.000000 
#    z -0.544850 0.000000 4.450260 
# 
# 
# High freq. dielectric constant tensor:
#      x y z
#    x 1.826770 0.000000 -0.008310 
#    y 0.000000 1.784150 0.000000 
#    z -0.008310 0.000000 1.821850 
# 
# From -- ./inp_files/115986.got.cif
#   From: 2010.06.25/outbox.cif.g09.slc.cpg/sg15_58_cif.got.tgz:115986.got - 2010.06.28 07:06:18.
