data_PCOD8143426
_publ_section_title
;
Structure prediction by ZEFSAII (Michael W. Deem and Ramdas Pophale) SiO2 
 PCOD8143426
Probable space group: C 2/C
;
_chemical_formula_sum "Si O2"
_cell_formula_units_Z 40
_cell_length_a 19.942576
_cell_length_b 13.149492
_cell_length_c 9.594069
_cell_angle_alpha 90.000000
_cell_angle_beta 141.210869
_cell_angle_gamma 90.000000
_cell_volume 1576.099437
_symmetry_space_group_name_H-M "C 2/C"
_symmetry_group_IT_number 15
_symmetry_cell_setting 'monoclinic'
loop_
_space_group_symop_operation_xyz
x,y,z
-x,y,1/2-z
-x,-y,-z
x,-y,1/2+z
1/2+x,1/2+y,z
1/2-x,1/2+y,1/2-z
1/2-x,1/2-y,-z
1/2+x,1/2-y,1/2+z
loop_
_atom_site_type_symbol
_atom_site_label
_atom_site_fract_x
_atom_site_fract_y
_atom_site_fract_z
Si Si1 0.374903 0.005805 0.794330
Si Si2 0.575901 0.516235 0.496205
Si Si3 0.667898 0.301152 0.670080
Si Si4 0.888447 0.703140 0.650521
Si Si5 0.791265 0.393782 0.411995
O O1 0.318571 0.913187 0.619143
O O2 0.343560 0.107278 0.663371
O O3 0.335458 0.011435 0.889994
O O4 0.500000 0.000000 0.000000
O O5 0.500000 0.557644 0.250000
O O6 0.500000 0.500000 0.500000
O O7 0.632921 0.408789 0.547466
O O8 0.663095 0.603165 0.675540
O O9 0.607816 0.290976 0.723831
O O10 0.643920 0.209153 0.522697
O O11 0.795590 0.282675 0.887734
O O12 0.000000 0.689636 0.750000
#
# Coordination Sequence:
#
# PCOD8143426 Si02
#       5
#     8   8   8   8   8
#     4  11  22  40  71 102 135 177 225 293 360 415
#     4  12  28  48  73 104 143 190 239 293 360 426
#     4  10  25  42  69 102 143 184 242 287 356 432
#     4  10  21  40  67 101 141 181 233 289 359 419
#     4  11  24  46  69 103 144 181 237 290 349 428
#
# _framework density 25.379109
#
# number of rings (size 3 to 8) (size 9 to 14) (size 15 to 20)
#    0.000    1.200    2.000    3.000    8.400    3.200 
#    0.000    4.000    0.000    0.000    0.000    0.000 
#    0.000    0.000    0.000    0.000    0.000    0.000 
#
# Total GULP energy -247880.403540 kJ/mol
# GULP energy per Si atom -12394.020177 kJ/mol
# Density = 2.532135 g / cm^3
# Si number density = 25.379109 Si / 1000 Ang^3
#
#
#
# Elastic Constant Matrix: (Units=GPa)
#
#
# Indices 1 2 3 4 5 6 
#
# 1 80.2247 -17.5960 3.8978 0.0000 22.3601 0.0000
# 2 -17.5960 67.5501 -8.6460 0.0000 -3.5649 0.0000
# 3 3.8978 -8.6460 100.2818 0.0000 6.1140 0.0000
# 4 0.0000 0.0000 0.0000 24.7259 0.0000 2.4887
# 5 22.3601 -3.5649 6.1140 0.0000 44.4924 0.0000
# 6 0.0000 0.0000 0.0000 2.4887 0.0000 30.5992
#
#
#
# Elastic Compliance Matrix: (Units=1/GPa)
#
#
# Indices 1 2 3 4 5 6 
#
# 1 0.015323 0.003621 0.000170 0.000000 -0.007434 0.000000
# 2 0.003621 0.015872 0.001272 0.000000 -0.000723 0.000000
# 3 0.000170 0.001272 0.010159 0.000000 -0.001379 0.000000
# 4 0.000000 0.000000 0.000000 0.040777 0.000000 -0.003316
# 5 -0.007434 -0.000723 -0.001379 0.000000 0.026343 0.000000
# 6 0.000000 0.000000 0.000000 -0.003316 0.000000 0.032950
#
#
# Mechanical properties :
#
#
# Convention : Reuss Voigt Hill
#
# Bulk Modulus (GPa) = 19.42561 22.59645 21.01103
# Shear Modulus (GPa) = 33.67931 37.99023 35.83477
#
# Velocity S-wave (km/s) = 3.64682 3.87319 3.76171
# Velocity P-wave (km/s) = 5.04016 5.37820 5.21192
#
# Compressibility (1/GPa) = 0.05147842
#
# Stress axis : x y z
#
# Youngs Moduli (GPa) = 65.26191 63.00545 98.43443
#
# Poissons Ratio (x) = -0.22813 -0.01672
# Poissons Ratio (y) = -0.23630 -0.12518
# Poissons Ratio (z) = -0.01108 -0.08013
#
# Static dielectric constant tensor:
#      x y z
#    x 4.533810 0.000000 0.046670 
#    y 0.000000 0.940360 0.000000 
#    z 0.046670 0.000000 4.197180 
# 
# 
# High freq. dielectric constant tensor:
#      x y z
#    x 2.017990 0.000000 0.005290 
#    y 0.000000 2.007780 0.000000 
#    z 0.005290 0.000000 2.007380 
# 
# From -- ./inp_files/118866.got.cif
#   From: 2010.06.25/outbox.cif.g09.slc.cpg/sg15_60_cif.got.tgz:118866.got - 2010.06.28 07:06:18.
