data_PCOD8143335
_publ_section_title
;
Structure prediction by ZEFSAII (Michael W. Deem and Ramdas Pophale) SiO2 
 PCOD8143335
Probable space group: C 2/C
;
_chemical_formula_sum "Si O2"
_cell_formula_units_Z 56
_cell_length_a 19.869027
_cell_length_b 17.987757
_cell_length_c 15.241889
_cell_angle_alpha 90.000000
_cell_angle_beta 150.313167
_cell_angle_gamma 90.000000
_cell_volume 2697.893586
_symmetry_space_group_name_H-M "C 2/C"
_symmetry_group_IT_number 15
_symmetry_cell_setting 'monoclinic'
loop_
_space_group_symop_operation_xyz
x,y,z
-x,y,1/2-z
-x,-y,-z
x,-y,1/2+z
1/2+x,1/2+y,z
1/2-x,1/2+y,1/2-z
1/2-x,1/2-y,-z
1/2+x,1/2-y,1/2+z
loop_
_atom_site_type_symbol
_atom_site_label
_atom_site_fract_x
_atom_site_fract_y
_atom_site_fract_z
Si Si1 0.500000 0.374730 0.750000
Si Si2 0.725953 0.588407 0.127691
Si Si3 0.289653 0.503338 0.064023
Si Si4 0.534282 0.110050 0.455945
Si Si5 0.000000 0.482571 0.750000
Si Si6 0.804311 0.041130 0.780290
Si Si7 0.071333 0.184135 0.509512
Si Si8 0.654566 0.737810 0.127017
O O1 0.618094 0.425639 0.844327
O O2 0.436264 0.322128 0.603940
O O3 0.662677 0.533996 0.129448
O O4 0.659683 0.669512 0.064169
O O5 0.887020 0.595928 0.330896
O O6 0.689513 0.558801 0.988807
O O7 0.319550 0.468878 0.193088
O O8 0.132545 0.532292 0.878704
O O9 0.544458 0.074194 0.373640
O O10 0.655912 0.069439 0.647341
O O11 0.570520 0.196638 0.485113
O O12 0.913359 0.102777 0.930685
O O13 0.194024 0.238669 0.674181
O O14 0.928028 0.216660 0.379247
#
# Coordination Sequence:
#
# PCOD8143335 Si02
#       8
#     4   8   8   8   4   8   8   8
#     4  12  24  42  63  95 130 164 212 272 316 376
#     4  11  20  39  67  93 125 169 211 263 317 376
#     4  10  22  38  63  99 126 162 212 264 324 363
#     4   9  19  38  61  90 127 165 208 256 320 379
#     4   8  18  40  59  89 130 158 214 258 306 396
#     4  10  21  40  65  94 125 162 212 274 310 377
#     4  11  25  44  64  90 132 168 215 261 322 377
#     4  11  23  42  62  93 128 175 207 257 320 387
#
# _framework density 20.756934000000001
#
# number of rings (size 3 to 8) (size 9 to 14) (size 15 to 20)
#    0.000    1.714    2.857    1.286    2.000    1.714 
#    2.571    2.857    0.000    0.857    0.000    0.000 
#    0.000    0.000    0.000    0.000    0.000    0.000 
#
# Total GULP energy -347088.411523 kJ/mol
# GULP energy per Si atom -12396.014697 kJ/mol
# Density = 2.070969 g / cm^3
# Si number density = 20.756934 Si / 1000 Ang^3
#
#
#
# Elastic Constant Matrix: (Units=GPa)
#
#
# Indices 1 2 3 4 5 6 
#
# 1 98.6743 28.5180 33.7356 0.0000 -3.7936 0.0000
# 2 28.5180 83.9352 17.9329 0.0000 8.1169 0.0000
# 3 33.7356 17.9329 59.9326 0.0000 -4.4969 0.0000
# 4 0.0000 0.0000 0.0000 13.1431 0.0000 15.3774
# 5 -3.7936 8.1169 -4.4969 0.0000 33.2307 0.0000
# 6 0.0000 0.0000 0.0000 15.3774 0.0000 -8.9628
#
#
#
# Elastic Compliance Matrix: (Units=1/GPa)
#
#
# Indices 1 2 3 4 5 6 
#
# 1 0.013336 -0.003303 -0.006409 0.000000 0.001462 0.000000
# 2 -0.003303 0.014003 -0.002642 0.000000 -0.004155 0.000000
# 3 -0.006409 -0.002642 0.021293 0.000000 0.002795 0.000000
# 4 0.000000 0.000000 0.000000 0.025300 0.000000 0.043407
# 5 0.001462 -0.004155 0.002795 0.000000 0.031653 0.000000
# 6 0.000000 0.000000 0.000000 0.043407 0.000000 -0.037100
#
#
# Mechanical properties :
#
#
# Convention : Reuss Voigt Hill
#
# Bulk Modulus (GPa) = 41.79984 44.76835 43.28410
# Shear Modulus (GPa) = 49.42269 18.30591 33.86430
#
# Velocity S-wave (km/s) = 4.88486 2.97293 4.04353
# Velocity P-wave (km/s) = 7.21092 5.77920 6.53439
#
# Compressibility (1/GPa) = 0.02392353
#
# Stress axis : x y z
#
# Youngs Moduli (GPa) = 74.98304 71.41527 46.96336
#
# Poissons Ratio (x) = 0.23591 0.30098
# Poissons Ratio (y) = 0.24769 0.12409
# Poissons Ratio (z) = 0.48055 0.18869
#
# Static dielectric constant tensor:
#      x y z
#    x 4.326790 0.000000 1.093690 
#    y 0.000000 3.699910 0.000000 
#    z 1.093690 0.000000 5.267200 
# 
# 
# High freq. dielectric constant tensor:
#      x y z
#    x 1.816610 0.000000 0.016570 
#    y 0.000000 1.800840 0.000000 
#    z 0.016570 0.000000 1.819060 
# 
# From -- ./inp_files/169209.got.cif
#   From: 2010.06.25/outbox.cif.g09.slc.cpg/sg15_85_cif.got.tgz:169209.got - 2010.06.28 07:06:18.
