data_PCOD8143153
_publ_section_title
;
Structure prediction by ZEFSAII (Michael W. Deem and Ramdas Pophale) SiO2 
 PCOD8143153
Probable space group: C 2/C
;
_chemical_formula_sum "Si O2"
_cell_formula_units_Z 40
_cell_length_a 9.782031
_cell_length_b 9.455867
_cell_length_c 21.997445
_cell_angle_alpha 90.000000
_cell_angle_beta 77.655929
_cell_angle_gamma 90.000000
_cell_volume 1987.670913
_symmetry_space_group_name_H-M "C 2/C"
_symmetry_group_IT_number 15
_symmetry_cell_setting 'monoclinic'
loop_
_space_group_symop_operation_xyz
x,y,z
-x,y,1/2-z
-x,-y,-z
x,-y,1/2+z
1/2+x,1/2+y,z
1/2-x,1/2+y,1/2-z
1/2-x,1/2-y,-z
1/2+x,1/2-y,1/2+z
loop_
_atom_site_type_symbol
_atom_site_label
_atom_site_fract_x
_atom_site_fract_y
_atom_site_fract_z
Si Si1 0.657175 0.950889 0.735660
Si Si2 0.098201 0.850600 0.581386
Si Si3 0.709641 0.756895 0.186217
Si Si4 0.141448 0.570050 0.508413
Si Si5 0.312326 0.499993 0.106917
O O1 0.500000 0.892626 0.750000
O O2 0.730351 0.880718 0.786639
O O3 0.737949 0.904431 0.666386
O O4 0.656457 0.124030 0.739747
O O5 0.086723 0.798469 0.652746
O O6 0.095258 0.726282 0.532477
O O7 0.246178 0.931420 0.557455
O O8 0.968462 0.950981 0.578193
O O9 0.820512 0.836579 0.130513
O O10 0.214081 0.487356 0.557365
O O11 0.000000 0.500000 0.500000
#
# Coordination Sequence:
#
# PCOD8143153 Si02
#       5
#     8   8   8   8   8
#     4  10  23  39  60  89 128 157 216 251 306 371
#     4  10  21  40  63  89 129 153 213 253 308 379
#     4   9  23  38  62  89 123 167 204 258 311 362
#     4  10  22  40  64  92 122 166 200 260 312 369
#     4   9  22  40  62  92 124 166 204 254 315 361
#
# _framework density 20.124056
#
# number of rings (size 3 to 8) (size 9 to 14) (size 15 to 20)
#    1.200    1.200    0.000    0.600    5.600    2.400 
#    3.600    0.000    0.000    0.000    0.000    0.000 
#    0.000    0.000    0.000    0.000    0.000    0.000 
#
# Total GULP energy -247763.404001 kJ/mol
# GULP energy per Si atom -12388.170200 kJ/mol
# Density = 2.007825 g / cm^3
# Si number density = 20.124056 Si / 1000 Ang^3
#
#
#
# Elastic Constant Matrix: (Units=GPa)
#
#
# Indices 1 2 3 4 5 6 
#
# 1 152.8484 57.8858 50.5664 0.0000 3.0166 0.0000
# 2 57.8858 63.8025 43.4137 0.0000 12.6981 0.0000
# 3 50.5664 43.4137 95.1577 0.0000 15.1031 0.0000
# 4 0.0000 0.0000 0.0000 31.6852 0.0000 -0.2136
# 5 3.0166 12.6981 15.1031 0.0000 31.3117 0.0000
# 6 0.0000 0.0000 0.0000 -0.2136 0.0000 30.5744
#
#
#
# Elastic Compliance Matrix: (Units=1/GPa)
#
#
# Indices 1 2 3 4 5 6 
#
# 1 0.010510 -0.008790 -0.002144 0.000000 0.003586 0.000000
# 2 -0.008790 0.030701 -0.008115 0.000000 -0.007689 0.000000
# 3 -0.002144 -0.008115 0.016022 0.000000 -0.004231 0.000000
# 4 0.000000 0.000000 0.000000 0.031562 0.000000 0.000220
# 5 0.003586 -0.007689 -0.004231 0.000000 0.036750 0.000000
# 6 0.000000 0.000000 0.000000 0.000220 0.000000 0.032709
#
#
# Mechanical properties :
#
#
# Convention : Reuss Voigt Hill
#
# Bulk Modulus (GPa) = 52.26229 68.39338 60.32783
# Shear Modulus (GPa) = 24.66345 29.37712 27.02028
#
# Velocity S-wave (km/s) = 3.50461 3.82488 3.66824
# Velocity P-wave (km/s) = 6.51175 7.31887 6.92708
#
# Compressibility (1/GPa) = 0.01913426
#
# Stress axis : x y z
#
# Youngs Moduli (GPa) = 95.14860 32.57266 62.41513
#
# Poissons Ratio (x) = 0.28633 0.13380
# Poissons Ratio (y) = 0.83639 0.50649
# Poissons Ratio (z) = 0.20397 0.26432
#
# Static dielectric constant tensor:
#      x y z
#    x 3.463910 0.000000 -0.107730 
#    y 0.000000 3.423520 0.000000 
#    z -0.107730 0.000000 3.659610 
# 
# 
# High freq. dielectric constant tensor:
#      x y z
#    x 1.777920 0.000000 -0.000090 
#    y 0.000000 1.761570 0.000000 
#    z -0.000090 0.000000 1.791460 
# 
# From -- ./inp_files/229919.got.cif
#   From: 2010.06.25/outbox.cif.g09.slc.cpg/sg15_115_cif.got.tgz:229919.got - 2010.06.28 07:06:18.
