data_PCOD8143902
_publ_section_title
;
Structure prediction by ZEFSAII (Michael W. Deem and Ramdas Pophale) SiO2 
 PCOD8143902
Probable space group: C 2/C
;
_chemical_formula_sum "Si O2"
_cell_formula_units_Z 64
_cell_length_a 9.197616
_cell_length_b 28.991577
_cell_length_c 15.745940
_cell_angle_alpha 90.000000
_cell_angle_beta 137.038992
_cell_angle_gamma 90.000000
_cell_volume 2861.421767
_symmetry_space_group_name_H-M "C 2/C"
_symmetry_group_IT_number 15
_symmetry_cell_setting 'monoclinic'
loop_
_space_group_symop_operation_xyz
x,y,z
-x,y,1/2-z
-x,-y,-z
x,-y,1/2+z
1/2+x,1/2+y,z
1/2-x,1/2+y,1/2-z
1/2-x,1/2-y,-z
1/2+x,1/2-y,1/2+z
loop_
_atom_site_type_symbol
_atom_site_label
_atom_site_fract_x
_atom_site_fract_y
_atom_site_fract_z
Si Si1 0.922566 0.660983 0.450975
Si Si2 0.614286 0.773441 0.713198
Si Si3 0.605417 0.294169 0.929303
Si Si4 0.328173 0.668207 0.739206
Si Si5 0.744320 0.437276 0.858205
Si Si6 0.728839 0.142936 0.866719
Si Si7 0.803882 0.049283 0.973292
Si Si8 0.783549 0.532688 0.191330
O O1 0.995494 0.695677 0.407061
O O2 0.692167 0.675279 0.388753
O O3 0.899763 0.607264 0.414036
O O4 0.094621 0.668860 0.598392
O O5 0.500000 0.790224 0.750000
O O6 0.590072 0.718418 0.693339
O O7 0.862054 0.783380 0.812110
O O8 0.750000 0.250000 0.000000
O O9 0.617067 0.321774 0.021493
O O10 0.500000 0.646447 0.750000
O O11 0.334130 0.632941 0.820447
O O12 0.500000 0.420400 0.750000
O O13 0.796884 0.471755 0.800732
O O14 0.770232 0.463486 0.961323
O O15 0.500000 0.166732 0.750000
O O16 0.691249 0.097417 0.905667
O O17 0.721608 0.014610 0.865584
O O18 0.060121 0.057941 0.075117
O O19 0.000000 0.558532 0.250000
#
# Coordination Sequence:
#
# PCOD8143902 Si02
#       8
#     8   8   8   8   8   8   8   8
#     4  12  23  42  65  92 126 173 222 274 325 386
#     4  11  26  41  62  92 132 176 218 274 338 385
#     4  12  22  40  66  97 125 170 227 273 314 390
#     4  11  26  42  59  92 133 176 217 272 332 393
#     4  10  21  41  66  96 132 164 217 274 329 394
#     4  12  22  41  68  93 126 171 222 271 321 391
#     4  10  22  43  68  94 130 175 212 269 342 391
#     4  10  23  41  65  99 130 167 215 271 332 410
#
# _framework density 22.366503999999999
#
# number of rings (size 3 to 8) (size 9 to 14) (size 15 to 20)
#    0.000    1.000    3.750    2.250    3.500    3.000 
#    0.000    3.125    0.000    0.000    0.000    0.000 
#    0.000    0.000    0.000    0.000    0.000    0.000 
#
# Total GULP energy -396500.038507 kJ/mol
# GULP energy per Si atom -12390.626203 kJ/mol
# Density = 2.231560 g / cm^3
# Si number density = 22.366504 Si / 1000 Ang^3
#
#
#
# Elastic Constant Matrix: (Units=GPa)
#
#
# Indices 1 2 3 4 5 6 
#
# 1 134.8188 11.0924 38.0205 0.0000 -30.2534 0.0000
# 2 11.0924 64.0796 34.7514 0.0000 -21.9627 0.0000
# 3 38.0205 34.7514 79.8981 0.0000 -38.0300 0.0000
# 4 0.0000 0.0000 0.0000 25.6231 0.0000 -12.3834
# 5 -30.2534 -21.9627 -38.0300 0.0000 47.1929 0.0000
# 6 0.0000 0.0000 0.0000 -12.3834 0.0000 25.6313
#
#
#
# Elastic Compliance Matrix: (Units=1/GPa)
#
#
# Indices 1 2 3 4 5 6 
#
# 1 0.009057 0.001456 -0.003013 0.000000 0.004056 0.000000
# 2 0.001456 0.021087 -0.007705 0.000000 0.004539 0.000000
# 3 -0.003013 -0.007705 0.023806 0.000000 0.013667 0.000000
# 4 0.000000 0.000000 0.000000 0.050916 0.000000 0.024599
# 5 0.004056 0.004539 0.013667 0.000000 0.036915 0.000000
# 6 0.000000 0.000000 0.000000 0.024599 0.000000 0.050900
#
#
# Mechanical properties :
#
#
# Convention : Reuss Voigt Hill
#
# Bulk Modulus (GPa) = 28.22601 49.61388 38.91995
# Shear Modulus (GPa) = 22.42022 32.68496 27.55259
#
# Velocity S-wave (km/s) = 3.16951 3.82689 3.51361
# Velocity P-wave (km/s) = 5.10309 6.46198 5.82231
#
# Compressibility (1/GPa) = 0.03542831
#
# Stress axis : x y z
#
# Youngs Moduli (GPa) = 110.40684 47.42174 42.00656
#
# Poissons Ratio (x) = -0.06906 0.12656
# Poissons Ratio (y) = -0.16078 0.32364
# Poissons Ratio (z) = 0.33263 0.36537
#
# Static dielectric constant tensor:
#      x y z
#    x 4.366070 0.000000 -0.214900 
#    y 0.000000 3.734990 0.000000 
#    z -0.214900 0.000000 4.897600 
# 
# 
# High freq. dielectric constant tensor:
#      x y z
#    x 1.892750 0.000000 -0.011150 
#    y 0.000000 1.844800 0.000000 
#    z -0.011150 0.000000 1.896120 
# 
# From -- ./inp_files/139831.got.cif
#   From: 2010.06.25/outbox.cif.g09.slc.cpg/sg15_70_cif.got.tgz:139831.got - 2010.06.28 07:06:18.
