data_PCOD8143251
_publ_section_title
;
Structure prediction by ZEFSAII (Michael W. Deem and Ramdas Pophale) SiO2 
 PCOD8143251
Probable space group: C 2/C
;
_chemical_formula_sum "Si O2"
_cell_formula_units_Z 40
_cell_length_a 15.882544
_cell_length_b 9.863811
_cell_length_c 13.166800
_cell_angle_alpha 90.000000
_cell_angle_beta 71.645550
_cell_angle_gamma 90.000000
_cell_volume 1957.804024
_symmetry_space_group_name_H-M "C 2/C"
_symmetry_group_IT_number 15
_symmetry_cell_setting 'monoclinic'
loop_
_space_group_symop_operation_xyz
x,y,z
-x,y,1/2-z
-x,-y,-z
x,-y,1/2+z
1/2+x,1/2+y,z
1/2-x,1/2+y,1/2-z
1/2-x,1/2-y,-z
1/2+x,1/2-y,1/2+z
loop_
_atom_site_type_symbol
_atom_site_label
_atom_site_fract_x
_atom_site_fract_y
_atom_site_fract_z
Si Si1 0.953399 0.932608 0.867495
Si Si2 0.230175 0.986561 0.153219
Si Si3 0.174011 0.300731 0.754598
Si Si4 0.336977 0.842202 0.964189
Si Si5 0.483360 0.298974 0.059950
O O1 0.000000 0.869985 0.750000
O O2 0.854451 0.979785 0.882611
O O3 0.012649 0.060384 0.879901
O O4 0.951249 0.821178 0.956776
O O5 0.214305 0.848747 0.222694
O O6 0.250142 0.108334 0.222518
O O7 0.313144 0.971670 0.043177
O O8 0.144334 0.374321 0.661040
O O9 0.087024 0.296803 0.857613
O O10 0.420922 0.769540 0.981887
O O11 0.250000 0.750000 0.000000
#
# Coordination Sequence:
#
# PCOD8143251 Si02
#       5
#     8   8   8   8   8
#     4  11  22  38  67  98 128 173 225 269 308 395
#     4  11  25  40  68  97 131 174 220 268 330 385
#     4  11  24  43  67  96 134 173 218 272 327 391
#     4  10  21  40  64  93 127 175 212 263 327 388
#     4  11  22  40  68  93 130 174 224 262 327 389
#
# _framework density 20.431052999999999
#
# number of rings (size 3 to 8) (size 9 to 14) (size 15 to 20)
#    0.000    1.200    6.000    0.600    8.400    1.600 
#    0.000    0.000    0.000    0.000    0.000    0.000 
#    0.000    0.000    0.000    0.000    0.000    0.000 
#
# Total GULP energy -248023.223369 kJ/mol
# GULP energy per Si atom -12401.161168 kJ/mol
# Density = 2.038455 g / cm^3
# Si number density = 20.431053 Si / 1000 Ang^3
#
#
#
# Elastic Constant Matrix: (Units=GPa)
#
#
# Indices 1 2 3 4 5 6 
#
# 1 95.7910 59.0413 57.5352 0.0000 7.4562 0.0000
# 2 59.0413 64.5216 51.1106 0.0000 11.3537 0.0000
# 3 57.5352 51.1106 160.2474 0.0000 5.3628 0.0000
# 4 0.0000 0.0000 0.0000 29.0710 0.0000 4.3361
# 5 7.4562 11.3537 5.3628 0.0000 40.2840 0.0000
# 6 0.0000 0.0000 0.0000 4.3361 0.0000 27.8233
#
#
#
# Elastic Compliance Matrix: (Units=1/GPa)
#
#
# Indices 1 2 3 4 5 6 
#
# 1 0.024619 -0.021111 -0.002162 0.000000 0.001681 0.000000
# 2 -0.021111 0.039889 -0.004919 0.000000 -0.006680 0.000000
# 3 -0.002162 -0.004919 0.008564 0.000000 0.000647 0.000000
# 4 0.000000 0.000000 0.000000 0.035217 0.000000 -0.005488
# 5 0.001681 -0.006680 0.000647 0.000000 0.026309 0.000000
# 6 0.000000 0.000000 0.000000 -0.005488 0.000000 0.036796
#
#
# Mechanical properties :
#
#
# Convention : Reuss Voigt Hill
#
# Bulk Modulus (GPa) = 59.92671 72.88158 66.40415
# Shear Modulus (GPa) = 21.42775 29.62717 25.52746
#
# Velocity S-wave (km/s) = 3.24201 3.81216 3.53858
# Velocity P-wave (km/s) = 6.58855 7.42470 7.01909
#
# Compressibility (1/GPa) = 0.01668705
#
# Stress axis : x y z
#
# Youngs Moduli (GPa) = 40.61875 25.06964 116.76800
#
# Poissons Ratio (x) = 0.52925 0.25247
# Poissons Ratio (y) = 0.85751 0.57441
# Poissons Ratio (z) = 0.08782 0.12332
#
# Static dielectric constant tensor:
#      x y z
#    x 3.611840 0.000000 0.025010 
#    y 0.000000 3.496670 0.000000 
#    z 0.025010 0.000000 4.309990 
# 
# 
# High freq. dielectric constant tensor:
#      x y z
#    x 1.803720 0.000000 0.000090 
#    y 0.000000 1.758470 0.000000 
#    z 0.000090 0.000000 1.819310 
# 
# From -- ./inp_files/94628.got.cif
#   From: 2010.06.25/outbox.cif.g09.slc.cpg/sg15_48_cif.got.tgz:94628.got - 2010.06.28 07:06:18.
