data_PCOD8143308
_publ_section_title
;
Structure prediction by ZEFSAII (Michael W. Deem and Ramdas Pophale) SiO2 
 PCOD8143308
Probable space group: C 2/C
;
_chemical_formula_sum "Si O2"
_cell_formula_units_Z 64
_cell_length_a 12.158300
_cell_length_b 25.320649
_cell_length_c 17.128299
_cell_angle_alpha 90.000000
_cell_angle_beta 142.365622
_cell_angle_gamma 90.000000
_cell_volume 3219.832341
_symmetry_space_group_name_H-M "C 2/C"
_symmetry_group_IT_number 15
_symmetry_cell_setting 'monoclinic'
loop_
_space_group_symop_operation_xyz
x,y,z
-x,y,1/2-z
-x,-y,-z
x,-y,1/2+z
1/2+x,1/2+y,z
1/2-x,1/2+y,1/2-z
1/2-x,1/2-y,-z
1/2+x,1/2-y,1/2+z
loop_
_atom_site_type_symbol
_atom_site_label
_atom_site_fract_x
_atom_site_fract_y
_atom_site_fract_z
Si Si1 0.169466 0.170259 0.302130
Si Si2 0.158681 0.789840 0.278427
Si Si3 0.462762 0.746693 0.953611
Si Si4 0.700569 0.910867 0.512669
Si Si5 0.798855 0.405017 0.322864
Si Si6 0.685985 0.473462 0.397908
Si Si7 0.536422 0.358072 0.959404
Si Si8 0.998025 0.052084 0.551792
O O1 0.344028 0.204942 0.417924
O O2 0.200724 0.112705 0.356425
O O3 0.000000 0.198078 0.250000
O O4 0.125010 0.161014 0.187011
O O5 0.329347 0.759378 0.411380
O O6 0.078229 0.757617 0.160792
O O7 0.202795 0.849166 0.278391
O O8 0.000000 0.792643 0.250000
O O9 0.392949 0.693710 0.956525
O O10 0.493124 0.894398 0.395591
O O11 0.797417 0.887281 0.490201
O O12 0.706377 0.973575 0.523162
O O13 0.805406 0.434417 0.411085
O O14 0.694016 0.440797 0.200984
O O15 0.500000 0.486822 0.250000
O O16 0.649396 0.447859 0.461946
O O17 0.446577 0.398301 0.969444
O O18 0.000000 0.000000 0.500000
#
# Coordination Sequence:
#
# PCOD8143308 Si02
#       8
#     8   8   8   8   8   8   8   8
#     4  10  23  40  65  97 135 173 214 264 336 398
#     4  12  25  46  67  96 133 176 228 276 332 395
#     4  12  24  44  68  98 134 175 222 278 332 398
#     4  11  22  41  65  97 130 170 218 271 323 403
#     4  11  24  40  67  93 126 170 225 265 324 396
#     4  10  21  40  65  90 125 174 213 263 324 388
#     4  11  23  40  67  96 134 172 213 268 340 382
#     4  11  22  41  63  92 128 167 214 270 330 388
#
# _framework density 19.876809999999999
#
# number of rings (size 3 to 8) (size 9 to 14) (size 15 to 20)
#    0.000    1.000    5.000    3.000    1.750    3.500 
#    0.000    0.000    0.000    0.000    0.000    0.000 
#    0.000    0.000    0.000    0.000    0.000    0.000 
#
# Total GULP energy -396823.107116 kJ/mol
# GULP energy per Si atom -12400.722097 kJ/mol
# Density = 1.983157 g / cm^3
# Si number density = 19.876810 Si / 1000 Ang^3
#
#
#
# Elastic Constant Matrix: (Units=GPa)
#
#
# Indices 1 2 3 4 5 6 
#
# 1 102.7770 51.2928 56.2692 -0.0006 0.6877 0.0000
# 2 51.2928 109.3492 41.5618 0.0000 -5.9950 0.0000
# 3 56.2692 41.5618 111.0047 -0.0012 -6.8071 0.0001
# 4 -0.0006 0.0000 -0.0012 25.6275 -0.0007 1.1250
# 5 0.6877 -5.9950 -6.8071 -0.0007 32.9776 0.0000
# 6 0.0000 0.0000 0.0001 1.1250 0.0000 32.4785
#
#
#
# Elastic Compliance Matrix: (Units=1/GPa)
#
#
# Indices 1 2 3 4 5 6 
#
# 1 0.015708 -0.005155 -0.006188 0.000000 -0.002542 0.000000
# 2 -0.005155 0.012396 -0.001907 0.000000 0.001967 0.000000
# 3 -0.006188 -0.001907 0.013011 0.000001 0.002468 0.000000
# 4 0.000000 0.000000 0.000001 0.039080 0.000001 -0.001354
# 5 -0.002542 0.001967 0.002468 0.000001 0.031244 0.000000
# 6 0.000000 0.000000 0.000000 -0.001354 0.000000 0.030836
#
#
# Mechanical properties :
#
#
# Convention : Reuss Voigt Hill
#
# Bulk Modulus (GPa) = 68.43158 69.04205 68.73682
# Shear Modulus (GPa) = 28.79407 29.81719 29.30563
#
# Velocity S-wave (km/s) = 3.81021 3.87731 3.84391
# Velocity P-wave (km/s) = 7.33891 7.40642 7.37274
#
# Compressibility (1/GPa) = 0.01461314
#
# Stress axis : x y z
#
# Youngs Moduli (GPa) = 63.66377 80.67064 76.85931
#
# Poissons Ratio (x) = 0.41589 0.47560
# Poissons Ratio (y) = 0.32821 0.14659
# Poissons Ratio (z) = 0.39394 0.15386
#
# Static dielectric constant tensor:
#      x y z
#    x 3.752560 0.000000 -0.129970 
#    y 0.000000 3.697180 0.000000 
#    z -0.129970 0.000000 3.633540 
# 
# 
# High freq. dielectric constant tensor:
#      x y z
#    x 1.777580 0.000000 -0.011840 
#    y 0.000000 1.784470 0.000000 
#    z -0.011840 0.000000 1.773280 
# 
# From -- ./inp_files/148799.got.cif
#   From: 2010.06.25/outbox.cif.g09.slc.cpg/sg15_75_cif.got.tgz:148799.got - 2010.06.28 07:06:18.
