data_PCOD8143023
_publ_section_title
;
Structure prediction by ZEFSAII (Michael W. Deem and Ramdas Pophale) SiO2 
 PCOD8143023
Probable space group: C 2/C
;
_chemical_formula_sum "Si O2"
_cell_formula_units_Z 48
_cell_length_a 8.892621
_cell_length_b 11.516003
_cell_length_c 20.580821
_cell_angle_alpha 90.000000
_cell_angle_beta 96.299139
_cell_angle_gamma 90.000000
_cell_volume 2094.904807
_symmetry_space_group_name_H-M "C 2/C"
_symmetry_group_IT_number 15
_symmetry_cell_setting 'monoclinic'
loop_
_space_group_symop_operation_xyz
x,y,z
-x,y,1/2-z
-x,-y,-z
x,-y,1/2+z
1/2+x,1/2+y,z
1/2-x,1/2+y,1/2-z
1/2-x,1/2-y,-z
1/2+x,1/2-y,1/2+z
loop_
_atom_site_type_symbol
_atom_site_label
_atom_site_fract_x
_atom_site_fract_y
_atom_site_fract_z
Si Si1 0.853349 0.592167 0.634457
Si Si2 0.000000 0.958450 0.250000
Si Si3 0.940719 0.727449 0.944353
Si Si4 0.500000 0.054625 0.250000
Si Si5 0.399562 0.703639 0.583807
Si Si6 0.347563 0.742946 0.800519
Si Si7 0.963372 0.028211 0.388900
O O1 0.964855 0.525129 0.687416
O O2 0.800058 0.716624 0.663304
O O3 0.712263 0.509556 0.610587
O O4 0.947248 0.626036 0.574708
O O5 0.142543 0.869884 0.246778
O O6 0.986868 0.037077 0.184958
O O7 0.775502 0.713117 0.904870
O O8 0.002411 0.852194 0.925008
O O9 0.934528 0.718869 0.021914
O O10 0.647445 0.136022 0.238963
O O11 0.501468 0.748809 0.647643
O O12 0.435268 0.568856 0.570700
#
# Coordination Sequence:
#
# PCOD8143023 Si02
#       7
#     8   4   8   4   8   8   8
#     4  10  24  36  58  92 112 147 203 235 280 356
#     4   7  16  33  56  80 108 145 188 223 278 344
#     4  11  22  38  61  88 117 151 196 245 282 339
#     4  11  22  39  60  86 120 153 188 239 298 342
#     4   9  21  41  60  84 119 155 194 238 292 343
#     4   9  20  40  61  82 120 158 185 240 292 338
#     4  10  21  40  60  84 119 157 187 235 295 343
#
# _framework density 22.912735999999999
#
# number of rings (size 3 to 8) (size 9 to 14) (size 15 to 20)
#    0.000    2.667    0.000    1.500    0.000   15.333 
#    0.000    7.500    0.000    0.000    0.000    0.000 
#    0.000    0.000    0.000    0.000    0.000    0.000 
#
# Total GULP energy -297450.802570 kJ/mol
# GULP energy per Si atom -12393.783440 kJ/mol
# Density = 2.286059 g / cm^3
# Si number density = 22.912736 Si / 1000 Ang^3
#
#
#
# Elastic Constant Matrix: (Units=GPa)
#
#
# Indices 1 2 3 4 5 6 
#
# 1 61.1591 7.4017 14.3395 0.0000 -21.4016 0.0000
# 2 7.4017 54.1937 9.5601 0.0000 7.3313 0.0000
# 3 14.3395 9.5601 51.5426 0.0000 -14.9796 0.0000
# 4 0.0000 0.0000 0.0000 19.5884 0.0000 4.4071
# 5 -21.4016 7.3313 -14.9796 0.0000 27.3704 0.0000
# 6 0.0000 0.0000 0.0000 4.4071 0.0000 21.2639
#
#
#
# Elastic Compliance Matrix: (Units=1/GPa)
#
#
# Indices 1 2 3 4 5 6 
#
# 1 0.024327 -0.006242 0.000481 0.000000 0.020957 0.000000
# 2 -0.006242 0.022444 -0.006650 0.000000 -0.014532 0.000000
# 3 0.000481 -0.006650 0.025124 0.000000 0.015907 0.000000
# 4 0.000000 0.000000 0.000000 0.053548 0.000000 -0.011098
# 5 0.020957 -0.014532 0.015907 0.000000 0.065521 0.000000
# 6 0.000000 0.000000 0.000000 -0.011098 0.000000 0.049328
#
#
# Mechanical properties :
#
#
# Convention : Reuss Voigt Hill
#
# Bulk Modulus (GPa) = 21.24394 25.49978 23.37186
# Shear Modulus (GPa) = 17.80587 22.68413 20.24500
#
# Velocity S-wave (km/s) = 2.79071 3.14988 2.97571
# Velocity P-wave (km/s) = 4.43575 4.93783 4.69351
#
# Compressibility (1/GPa) = 0.04707226
#
# Stress axis : x y z
#
# Youngs Moduli (GPa) = 41.10615 44.55561 39.80233
#
# Poissons Ratio (x) = 0.27814 -0.01913
# Poissons Ratio (y) = 0.25660 0.26467
# Poissons Ratio (z) = -0.01975 0.29628
#
# Static dielectric constant tensor:
#      x y z
#    x 3.983310 0.000000 -0.272320 
#    y 0.000000 4.024910 0.000000 
#    z -0.272320 0.000000 4.031140 
# 
# 
# High freq. dielectric constant tensor:
#      x y z
#    x 1.890350 0.000000 -0.020490 
#    y 0.000000 1.896350 0.000000 
#    z -0.020490 0.000000 1.899930 
# 
# From -- ./inp_files/263289.got.cif
#   From: 2010.06.25/outbox.cif.g09.slc.cpg/sg15_132_cif.got.tgz:263289.got - 2010.06.28 07:06:18.
