data_PCOD8143980
_publ_section_title
;
Structure prediction by ZEFSAII (Michael W. Deem and Ramdas Pophale) SiO2 
 PCOD8143980
Probable space group: C 2/C
;
_chemical_formula_sum "Si O2"
_cell_formula_units_Z 60
_cell_length_a 12.040401
_cell_length_b 21.159777
_cell_length_c 21.140598
_cell_angle_alpha 90.000000
_cell_angle_beta 150.127272
_cell_angle_gamma 90.000000
_cell_volume 2682.650494
_symmetry_space_group_name_H-M "C 2/C"
_symmetry_group_IT_number 15
_symmetry_cell_setting 'monoclinic'
loop_
_space_group_symop_operation_xyz
x,y,z
-x,y,1/2-z
-x,-y,-z
x,-y,1/2+z
1/2+x,1/2+y,z
1/2-x,1/2+y,1/2-z
1/2-x,1/2-y,-z
1/2+x,1/2-y,1/2+z
loop_
_atom_site_type_symbol
_atom_site_label
_atom_site_fract_x
_atom_site_fract_y
_atom_site_fract_z
Si Si1 0.747060 0.842900 0.623373
Si Si2 0.000000 0.634642 0.750000
Si Si3 0.119523 0.436071 0.013176
Si Si4 0.821754 0.540297 0.824053
Si Si5 0.925325 0.055594 0.918753
Si Si6 0.271511 0.652684 0.485783
Si Si7 0.390639 0.764859 0.826549
Si Si8 0.507230 0.821176 0.119571
O O1 0.598602 0.904220 0.562986
O O2 0.696702 0.789979 0.650050
O O3 0.701292 0.813570 0.530572
O O4 0.000000 0.865500 0.750000
O O5 0.211150 0.589902 0.842178
O O6 0.945122 0.680882 0.663453
O O7 0.030973 0.491079 0.921714
O O8 0.259383 0.463040 0.142433
O O9 0.269554 0.385214 0.051241
O O10 0.628425 0.524552 0.677244
O O11 0.883538 0.611148 0.836715
O O12 0.135091 0.104427 0.020461
O O13 0.000000 0.000000 0.000000
O O14 0.438720 0.709852 0.573522
O O15 0.019851 0.680507 0.349450
O O16 0.181587 0.734621 0.686430
#
# Coordination Sequence:
#
# PCOD8143980 Si02
#       8
#     8   4   8   8   8   8   8   8
#     4  10  23  41  64  94 131 171 216 276 329 398
#     4  10  22  42  64  90 126 178 232 270 330 412
#     4   9  20  40  65  97 129 162 218 275 332 393
#     4   9  19  41  63  92 129 167 212 267 332 397
#     4  11  24  39  63  96 134 182 220 273 341 406
#     4  10  21  41  68  94 132 172 222 282 333 405
#     4  10  21  43  64  96 131 168 228 275 338 402
#     4  10  21  42  66  90 128 173 218 276 332 395
#
# _framework density 22.365939000000001
#
# number of rings (size 3 to 8) (size 9 to 14) (size 15 to 20)
#    0.000    2.133    2.667    0.000    4.667    2.133 
#    7.200    6.000    0.000    0.000    0.000    0.000 
#    0.000    0.000    0.000    0.000    0.000    0.000 
#
# Total GULP energy -371701.011518 kJ/mol
# GULP energy per Si atom -12390.033717 kJ/mol
# Density = 2.231503 g / cm^3
# Si number density = 22.365939 Si / 1000 Ang^3
#
#
#
# Elastic Constant Matrix: (Units=GPa)
#
#
# Indices 1 2 3 4 5 6 
#
# 1 95.7038 46.2016 48.2331 0.0043 15.2329 0.0029
# 2 46.2016 90.0002 33.7414 -0.0078 -4.1034 -0.0021
# 3 48.2331 33.7414 114.9290 0.0218 -10.1865 -0.0032
# 4 0.0043 -0.0078 0.0218 23.4332 -0.0126 0.4155
# 5 15.2329 -4.1034 -10.1865 -0.0126 28.2592 -0.0071
# 6 0.0029 -0.0021 -0.0032 0.4155 -0.0071 38.2223
#
#
#
# Elastic Compliance Matrix: (Units=1/GPa)
#
#
# Indices 1 2 3 4 5 6 
#
# 1 0.020798 -0.008531 -0.007569 -0.000008 -0.015178 -0.000005
# 2 -0.008531 0.015992 -0.000518 0.000011 0.006734 0.000003
# 3 -0.007569 -0.000518 0.012793 -0.000006 0.008616 0.000003
# 4 -0.000008 0.000011 -0.000006 0.042683 0.000023 -0.000464
# 5 -0.015178 0.006734 0.008616 0.000023 0.047652 0.000011
# 6 -0.000005 0.000003 0.000003 -0.000464 0.000011 0.026168
#
#
# Mechanical properties :
#
#
# Convention : Reuss Voigt Hill
#
# Bulk Modulus (GPa) = 61.17294 61.88724 61.53009
# Shear Modulus (GPa) = 24.41766 29.48007 26.94887
#
# Velocity S-wave (km/s) = 3.30772 3.63447 3.47494
# Velocity P-wave (km/s) = 6.48061 6.73371 6.60838
#
# Compressibility (1/GPa) = 0.01634710
#
# Stress axis : x y z
#
# Youngs Moduli (GPa) = 48.08208 62.53297 78.16580
#
# Poissons Ratio (x) = 0.53346 0.59164
# Poissons Ratio (y) = 0.41018 0.04048
# Poissons Ratio (z) = 0.36394 0.03238
#
# Static dielectric constant tensor:
#      x y z
#    x 4.448020 -0.000400 -0.028490 
#    y -0.000400 4.219710 -0.000210 
#    z -0.028490 -0.000210 4.386800 
# 
# 
# High freq. dielectric constant tensor:
#      x y z
#    x 1.875940 0.000000 0.003970 
#    y 0.000000 1.891130 0.000000 
#    z 0.003970 0.000000 1.863040 
# 
# From -- ./inp_files/240862.got.cif
#   From: 2010.06.25/outbox.cif.g09.slc.cpg/sg15_121_cif.got.tgz:240862.got - 2010.06.28 07:06:18.
