data_PCOD8143473
_publ_section_title
;
Structure prediction by ZEFSAII (Michael W. Deem and Ramdas Pophale) SiO2 
 PCOD8143473
Probable space group: C 2/C
;
_chemical_formula_sum "Si O2"
_cell_formula_units_Z 48
_cell_length_a 16.745156
_cell_length_b 14.360025
_cell_length_c 17.890686
_cell_angle_alpha 90.000000
_cell_angle_beta 26.231403
_cell_angle_gamma 90.000000
_cell_volume 1901.477803
_symmetry_space_group_name_H-M "C 2/C"
_symmetry_group_IT_number 15
_symmetry_cell_setting 'monoclinic'
loop_
_space_group_symop_operation_xyz
x,y,z
-x,y,1/2-z
-x,-y,-z
x,-y,1/2+z
1/2+x,1/2+y,z
1/2-x,1/2+y,1/2-z
1/2-x,1/2-y,-z
1/2+x,1/2-y,1/2+z
loop_
_atom_site_type_symbol
_atom_site_label
_atom_site_fract_x
_atom_site_fract_y
_atom_site_fract_z
Si Si1 0.129453 0.876125 0.212752
Si Si2 0.518909 0.557104 0.147289
Si Si3 0.629848 0.055864 0.204140
Si Si4 0.130017 0.772938 0.458464
Si Si5 0.984480 0.707919 0.102415
Si Si6 0.507246 0.133064 0.831659
O O1 0.000000 0.880521 0.250000
O O2 0.026468 0.811376 0.357409
O O3 0.327842 0.838405 0.030120
O O4 0.139463 0.981896 0.237571
O O5 0.500000 0.589050 0.250000
O O6 0.703019 0.497345 0.975564
O O7 0.509354 0.646152 0.100404
O O8 0.500000 0.100458 0.250000
O O9 0.669511 0.139490 0.230561
O O10 0.514771 0.975889 0.344565
O O11 0.320616 0.815123 0.275102
O O12 0.031504 0.721845 0.472394
O O13 0.162657 0.686261 0.488804
O O14 0.500000 0.149144 0.750000
#
# Coordination Sequence:
#
# PCOD8143473 Si02
#       6
#     8   8   8   8   8   8
#     4  11  23  41  67  96 130 178 227 273 329 400
#     4  10  22  42  69  98 131 176 229 279 328 394
#     4  10  21  40  67  99 132 172 225 279 332 398
#     4  11  24  41  64  99 140 178 218 275 342 403
#     4  12  24  41  65  99 142 177 216 276 344 405
#     4  10  22  41  67  96 131 178 228 276 326 395
#
# _framework density 25.243521999999999
#
# number of rings (size 3 to 8) (size 9 to 14) (size 15 to 20)
#    0.000    1.333    0.000    6.000    0.000    5.333 
#    0.000    3.333    0.000    0.000    0.000    0.000 
#    0.000    0.000    0.000    0.000    0.000    0.000 
#
# Total GULP energy -297331.469996 kJ/mol
# GULP energy per Si atom -12388.811250 kJ/mol
# Density = 2.518607 g / cm^3
# Si number density = 25.243522 Si / 1000 Ang^3
#
#
#
# Elastic Constant Matrix: (Units=GPa)
#
#
# Indices 1 2 3 4 5 6 
#
# 1 94.2471 47.7299 24.5785 -0.0021 21.5190 0.0009
# 2 47.7299 135.8811 16.9161 0.0116 36.7975 -0.0045
# 3 24.5785 16.9161 76.5291 0.0110 21.2850 0.0030
# 4 -0.0021 0.0116 0.0110 40.0326 -0.0055 12.9923
# 5 21.5190 36.7975 21.2850 -0.0055 40.6090 0.0005
# 6 0.0009 -0.0045 0.0030 12.9923 0.0005 31.5343
#
#
#
# Elastic Compliance Matrix: (Units=1/GPa)
#
#
# Indices 1 2 3 4 5 6 
#
# 1 0.013871 -0.003888 -0.002963 0.000003 -0.002275 -0.000002
# 2 -0.003888 0.010850 0.001184 -0.000006 -0.008393 0.000004
# 3 -0.002963 0.001184 0.015943 -0.000006 -0.007859 0.000002
# 4 0.000003 -0.000006 -0.000006 0.028835 0.000012 -0.011880
# 5 -0.002275 -0.008393 -0.007859 0.000012 0.037555 -0.000006
# 6 -0.000002 0.000004 0.000002 -0.011880 -0.000006 0.036606
#
#
# Mechanical properties :
#
#
# Convention : Reuss Voigt Hill
#
# Bulk Modulus (GPa) = 34.09247 53.90071 43.99659
# Shear Modulus (GPa) = 30.34530 36.93072 33.63801
#
# Velocity S-wave (km/s) = 3.47090 3.82904 3.65436
# Velocity P-wave (km/s) = 5.44037 6.39901 5.93906
#
# Compressibility (1/GPa) = 0.02933199
#
# Stress axis : x y z
#
# Youngs Moduli (GPa) = 72.09134 92.16375 62.72480
#
# Poissons Ratio (x) = 0.35829 0.18585
# Poissons Ratio (y) = 0.28026 -0.07429
# Poissons Ratio (z) = 0.21360 -0.10916
#
# Static dielectric constant tensor:
#      x y z
#    x 4.137820 0.000000 0.034260 
#    y 0.000000 5.356060 -0.000020 
#    z 0.034260 -0.000020 4.861510 
# 
# 
# High freq. dielectric constant tensor:
#      x y z
#    x 1.967300 0.000000 0.009560 
#    y 0.000000 2.035170 0.000000 
#    z 0.009560 0.000000 2.021670 
# 
# From -- ./inp_files/211302.got.cif
#   From: 2010.06.25/outbox.cif.g09.slc.cpg/sg15_106_cif.got.tgz:211302.got - 2010.06.28 07:06:18.
