data_PCOD8143055
_publ_section_title
;
Structure prediction by ZEFSAII (Michael W. Deem and Ramdas Pophale) SiO2 
 PCOD8143055
Probable space group: C 2/C
;
_chemical_formula_sum "Si O2"
_cell_formula_units_Z 44
_cell_length_a 20.277279
_cell_length_b 15.286279
_cell_length_c 7.647488
_cell_angle_alpha 90.000000
_cell_angle_beta 118.621401
_cell_angle_gamma 90.000000
_cell_volume 2080.788193
_symmetry_space_group_name_H-M "C 2/C"
_symmetry_group_IT_number 15
_symmetry_cell_setting 'monoclinic'
loop_
_space_group_symop_operation_xyz
x,y,z
-x,y,1/2-z
-x,-y,-z
x,-y,1/2+z
1/2+x,1/2+y,z
1/2-x,1/2+y,1/2-z
1/2-x,1/2-y,-z
1/2+x,1/2-y,1/2+z
loop_
_atom_site_type_symbol
_atom_site_label
_atom_site_fract_x
_atom_site_fract_y
_atom_site_fract_z
Si Si1 0.685256 0.429729 0.820206
Si Si2 0.562530 0.707160 0.181753
Si Si3 0.852896 0.696036 0.206687
Si Si4 0.797204 0.119392 0.555964
Si Si5 0.000000 0.261557 0.750000
Si Si6 0.186914 0.678457 0.949340
O O1 0.611957 0.378330 0.799782
O O2 0.674335 0.533742 0.805025
O O3 0.694851 0.393832 0.638780
O O4 0.764027 0.409868 0.027206
O O5 0.500000 0.719251 0.250000
O O6 0.616021 0.794854 0.239037
O O7 0.526278 0.698705 0.943572
O O8 0.848794 0.801312 0.183113
O O9 0.846839 0.672073 0.400210
O O10 0.934759 0.672658 0.234752
O O11 0.789383 0.645936 0.012151
O O12 0.250000 0.750000 0.000000
#
# Coordination Sequence:
#
# PCOD8143055 Si02
#       6
#     8   8   8   8   4   8
#     4  10  22  38  61  91 120 159 212 261 304 357
#     4  11  22  39  61  91 129 167 199 251 313 381
#     4  10  21  40  61  87 124 163 208 255 306 377
#     4  10  22  38  61  88 119 162 211 256 303 358
#     4  12  22  38  62  92 126 164 206 242 316 380
#     4   9  20  37  62  87 115 165 211 252 301 360
#
# _framework density 21.145833
#
# number of rings (size 3 to 8) (size 9 to 14) (size 15 to 20)
#    0.000    1.818    3.636    0.000    7.636    0.000 
#    1.636    1.818    2.000    3.273    0.000    0.000 
#    0.000    0.000    0.000    0.000    0.000    0.000 
#
# Total GULP energy -272554.834297 kJ/mol
# GULP energy per Si atom -12388.856104 kJ/mol
# Density = 2.109770 g / cm^3
# Si number density = 21.145833 Si / 1000 Ang^3
#
#
#
# Elastic Constant Matrix: (Units=GPa)
#
#
# Indices 1 2 3 4 5 6 
#
# 1 137.1431 -4.6255 21.8529 0.0000 11.9419 0.0000
# 2 -4.6255 39.4412 13.1023 0.0000 6.4042 0.0000
# 3 21.8529 13.1023 81.4882 0.0000 13.7723 0.0000
# 4 0.0000 0.0000 0.0000 26.0970 0.0000 1.5582
# 5 11.9419 6.4042 13.7723 0.0000 24.9010 0.0000
# 6 0.0000 0.0000 0.0000 1.5582 0.0000 14.4798
#
#
#
# Elastic Compliance Matrix: (Units=1/GPa)
#
#
# Indices 1 2 3 4 5 6 
#
# 1 0.007955 0.002104 -0.001914 0.000000 -0.003297 0.000000
# 2 0.002104 0.027911 -0.004047 0.000000 -0.005949 0.000000
# 3 -0.001914 -0.004047 0.014456 0.000000 -0.006037 0.000000
# 4 0.000000 0.000000 0.000000 0.038566 0.000000 -0.004150
# 5 -0.003297 -0.005949 -0.006037 0.000000 0.046609 0.000000
# 6 0.000000 0.000000 0.000000 -0.004150 0.000000 0.069509
#
#
# Mechanical properties :
#
#
# Convention : Reuss Voigt Hill
#
# Bulk Modulus (GPa) = 23.46939 35.41466 29.44203
# Shear Modulus (GPa) = 22.03397 28.27840 25.15619
#
# Velocity S-wave (km/s) = 3.23151 3.66088 3.45288
# Velocity P-wave (km/s) = 5.00464 5.88673 5.46352
#
# Compressibility (1/GPa) = 0.04260868
#
# Stress axis : x y z
#
# Youngs Moduli (GPa) = 125.71065 35.82784 69.17563
#
# Poissons Ratio (x) = -0.07539 0.13242
# Poissons Ratio (y) = -0.26452 0.27992
# Poissons Ratio (z) = 0.24065 0.14498
#
# Static dielectric constant tensor:
#      x y z
#    x 4.257340 0.000000 0.211530 
#    y 0.000000 5.304930 0.000000 
#    z 0.211530 0.000000 3.899540 
# 
# 
# High freq. dielectric constant tensor:
#      x y z
#    x 1.849450 0.000000 -0.001800 
#    y 0.000000 1.782620 0.000000 
#    z -0.001800 0.000000 1.826020 
# 
# From -- ./inp_files/61308.got.cif
#   From: 2010.06.25/outbox.cif.g09.slc.cpg/sg15_31_cif.got.tgz:61308.got - 2010.06.28 07:06:18.
