data_PCOD8143654
_publ_section_title
;
Structure prediction by ZEFSAII (Michael W. Deem and Ramdas Pophale) SiO2 
 PCOD8143654
Probable space group: C 2/C
;
_chemical_formula_sum "Si O2"
_cell_formula_units_Z 56
_cell_length_a 23.971508
_cell_length_b 7.004636
_cell_length_c 24.891018
_cell_angle_alpha 90.000000
_cell_angle_beta 138.778974
_cell_angle_gamma 90.000000
_cell_volume 2754.141725
_symmetry_space_group_name_H-M "C 2/C"
_symmetry_group_IT_number 15
_symmetry_cell_setting 'monoclinic'
loop_
_space_group_symop_operation_xyz
x,y,z
-x,y,1/2-z
-x,-y,-z
x,-y,1/2+z
1/2+x,1/2+y,z
1/2-x,1/2+y,1/2-z
1/2-x,1/2-y,-z
1/2+x,1/2-y,1/2+z
loop_
_atom_site_type_symbol
_atom_site_label
_atom_site_fract_x
_atom_site_fract_y
_atom_site_fract_z
Si Si1 0.570840 0.539883 0.008282
Si Si2 0.576214 0.575450 0.841338
Si Si3 0.983517 0.774713 0.620624
Si Si4 0.768191 0.028232 0.623648
Si Si5 0.755369 0.135102 0.313812
Si Si6 0.591682 0.128027 0.446210
Si Si7 0.321539 0.752679 0.247395
O O1 0.660947 0.539421 0.101737
O O2 0.500000 0.500000 0.000000
O O3 0.571275 0.366237 0.966753
O O4 0.553001 0.744317 0.966572
O O5 0.500000 0.656874 0.750000
O O6 0.545547 0.376249 0.845591
O O7 0.657260 0.529385 0.864966
O O8 0.602394 0.737426 0.902521
O O9 0.082074 0.819383 0.681419
O O10 0.969531 0.547591 0.612414
O O11 0.779386 0.196331 0.674696
O O12 0.681605 0.041410 0.528142
O O13 0.772104 0.834391 0.660634
O O14 0.772116 0.202955 0.265809
O O15 0.680401 0.980675 0.259907
#
# Coordination Sequence:
#
# PCOD8143654 Si02
#       7
#     8   8   8   8   8   8   8
#     4  10  21  41  62  90 134 170 208 267 324 381
#     4  11  24  43  68  94 132 168 214 275 323 377
#     4  11  24  41  63  97 126 166 219 266 324 385
#     4  11  24  46  63  94 132 172 214 267 326 385
#     4  11  24  39  63  94 128 168 214 261 323 387
#     4  10  25  42  67  97 125 175 221 259 324 395
#     4  12  23  38  64  94 130 168 210 269 319 382
#
# _framework density 20.333012
#
# number of rings (size 3 to 8) (size 9 to 14) (size 15 to 20)
#    0.000    1.143    4.286    1.286    2.000    4.000 
#    0.000    0.000    0.000    0.000    0.000    0.000 
#    0.000    0.000    0.000    0.000    0.000    0.000 
#
# Total GULP energy -347305.890861 kJ/mol
# GULP energy per Si atom -12403.781816 kJ/mol
# Density = 2.028673 g / cm^3
# Si number density = 20.333012 Si / 1000 Ang^3
#
#
#
# Elastic Constant Matrix: (Units=GPa)
#
#
# Indices 1 2 3 4 5 6 
#
# 1 124.4172 37.9648 24.5274 0.0006 -7.2928 0.0002
# 2 37.9648 105.6756 21.1846 -0.0003 -2.8581 0.0040
# 3 24.5274 21.1846 80.7410 0.0003 -10.9103 0.0006
# 4 0.0006 -0.0003 0.0003 32.7330 0.0001 7.4348
# 5 -7.2928 -2.8581 -10.9103 0.0001 28.2840 -0.0003
# 6 0.0002 0.0040 0.0006 7.4348 -0.0003 15.8437
#
#
#
# Elastic Compliance Matrix: (Units=1/GPa)
#
#
# Indices 1 2 3 4 5 6 
#
# 1 0.009394 -0.002959 -0.001889 0.000000 0.001395 0.000001
# 2 -0.002959 0.010920 -0.002026 0.000001 -0.000441 -0.000003
# 3 -0.001889 -0.002026 0.014134 0.000000 0.004760 0.000000
# 4 0.000000 0.000001 0.000000 0.034195 0.000000 -0.016046
# 5 0.001395 -0.000441 0.004760 0.000000 0.037507 0.000001
# 6 0.000001 -0.000003 0.000000 -0.016046 0.000001 0.070646
#
#
# Mechanical properties :
#
#
# Convention : Reuss Voigt Hill
#
# Bulk Modulus (GPa) = 48.30675 53.13192 50.71933
# Shear Modulus (GPa) = 25.32365 30.51596 27.91981
#
# Velocity S-wave (km/s) = 3.53292 3.87823 3.70959
# Velocity P-wave (km/s) = 6.36014 6.80013 6.58381
#
# Compressibility (1/GPa) = 0.02070104
#
# Stress axis : x y z
#
# Youngs Moduli (GPa) = 106.44608 91.57473 70.75166
#
# Poissons Ratio (x) = 0.27093 0.13366
# Poissons Ratio (y) = 0.31493 0.14334
# Poissons Ratio (z) = 0.20109 0.18553
#
# Static dielectric constant tensor:
#      x y z
#    x 3.642420 0.000000 -0.162390 
#    y 0.000000 3.661660 0.000000 
#    z -0.162390 0.000000 3.789340 
# 
# 
# High freq. dielectric constant tensor:
#      x y z
#    x 1.798670 0.000000 -0.007770 
#    y 0.000000 1.798560 0.000000 
#    z -0.007770 0.000000 1.806100 
# 
# From -- ./inp_files/302951.got.cif
#   From: 2010.06.25/outbox.cif.g09.slc.cpg/sg15_152_cif.got.tgz:302951.got - 2010.06.28 07:06:18.
