data_PCOD8143164
_publ_section_title
;
Structure prediction by ZEFSAII (Michael W. Deem and Ramdas Pophale) SiO2 
 PCOD8143164
Probable space group: C 2/C
;
_chemical_formula_sum "Si O2"
_cell_formula_units_Z 60
_cell_length_a 19.096354
_cell_length_b 13.315305
_cell_length_c 12.431086
_cell_angle_alpha 90.000000
_cell_angle_beta 72.110850
_cell_angle_gamma 90.000000
_cell_volume 3008.077912
_symmetry_space_group_name_H-M "C 2/C"
_symmetry_group_IT_number 15
_symmetry_cell_setting 'monoclinic'
loop_
_space_group_symop_operation_xyz
x,y,z
-x,y,1/2-z
-x,-y,-z
x,-y,1/2+z
1/2+x,1/2+y,z
1/2-x,1/2+y,1/2-z
1/2-x,1/2-y,-z
1/2+x,1/2-y,1/2+z
loop_
_atom_site_type_symbol
_atom_site_label
_atom_site_fract_x
_atom_site_fract_y
_atom_site_fract_z
Si Si1 0.255781 0.828888 0.646436
Si Si2 0.000000 0.017606 0.250000
Si Si3 0.424325 0.530112 0.982738
Si Si4 0.051927 0.549800 0.132386
Si Si5 0.100281 0.171312 0.328946
Si Si6 0.450356 0.884340 0.099835
Si Si7 0.708900 0.387444 0.439973
Si Si8 0.826080 0.512798 0.266622
O O1 0.176688 0.804514 0.735093
O O2 0.297953 0.725508 0.601243
O O3 0.246987 0.890114 0.539399
O O4 0.305206 0.890311 0.706581
O O5 0.946966 0.947511 0.348142
O O6 0.944959 0.086927 0.209826
O O7 0.500000 0.500000 0.000000
O O8 0.386729 0.627526 0.055937
O O9 0.372039 0.433058 0.012987
O O10 0.134035 0.543997 0.140919
O O11 0.000000 0.595823 0.250000
O O12 0.023305 0.437897 0.112560
O O13 0.048439 0.620804 0.030312
O O14 0.051826 0.271880 0.354976
O O15 0.378322 0.944682 0.169157
O O16 0.753416 0.452662 0.332443
#
# Coordination Sequence:
#
# PCOD8143164 Si02
#       8
#     8   4   8   8   8   8   8   8
#     4  11  23  38  63  98 124 163 212 253 316 386
#     4  10  22  40  62  88 122 166 214 266 302 364
#     4  10  22  42  60  88 125 165 214 263 313 362
#     4   9  21  41  59  86 127 159 198 253 316 367
#     4  11  21  38  65  91 119 160 209 255 309 375
#     4  10  21  40  63  91 119 161 208 255 309 384
#     4  11  22  40  64  91 127 169 212 262 318 370
#     4  11  21  39  63  90 129 159 202 265 318 376
#
# _framework density 19.946292
#
# number of rings (size 3 to 8) (size 9 to 14) (size 15 to 20)
#    0.000    1.600    4.000    0.800    2.800    0.000 
#   18.000    3.333    0.000    0.000    0.000    0.000 
#    0.000    0.000    0.000    0.000    0.000    0.000 
#
# Total GULP energy -371949.476937 kJ/mol
# GULP energy per Si atom -12398.315898 kJ/mol
# Density = 1.990089 g / cm^3
# Si number density = 19.946292 Si / 1000 Ang^3
#
#
#
# Elastic Constant Matrix: (Units=GPa)
#
#
# Indices 1 2 3 4 5 6 
#
# 1 87.9464 28.1308 27.7188 0.0000 7.7779 0.0000
# 2 28.1308 63.8385 26.6294 0.0000 6.8006 0.0000
# 3 27.7188 26.6294 123.3019 0.0000 3.3555 0.0000
# 4 0.0000 0.0000 0.0000 28.0955 0.0000 -2.7398
# 5 7.7779 6.8006 3.3555 0.0000 32.0261 0.0000
# 6 0.0000 0.0000 0.0000 -2.7398 0.0000 27.4286
#
#
#
# Elastic Compliance Matrix: (Units=1/GPa)
#
#
# Indices 1 2 3 4 5 6 
#
# 1 0.013781 -0.005037 -0.001954 0.000000 -0.002073 0.000000
# 2 -0.005037 0.019406 -0.002988 0.000000 -0.002584 0.000000
# 3 -0.001954 -0.002988 0.009191 0.000000 0.000146 0.000000
# 4 0.000000 0.000000 0.000000 0.035943 0.000000 0.003590
# 5 -0.002073 -0.002584 0.000146 0.000000 0.032261 0.000000
# 6 0.000000 0.000000 0.000000 0.003590 0.000000 0.036817
#
#
# Mechanical properties :
#
#
# Convention : Reuss Voigt Hill
#
# Bulk Modulus (GPa) = 44.60413 48.89388 46.74901
# Shear Modulus (GPa) = 28.59922 30.35055 29.47489
#
# Velocity S-wave (km/s) = 3.79068 3.90502 3.84827
# Velocity P-wave (km/s) = 6.44745 6.70061 6.57525
#
# Compressibility (1/GPa) = 0.02241945
#
# Stress axis : x y z
#
# Youngs Moduli (GPa) = 72.56514 51.53072 108.80413
#
# Poissons Ratio (x) = 0.25955 0.21258
# Poissons Ratio (y) = 0.36549 0.32516
# Poissons Ratio (z) = 0.14178 0.15400
#
# Static dielectric constant tensor:
#      x y z
#    x 3.494710 0.000000 -0.039000 
#    y 0.000000 3.515410 0.000000 
#    z -0.039000 0.000000 4.354520 
# 
# 
# High freq. dielectric constant tensor:
#      x y z
#    x 1.771470 0.000000 -0.006850 
#    y 0.000000 1.753650 0.000000 
#    z -0.006850 0.000000 1.804580 
# 
# From -- ./inp_files/105701.got.cif
#   From: 2010.06.25/outbox.cif.g09.slc.cpg/sg15_53_cif.got.tgz:105701.got - 2010.06.28 07:06:18.
