data_PCOD8143112
_publ_section_title
;
Structure prediction by ZEFSAII (Michael W. Deem and Ramdas Pophale) SiO2 
 PCOD8143112
Probable space group: C 2/C
;
_chemical_formula_sum "Si O2"
_cell_formula_units_Z 52
_cell_length_a 16.866835
_cell_length_b 8.312468
_cell_length_c 30.802262
_cell_angle_alpha 90.000000
_cell_angle_beta 37.540786
_cell_angle_gamma 90.000000
_cell_volume 2631.454833
_symmetry_space_group_name_H-M "C 2/C"
_symmetry_group_IT_number 15
_symmetry_cell_setting 'monoclinic'
loop_
_space_group_symop_operation_xyz
x,y,z
-x,y,1/2-z
-x,-y,-z
x,-y,1/2+z
1/2+x,1/2+y,z
1/2-x,1/2+y,1/2-z
1/2-x,1/2-y,-z
1/2+x,1/2-y,1/2+z
loop_
_atom_site_type_symbol
_atom_site_label
_atom_site_fract_x
_atom_site_fract_y
_atom_site_fract_z
Si Si1 0.021547 0.183604 0.480254
Si Si2 0.750764 0.150920 0.838542
Si Si3 0.388876 0.191640 0.954936
Si Si4 0.530658 0.892130 0.912458
Si Si5 0.000000 0.026393 0.250000
Si Si6 0.082690 0.824922 0.801618
Si Si7 0.164125 0.172819 0.790882
O O1 0.170683 0.217984 0.400870
O O2 0.921699 0.219139 0.485171
O O3 0.989735 0.293737 0.534932
O O4 0.000000 0.000000 0.500000
O O5 0.811808 0.232940 0.768991
O O6 0.655679 0.007138 0.864406
O O7 0.871260 0.081616 0.813930
O O8 0.487424 0.230470 0.873942
O O9 0.402238 0.999806 0.958168
O O10 0.250000 0.250000 0.000000
O O11 0.548768 0.772940 0.863809
O O12 0.986248 0.137117 0.213794
O O13 0.204613 0.708046 0.738837
O O14 0.128550 0.985609 0.806708
#
# Coordination Sequence:
#
# PCOD8143112 Si02
#       7
#     8   8   8   8   4   8   8
#     4  11  24  43  64  92 124 169 213 257 318 388
#     4  10  21  40  62  91 127 162 206 254 323 373
#     4  11  24  42  62  94 127 166 215 266 314 384
#     4  11  22  39  67  91 122 174 211 257 318 382
#     4  10  22  36  64  98 118 168 200 270 316 366
#     4  11  21  38  65  90 126 160 218 252 322 376
#     4  11  19  39  65  90 119 167 212 253 310 387
#
# _framework density 19.760932
#
# number of rings (size 3 to 8) (size 9 to 14) (size 15 to 20)
#    0.000    1.231    6.154    2.769    4.308    0.000 
#    5.538    1.538    0.000    1.846    0.000    0.000 
#    0.000    0.000    0.000    0.000    0.000    0.000 
#
# Total GULP energy -322337.017200 kJ/mol
# GULP energy per Si atom -12397.577585 kJ/mol
# Density = 1.971596 g / cm^3
# Si number density = 19.760932 Si / 1000 Ang^3
#
#
#
# Elastic Constant Matrix: (Units=GPa)
#
#
# Indices 1 2 3 4 5 6 
#
# 1 133.3786 52.6050 44.2772 0.0002 5.2855 0.0002
# 2 52.6050 80.4031 20.7832 0.0007 6.0130 0.0108
# 3 44.2772 20.7832 72.2099 0.0016 15.7643 0.0000
# 4 0.0002 0.0007 0.0016 38.8151 -0.0027 7.6868
# 5 5.2855 6.0130 15.7643 -0.0027 38.8962 -0.0017
# 6 0.0002 0.0108 0.0000 7.6868 -0.0017 35.0121
#
#
#
# Elastic Compliance Matrix: (Units=1/GPa)
#
#
# Indices 1 2 3 4 5 6 
#
# 1 0.011887 -0.006401 -0.005825 0.000000 0.001735 0.000002
# 2 -0.006401 0.016895 -0.000611 0.000001 -0.001494 -0.000005
# 3 -0.005825 -0.000611 0.019092 -0.000001 -0.006852 0.000000
# 4 0.000000 0.000001 -0.000001 0.026934 0.000002 -0.005913
# 5 0.001735 -0.001494 -0.006852 0.000002 0.028482 0.000001
# 6 0.000002 -0.000005 0.000000 -0.005913 0.000001 0.029860
#
#
# Mechanical properties :
#
#
# Convention : Reuss Voigt Hill
#
# Bulk Modulus (GPa) = 45.04787 57.92469 51.48628
# Shear Modulus (GPa) = 30.07948 33.76644 31.92296
#
# Velocity S-wave (km/s) = 3.90573 4.13818 4.02364
# Velocity P-wave (km/s) = 6.57157 7.22559 6.90633
#
# Compressibility (1/GPa) = 0.02219861
#
# Stress axis : x y z
#
# Youngs Moduli (GPa) = 84.12381 59.18793 52.37724
#
# Poissons Ratio (x) = 0.37889 0.30511
# Poissons Ratio (y) = 0.53851 0.03202
# Poissons Ratio (z) = 0.49005 0.03619
#
# Static dielectric constant tensor:
#      x y z
#    x 3.482770 0.000000 0.180880 
#    y 0.000000 3.667550 -0.000020 
#    z 0.180880 -0.000020 3.697970 
# 
# 
# High freq. dielectric constant tensor:
#      x y z
#    x 1.760670 0.000000 0.012910 
#    y 0.000000 1.767410 0.000000 
#    z 0.012910 0.000000 1.782750 
# 
# From -- ./inp_files/313100.got.cif
#   From: 2010.06.25/outbox.cif.g09.slc.cpg/sg15_157_cif.got.tgz:313100.got - 2010.06.28 07:06:18.
