data_PCOD8143884
_publ_section_title
;
Structure prediction by ZEFSAII (Michael W. Deem and Ramdas Pophale) SiO2 
 PCOD8143884
Probable space group: C 2/C
;
_chemical_formula_sum "Si O2"
_cell_formula_units_Z 44
_cell_length_a 25.251655
_cell_length_b 11.388532
_cell_length_c 12.873125
_cell_angle_alpha 90.000000
_cell_angle_beta 144.767403
_cell_angle_gamma 90.000000
_cell_volume 2135.698529
_symmetry_space_group_name_H-M "C 2/C"
_symmetry_group_IT_number 15
_symmetry_cell_setting 'monoclinic'
loop_
_space_group_symop_operation_xyz
x,y,z
-x,y,1/2-z
-x,-y,-z
x,-y,1/2+z
1/2+x,1/2+y,z
1/2-x,1/2+y,1/2-z
1/2-x,1/2-y,-z
1/2+x,1/2-y,1/2+z
loop_
_atom_site_type_symbol
_atom_site_label
_atom_site_fract_x
_atom_site_fract_y
_atom_site_fract_z
Si Si1 0.617480 0.373249 0.561382
Si Si2 0.500000 0.192965 0.250000
Si Si3 0.902965 0.120821 0.058005
Si Si4 0.330005 0.905014 0.590158
Si Si5 0.290239 0.775345 0.724181
Si Si6 0.209362 0.123745 0.420686
O O1 0.543656 0.275426 0.408985
O O2 0.578594 0.502097 0.476068
O O3 0.713214 0.352657 0.656420
O O4 0.632504 0.368989 0.708428
O O5 0.574253 0.106987 0.317085
O O6 0.838933 0.083146 0.051252
O O7 0.000000 0.172687 0.250000
O O8 0.858786 0.223744 0.919067
O O9 0.344165 0.859937 0.730815
O O10 0.251541 0.831834 0.406951
O O11 0.294550 0.038272 0.530861
O O12 0.250000 0.250000 0.500000
#
# Coordination Sequence:
#
# PCOD8143884 Si02
#       6
#     8   4   8   8   8   8
#     4  11  22  42  66  96 137 168 225 272 336 400
#     4  10  24  42  70 104 128 176 224 282 326 404
#     4  12  25  40  67 105 131 168 226 287 330 388
#     4  10  22  42  69  96 129 179 223 263 336 401
#     4  10  21  41  66  92 135 179 211 269 343 400
#     4  12  25  43  67  95 135 183 219 275 340 397
#
# _framework density 20.602157999999999
#
# number of rings (size 3 to 8) (size 9 to 14) (size 15 to 20)
#    0.000    1.091    6.364    0.000    2.545    0.727 
#    1.636    0.909    0.000    0.000    0.000    0.000 
#    0.000    0.000    0.000    0.000    0.000    0.000 
#
# Total GULP energy -272899.224104 kJ/mol
# GULP energy per Si atom -12404.510187 kJ/mol
# Density = 2.055527 g / cm^3
# Si number density = 20.602158 Si / 1000 Ang^3
#
#
#
# Elastic Constant Matrix: (Units=GPa)
#
#
# Indices 1 2 3 4 5 6 
#
# 1 72.8286 30.3134 47.9228 0.0000 -4.9640 0.0000
# 2 30.3134 101.3179 52.4044 0.0000 1.9003 0.0000
# 3 47.9228 52.4044 146.6900 0.0000 -9.2604 0.0000
# 4 0.0000 0.0000 0.0000 19.1510 0.0000 -11.5487
# 5 -4.9640 1.9003 -9.2604 0.0000 40.2004 0.0000
# 6 0.0000 0.0000 0.0000 -11.5487 0.0000 19.9063
#
#
#
# Elastic Compliance Matrix: (Units=1/GPa)
#
#
# Indices 1 2 3 4 5 6 
#
# 1 0.018225 -0.002992 -0.004804 0.000000 0.001285 0.000000
# 2 -0.002992 0.012699 -0.003674 0.000000 -0.001816 0.000000
# 3 -0.004804 -0.003674 0.009815 0.000000 0.001841 0.000000
# 4 0.000000 0.000000 0.000000 0.080315 0.000000 0.046595
# 5 0.001285 -0.001816 0.001841 0.000000 0.025544 0.000000
# 6 0.000000 0.000000 0.000000 0.046595 0.000000 0.077268
#
#
# Mechanical properties :
#
#
# Convention : Reuss Voigt Hill
#
# Bulk Modulus (GPa) = 56.18085 64.67974 60.43029
# Shear Modulus (GPa) = 19.78321 28.53126 24.15724
#
# Velocity S-wave (km/s) = 3.10215 3.72542 3.42798
# Velocity P-wave (km/s) = 6.33717 7.06879 6.71295
#
# Compressibility (1/GPa) = 0.01779966
#
# Stress axis : x y z
#
# Youngs Moduli (GPa) = 54.86977 78.74335 101.88197
#
# Poissons Ratio (x) = 0.23561 0.48943
# Poissons Ratio (y) = 0.16418 0.37431
# Poissons Ratio (z) = 0.26359 0.28930
#
# Static dielectric constant tensor:
#      x y z
#    x 3.790010 0.000000 -0.148510 
#    y 0.000000 3.550710 0.000000 
#    z -0.148510 0.000000 3.781050 
# 
# 
# High freq. dielectric constant tensor:
#      x y z
#    x 1.807630 0.000000 -0.013200 
#    y 0.000000 1.802240 0.000000 
#    z -0.013200 0.000000 1.809360 
# 
# From -- ./inp_files/94975.got.cif
#   From: 2010.06.25/outbox.cif.g09.slc.cpg/sg15_48_cif.got.tgz:94975.got - 2010.06.28 07:06:18.
