data_PCOD8143589
_publ_section_title
;
Structure prediction by ZEFSAII (Michael W. Deem and Ramdas Pophale) SiO2 
 PCOD8143589
Probable space group: C 2/C
;
_chemical_formula_sum "Si O2"
_cell_formula_units_Z 60
_cell_length_a 6.642771
_cell_length_b 22.822606
_cell_length_c 20.566358
_cell_angle_alpha 90.000000
_cell_angle_beta 96.832895
_cell_angle_gamma 90.000000
_cell_volume 3095.824006
_symmetry_space_group_name_H-M "C 2/C"
_symmetry_group_IT_number 15
_symmetry_cell_setting 'monoclinic'
loop_
_space_group_symop_operation_xyz
x,y,z
-x,y,1/2-z
-x,-y,-z
x,-y,1/2+z
1/2+x,1/2+y,z
1/2-x,1/2+y,1/2-z
1/2-x,1/2-y,-z
1/2+x,1/2-y,1/2+z
loop_
_atom_site_type_symbol
_atom_site_label
_atom_site_fract_x
_atom_site_fract_y
_atom_site_fract_z
Si Si1 0.747701 0.121318 0.004136
Si Si2 0.915728 0.095515 0.383855
Si Si3 0.500000 0.553386 0.250000
Si Si4 0.488504 0.702456 0.563174
Si Si5 0.534521 0.614807 0.825082
Si Si6 0.367524 0.170241 0.047142
Si Si7 0.633195 0.968143 0.194107
Si Si8 0.258846 0.529197 0.893877
O O1 0.517425 0.125517 0.017612
O O2 0.882287 0.118366 0.073974
O O3 0.770182 0.063228 0.962046
O O4 0.808019 0.178779 0.963883
O O5 0.729655 0.138687 0.394002
O O6 0.939421 0.095602 0.306993
O O7 0.882690 0.030029 0.408808
O O8 0.303123 0.515349 0.222083
O O9 0.466276 0.673214 0.632602
O O10 0.492719 0.772198 0.573993
O O11 0.300688 0.684620 0.511952
O O12 0.500000 0.633999 0.750000
O O13 0.756925 0.585966 0.836913
O O14 0.363997 0.567939 0.840985
O O15 0.500000 0.947246 0.250000
O O16 0.469882 0.990196 0.134546
#
# Coordination Sequence:
#
# PCOD8143589 Si02
#       8
#     8   8   4   8   8   8   8   8
#     4  10  22  38  62  89 116 147 196 252 288 341
#     4  11  23  38  58  85 122 156 193 235 288 350
#     4  12  24  40  56  84 126 160 186 232 284 364
#     4   9  21  39  62  80 117 150 196 247 294 341
#     4  11  19  35  56  88 120 143 188 248 293 342
#     4  10  21  41  60  84 108 160 200 236 294 346
#     4  12  19  35  59  84 114 156 189 223 289 359
#     4  11  22  36  59  91 117 156 187 235 302 345
#
# _framework density 19.380946999999999
#
# number of rings (size 3 to 8) (size 9 to 14) (size 15 to 20)
#    0.000    1.333    4.667    1.600    1.867    0.533 
#    0.000    1.333    1.467    0.000    0.000    0.000 
#    0.000    0.000    0.000    0.000    0.000    0.000 
#
# Total GULP energy -371962.782016 kJ/mol
# GULP energy per Si atom -12398.759401 kJ/mol
# Density = 1.933683 g / cm^3
# Si number density = 19.380947 Si / 1000 Ang^3
#
#
#
# Elastic Constant Matrix: (Units=GPa)
#
#
# Indices 1 2 3 4 5 6 
#
# 1 86.8912 13.7645 36.7388 0.0000 -20.6375 0.0000
# 2 13.7645 85.1650 46.4834 0.0000 -15.3974 0.0000
# 3 36.7388 46.4834 108.2735 0.0000 -20.4070 0.0000
# 4 0.0000 0.0000 0.0000 22.8351 0.0000 -4.1288
# 5 -20.6375 -15.3974 -20.4070 0.0000 23.1228 0.0000
# 6 0.0000 0.0000 0.0000 -4.1288 0.0000 21.7635
#
#
#
# Elastic Compliance Matrix: (Units=1/GPa)
#
#
# Indices 1 2 3 4 5 6 
#
# 1 0.015637 0.001672 -0.003819 0.000000 0.011700 0.000000
# 2 0.001672 0.016071 -0.006200 0.000000 0.006722 0.000000
# 3 -0.003819 -0.006200 0.014122 0.000000 0.004926 0.000000
# 4 0.000000 0.000000 0.000000 0.045348 0.000000 0.008603
# 5 0.011700 0.006722 0.004926 0.000000 0.062514 0.000000
# 6 0.000000 0.000000 0.000000 0.008603 0.000000 0.047581
#
#
# Mechanical properties :
#
#
# Convention : Reuss Voigt Hill
#
# Bulk Modulus (GPa) = 34.32041 52.70037 43.51039
# Shear Modulus (GPa) = 21.96091 25.76715 23.86403
#
# Velocity S-wave (km/s) = 3.36983 3.65020 3.51282
# Velocity P-wave (km/s) = 5.73479 6.70941 6.24115
#
# Compressibility (1/GPa) = 0.02913718
#
# Stress axis : x y z
#
# Youngs Moduli (GPa) = 63.95021 62.22404 70.81228
#
# Poissons Ratio (x) = -0.10405 0.27041
# Poissons Ratio (y) = -0.10694 0.43903
# Poissons Ratio (z) = 0.24421 0.38578
#
# Static dielectric constant tensor:
#      x y z
#    x 3.746730 0.000000 -0.127750 
#    y 0.000000 3.488340 0.000000 
#    z -0.127750 0.000000 3.523080 
# 
# 
# High freq. dielectric constant tensor:
#      x y z
#    x 1.767060 0.000000 -0.007600 
#    y 0.000000 1.732590 0.000000 
#    z -0.007600 0.000000 1.754330 
# 
# From -- ./inp_files/228135.got.cif
#   From: 2010.06.25/outbox.cif.g09.slc.cpg/sg15_115_cif.got.tgz:228135.got - 2010.06.28 07:06:18.
