data_PCOD8143122
_publ_section_title
;
Structure prediction by ZEFSAII (Michael W. Deem and Ramdas Pophale) SiO2 
 PCOD8143122
Probable space group: C 2/C
;
_chemical_formula_sum "Si O2"
_cell_formula_units_Z 40
_cell_length_a 7.261283
_cell_length_b 14.276229
_cell_length_c 18.839397
_cell_angle_alpha 90.000000
_cell_angle_beta 89.656524
_cell_angle_gamma 90.000000
_cell_volume 1952.927240
_symmetry_space_group_name_H-M "C 2/C"
_symmetry_group_IT_number 15
_symmetry_cell_setting 'monoclinic'
loop_
_space_group_symop_operation_xyz
x,y,z
-x,y,1/2-z
-x,-y,-z
x,-y,1/2+z
1/2+x,1/2+y,z
1/2-x,1/2+y,1/2-z
1/2-x,1/2-y,-z
1/2+x,1/2-y,1/2+z
loop_
_atom_site_type_symbol
_atom_site_label
_atom_site_fract_x
_atom_site_fract_y
_atom_site_fract_z
Si Si1 0.780620 0.216609 0.578890
Si Si2 0.082229 0.708253 0.174794
Si Si3 0.046412 0.324217 0.330682
Si Si4 0.792441 0.032181 0.509173
Si Si5 0.487528 0.970817 0.603396
O O1 0.750000 0.250000 0.500000
O O2 0.611903 0.238394 0.632177
O O3 0.801728 0.105793 0.572927
O O4 0.968739 0.255192 0.608528
O O5 0.280251 0.754868 0.165100
O O6 0.000000 0.740864 0.250000
O O7 0.061760 0.594849 0.167687
O O8 0.065246 0.424501 0.369877
O O9 0.000000 0.346311 0.250000
O O10 0.703536 0.066674 0.433697
O O11 0.646660 0.958329 0.542418
O O12 0.000000 0.000000 0.500000
#
# Coordination Sequence:
#
# PCOD8143122 Si02
#       5
#     8   8   8   8   8
#     4  11  23  41  66  98 131 168 223 277 326 404
#     4  12  24  42  69  96 130 177 221 270 342 400
#     4  11  24  44  65  93 139 175 217 282 338 392
#     4  10  21  40  62  95 132 167 217 274 331 396
#     4  10  23  40  64  96 128 170 222 273 328 398
#
# _framework density 20.482074000000001
#
# number of rings (size 3 to 8) (size 9 to 14) (size 15 to 20)
#    0.000    1.200    4.000    1.800    2.800    0.800 
#    0.000    0.000    0.000    0.000    0.000    0.000 
#    0.000    0.000    0.000    0.000    0.000    0.000 
#
# Total GULP energy -247769.594196 kJ/mol
# GULP energy per Si atom -12388.479710 kJ/mol
# Density = 2.043546 g / cm^3
# Si number density = 20.482074 Si / 1000 Ang^3
#
#
#
# Elastic Constant Matrix: (Units=GPa)
#
#
# Indices 1 2 3 4 5 6 
#
# 1 156.3559 35.3707 44.4895 0.0000 -6.9652 0.0000
# 2 35.3707 66.9010 8.7568 0.0000 2.5203 0.0000
# 3 44.4895 8.7568 110.3507 0.0000 -1.5451 0.0000
# 4 0.0000 0.0000 0.0000 35.2180 0.0000 2.5045
# 5 -6.9652 2.5203 -1.5451 0.0000 39.2164 0.0000
# 6 0.0000 0.0000 0.0000 2.5045 0.0000 25.8081
#
#
#
# Elastic Compliance Matrix: (Units=1/GPa)
#
#
# Indices 1 2 3 4 5 6 
#
# 1 0.008222 -0.004018 -0.002974 0.000000 0.001601 0.000000
# 2 -0.004018 0.017109 0.000237 0.000000 -0.001804 0.000000
# 3 -0.002974 0.000237 0.010240 0.000000 -0.000140 0.000000
# 4 0.000000 0.000000 0.000000 0.028592 0.000000 -0.002775
# 5 0.001601 -0.001804 -0.000140 0.000000 0.025894 0.000000
# 6 0.000000 0.000000 0.000000 -0.002775 0.000000 0.039017
#
#
# Mechanical properties :
#
#
# Convention : Reuss Voigt Hill
#
# Bulk Modulus (GPa) = 45.32753 56.76015 51.04384
# Shear Modulus (GPa) = 33.34728 36.38120 34.86424
#
# Velocity S-wave (km/s) = 4.03937 4.21913 4.13023
# Velocity P-wave (km/s) = 6.62826 7.17684 6.90799
#
# Compressibility (1/GPa) = 0.02206165
#
# Stress axis : x y z
#
# Youngs Moduli (GPa) = 121.62369 58.44953 97.65543
#
# Poissons Ratio (x) = 0.23486 0.29039
# Poissons Ratio (y) = 0.48870 -0.02315
# Poissons Ratio (z) = 0.36166 -0.01386
#
# Static dielectric constant tensor:
#      x y z
#    x 3.871490 0.000000 0.037590 
#    y 0.000000 4.200070 0.000000 
#    z 0.037590 0.000000 4.095510 
# 
# 
# High freq. dielectric constant tensor:
#      x y z
#    x 1.804700 0.000000 0.000890 
#    y 0.000000 1.796560 0.000000 
#    z 0.000890 0.000000 1.810440 
# 
# From -- ./inp_files/184320.got.cif
#   From: 2010.06.25/outbox.cif.g09.slc.cpg/sg15_93_cif.got.tgz:184320.got - 2010.06.28 07:06:18.
