data_PCOD8143236
_publ_section_title
;
Structure prediction by ZEFSAII (Michael W. Deem and Ramdas Pophale) SiO2 
 PCOD8143236
Probable space group: C 2/C
;
_chemical_formula_sum "Si O2"
_cell_formula_units_Z 64
_cell_length_a 15.385230
_cell_length_b 8.721074
_cell_length_c 23.189318
_cell_angle_alpha 90.000000
_cell_angle_beta 96.070429
_cell_angle_gamma 90.000000
_cell_volume 3093.996720
_symmetry_space_group_name_H-M "C 2/C"
_symmetry_group_IT_number 15
_symmetry_cell_setting 'monoclinic'
loop_
_space_group_symop_operation_xyz
x,y,z
-x,y,1/2-z
-x,-y,-z
x,-y,1/2+z
1/2+x,1/2+y,z
1/2-x,1/2+y,1/2-z
1/2-x,1/2-y,-z
1/2+x,1/2-y,1/2+z
loop_
_atom_site_type_symbol
_atom_site_label
_atom_site_fract_x
_atom_site_fract_y
_atom_site_fract_z
Si Si1 0.449642 0.962180 0.841616
Si Si2 0.198271 0.998497 0.901018
Si Si3 0.410060 0.531580 0.717120
Si Si4 0.397581 0.475146 0.985590
Si Si5 0.798165 0.967339 0.811374
Si Si6 0.642910 0.223898 0.603413
Si Si7 0.832211 0.770291 0.393164
Si Si8 0.108733 0.616881 0.284995
O O1 0.419247 0.814931 0.876564
O O2 0.399129 0.972677 0.776513
O O3 0.551930 0.957230 0.832939
O O4 0.432084 0.107546 0.881153
O O5 0.117699 0.986119 0.849675
O O6 0.262610 0.140912 0.891725
O O7 0.256652 0.845406 0.908120
O O8 0.151765 0.024300 0.957787
O O9 0.500000 0.457408 0.750000
O O10 0.327590 0.472417 0.747630
O O11 0.424290 0.711662 0.725312
O O12 0.380700 0.304383 0.958814
O O13 0.357012 0.613517 0.945612
O O14 0.500000 0.500000 0.000000
O O15 0.863808 0.861673 0.851519
O O16 0.706461 0.885707 0.812475
O O17 0.793905 0.138461 0.835918
#
# Coordination Sequence:
#
# PCOD8143236 Si02
#       8
#     8   8   8   8   8   8   8   8
#     4  10  21  40  64  91 132 167 212 259 326 380
#     4  11  24  43  67  92 131 179 217 265 327 386
#     4  12  24  40  66  96 132 176 214 267 330 398
#     4  11  26  42  68  96 130 169 223 278 325 379
#     4  11  22  38  62  96 129 163 215 256 329 382
#     4  10  23  43  65  95 129 169 218 268 315 396
#     4  10  22  43  67  90 132 171 218 265 320 397
#     4  11  21  36  63  95 132 170 206 265 321 402
#
# _framework density 20.685217999999999
#
# number of rings (size 3 to 8) (size 9 to 14) (size 15 to 20)
#    0.000    1.250    3.750    2.250    5.250    1.000 
#    2.250    2.500    0.000    0.000    0.000    0.000 
#    0.000    0.000    0.000    0.000    0.000    0.000 
#
# Total GULP energy -396678.977639 kJ/mol
# GULP energy per Si atom -12396.218051 kJ/mol
# Density = 2.063814 g / cm^3
# Si number density = 20.685218 Si / 1000 Ang^3
#
#
#
# Elastic Constant Matrix: (Units=GPa)
#
#
# Indices 1 2 3 4 5 6 
#
# 1 115.6733 31.7328 45.7052 0.0000 -7.6639 0.0000
# 2 31.7328 93.7579 41.3636 0.0000 -7.2352 0.0000
# 3 45.7052 41.3636 131.1278 0.0000 -18.0215 0.0000
# 4 0.0000 0.0000 0.0000 12.4644 0.0000 -2.8212
# 5 -7.6639 -7.2352 -18.0215 0.0000 43.9563 0.0000
# 6 0.0000 0.0000 0.0000 -2.8212 0.0000 16.3230
#
#
#
# Elastic Compliance Matrix: (Units=1/GPa)
#
#
# Indices 1 2 3 4 5 6 
#
# 1 0.010417 -0.002230 -0.002891 0.000000 0.000264 0.000000
# 2 -0.002230 0.012876 -0.003229 0.000000 0.000407 0.000000
# 3 -0.002891 -0.003229 0.010078 0.000000 0.003096 0.000000
# 4 0.000000 0.000000 0.000000 0.083495 0.000000 0.014431
# 5 0.000264 0.000407 0.003096 0.000000 0.024132 0.000000
# 6 0.000000 0.000000 0.000000 0.014431 0.000000 0.063758
#
#
# Mechanical properties :
#
#
# Convention : Reuss Voigt Hill
#
# Bulk Modulus (GPa) = 59.98184 64.24025 62.11104
# Shear Modulus (GPa) = 22.02533 29.33255 25.67894
#
# Velocity S-wave (km/s) = 3.26665 3.76978 3.52719
# Velocity P-wave (km/s) = 6.57939 7.07615 6.83228
#
# Compressibility (1/GPa) = 0.01667171
#
# Stress axis : x y z
#
# Youngs Moduli (GPa) = 96.00122 77.66262 99.22735
#
# Poissons Ratio (x) = 0.17316 0.28688
# Poissons Ratio (y) = 0.21405 0.32037
# Poissons Ratio (z) = 0.27755 0.25075
#
# Static dielectric constant tensor:
#      x y z
#    x 3.710560 0.000000 -0.109790 
#    y 0.000000 3.781020 0.000000 
#    z -0.109790 0.000000 3.741630 
# 
# 
# High freq. dielectric constant tensor:
#      x y z
#    x 1.811020 0.000000 -0.012120 
#    y 0.000000 1.810690 0.000000 
#    z -0.012120 0.000000 1.809380 
# 
# From -- ./inp_files/273196.got.cif
#   From: 2010.06.25/outbox.cif.g09.slc.cpg/sg15_137_cif.got.tgz:273196.got - 2010.06.28 07:06:18.
