data_PCOD8143696
_publ_section_title
;
Structure prediction by ZEFSAII (Michael W. Deem and Ramdas Pophale) SiO2 
 PCOD8143696
Probable space group: C 2/C
;
_chemical_formula_sum "Si O2"
_cell_formula_units_Z 32
_cell_length_a 7.570428
_cell_length_b 14.321466
_cell_length_c 21.995000
_cell_angle_alpha 90.000000
_cell_angle_beta 141.674923
_cell_angle_gamma 90.000000
_cell_volume 1478.799620
_symmetry_space_group_name_H-M "C 2/C"
_symmetry_group_IT_number 15
_symmetry_cell_setting 'monoclinic'
loop_
_space_group_symop_operation_xyz
x,y,z
-x,y,1/2-z
-x,-y,-z
x,-y,1/2+z
1/2+x,1/2+y,z
1/2-x,1/2+y,1/2-z
1/2-x,1/2-y,-z
1/2+x,1/2-y,1/2+z
loop_
_atom_site_type_symbol
_atom_site_label
_atom_site_fract_x
_atom_site_fract_y
_atom_site_fract_z
Si Si1 0.726188 0.940068 0.716016
Si Si2 0.686114 0.281388 0.662876
Si Si3 0.303952 0.664092 0.470469
Si Si4 0.408755 0.873313 0.161654
O O1 0.814701 0.874783 0.796211
O O2 0.485530 0.895143 0.607852
O O3 0.000000 0.963311 0.750000
O O4 0.598779 0.035019 0.707615
O O5 0.606287 0.305256 0.572706
O O6 0.465293 0.204085 0.625698
O O7 0.000000 0.236038 0.750000
O O8 0.250000 0.750000 0.500000
O O9 0.570576 0.603812 0.568374
O O10 0.500000 0.825903 0.250000
#
# Coordination Sequence:
#
# PCOD8143696 Si02
#       4
#     8   8   8   8
#     4  11  24  42  63  92 127 164 208 258 309 370
#     4  10  21  41  63  90 126 165 205 256 311 366
#     4  11  23  41  65  92 125 166 207 256 312 369
#     4  12  23  40  65  94 125 165 209 256 310 371
#
# _framework density 21.639171999999999
#
# number of rings (size 3 to 8) (size 9 to 14) (size 15 to 20)
#    0.000    1.000    0.000    9.750    0.000    0.000 
#    0.000    3.750    0.000    0.000    0.000    0.000 
#    0.000    0.000    0.000    0.000    0.000    0.000 
#
# Total GULP energy -198429.764772 kJ/mol
# GULP energy per Si atom -12401.860298 kJ/mol
# Density = 2.158992 g / cm^3
# Si number density = 21.639172 Si / 1000 Ang^3
#
#
#
# Elastic Constant Matrix: (Units=GPa)
#
#
# Indices 1 2 3 4 5 6 
#
# 1 110.4989 38.5393 52.4508 -0.0001 9.9448 -0.0001
# 2 38.5393 101.0927 23.5737 0.0001 6.5302 0.0000
# 3 52.4508 23.5737 132.9199 0.0003 4.9644 -0.0005
# 4 -0.0001 0.0001 0.0003 30.7592 -0.0001 9.8722
# 5 9.9448 6.5302 4.9644 -0.0001 39.9579 -0.0004
# 6 -0.0001 0.0000 -0.0005 9.8722 -0.0004 27.5108
#
#
#
# Elastic Compliance Matrix: (Units=1/GPa)
#
#
# Indices 1 2 3 4 5 6 
#
# 1 0.012503 -0.003656 -0.004211 0.000000 -0.001991 0.000000
# 2 -0.003656 0.011474 -0.000559 0.000000 -0.000896 0.000000
# 3 -0.004211 -0.000559 0.009285 0.000000 -0.000014 0.000000
# 4 0.000000 0.000000 0.000000 0.036742 0.000000 -0.013185
# 5 -0.001991 -0.000896 -0.000014 0.000000 0.025670 0.000000
# 6 0.000000 0.000000 0.000000 -0.013185 0.000000 0.041081
#
#
# Mechanical properties :
#
#
# Convention : Reuss Voigt Hill
#
# Bulk Modulus (GPa) = 60.93835 63.73766 62.33800
# Shear Modulus (GPa) = 31.43150 34.97541 33.20345
#
# Velocity S-wave (km/s) = 3.81534 4.02469 3.92141
# Velocity P-wave (km/s) = 6.90155 7.14956 7.02665
#
# Compressibility (1/GPa) = 0.01641003
#
# Stress axis : x y z
#
# Youngs Moduli (GPa) = 79.98082 87.15488 107.70479
#
# Poissons Ratio (x) = 0.31863 0.45354
# Poissons Ratio (y) = 0.29240 0.06019
# Poissons Ratio (z) = 0.33680 0.04870
#
# Static dielectric constant tensor:
#      x y z
#    x 4.135360 0.000000 0.090980 
#    y 0.000000 3.704180 0.000000 
#    z 0.090980 0.000000 4.141220 
# 
# 
# High freq. dielectric constant tensor:
#      x y z
#    x 1.861440 0.000000 0.004660 
#    y 0.000000 1.838240 0.000000 
#    z 0.004660 0.000000 1.866810 
# 
# From -- ./inp_files/187535.got.cif
#   From: 2010.06.25/outbox.cif.g09.slc.cpg/sg15_94_cif.got.tgz:187535.got - 2010.06.28 07:06:18.
