data_PCOD8143418
_publ_section_title
;
Structure prediction by ZEFSAII (Michael W. Deem and Ramdas Pophale) SiO2 
 PCOD8143418
Probable space group: C 2/C
;
_chemical_formula_sum "Si O2"
_cell_formula_units_Z 44
_cell_length_a 18.651426
_cell_length_b 8.865009
_cell_length_c 13.440159
_cell_angle_alpha 90.000000
_cell_angle_beta 81.012246
_cell_angle_gamma 90.000000
_cell_volume 2194.978383
_symmetry_space_group_name_H-M "C 2/C"
_symmetry_group_IT_number 15
_symmetry_cell_setting 'monoclinic'
loop_
_space_group_symop_operation_xyz
x,y,z
-x,y,1/2-z
-x,-y,-z
x,-y,1/2+z
1/2+x,1/2+y,z
1/2-x,1/2+y,1/2-z
1/2-x,1/2-y,-z
1/2+x,1/2-y,1/2+z
loop_
_atom_site_type_symbol
_atom_site_label
_atom_site_fract_x
_atom_site_fract_y
_atom_site_fract_z
Si Si1 0.314393 0.154468 0.535439
Si Si2 0.500000 0.221903 0.750000
Si Si3 0.565991 0.939916 0.050959
Si Si4 0.123747 0.886556 0.834183
Si Si5 0.270653 0.610034 0.367886
Si Si6 0.848151 0.169157 0.546732
O O1 0.250000 0.250000 0.500000
O O2 0.366307 0.265883 0.581900
O O3 0.368026 0.061566 0.448952
O O4 0.280960 0.035309 0.619926
O O5 0.457610 0.110966 0.833935
O O6 0.551383 0.339550 0.794191
O O7 0.592975 0.797576 0.982305
O O8 0.500000 0.000000 0.000000
O O9 0.191872 0.885087 0.746348
O O10 0.115988 0.050302 0.885692
O O11 0.225774 0.764891 0.389736
O O12 0.328477 0.592670 0.445214
#
# Coordination Sequence:
#
# PCOD8143418 Si02
#       6
#     8   4   8   8   8   8
#     4  11  23  41  71 100 132 174 223 284 334 395
#     4  12  26  44  70  94 134 188 220 272 342 420
#     4  11  24  48  66  94 138 182 219 270 342 407
#     4  12  23  42  67 100 133 171 228 275 334 405
#     4  10  21  40  66  99 132 170 213 276 343 392
#     4  10  22  41  68  94 132 172 218 278 332 391
#
# _framework density 20.045756999999998
#
# number of rings (size 3 to 8) (size 9 to 14) (size 15 to 20)
#    0.000    1.091    5.455    1.091    0.000    2.182 
#    6.545    0.000    0.000    0.000    0.000    0.000 
#    0.000    0.000    0.000    0.000    0.000    0.000 
#
# Total GULP energy -272805.513448 kJ/mol
# GULP energy per Si atom -12400.250611 kJ/mol
# Density = 2.000013 g / cm^3
# Si number density = 20.045757 Si / 1000 Ang^3
#
#
#
# Elastic Constant Matrix: (Units=GPa)
#
#
# Indices 1 2 3 4 5 6 
#
# 1 120.9779 65.9011 48.6643 0.0000 6.3494 0.0000
# 2 65.9011 133.5408 65.5574 0.0000 0.6602 0.0000
# 3 48.6643 65.5574 112.1619 0.0000 -11.0721 0.0000
# 4 0.0000 0.0000 0.0000 31.1126 0.0000 6.2776
# 5 6.3494 0.6602 -11.0721 0.0000 40.6869 0.0000
# 6 0.0000 0.0000 0.0000 6.2776 0.0000 38.3036
#
#
#
# Elastic Compliance Matrix: (Units=1/GPa)
#
#
# Indices 1 2 3 4 5 6 
#
# 1 0.011998 -0.004528 -0.002813 0.000000 -0.002564 0.000000
# 2 -0.004528 0.012354 -0.005350 0.000000 -0.000950 0.000000
# 3 -0.002813 -0.005350 0.013682 0.000000 0.004249 0.000000
# 4 0.000000 0.000000 0.000000 0.033240 0.000000 -0.005448
# 5 -0.002564 -0.000950 0.004249 0.000000 0.026150 0.000000
# 6 0.000000 0.000000 0.000000 -0.005448 0.000000 0.027000
#
#
# Mechanical properties :
#
#
# Convention : Reuss Voigt Hill
#
# Bulk Modulus (GPa) = 79.02523 80.76957 79.89740
# Shear Modulus (GPa) = 32.46263 34.45782 33.46023
#
# Velocity S-wave (km/s) = 4.02858 4.15053 4.09001
# Velocity P-wave (km/s) = 7.81967 7.95923 7.88976
#
# Compressibility (1/GPa) = 0.01265419
#
# Stress axis : x y z
#
# Youngs Moduli (GPa) = 83.34517 80.94681 73.08640
#
# Poissons Ratio (x) = 0.36650 0.20556
# Poissons Ratio (y) = 0.37736 0.39101
# Poissons Ratio (z) = 0.23441 0.43306
#
# Static dielectric constant tensor:
#      x y z
#    x 3.414450 0.000000 -0.463340 
#    y 0.000000 4.390520 0.000000 
#    z -0.463340 0.000000 3.206880 
# 
# 
# High freq. dielectric constant tensor:
#      x y z
#    x 1.787950 0.000000 -0.006250 
#    y 0.000000 1.794450 0.000000 
#    z -0.006250 0.000000 1.774090 
# 
# From -- ./inp_files/110067.got.cif
#   From: 2010.06.25/outbox.cif.g09.slc.cpg/sg15_56_cif.got.tgz:110067.got - 2010.06.28 07:06:18.
