data_PCOD8143480
_publ_section_title
;
Structure prediction by ZEFSAII (Michael W. Deem and Ramdas Pophale) SiO2 
 PCOD8143480
Probable space group: C 2/C
;
_chemical_formula_sum "Si O2"
_cell_formula_units_Z 48
_cell_length_a 11.794715
_cell_length_b 13.111343
_cell_length_c 19.423254
_cell_angle_alpha 90.000000
_cell_angle_beta 54.475419
_cell_angle_gamma 90.000000
_cell_volume 2444.610604
_symmetry_space_group_name_H-M "C 2/C"
_symmetry_group_IT_number 15
_symmetry_cell_setting 'monoclinic'
loop_
_space_group_symop_operation_xyz
x,y,z
-x,y,1/2-z
-x,-y,-z
x,-y,1/2+z
1/2+x,1/2+y,z
1/2-x,1/2+y,1/2-z
1/2-x,1/2-y,-z
1/2+x,1/2-y,1/2+z
loop_
_atom_site_type_symbol
_atom_site_label
_atom_site_fract_x
_atom_site_fract_y
_atom_site_fract_z
Si Si1 0.882462 0.060073 0.707004
Si Si2 0.240569 0.257442 0.921248
Si Si3 0.655990 0.055131 0.675207
Si Si4 0.332267 0.481608 0.872054
Si Si5 0.214282 0.403940 0.534436
Si Si6 0.481292 0.728950 0.923554
O O1 0.752721 0.030124 0.705998
O O2 0.936650 0.173912 0.668276
O O3 0.832360 0.051002 0.803313
O O4 0.012936 0.983514 0.648832
O O5 0.336821 0.171810 0.852357
O O6 0.293632 0.364768 0.872525
O O7 0.081150 0.242303 0.954144
O O8 0.250000 0.250000 0.000000
O O9 0.500000 0.027250 0.750000
O O10 0.711716 0.984222 0.595746
O O11 0.219516 0.533854 0.961270
O O12 0.350649 0.335396 0.496888
O O13 0.073347 0.337331 0.584795
#
# Coordination Sequence:
#
# PCOD8143480 Si02
#       6
#     8   8   8   8   8   8
#     4   9  22  42  62  87 124 166 202 253 308 369
#     4  11  23  39  63  94 126 159 207 257 308 371
#     4  11  25  41  59  92 130 161 206 256 309 360
#     4  10  21  40  68  90 121 164 210 249 311 369
#     4  10  21  43  64  89 121 167 209 252 303 368
#     4   9  22  41  63  91 123 159 213 249 306 364
#
# _framework density 19.635028999999999
#
# number of rings (size 3 to 8) (size 9 to 14) (size 15 to 20)
#    0.000    2.000    1.667    0.000    7.000    4.000 
#    9.000    0.000    0.000    0.000    0.000    0.000 
#    0.000    0.000    0.000    0.000    0.000    0.000 
#
# Total GULP energy -297609.895498 kJ/mol
# GULP energy per Si atom -12400.412312 kJ/mol
# Density = 1.959034 g / cm^3
# Si number density = 19.635029 Si / 1000 Ang^3
#
#
#
# Elastic Constant Matrix: (Units=GPa)
#
#
# Indices 1 2 3 4 5 6 
#
# 1 139.0141 52.8273 59.3506 0.0000 8.4601 0.0000
# 2 52.8273 105.5559 32.5059 0.0000 2.3440 0.0000
# 3 59.3506 32.5059 90.6177 0.0000 7.8740 0.0000
# 4 0.0000 0.0000 0.0000 26.9673 0.0000 3.0117
# 5 8.4601 2.3440 7.8740 0.0000 26.8228 0.0000
# 6 0.0000 0.0000 0.0000 3.0117 0.0000 22.2795
#
#
#
# Elastic Compliance Matrix: (Units=1/GPa)
#
#
# Indices 1 2 3 4 5 6 
#
# 1 0.011225 -0.003778 -0.005867 0.000000 -0.001488 0.000000
# 2 -0.003778 0.011923 -0.001863 0.000000 0.000697 0.000000
# 3 -0.005867 -0.001863 0.015774 0.000000 -0.002617 0.000000
# 4 0.000000 0.000000 0.000000 0.037650 0.000000 -0.005090
# 5 -0.001488 0.000697 -0.002617 0.000000 0.038458 0.000000
# 6 0.000000 0.000000 0.000000 -0.005090 0.000000 0.045572
#
#
# Mechanical properties :
#
#
# Convention : Reuss Voigt Hill
#
# Bulk Modulus (GPa) = 62.87336 69.39504 66.13420
# Shear Modulus (GPa) = 26.46627 27.91418 27.19022
#
# Velocity S-wave (km/s) = 3.67537 3.77457 3.72530
# Velocity P-wave (km/s) = 7.07825 7.37670 7.22902
#
# Compressibility (1/GPa) = 0.01590499
#
# Stress axis : x y z
#
# Youngs Moduli (GPa) = 89.09019 83.87478 63.39596
#
# Poissons Ratio (x) = 0.31685 0.37196
# Poissons Ratio (y) = 0.33655 0.11811
# Poissons Ratio (z) = 0.52271 0.15627
#
# Static dielectric constant tensor:
#      x y z
#    x 3.713020 0.000000 -0.051790 
#    y 0.000000 3.711390 0.000000 
#    z -0.051790 0.000000 3.484110 
# 
# 
# High freq. dielectric constant tensor:
#      x y z
#    x 1.773020 0.000000 -0.001630 
#    y 0.000000 1.768110 0.000000 
#    z -0.001630 0.000000 1.759820 
# 
# From -- ./inp_files/143613.got.cif
#   From: 2010.06.25/outbox.cif.g09.slc.cpg/sg15_72_cif.got.tgz:143613.got - 2010.06.28 07:06:18.
