data_PCOD8143712
_publ_section_title
;
Structure prediction by ZEFSAII (Michael W. Deem and Ramdas Pophale) SiO2 
 PCOD8143712
Probable space group: C 2/C
;
_chemical_formula_sum "Si O2"
_cell_formula_units_Z 48
_cell_length_a 13.295687
_cell_length_b 10.418291
_cell_length_c 24.226688
_cell_angle_alpha 90.000000
_cell_angle_beta 135.721566
_cell_angle_gamma 90.000000
_cell_volume 2342.866131
_symmetry_space_group_name_H-M "C 2/C"
_symmetry_group_IT_number 15
_symmetry_cell_setting 'monoclinic'
loop_
_space_group_symop_operation_xyz
x,y,z
-x,y,1/2-z
-x,-y,-z
x,-y,1/2+z
1/2+x,1/2+y,z
1/2-x,1/2+y,1/2-z
1/2-x,1/2-y,-z
1/2+x,1/2-y,1/2+z
loop_
_atom_site_type_symbol
_atom_site_label
_atom_site_fract_x
_atom_site_fract_y
_atom_site_fract_z
Si Si1 0.247409 0.088550 0.452751
Si Si2 0.163597 0.028080 0.809565
Si Si3 0.307487 0.127659 0.054289
Si Si4 0.268463 0.820688 0.665240
Si Si5 0.109999 0.470413 0.688874
Si Si6 0.987599 0.728190 0.604035
O O1 0.114776 0.187173 0.397369
O O2 0.397197 0.164837 0.518283
O O3 0.252884 0.004477 0.399682
O O4 0.227170 0.996030 0.497584
O O5 0.160552 0.180805 0.800171
O O6 0.000000 0.977503 0.750000
O O7 0.246009 0.956760 0.791904
O O8 0.270028 0.130674 0.103688
O O9 0.480236 0.116126 0.113156
O O10 0.250000 0.250000 0.000000
O O11 0.357493 0.922309 0.736709
O O12 0.104960 0.818559 0.621816
O O13 0.061110 0.619235 0.671150
#
# Coordination Sequence:
#
# PCOD8143712 Si02
#       6
#     8   8   8   8   8   8
#     4  10  21  41  63  93 127 166 215 253 321 380
#     4  11  22  38  65  90 126 167 214 262 314 389
#     4  11  22  37  64  96 126 166 211 268 316 374
#     4  11  22  40  63  94 131 162 217 266 315 379
#     4  10  23  40  61  90 128 168 210 265 319 373
#     4   9  22  41  63  90 129 171 206 260 318 385
#
# _framework density 20.487725000000001
#
# number of rings (size 3 to 8) (size 9 to 14) (size 15 to 20)
#    0.000    1.667    1.667    2.500    2.333    2.667 
#    0.000   20.000    0.000    0.000    0.000    0.000 
#    0.000    0.000    0.000    0.000    0.000    0.000 
#
# Total GULP energy -297633.305875 kJ/mol
# GULP energy per Si atom -12401.387745 kJ/mol
# Density = 2.044109 g / cm^3
# Si number density = 20.487725 Si / 1000 Ang^3
#
#
#
# Elastic Constant Matrix: (Units=GPa)
#
#
# Indices 1 2 3 4 5 6 
#
# 1 82.5782 47.7882 52.3874 0.0000 -4.9007 0.0000
# 2 47.7882 86.3607 56.0608 0.0000 -2.3156 0.0000
# 3 52.3874 56.0608 114.6807 0.0000 -15.0658 0.0000
# 4 0.0000 0.0000 0.0000 39.9573 0.0000 -0.9658
# 5 -4.9007 -2.3156 -15.0658 0.0000 40.9865 0.0000
# 6 0.0000 0.0000 0.0000 -0.9658 0.0000 33.5041
#
#
#
# Elastic Compliance Matrix: (Units=1/GPa)
#
#
# Indices 1 2 3 4 5 6 
#
# 1 0.019879 -0.007475 -0.005433 0.000000 -0.000042 0.000000
# 2 -0.007475 0.019963 -0.006634 0.000000 -0.002204 0.000000
# 3 -0.005433 -0.006634 0.015036 0.000000 0.004503 0.000000
# 4 0.000000 0.000000 0.000000 0.025044 0.000000 0.000722
# 5 -0.000042 -0.002204 0.004503 0.000000 0.025924 0.000000
# 6 0.000000 0.000000 0.000000 0.000722 0.000000 0.029868
#
#
# Mechanical properties :
#
#
# Convention : Reuss Voigt Hill
#
# Bulk Modulus (GPa) = 63.30847 66.23249 64.77048
# Shear Modulus (GPa) = 27.76833 31.38180 29.57506
#
# Velocity S-wave (km/s) = 3.68552 3.91799 3.80353
# Velocity P-wave (km/s) = 7.00561 7.27087 7.13947
#
# Compressibility (1/GPa) = 0.01579567
#
# Stress axis : x y z
#
# Youngs Moduli (GPa) = 50.30324 50.09344 66.50785
#
# Poissons Ratio (x) = 0.37445 0.36131
# Poissons Ratio (y) = 0.37601 0.44118
# Poissons Ratio (z) = 0.27328 0.33230
#
# Static dielectric constant tensor:
#      x y z
#    x 3.729630 0.000000 0.181700 
#    y 0.000000 3.751790 0.000000 
#    z 0.181700 0.000000 3.742960 
# 
# 
# High freq. dielectric constant tensor:
#      x y z
#    x 1.798560 0.000000 0.013000 
#    y 0.000000 1.799340 0.000000 
#    z 0.013000 0.000000 1.805650 
# 
# From -- ./inp_files/237240.got.cif
#   From: 2010.06.25/outbox.cif.g09.slc.cpg/sg15_119_cif.got.tgz:237240.got - 2010.06.28 07:06:18.
