data_PCOD8143927
_publ_section_title
;
Structure prediction by ZEFSAII (Michael W. Deem and Ramdas Pophale) SiO2 
 PCOD8143927
Probable space group: C 2/C
;
_chemical_formula_sum "Si O2"
_cell_formula_units_Z 48
_cell_length_a 25.389306
_cell_length_b 14.705138
_cell_length_c 9.428243
_cell_angle_alpha 90.000000
_cell_angle_beta 42.240896
_cell_angle_gamma 90.000000
_cell_volume 2366.360919
_symmetry_space_group_name_H-M "C 2/C"
_symmetry_group_IT_number 15
_symmetry_cell_setting 'monoclinic'
loop_
_space_group_symop_operation_xyz
x,y,z
-x,y,1/2-z
-x,-y,-z
x,-y,1/2+z
1/2+x,1/2+y,z
1/2-x,1/2+y,1/2-z
1/2-x,1/2-y,-z
1/2+x,1/2-y,1/2+z
loop_
_atom_site_type_symbol
_atom_site_label
_atom_site_fract_x
_atom_site_fract_y
_atom_site_fract_z
Si Si1 0.690366 0.778568 0.499480
Si Si2 0.955932 0.568979 0.688088
Si Si3 0.486274 0.776373 0.614558
Si Si4 0.711311 0.025775 0.976983
Si Si5 0.467899 0.427730 0.167342
Si Si6 0.706288 0.414640 0.907984
O O1 0.750000 0.750000 0.500000
O O2 0.604840 0.789577 0.740229
O O3 0.708042 0.877777 0.397069
O O4 0.700540 0.692865 0.372150
O O5 0.867080 0.534477 0.883149
O O6 0.000000 0.575903 0.750000
O O7 0.000000 0.500000 0.500000
O O8 0.959225 0.666784 0.602371
O O9 0.500000 0.807975 0.750000
O O10 0.505559 0.670381 0.556073
O O11 0.727778 0.053248 0.108531
O O12 0.780596 0.968601 0.764479
O O13 0.500000 0.462316 0.250000
O O14 0.374529 0.433549 0.351667
O O15 0.500000 0.500000 0.000000
#
# Coordination Sequence:
#
# PCOD8143927 Si02
#       6
#     8   8   8   8   8   8
#     4   9  20  38  61  80 122 165 200 241 315 368
#     4  12  24  38  62  94 127 163 210 254 316 379
#     4  10  22  40  63  90 127 165 207 260 316 373
#     4  11  22  38  61  87 124 159 206 251 304 369
#     4  10  21  41  67  90 123 165 214 258 311 366
#     4  10  22  40  60  90 120 164 202 250 314 367
#
# _framework density 20.284310999999999
#
# number of rings (size 3 to 8) (size 9 to 14) (size 15 to 20)
#    0.000    1.667    1.667    2.500    4.667    0.667 
#    3.000    0.833    0.000    0.000    0.000    0.000 
#    0.000    0.000    0.000    0.000    0.000    0.000 
#
# Total GULP energy -297341.365294 kJ/mol
# GULP energy per Si atom -12389.223554 kJ/mol
# Density = 2.023814 g / cm^3
# Si number density = 20.284311 Si / 1000 Ang^3
#
#
#
# Elastic Constant Matrix: (Units=GPa)
#
#
# Indices 1 2 3 4 5 6 
#
# 1 102.5216 37.6694 27.9749 0.0000 -3.5336 0.0000
# 2 37.6694 162.3520 80.7331 0.0000 10.5381 0.0000
# 3 27.9749 80.7331 83.6158 0.0000 3.9129 0.0000
# 4 0.0000 0.0000 0.0000 44.4030 0.0000 1.3831
# 5 -3.5336 10.5381 3.9129 0.0000 32.5818 0.0000
# 6 0.0000 0.0000 0.0000 1.3831 0.0000 28.0779
#
#
#
# Elastic Compliance Matrix: (Units=1/GPa)
#
#
# Indices 1 2 3 4 5 6 
#
# 1 0.011014 -0.001549 -0.002282 0.000000 0.001969 0.000000
# 2 -0.001549 0.012267 -0.011195 0.000000 -0.002791 0.000000
# 3 -0.002282 -0.011195 0.023507 0.000000 0.000551 0.000000
# 4 0.000000 0.000000 0.000000 0.022556 0.000000 -0.001111
# 5 0.001969 -0.002791 0.000551 0.000000 0.031742 0.000000
# 6 0.000000 0.000000 0.000000 -0.001111 0.000000 0.035670
#
#
# Mechanical properties :
#
#
# Convention : Reuss Voigt Hill
#
# Bulk Modulus (GPa) = 59.75254 71.24935 65.50095
# Shear Modulus (GPa) = 29.00483 34.48667 31.74575
#
# Velocity S-wave (km/s) = 3.78552 4.12778 3.96035
# Velocity P-wave (km/s) = 6.97341 7.61050 7.29891
#
# Compressibility (1/GPa) = 0.01673569
#
# Stress axis : x y z
#
# Youngs Moduli (GPa) = 90.79745 81.51858 42.54129
#
# Poissons Ratio (x) = 0.12624 0.09706
# Poissons Ratio (y) = 0.14061 0.47627
# Poissons Ratio (z) = 0.20717 0.91264
#
# Static dielectric constant tensor:
#      x y z
#    x 2.964300 0.000000 1.251920 
#    y 0.000000 4.475100 0.000000 
#    z 1.251920 0.000000 0.759380 
# 
# 
# High freq. dielectric constant tensor:
#      x y z
#    x 1.799160 0.000000 -0.017470 
#    y 0.000000 1.813680 0.000000 
#    z -0.017470 0.000000 1.763140 
# 
# From -- ./inp_files/66411.got.cif
#   From: 2010.06.25/outbox.cif.g09.slc.cpg/sg15_34_cif.got.tgz:66411.got - 2010.06.28 07:06:18.
