data_PCOD8143000
_publ_section_title
;
Structure prediction by ZEFSAII (Michael W. Deem and Ramdas Pophale) SiO2 
 PCOD8143000
Probable space group: C 2/C
;
_chemical_formula_sum "Si O2"
_cell_formula_units_Z 60
_cell_length_a 29.743637
_cell_length_b 8.521579
_cell_length_c 24.226808
_cell_angle_alpha 90.000000
_cell_angle_beta 27.698266
_cell_angle_gamma 90.000000
_cell_volume 2854.241474
_symmetry_space_group_name_H-M "C 2/C"
_symmetry_group_IT_number 15
_symmetry_cell_setting 'monoclinic'
loop_
_space_group_symop_operation_xyz
x,y,z
-x,y,1/2-z
-x,-y,-z
x,-y,1/2+z
1/2+x,1/2+y,z
1/2-x,1/2+y,1/2-z
1/2-x,1/2-y,-z
1/2+x,1/2-y,1/2+z
loop_
_atom_site_type_symbol
_atom_site_label
_atom_site_fract_x
_atom_site_fract_y
_atom_site_fract_z
Si Si1 0.281103 0.927262 0.781294
Si Si2 0.574935 0.924982 0.298713
Si Si3 0.840848 0.356455 0.397612
Si Si4 0.930428 0.420999 0.878069
Si Si5 0.500000 0.629902 0.250000
Si Si6 0.521029 0.407013 0.900991
Si Si7 0.842663 0.904775 0.172274
Si Si8 0.899753 0.923057 0.447807
O O1 0.295939 0.743505 0.753807
O O2 0.383971 0.997084 0.689887
O O3 0.245329 0.012950 0.764677
O O4 0.202711 0.964044 0.913917
O O5 0.657561 0.952891 0.161458
O O6 0.553185 0.743427 0.332245
O O7 0.478112 0.009806 0.381835
O O8 0.750000 0.250000 0.500000
O O9 0.845434 0.463738 0.448038
O O10 0.934912 0.247079 0.285107
O O11 0.889471 0.254195 0.939142
O O12 0.000000 0.403063 0.750000
O O13 0.424750 0.528864 0.367704
O O14 0.615436 0.470085 0.829786
O O15 0.484649 0.547028 0.900231
O O16 0.432890 0.353128 0.036236
#
# Coordination Sequence:
#
# PCOD8143000 Si02
#       8
#     8   8   8   8   4   8   8   8
#     4  11  24  40  61  95 124 157 218 266 321 382
#     4  11  21  38  61  87 123 162 210 254 309 388
#     4  11  22  39  62  92 127 172 214 252 307 378
#     4  10  21  40  58  87 129 163 206 251 300 375
#     4  12  20  42  64  90 138 172 208 260 312 378
#     4  10  21  40  65  86 118 172 208 256 331 379
#     4  10  23  41  60  89 124 157 213 273 319 377
#     4  11  22  39  64  92 129 169 207 262 319 379
#
# _framework density 21.021346000000001
#
# number of rings (size 3 to 8) (size 9 to 14) (size 15 to 20)
#    0.000    1.333    4.000    2.400    0.000    3.733 
#    2.400    2.000    0.000    0.000    0.000    0.000 
#    0.000    0.000    0.000    0.000    0.000    0.000 
#
# Total GULP energy -371858.487781 kJ/mol
# GULP energy per Si atom -12395.282926 kJ/mol
# Density = 2.097350 g / cm^3
# Si number density = 21.021346 Si / 1000 Ang^3
#
#
#
# Elastic Constant Matrix: (Units=GPa)
#
#
# Indices 1 2 3 4 5 6 
#
# 1 122.6585 41.9990 10.2912 -0.0229 -9.1594 0.0070
# 2 41.9990 112.1841 14.8403 -0.0373 -2.7957 0.0187
# 3 10.2912 14.8403 38.5230 -0.0424 4.8961 0.0271
# 4 -0.0229 -0.0373 -0.0424 28.2205 0.0192 9.5614
# 5 -9.1594 -2.7957 4.8961 0.0192 27.6568 -0.0072
# 6 0.0070 0.0187 0.0271 9.5614 -0.0072 34.9652
#
#
#
# Elastic Compliance Matrix: (Units=1/GPa)
#
#
# Indices 1 2 3 4 5 6 
#
# 1 0.009668 -0.003314 -0.001709 -0.000002 0.003169 0.000002
# 2 -0.003314 0.010601 -0.003269 0.000008 0.000553 -0.000004
# 3 -0.001709 -0.003269 0.028428 0.000053 -0.005929 -0.000036
# 4 -0.000002 0.000008 0.000053 0.039054 -0.000039 -0.010679
# 5 0.003169 0.000553 -0.005929 -0.000039 0.038313 0.000022
# 6 0.000002 -0.000004 -0.000036 -0.010679 0.000022 0.031520
#
#
# Mechanical properties :
#
#
# Convention : Reuss Voigt Hill
#
# Bulk Modulus (GPa) = 31.13996 45.29185 38.21591
# Shear Modulus (GPa) = 27.04602 31.91751 29.48177
#
# Velocity S-wave (km/s) = 3.59081 3.90081 3.74902
# Velocity P-wave (km/s) = 5.66017 6.47154 6.07941
#
# Compressibility (1/GPa) = 0.03211308
#
# Stress axis : x y z
#
# Youngs Moduli (GPa) = 103.43867 94.33183 35.17685
#
# Poissons Ratio (x) = 0.31264 0.06010
# Poissons Ratio (y) = 0.34283 0.11498
# Poissons Ratio (z) = 0.17674 0.30834
#
# Static dielectric constant tensor:
#      x y z
#    x 4.042200 -0.000050 0.060940 
#    y -0.000050 3.785440 0.000090 
#    z 0.060940 0.000090 3.504370 
# 
# 
# High freq. dielectric constant tensor:
#      x y z
#    x 1.842930 0.000000 0.002490 
#    y 0.000000 1.824290 0.000000 
#    z 0.002490 0.000000 1.803330 
# 
# From -- ./inp_files/284283.got.cif
#   From: 2010.06.25/outbox.cif.g09.slc.cpg/sg15_143_cif.got.tgz:284283.got - 2010.06.28 07:06:18.
