data_PCOD8143796
_publ_section_title
;
Structure prediction by ZEFSAII (Michael W. Deem and Ramdas Pophale) SiO2 
 PCOD8143796
Probable space group: C 2/C
;
_chemical_formula_sum "Si O2"
_cell_formula_units_Z 56
_cell_length_a 23.983778
_cell_length_b 19.212974
_cell_length_c 12.355177
_cell_angle_alpha 90.000000
_cell_angle_beta 26.900671
_cell_angle_gamma 90.000000
_cell_volume 2575.888750
_symmetry_space_group_name_H-M "C 2/C"
_symmetry_group_IT_number 15
_symmetry_cell_setting 'monoclinic'
loop_
_space_group_symop_operation_xyz
x,y,z
-x,y,1/2-z
-x,-y,-z
x,-y,1/2+z
1/2+x,1/2+y,z
1/2-x,1/2+y,1/2-z
1/2-x,1/2-y,-z
1/2+x,1/2-y,1/2+z
loop_
_atom_site_type_symbol
_atom_site_label
_atom_site_fract_x
_atom_site_fract_y
_atom_site_fract_z
Si Si1 0.545857 0.901476 0.931015
Si Si2 0.820467 0.482179 0.386623
Si Si3 0.728906 0.067489 0.303116
Si Si4 0.910735 0.194192 0.005673
Si Si5 0.996133 0.247790 0.070320
Si Si6 0.643377 0.446069 0.523812
Si Si7 0.318176 0.714099 0.565719
O O1 0.615005 0.913676 0.924982
O O2 0.636604 0.936059 0.682084
O O3 0.417226 0.942352 0.141187
O O4 0.521565 0.819648 0.962032
O O5 0.829113 0.437260 0.478914
O O6 0.683495 0.477521 0.571311
O O7 0.837094 0.124003 0.108325
O O8 0.786153 0.991354 0.187009
O O9 0.819009 0.258915 0.180419
O O10 0.981665 0.190242 0.999206
O O11 0.000000 0.208789 0.750000
O O12 0.878700 0.251442 0.355222
O O13 0.111204 0.227912 0.944904
O O14 0.500000 0.452860 0.750000
O O15 0.686911 0.367344 0.444952
#
# Coordination Sequence:
#
# PCOD8143796 Si02
#       7
#     8   8   8   8   8   8   8
#     4  10  21  41  65 103 127 165 226 279 331 398
#     4  10  22  38  67  94 131 173 214 279 337 386
#     4  11  23  41  65  93 133 180 218 265 337 409
#     4  12  26  43  65 100 138 179 222 283 349 403
#     4  11  22  42  72  95 132 174 231 283 332 405
#     4  11  23  42  60  95 129 164 231 267 321 406
#     4  11  23  43  68  99 125 181 229 280 337 400
#
# _framework density 21.740068000000001
#
# number of rings (size 3 to 8) (size 9 to 14) (size 15 to 20)
#    0.000    1.143    2.857    3.857    2.000    2.286 
#    5.143    0.000    0.000    0.000    0.000    0.000 
#    0.000    0.000    0.000    0.000    0.000    0.000 
#
# Total GULP energy -347035.131033 kJ/mol
# GULP energy per Si atom -12394.111823 kJ/mol
# Density = 2.169059 g / cm^3
# Si number density = 21.740068 Si / 1000 Ang^3
#
#
#
# Elastic Constant Matrix: (Units=GPa)
#
#
# Indices 1 2 3 4 5 6 
#
# 1 99.3792 7.8893 37.4291 0.0000 1.6376 0.0000
# 2 7.8893 101.8068 25.2388 -0.0004 -16.7229 0.0005
# 3 37.4291 25.2388 91.8093 0.0003 -3.0602 -0.0001
# 4 0.0000 -0.0004 0.0003 23.9049 -0.0004 -4.9275
# 5 1.6376 -16.7229 -3.0602 -0.0004 22.9137 0.0003
# 6 0.0000 0.0005 -0.0001 -4.9275 0.0003 29.6832
#
#
#
# Elastic Compliance Matrix: (Units=1/GPa)
#
#
# Indices 1 2 3 4 5 6 
#
# 1 0.011940 0.000056 -0.004932 0.000000 -0.001471 0.000000
# 2 0.000056 0.011932 -0.003026 0.000000 0.008300 0.000000
# 3 -0.004932 -0.003026 0.013734 0.000000 -0.000022 0.000000
# 4 0.000000 0.000000 0.000000 0.043314 0.000001 0.007190
# 5 -0.001471 0.008300 -0.000022 0.000001 0.049802 -0.000001
# 6 0.000000 0.000000 0.000000 0.007190 -0.000001 0.034883
#
#
# Mechanical properties :
#
#
# Convention : Reuss Voigt Hill
#
# Bulk Modulus (GPa) = 45.87003 48.23442 47.05222
# Shear Modulus (GPa) = 26.50041 30.12958 28.31499
#
# Velocity S-wave (km/s) = 3.49516 3.72681 3.61284
# Velocity P-wave (km/s) = 6.11827 6.38387 6.25248
#
# Compressibility (1/GPa) = 0.02180073
#
# Stress axis : x y z
#
# Youngs Moduli (GPa) = 83.75324 83.80979 72.81185
#
# Poissons Ratio (x) = -0.00467 0.35911
# Poissons Ratio (y) = -0.00467 0.22034
# Poissons Ratio (z) = 0.41307 0.25362
#
# Static dielectric constant tensor:
#      x y z
#    x 4.041330 0.000000 -0.154020 
#    y 0.000000 4.176720 0.000000 
#    z -0.154020 0.000000 3.839480 
# 
# 
# High freq. dielectric constant tensor:
#      x y z
#    x 1.867120 0.000000 -0.019360 
#    y 0.000000 1.859710 0.000000 
#    z -0.019360 0.000000 1.836930 
# 
# From -- ./inp_files/119791.got.cif
#   From: 2010.06.25/outbox.cif.g09.slc.cpg/sg15_60_cif.got.tgz:119791.got - 2010.06.28 07:06:18.
