data_PCOD8143444
_publ_section_title
;
Structure prediction by ZEFSAII (Michael W. Deem and Ramdas Pophale) SiO2 
 PCOD8143444
Probable space group: C 2/C
;
_chemical_formula_sum "Si O2"
_cell_formula_units_Z 52
_cell_length_a 16.571337
_cell_length_b 30.046702
_cell_length_c 5.096814
_cell_angle_alpha 90.000000
_cell_angle_beta 113.198819
_cell_angle_gamma 90.000000
_cell_volume 2332.579449
_symmetry_space_group_name_H-M "C 2/C"
_symmetry_group_IT_number 15
_symmetry_cell_setting 'monoclinic'
loop_
_space_group_symop_operation_xyz
x,y,z
-x,y,1/2-z
-x,-y,-z
x,-y,1/2+z
1/2+x,1/2+y,z
1/2-x,1/2+y,1/2-z
1/2-x,1/2-y,-z
1/2+x,1/2-y,1/2+z
loop_
_atom_site_type_symbol
_atom_site_label
_atom_site_fract_x
_atom_site_fract_y
_atom_site_fract_z
Si Si1 0.753892 0.348017 0.945042
Si Si2 0.101864 0.970584 0.373308
Si Si3 0.596961 0.027845 0.344444
Si Si4 0.170128 0.264376 0.709131
Si Si5 0.255982 0.903720 0.467074
Si Si6 0.085626 0.807327 0.754361
Si Si7 0.500000 0.759644 0.750000
O O1 0.800383 0.299665 0.976202
O O2 0.792078 0.382636 0.784245
O O3 0.652228 0.342905 0.717892
O O4 0.754470 0.365521 0.242985
O O5 0.162213 0.927667 0.391770
O O6 0.000000 0.955430 0.250000
O O7 0.123470 0.992116 0.682468
O O8 0.500000 0.049189 0.250000
O O9 0.670642 0.061959 0.528323
O O10 0.608589 0.986437 0.557604
O O11 0.140092 0.217437 0.552573
O O12 0.081453 0.287025 0.726150
O O13 0.250000 0.250000 0.000000
O O14 0.052728 0.770140 0.519095
O O15 0.000000 0.833640 0.750000
#
# Coordination Sequence:
#
# PCOD8143444 Si02
#       7
#     8   8   8   8   8   8   4
#     4  12  26  40  64  93 139 171 202 277 340 390
#     4  10  21  40  67  93 127 170 216 259 305 384
#     4  10  21  42  71  92 120 168 222 267 308 380
#     4  11  22  43  68  90 128 171 235 276 326 394
#     4  12  25  40  62  99 134 169 207 260 343 393
#     4  10  23  41  66  92 120 173 233 272 317 392
#     4  10  22  40  70  92 112 168 240 274 316 384
#
# _framework density 22.292916000000002
#
# number of rings (size 3 to 8) (size 9 to 14) (size 15 to 20)
#    0.000    1.231    1.538    4.154    4.308    1.231 
#    1.385    0.000    0.000    0.000    0.000    0.000 
#    0.000    0.000    0.000    0.000    0.000    0.000 
#
# Total GULP energy -322180.176931 kJ/mol
# GULP energy per Si atom -12391.545267 kJ/mol
# Density = 2.224218 g / cm^3
# Si number density = 22.292916 Si / 1000 Ang^3
#
#
#
# Elastic Constant Matrix: (Units=GPa)
#
#
# Indices 1 2 3 4 5 6 
#
# 1 148.7891 37.1970 27.3788 0.0000 9.7382 0.0000
# 2 37.1970 55.7711 10.1784 0.0000 6.9224 0.0000
# 3 27.3788 10.1784 92.8150 0.0000 0.5673 0.0000
# 4 0.0000 0.0000 0.0000 29.9772 0.0000 -9.7256
# 5 9.7382 6.9224 0.5673 0.0000 40.1652 0.0000
# 6 0.0000 0.0000 0.0000 -9.7256 0.0000 27.7595
#
#
#
# Elastic Compliance Matrix: (Units=1/GPa)
#
#
# Indices 1 2 3 4 5 6 
#
# 1 0.008431 -0.005133 -0.001917 0.000000 -0.001132 0.000000
# 2 -0.005133 0.021822 -0.000864 0.000000 -0.002504 0.000000
# 3 -0.001917 -0.000864 0.011432 0.000000 0.000452 0.000000
# 4 0.000000 0.000000 0.000000 0.037637 0.000000 0.013186
# 5 -0.001132 -0.002504 0.000452 0.000000 0.025597 0.000000
# 6 0.000000 0.000000 0.000000 0.013186 0.000000 0.040643
#
#
# Mechanical properties :
#
#
# Convention : Reuss Voigt Hill
#
# Bulk Modulus (GPa) = 38.67339 49.65373 44.16356
# Shear Modulus (GPa) = 29.41032 34.42178 31.91605
#
# Velocity S-wave (km/s) = 3.63611 3.93373 3.78784
# Velocity P-wave (km/s) = 5.91726 6.55393 6.24371
#
# Compressibility (1/GPa) = 0.02585757
#
# Stress axis : x y z
#
# Youngs Moduli (GPa) = 118.61014 45.82493 87.47667
#
# Poissons Ratio (x) = 0.23520 0.16771
# Poissons Ratio (y) = 0.60878 0.07556
# Poissons Ratio (z) = 0.22740 0.03958
#
# Static dielectric constant tensor:
#      x y z
#    x 5.012320 0.000000 -0.043040 
#    y 0.000000 3.602280 0.000000 
#    z -0.043040 0.000000 3.852720 
# 
# 
# High freq. dielectric constant tensor:
#      x y z
#    x 1.910210 0.000000 -0.003840 
#    y 0.000000 1.841690 0.000000 
#    z -0.003840 0.000000 1.884190 
# 
# From -- ./inp_files/11617.got.cif
#   From: 2010.06.25/outbox.cif.g09.slc.cpg/sg15_6_cif.got.tgz:11617.got - 2010.06.28 07:06:18.
