data_PCOD8143224
_publ_section_title
;
Structure prediction by ZEFSAII (Michael W. Deem and Ramdas Pophale) SiO2 
 PCOD8143224
Probable space group: C 2/C
;
_chemical_formula_sum "Si O2"
_cell_formula_units_Z 64
_cell_length_a 14.321041
_cell_length_b 24.800909
_cell_length_c 8.770624
_cell_angle_alpha 90.000000
_cell_angle_beta 90.886398
_cell_angle_gamma 90.000000
_cell_volume 3114.732154
_symmetry_space_group_name_H-M "C 2/C"
_symmetry_group_IT_number 15
_symmetry_cell_setting 'monoclinic'
loop_
_space_group_symop_operation_xyz
x,y,z
-x,y,1/2-z
-x,-y,-z
x,-y,1/2+z
1/2+x,1/2+y,z
1/2-x,1/2+y,1/2-z
1/2-x,1/2-y,-z
1/2+x,1/2-y,1/2+z
loop_
_atom_site_type_symbol
_atom_site_label
_atom_site_fract_x
_atom_site_fract_y
_atom_site_fract_z
Si Si1 0.934380 0.361376 0.028100
Si Si2 0.091748 0.122072 0.054782
Si Si3 0.390523 0.640015 0.095669
Si Si4 0.148462 0.752316 0.062714
Si Si5 0.752874 0.543921 0.044195
Si Si6 0.131858 0.373423 0.139479
Si Si7 0.705654 0.291524 0.383027
Si Si8 0.783152 0.568314 0.396029
O O1 0.906031 0.382904 0.193326
O O2 0.046801 0.360053 0.021475
O O3 0.905703 0.301638 0.979833
O O4 0.885662 0.405341 0.916862
O O5 0.110630 0.145279 0.223112
O O6 0.147830 0.066988 0.020374
O O7 0.981842 0.107669 0.036274
O O8 0.125038 0.170212 0.947089
O O9 0.294225 0.611229 0.047353
O O10 0.402879 0.698132 0.019474
O O11 0.155963 0.759754 0.244492
O O12 0.250000 0.750000 0.000000
O O13 0.778684 0.552150 0.220490
O O14 0.821009 0.573951 0.929611
O O15 0.761592 0.481593 0.005355
O O16 0.205576 0.326016 0.164803
O O17 0.750000 0.250000 0.500000
#
# Coordination Sequence:
#
# PCOD8143224 Si02
#       8
#     8   8   8   8   8   8   8   8
#     4  11  24  40  64  92 122 163 209 249 306 368
#     4   9  22  40  61  92 124 160 205 254 307 367
#     4  10  21  40  64  90 124 161 206 251 308 368
#     4  12  22  38  61  91 127 165 203 249 302 367
#     4  10  23  42  65  89 123 160 204 260 310 362
#     4  10  23  42  61  89 122 160 206 251 304 363
#     4  11  23  38  58  86 126 166 203 247 298 359
#     4  11  22  41  65  90 119 162 204 257 313 366
#
# _framework density 20.547512999999999
#
# number of rings (size 3 to 8) (size 9 to 14) (size 15 to 20)
#    0.000    1.500    2.500    1.500    5.250    4.000 
#    0.000    0.000    0.000    0.000    0.000    0.000 
#    0.000    0.000    0.000    0.000    0.000    0.000 
#
# Total GULP energy -396677.579093 kJ/mol
# GULP energy per Si atom -12396.174347 kJ/mol
# Density = 2.050075 g / cm^3
# Si number density = 20.547513 Si / 1000 Ang^3
#
#
#
# Elastic Constant Matrix: (Units=GPa)
#
#
# Indices 1 2 3 4 5 6 
#
# 1 102.1491 21.1934 25.3574 0.0000 4.1437 0.0000
# 2 21.1934 107.6606 39.1386 0.0000 6.5343 0.0000
# 3 25.3574 39.1386 80.7130 0.0000 -0.4266 0.0000
# 4 0.0000 0.0000 0.0000 35.3280 0.0000 6.5955
# 5 4.1437 6.5343 -0.4266 0.0000 25.8704 0.0000
# 6 0.0000 0.0000 0.0000 6.5955 0.0000 13.6414
#
#
#
# Elastic Compliance Matrix: (Units=1/GPa)
#
#
# Indices 1 2 3 4 5 6 
#
# 1 0.010778 -0.000965 -0.002926 0.000000 -0.001531 0.000000
# 2 -0.000965 0.011591 -0.005332 0.000000 -0.002861 0.000000
# 3 -0.002926 -0.005332 0.015906 0.000000 0.002078 0.000000
# 4 0.000000 0.000000 0.000000 0.031115 0.000000 -0.015044
# 5 -0.001531 -0.002861 0.002078 0.000000 0.039656 0.000000
# 6 0.000000 0.000000 0.000000 -0.015044 0.000000 0.080580
#
#
# Mechanical properties :
#
#
# Convention : Reuss Voigt Hill
#
# Bulk Modulus (GPa) = 50.43587 51.32238 50.87913
# Shear Modulus (GPa) = 23.29026 28.62351 25.95689
#
# Velocity S-wave (km/s) = 3.37038 3.73639 3.55810
# Velocity P-wave (km/s) = 6.30438 6.60650 6.45721
#
# Compressibility (1/GPa) = 0.01982716
#
# Stress axis : x y z
#
# Youngs Moduli (GPa) = 92.77844 86.27722 62.87079
#
# Poissons Ratio (x) = 0.08326 0.18398
# Poissons Ratio (y) = 0.08953 0.33525
# Poissons Ratio (z) = 0.27150 0.46006
#
# Static dielectric constant tensor:
#      x y z
#    x 4.644500 0.000000 0.361250 
#    y 0.000000 2.919760 0.000000 
#    z 0.361250 0.000000 3.901280 
# 
# 
# High freq. dielectric constant tensor:
#      x y z
#    x 1.813910 0.000000 0.000580 
#    y 0.000000 1.797350 0.000000 
#    z 0.000580 0.000000 1.809760 
# 
# From -- ./inp_files/42630.got.cif
#   From: 2010.06.25/outbox.cif.g09.slc.cpg/sg15_22_cif.got.tgz:42630.got - 2010.06.28 07:06:18.
