data_PCOD8143686
_publ_section_title
;
Structure prediction by ZEFSAII (Michael W. Deem and Ramdas Pophale) SiO2 
 PCOD8143686
Probable space group: C 2/C
;
_chemical_formula_sum "Si O2"
_cell_formula_units_Z 64
_cell_length_a 14.894961
_cell_length_b 27.755818
_cell_length_c 12.437961
_cell_angle_alpha 90.000000
_cell_angle_beta 38.616808
_cell_angle_gamma 90.000000
_cell_volume 3209.245355
_symmetry_space_group_name_H-M "C 2/C"
_symmetry_group_IT_number 15
_symmetry_cell_setting 'monoclinic'
loop_
_space_group_symop_operation_xyz
x,y,z
-x,y,1/2-z
-x,-y,-z
x,-y,1/2+z
1/2+x,1/2+y,z
1/2-x,1/2+y,1/2-z
1/2-x,1/2-y,-z
1/2+x,1/2-y,1/2+z
loop_
_atom_site_type_symbol
_atom_site_label
_atom_site_fract_x
_atom_site_fract_y
_atom_site_fract_z
Si Si1 0.835334 0.894568 0.421462
Si Si2 0.821598 0.276541 0.532456
Si Si3 0.821852 0.046150 0.724795
Si Si4 0.360573 0.891359 0.249747
Si Si5 0.142113 0.938090 0.868945
Si Si6 0.309742 0.885735 0.533929
Si Si7 0.155409 0.296359 0.552291
Si Si8 0.632710 0.787876 0.325940
O O1 0.808079 0.938509 0.362835
O O2 0.799344 0.917808 0.571816
O O3 0.738774 0.846775 0.495971
O O4 0.000000 0.877635 0.250000
O O5 0.750000 0.250000 0.500000
O O6 0.771308 0.330350 0.564234
O O7 0.752192 0.253616 0.704025
O O8 0.993335 0.272875 0.385547
O O9 0.692891 0.072163 0.787855
O O10 0.970778 0.063471 0.533841
O O11 0.799155 0.990224 0.720482
O O12 0.304925 0.908371 0.418871
O O13 0.304452 0.837428 0.281106
O O14 0.530698 0.893174 0.071418
O O15 0.190147 0.905833 0.724937
O O16 0.250000 0.250000 0.500000
O O17 0.106724 0.293509 0.475142
O O18 0.000000 0.296693 0.750000
#
# Coordination Sequence:
#
# PCOD8143686 Si02
#       8
#     8   8   8   8   8   8   8   8
#     4  10  23  43  65  95 132 168 215 269 325 383
#     4  11  22  40  62  90 128 164 205 258 317 376
#     4  10  22  44  65  93 126 166 208 269 328 376
#     4  10  21  41  63  88 128 163 204 259 323 375
#     4  10  24  40  68  95 126 163 214 268 321 384
#     4  10  23  40  61  93 126 164 210 260 311 387
#     4  12  26  43  65  93 127 174 221 267 319 384
#     4  11  23  40  62  88 125 169 208 261 318 376
#
# _framework density 19.942384000000001
#
# number of rings (size 3 to 8) (size 9 to 14) (size 15 to 20)
#    0.000    1.500    2.500    1.500    7.000    2.000 
#    2.250    0.000    0.000    0.000    0.000    0.000 
#    0.000    0.000    0.000    0.000    0.000    0.000 
#
# Total GULP energy -396597.021301 kJ/mol
# GULP energy per Si atom -12393.656916 kJ/mol
# Density = 1.989699 g / cm^3
# Si number density = 19.942384 Si / 1000 Ang^3
#
#
#
# Elastic Constant Matrix: (Units=GPa)
#
#
# Indices 1 2 3 4 5 6 
#
# 1 93.3155 52.3558 22.8769 0.0000 14.2588 0.0000
# 2 52.3558 104.9072 45.6904 0.0000 -8.0513 0.0000
# 3 22.8769 45.6904 92.0488 0.0000 17.5911 0.0000
# 4 0.0000 0.0000 0.0000 32.5621 0.0000 4.9604
# 5 14.2588 -8.0513 17.5911 0.0000 25.6866 0.0000
# 6 0.0000 0.0000 0.0000 4.9604 0.0000 32.7558
#
#
#
# Elastic Compliance Matrix: (Units=1/GPa)
#
#
# Indices 1 2 3 4 5 6 
#
# 1 0.020180 -0.014041 0.005679 0.000000 -0.019493 0.000000
# 2 -0.014041 0.024135 -0.013146 0.000000 0.024362 0.000000
# 3 0.005679 -0.013146 0.019983 0.000000 -0.020958 0.000000
# 4 0.000000 0.000000 0.000000 0.031436 0.000000 -0.004761
# 5 -0.019493 0.024362 -0.020958 0.000000 0.071740 0.000000
# 6 0.000000 0.000000 0.000000 -0.004761 0.000000 0.031250
#
#
# Mechanical properties :
#
#
# Convention : Reuss Voigt Hill
#
# Bulk Modulus (GPa) = 46.98635 59.12418 53.05526
# Shear Modulus (GPa) = 20.09381 29.49079 24.79230
#
# Velocity S-wave (km/s) = 3.17770 3.84969 3.52972
# Velocity P-wave (km/s) = 6.08900 7.03363 6.57830
#
# Compressibility (1/GPa) = 0.02128278
#
# Stress axis : x y z
#
# Youngs Moduli (GPa) = 49.55322 41.43415 50.04307
#
# Poissons Ratio (x) = 0.58177 -0.28420
# Poissons Ratio (y) = 0.69577 0.65786
# Poissons Ratio (z) = -0.28142 0.54469
#
# Static dielectric constant tensor:
#      x y z
#    x 3.755720 0.000000 0.119550 
#    y 0.000000 4.061160 0.000000 
#    z 0.119550 0.000000 3.728790 
# 
# 
# High freq. dielectric constant tensor:
#      x y z
#    x 1.786420 0.000000 0.010300 
#    y 0.000000 1.781150 0.000000 
#    z 0.010300 0.000000 1.784330 
# 
# From -- ./inp_files/101324.got.cif
#   From: 2010.06.25/outbox.cif.g09.slc.cpg/sg15_51_cif.got.tgz:101324.got - 2010.06.28 07:06:18.
