data_PCOD8143524
_publ_section_title
;
Structure prediction by ZEFSAII (Michael W. Deem and Ramdas Pophale) SiO2 
 PCOD8143524
Probable space group: C 2/C
;
_chemical_formula_sum "Si O2"
_cell_formula_units_Z 40
_cell_length_a 15.183118
_cell_length_b 9.793299
_cell_length_c 12.793042
_cell_angle_alpha 90.000000
_cell_angle_beta 87.359260
_cell_angle_gamma 90.000000
_cell_volume 1900.213365
_symmetry_space_group_name_H-M "C 2/C"
_symmetry_group_IT_number 15
_symmetry_cell_setting 'monoclinic'
loop_
_space_group_symop_operation_xyz
x,y,z
-x,y,1/2-z
-x,-y,-z
x,-y,1/2+z
1/2+x,1/2+y,z
1/2-x,1/2+y,1/2-z
1/2-x,1/2-y,-z
1/2+x,1/2-y,1/2+z
loop_
_atom_site_type_symbol
_atom_site_label
_atom_site_fract_x
_atom_site_fract_y
_atom_site_fract_z
Si Si1 0.808692 0.724456 0.206881
Si Si2 0.585451 0.161467 0.496009
Si Si3 0.941043 0.566304 0.346176
Si Si4 0.648686 0.470036 0.756836
Si Si5 0.514828 0.579474 0.101375
O O1 0.832773 0.690189 0.085085
O O2 0.875128 0.670052 0.292302
O O3 0.716025 0.652067 0.230803
O O4 0.801683 0.889387 0.214543
O O5 0.503055 0.146238 0.423059
O O6 0.560735 0.277187 0.578979
O O7 0.609664 0.039010 0.574751
O O8 0.000000 0.496243 0.250000
O O9 0.582489 0.406101 0.845373
O O10 0.585070 0.507481 0.664027
O O11 0.500000 0.500000 0.000000
#
# Coordination Sequence:
#
# PCOD8143524 Si02
#       5
#     8   8   8   8   8
#     4  11  24  44  64  97 139 166 218 272 335 375
#     4  10  21  40  69  95 126 176 220 263 326 395
#     4   9  21  38  66  96 132 170 214 273 325 389
#     4  11  27  41  69  98 133 176 214 278 327 388
#     4  11  23  44  70  93 127 176 228 259 325 397
#
# _framework density 21.050267999999999
#
# number of rings (size 3 to 8) (size 9 to 14) (size 15 to 20)
#    0.000    1.600    2.000    1.200   11.200    5.600 
#    0.000    3.000    0.000    0.000    0.000    0.000 
#    0.000    0.000    0.000    0.000    0.000    0.000 
#
# Total GULP energy -247779.680187 kJ/mol
# GULP energy per Si atom -12388.984009 kJ/mol
# Density = 2.100236 g / cm^3
# Si number density = 21.050268 Si / 1000 Ang^3
#
#
#
# Elastic Constant Matrix: (Units=GPa)
#
#
# Indices 1 2 3 4 5 6 
#
# 1 110.4398 44.2211 45.3213 0.0000 -26.0138 0.0000
# 2 44.2211 90.4807 31.5813 0.0000 -18.7909 0.0000
# 3 45.3213 31.5813 121.4155 0.0000 -15.7824 0.0000
# 4 0.0000 0.0000 0.0000 37.7438 0.0000 -4.7148
# 5 -26.0138 -18.7909 -15.7824 0.0000 19.7582 0.0000
# 6 0.0000 0.0000 0.0000 -4.7148 0.0000 28.9207
#
#
#
# Elastic Compliance Matrix: (Units=1/GPa)
#
#
# Indices 1 2 3 4 5 6 
#
# 1 0.014899 -0.003347 -0.002851 0.000000 0.014156 0.000000
# 2 -0.003347 0.015020 -0.001533 0.000000 0.008654 0.000000
# 3 -0.002851 -0.001533 0.010067 0.000000 0.002830 0.000000
# 4 0.000000 0.000000 0.000000 0.027045 0.000000 0.004409
# 5 0.014156 0.008654 0.002830 0.000000 0.079741 0.000000
# 6 0.000000 0.000000 0.000000 0.004409 0.000000 0.035296
#
#
# Mechanical properties :
#
#
# Convention : Reuss Voigt Hill
#
# Bulk Modulus (GPa) = 40.77384 62.73149 51.75266
# Shear Modulus (GPa) = 24.30677 30.69871 27.50274
#
# Velocity S-wave (km/s) = 3.40178 3.82298 3.61851
# Velocity P-wave (km/s) = 5.90265 7.02513 6.48821
#
# Compressibility (1/GPa) = 0.02452553
#
# Stress axis : x y z
#
# Youngs Moduli (GPa) = 67.11803 66.57798 99.33586
#
# Poissons Ratio (x) = 0.22282 0.28319
# Poissons Ratio (y) = 0.22463 0.15225
# Poissons Ratio (z) = 0.19134 0.10204
#
# Static dielectric constant tensor:
#      x y z
#    x 3.756280 0.000000 -0.095810 
#    y 0.000000 3.068650 0.000000 
#    z -0.095810 0.000000 4.114250 
# 
# 
# High freq. dielectric constant tensor:
#      x y z
#    x 1.818500 0.000000 0.001540 
#    y 0.000000 1.817570 0.000000 
#    z 0.001540 0.000000 1.848920 
# 
# From -- ./inp_files/150687.got.cif
#   From: 2010.06.25/outbox.cif.g09.slc.cpg/sg15_76_cif.got.tgz:150687.got - 2010.06.28 07:06:18.
