data_PCOD8143547
_publ_section_title
;
Structure prediction by ZEFSAII (Michael W. Deem and Ramdas Pophale) SiO2 
 PCOD8143547
Probable space group: C 2/C
;
_chemical_formula_sum "Si O2"
_cell_formula_units_Z 48
_cell_length_a 10.678600
_cell_length_b 26.884326
_cell_length_c 19.820803
_cell_angle_alpha 90.000000
_cell_angle_beta 24.373987
_cell_angle_gamma 90.000000
_cell_volume 2348.332759
_symmetry_space_group_name_H-M "C 2/C"
_symmetry_group_IT_number 15
_symmetry_cell_setting 'monoclinic'
loop_
_space_group_symop_operation_xyz
x,y,z
-x,y,1/2-z
-x,-y,-z
x,-y,1/2+z
1/2+x,1/2+y,z
1/2-x,1/2+y,1/2-z
1/2-x,1/2-y,-z
1/2+x,1/2-y,1/2+z
loop_
_atom_site_type_symbol
_atom_site_label
_atom_site_fract_x
_atom_site_fract_y
_atom_site_fract_z
Si Si1 0.140926 0.160552 0.001531
Si Si2 0.731907 0.692019 0.194779
Si Si3 0.673730 0.695241 0.843085
Si Si4 0.777844 0.953811 0.525344
Si Si5 0.070441 0.054104 0.396893
Si Si6 0.660237 0.636716 0.599972
O O1 0.929278 0.193537 0.153353
O O2 0.095689 0.103744 0.047576
O O3 0.036196 0.166338 0.975268
O O4 0.483682 0.178953 0.840289
O O5 0.500000 0.677868 0.250000
O O6 0.861622 0.747082 0.120641
O O7 0.987566 0.649652 0.064282
O O8 0.479341 0.682686 0.872958
O O9 0.942768 0.944155 0.515557
O O10 0.416824 0.949739 0.704118
O O11 0.897155 0.914594 0.411930
O O12 0.878671 0.009698 0.456600
O O13 0.500000 0.631280 0.750000
#
# Coordination Sequence:
#
# PCOD8143547 Si02
#       6
#     8   8   8   8   8   8
#     4  11  22  41  72  96 134 173 225 277 327 402
#     4  12  25  45  65  97 137 184 225 272 337 397
#     4  11  25  41  68 100 133 178 227 274 331 395
#     4  10  22  41  65 101 126 168 220 279 335 390
#     4  10  21  40  70  96 131 165 220 279 332 394
#     4  12  26  44  65  99 142 176 221 280 336 399
#
# _framework density 20.440035000000002
#
# number of rings (size 3 to 8) (size 9 to 14) (size 15 to 20)
#    0.000    1.000    5.000    2.000    4.667    2.000 
#    0.000    1.667    0.000    0.000    0.000    0.000 
#    0.000    0.000    0.000    0.000    0.000    0.000 
#
# Total GULP energy -297653.635138 kJ/mol
# GULP energy per Si atom -12402.234797 kJ/mol
# Density = 2.039351 g / cm^3
# Si number density = 20.440035 Si / 1000 Ang^3
#
#
#
# Elastic Constant Matrix: (Units=GPa)
#
#
# Indices 1 2 3 4 5 6 
#
# 1 100.4388 33.6614 47.8491 -0.0092 7.4461 0.0059
# 2 33.6614 118.6062 30.4458 -0.1751 -7.4217 0.0515
# 3 47.8491 30.4458 105.9529 -0.5805 22.9582 0.0337
# 4 -0.0092 -0.1751 -0.5805 31.2966 -0.0327 -4.7347
# 5 7.4461 -7.4217 22.9582 -0.0327 26.3400 -0.0425
# 6 0.0059 0.0515 0.0337 -4.7347 -0.0425 36.0108
#
#
#
# Elastic Compliance Matrix: (Units=1/GPa)
#
#
# Indices 1 2 3 4 5 6 
#
# 1 0.013296 -0.002377 -0.005378 -0.000110 0.000259 -0.000008
# 2 -0.002377 0.010359 -0.003306 0.000002 0.006472 -0.000003
# 3 -0.005378 -0.003306 0.015646 0.000258 -0.013048 0.000009
# 4 -0.000110 0.000002 0.000258 0.032605 -0.000146 0.004287
# 5 0.000259 0.006472 -0.013048 -0.000146 0.051088 0.000044
# 6 -0.000008 -0.000003 0.000009 0.004287 0.000044 0.028333
#
#
# Mechanical properties :
#
#
# Convention : Reuss Voigt Hill
#
# Bulk Modulus (GPa) = 58.21075 60.99007 59.60041
# Shear Modulus (GPa) = 27.90562 32.93225 30.41893
#
# Velocity S-wave (km/s) = 3.69893 4.01829 3.86191
# Velocity P-wave (km/s) = 6.83984 7.17162 7.00769
#
# Compressibility (1/GPa) = 0.01717896
#
# Stress axis : x y z
#
# Youngs Moduli (GPa) = 75.21115 96.53053 63.91576
#
# Poissons Ratio (x) = 0.22944 0.34376
# Poissons Ratio (y) = 0.17876 0.21129
# Poissons Ratio (z) = 0.40451 0.31911
#
# Static dielectric constant tensor:
#      x y z
#    x 3.680340 0.000210 0.042840 
#    y 0.000210 3.794490 0.000970 
#    z 0.042840 0.000970 3.640750 
# 
# 
# High freq. dielectric constant tensor:
#      x y z
#    x 1.787010 0.000010 -0.001230 
#    y 0.000010 1.809240 0.000080 
#    z -0.001230 0.000080 1.801870 
# 
# From -- ./inp_files/241043.got.cif
#   From: 2010.06.25/outbox.cif.g09.slc.cpg/sg15_121_cif.got.tgz:241043.got - 2010.06.28 07:06:18.
