data_PCOD8143691
_publ_section_title
;
Structure prediction by ZEFSAII (Michael W. Deem and Ramdas Pophale) SiO2 
 PCOD8143691
Probable space group: C 2/C
;
_chemical_formula_sum "Si O2"
_cell_formula_units_Z 48
_cell_length_a 11.515394
_cell_length_b 15.693196
_cell_length_c 13.720474
_cell_angle_alpha 90.000000
_cell_angle_beta 116.526344
_cell_angle_gamma 90.000000
_cell_volume 2218.456326
_symmetry_space_group_name_H-M "C 2/C"
_symmetry_group_IT_number 15
_symmetry_cell_setting 'monoclinic'
loop_
_space_group_symop_operation_xyz
x,y,z
-x,y,1/2-z
-x,-y,-z
x,-y,1/2+z
1/2+x,1/2+y,z
1/2-x,1/2+y,1/2-z
1/2-x,1/2-y,-z
1/2+x,1/2-y,1/2+z
loop_
_atom_site_type_symbol
_atom_site_label
_atom_site_fract_x
_atom_site_fract_y
_atom_site_fract_z
Si Si1 0.409086 0.627308 0.448088
Si Si2 0.432729 0.906591 0.125512
Si Si3 0.235399 0.465594 0.030412
Si Si4 0.831416 0.307137 0.370803
Si Si5 0.875424 0.017957 0.257008
Si Si6 0.810541 0.863840 0.359089
O O1 0.341811 0.550039 0.483905
O O2 0.330852 0.715342 0.421594
O O3 0.417061 0.600115 0.336567
O O4 0.548570 0.651537 0.544111
O O5 0.500000 0.935338 0.250000
O O6 0.524328 0.839971 0.103895
O O7 0.293298 0.862058 0.091981
O O8 0.401054 0.995644 0.058243
O O9 0.223277 0.372388 0.071074
O O10 0.280127 0.534691 0.129354
O O11 0.735467 0.297106 0.241307
O O12 0.803650 0.954396 0.302704
O O13 0.000000 0.976112 0.250000
#
# Coordination Sequence:
#
# PCOD8143691 Si02
#       6
#     8   8   8   8   8   8
#     4  12  23  41  66  99 131 168 219 281 328 378
#     4  10  21  42  65  88 131 178 217 261 323 391
#     4  11  22  42  66  94 130 171 228 268 316 406
#     4  10  25  39  61  96 137 172 208 268 346 386
#     4  11  21  36  66  95 118 165 218 267 324 378
#     4  10  21  41  63  89 130 167 213 273 313 390
#
# _framework density 21.636665000000001
#
# number of rings (size 3 to 8) (size 9 to 14) (size 15 to 20)
#    0.000    1.333    3.333    2.500    0.000    4.000 
#    3.000    0.000    0.000    0.000    0.000    0.000 
#    0.000    0.000    0.000    0.000    0.000    0.000 
#
# Total GULP energy -297384.522759 kJ/mol
# GULP energy per Si atom -12391.021782 kJ/mol
# Density = 2.158742 g / cm^3
# Si number density = 21.636665 Si / 1000 Ang^3
#
#
#
# Elastic Constant Matrix: (Units=GPa)
#
#
# Indices 1 2 3 4 5 6 
#
# 1 81.4088 1.0678 32.2832 0.0000 0.4813 0.0000
# 2 1.0678 53.9950 52.0268 0.0000 7.1164 0.0000
# 3 32.2832 52.0268 141.0279 0.0000 12.2999 0.0000
# 4 0.0000 0.0000 0.0000 27.6456 0.0000 -1.0416
# 5 0.4813 7.1164 12.2999 0.0000 36.0785 0.0000
# 6 0.0000 0.0000 0.0000 -1.0416 0.0000 20.2385
#
#
#
# Elastic Compliance Matrix: (Units=1/GPa)
#
#
# Indices 1 2 3 4 5 6 
#
# 1 0.014170 0.004368 -0.004909 0.000000 0.000623 0.000000
# 2 0.004368 0.030238 -0.011986 0.000000 -0.001936 0.000000
# 3 -0.004909 -0.011986 0.012805 0.000000 -0.001936 0.000000
# 4 0.000000 0.000000 0.000000 0.036242 0.000000 0.001865
# 5 0.000623 -0.001936 -0.001936 0.000000 0.028751 0.000000
# 6 0.000000 0.000000 0.000000 0.001865 0.000000 0.049507
#
#
# Mechanical properties :
#
#
# Convention : Reuss Voigt Hill
#
# Bulk Modulus (GPa) = 31.09639 49.68749 40.39194
# Shear Modulus (GPa) = 24.09778 29.52945 26.81362
#
# Velocity S-wave (km/s) = 3.34091 3.69831 3.52414
# Velocity P-wave (km/s) = 5.41161 6.42269 5.93871
#
# Compressibility (1/GPa) = 0.03215807
#
# Stress axis : x y z
#
# Youngs Moduli (GPa) = 70.57387 33.07046 78.09234
#
# Poissons Ratio (x) = -0.14445 0.38339
# Poissons Ratio (y) = -0.30827 0.93604
# Poissons Ratio (z) = 0.34647 0.39639
#
# Static dielectric constant tensor:
#      x y z
#    x 3.940260 0.000000 -0.028810 
#    y 0.000000 3.465020 0.000000 
#    z -0.028810 0.000000 4.410630 
# 
# 
# High freq. dielectric constant tensor:
#      x y z
#    x 1.852730 0.000000 -0.004240 
#    y 0.000000 1.810200 0.000000 
#    z -0.004240 0.000000 1.872560 
# 
# From -- ./inp_files/89156.got.cif
#   From: 2010.06.25/outbox.cif.g09.slc.cpg/sg15_45_cif.got.tgz:89156.got - 2010.06.28 07:06:18.
