data_PCOD8143461
_publ_section_title
;
Structure prediction by ZEFSAII (Michael W. Deem and Ramdas Pophale) SiO2 
 PCOD8143461
Probable space group: C 2/C
;
_chemical_formula_sum "Si O2"
_cell_formula_units_Z 48
_cell_length_a 30.987228
_cell_length_b 14.458476
_cell_length_c 14.935128
_cell_angle_alpha 90.000000
_cell_angle_beta 19.552296
_cell_angle_gamma 90.000000
_cell_volume 2239.377039
_symmetry_space_group_name_H-M "C 2/C"
_symmetry_group_IT_number 15
_symmetry_cell_setting 'monoclinic'
loop_
_space_group_symop_operation_xyz
x,y,z
-x,y,1/2-z
-x,-y,-z
x,-y,1/2+z
1/2+x,1/2+y,z
1/2-x,1/2+y,1/2-z
1/2-x,1/2-y,-z
1/2+x,1/2-y,1/2+z
loop_
_atom_site_type_symbol
_atom_site_label
_atom_site_fract_x
_atom_site_fract_y
_atom_site_fract_z
Si Si1 0.596189 0.581244 0.830227
Si Si2 0.817247 0.339632 0.821148
Si Si3 0.851573 0.600862 0.055002
Si Si4 0.288494 0.273305 0.065656
Si Si5 0.861537 0.942185 0.048644
Si Si6 0.053203 0.253142 0.417787
O O1 0.739076 0.568644 0.506765
O O2 0.620679 0.597881 0.886738
O O3 0.500000 0.500000 0.000000
O O4 0.540817 0.667026 0.881622
O O5 0.824789 0.342827 0.698842
O O6 0.965705 0.342441 0.564535
O O7 0.750000 0.250000 0.000000
O O8 0.821237 0.672242 0.036391
O O9 0.754125 0.514900 0.234778
O O10 0.000000 0.567347 0.750000
O O11 0.331072 0.353609 0.048287
O O12 0.135223 0.278534 0.345357
O O13 0.360085 0.285545 0.832219
O O14 0.000000 0.986506 0.750000
#
# Coordination Sequence:
#
# PCOD8143461 Si02
#       6
#     8   8   8   8   8   8
#     4  11  22  41  66  99 137 174 225 281 342 415
#     4  10  22  41  66  96 131 177 222 279 342 411
#     4  12  25  45  69 103 137 181 231 288 349 409
#     4  11  22  42  70  94 135 177 227 282 340 416
#     4  12  25  44  70 102 135 181 232 284 344 415
#     4  10  21  40  67  97 126 179 224 273 350 402
#
# _framework density 21.434532000000001
#
# number of rings (size 3 to 8) (size 9 to 14) (size 15 to 20)
#    0.000    1.000    3.333    4.500    0.000    2.667 
#    0.000    5.833    0.000    0.000    0.000    0.000 
#    0.000    0.000    0.000    0.000    0.000    0.000 
#
# Total GULP energy -297333.260664 kJ/mol
# GULP energy per Si atom -12388.885861 kJ/mol
# Density = 2.138575 g / cm^3
# Si number density = 21.434532 Si / 1000 Ang^3
#
#
#
# Elastic Constant Matrix: (Units=GPa)
#
#
# Indices 1 2 3 4 5 6 
#
# 1 106.2782 25.7842 50.2634 0.0000 -21.5852 0.0000
# 2 25.7842 79.8147 57.1245 0.0000 -19.8189 0.0000
# 3 50.2634 57.1245 134.0568 0.0000 -27.8458 0.0000
# 4 0.0000 0.0000 0.0000 40.2545 0.0000 -6.9596
# 5 -21.5852 -19.8189 -27.8458 0.0000 46.3281 0.0000
# 6 0.0000 0.0000 0.0000 -6.9596 0.0000 20.8811
#
#
#
# Elastic Compliance Matrix: (Units=1/GPa)
#
#
# Indices 1 2 3 4 5 6 
#
# 1 0.011865 -0.000480 -0.003586 0.000000 0.003167 0.000000
# 2 -0.000480 0.018568 -0.007003 0.000000 0.003510 0.000000
# 3 -0.003586 -0.007003 0.012362 0.000000 0.002764 0.000000
# 4 0.000000 0.000000 0.000000 0.026361 0.000000 0.008786
# 5 0.003167 0.003510 0.002764 0.000000 0.026224 0.000000
# 6 0.000000 0.000000 0.000000 0.008786 0.000000 0.050818
#
#
# Mechanical properties :
#
#
# Convention : Reuss Voigt Hill
#
# Bulk Modulus (GPa) = 48.40981 65.16598 56.78789
# Shear Modulus (GPa) = 28.53510 33.95793 31.24652
#
# Velocity S-wave (km/s) = 3.65261 3.98460 3.82221
# Velocity P-wave (km/s) = 6.35789 7.18594 6.78456
#
# Compressibility (1/GPa) = 0.02065697
#
# Stress axis : x y z
#
# Youngs Moduli (GPa) = 84.28089 53.85636 80.89005
#
# Poissons Ratio (x) = 0.02584 0.29010
# Poissons Ratio (y) = 0.04043 0.56648
# Poissons Ratio (z) = 0.30226 0.37716
#
# Static dielectric constant tensor:
#      x y z
#    x 3.972310 0.000000 -0.720630 
#    y 0.000000 4.618980 0.000000 
#    z -0.720630 0.000000 3.932000 
# 
# 
# High freq. dielectric constant tensor:
#      x y z
#    x 1.848560 0.000000 -0.009640 
#    y 0.000000 1.817420 0.000000 
#    z -0.009640 0.000000 1.867540 
# 
# From -- ./inp_files/182405.got.cif
#   From: 2010.06.25/outbox.cif.g09.slc.cpg/sg15_92_cif.got.tgz:182405.got - 2010.06.28 07:06:18.
