data_PCOD8143481
_publ_section_title
;
Structure prediction by ZEFSAII (Michael W. Deem and Ramdas Pophale) SiO2 
 PCOD8143481
Probable space group: C 2/C
;
_chemical_formula_sum "Si O2"
_cell_formula_units_Z 60
_cell_length_a 14.783717
_cell_length_b 11.509851
_cell_length_c 17.918923
_cell_angle_alpha 90.000000
_cell_angle_beta 70.259806
_cell_angle_gamma 90.000000
_cell_volume 2869.873643
_symmetry_space_group_name_H-M "C 2/C"
_symmetry_group_IT_number 15
_symmetry_cell_setting 'monoclinic'
loop_
_space_group_symop_operation_xyz
x,y,z
-x,y,1/2-z
-x,-y,-z
x,-y,1/2+z
1/2+x,1/2+y,z
1/2-x,1/2+y,1/2-z
1/2-x,1/2-y,-z
1/2+x,1/2-y,1/2+z
loop_
_atom_site_type_symbol
_atom_site_label
_atom_site_fract_x
_atom_site_fract_y
_atom_site_fract_z
Si Si1 0.113727 0.368851 0.806374
Si Si2 0.792345 0.616972 0.072488
Si Si3 0.000000 0.812847 0.250000
Si Si4 0.793143 0.787774 0.664028
Si Si5 0.903408 0.616647 0.742866
Si Si6 0.610445 0.462663 0.970332
Si Si7 0.827465 0.106001 0.886393
Si Si8 0.778176 0.366366 0.415567
O O1 0.122301 0.359035 0.893526
O O2 0.040135 0.268824 0.804316
O O3 0.217335 0.352561 0.738479
O O4 0.069043 0.494443 0.802194
O O5 0.731872 0.507956 0.118702
O O6 0.721613 0.727407 0.089537
O O7 0.832715 0.595746 0.977242
O O8 0.919363 0.895727 0.306581
O O9 0.856667 0.701686 0.696043
O O10 0.864705 0.880326 0.606566
O O11 0.736826 0.719169 0.614157
O O12 0.831859 0.582800 0.829629
O O13 0.000000 0.674109 0.750000
O O14 0.670813 0.581548 0.947899
O O15 0.500000 0.500000 0.000000
O O16 0.638298 0.393073 0.037642
#
# Coordination Sequence:
#
# PCOD8143481 Si02
#       8
#     8   8   4   8   8   8   8   8
#     4  11  21  41  66  93 127 179 212 271 333 395
#     4  10  21  40  68  90 126 181 214 259 344 385
#     4  10  24  40  66  98 134 172 226 280 320 398
#     4  11  23  42  68  90 131 176 219 269 333 393
#     4  12  24  42  65  98 131 168 225 274 329 392
#     4  11  25  42  68 100 135 173 220 277 332 395
#     4  10  23  42  66  98 132 174 222 272 331 394
#     4  10  23  43  65  92 138 176 211 277 332 393
#
# _framework density 20.906845000000001
#
# number of rings (size 3 to 8) (size 9 to 14) (size 15 to 20)
#    0.000    1.333    4.667    0.400    1.867    4.267 
#    1.200    0.667    0.000    0.000    0.000    0.000 
#    0.000    0.000    0.000    0.000    0.000    0.000 
#
# Total GULP energy -372044.133290 kJ/mol
# GULP energy per Si atom -12401.471110 kJ/mol
# Density = 2.085926 g / cm^3
# Si number density = 20.906845 Si / 1000 Ang^3
#
#
#
# Elastic Constant Matrix: (Units=GPa)
#
#
# Indices 1 2 3 4 5 6 
#
# 1 100.4450 4.7873 35.8710 0.0000 20.3899 0.0000
# 2 4.7873 70.1727 22.5259 0.0000 6.0074 0.0000
# 3 35.8710 22.5259 79.2512 0.0000 18.3313 0.0000
# 4 0.0000 0.0000 0.0000 30.2471 0.0000 2.0369
# 5 20.3899 6.0074 18.3313 0.0000 40.1781 0.0000
# 6 0.0000 0.0000 0.0000 2.0369 0.0000 19.3777
#
#
#
# Elastic Compliance Matrix: (Units=1/GPa)
#
#
# Indices 1 2 3 4 5 6 
#
# 1 0.012557 0.001118 -0.005018 0.000000 -0.004250 0.000000
# 2 0.001118 0.015785 -0.004825 0.000000 -0.000726 0.000000
# 3 -0.005018 -0.004825 0.017334 0.000000 -0.004641 0.000000
# 4 0.000000 0.000000 0.000000 0.033297 0.000000 -0.003500
# 5 -0.004250 -0.000726 -0.004641 0.000000 0.029272 0.000000
# 6 0.000000 0.000000 0.000000 -0.003500 0.000000 0.051974
#
#
# Mechanical properties :
#
#
# Convention : Reuss Voigt Hill
#
# Bulk Modulus (GPa) = 35.42746 41.80415 38.61580
# Shear Modulus (GPa) = 26.72676 30.40623 28.56650
#
# Velocity S-wave (km/s) = 3.57931 3.81775 3.70046
# Velocity P-wave (km/s) = 5.83645 6.28271 6.06369
#
# Compressibility (1/GPa) = 0.02822669
#
# Stress axis : x y z
#
# Youngs Moduli (GPa) = 79.63438 63.35030 57.68890
#
# Poissons Ratio (x) = -0.07083 0.28951
# Poissons Ratio (y) = -0.08904 0.27834
# Poissons Ratio (z) = 0.39964 0.30565
#
# Static dielectric constant tensor:
#      x y z
#    x 3.763580 0.000000 0.260820 
#    y 0.000000 3.715550 0.000000 
#    z 0.260820 0.000000 3.840850 
# 
# 
# High freq. dielectric constant tensor:
#      x y z
#    x 1.816460 0.000000 0.021610 
#    y 0.000000 1.823610 0.000000 
#    z 0.021610 0.000000 1.817800 
# 
# From -- ./inp_files/243689.got.cif
#   From: 2010.06.25/outbox.cif.g09.slc.cpg/sg15_122_cif.got.tgz:243689.got - 2010.06.28 07:06:18.
