data_PCOD8143599
_publ_section_title
;
Structure prediction by ZEFSAII (Michael W. Deem and Ramdas Pophale) SiO2 
 PCOD8143599
Probable space group: C 2/C
;
_chemical_formula_sum "Si O2"
_cell_formula_units_Z 60
_cell_length_a 16.000748
_cell_length_b 12.339181
_cell_length_c 16.374698
_cell_angle_alpha 90.000000
_cell_angle_beta 118.827275
_cell_angle_gamma 90.000000
_cell_volume 2832.320011
_symmetry_space_group_name_H-M "C 2/C"
_symmetry_group_IT_number 15
_symmetry_cell_setting 'monoclinic'
loop_
_space_group_symop_operation_xyz
x,y,z
-x,y,1/2-z
-x,-y,-z
x,-y,1/2+z
1/2+x,1/2+y,z
1/2-x,1/2+y,1/2-z
1/2-x,1/2-y,-z
1/2+x,1/2-y,1/2+z
loop_
_atom_site_type_symbol
_atom_site_label
_atom_site_fract_x
_atom_site_fract_y
_atom_site_fract_z
Si Si1 0.406462 0.783311 0.570236
Si Si2 0.464573 0.385673 0.451161
Si Si3 0.326230 0.479644 0.270593
Si Si4 0.331470 0.080730 0.680498
Si Si5 0.889367 0.187258 0.215226
Si Si6 0.000000 0.586331 0.250000
Si Si7 0.684791 0.604646 0.484688
Si Si8 0.774887 0.110037 0.576161
O O1 0.455822 0.707168 0.524630
O O2 0.487815 0.840927 0.662927
O O3 0.337401 0.871254 0.494792
O O4 0.337011 0.718102 0.598284
O O5 0.500000 0.500000 0.500000
O O6 0.416895 0.407143 0.340032
O O7 0.390046 0.346637 0.485167
O O8 0.253472 0.475916 0.310784
O O9 0.357153 0.604093 0.270371
O O10 0.276548 0.429607 0.169107
O O11 0.373043 0.190769 0.740675
O O12 0.291788 0.114068 0.572049
O O13 0.409359 0.988944 0.715183
O O14 0.825520 0.170957 0.103911
O O15 0.000000 0.165254 0.250000
O O16 0.672961 0.476703 0.458630
#
# Coordination Sequence:
#
# PCOD8143599 Si02
#       8
#     8   8   8   8   8   4   8   8
#     4  11  23  37  67  94 133 177 213 274 333 393
#     4  11  21  38  62 101 128 164 222 276 321 388
#     4  10  25  39  66  94 135 161 225 278 327 389
#     4  11  24  45  64  95 131 177 215 277 331 399
#     4  11  23  41  69  96 125 178 220 268 332 391
#     4  12  24  44  66  94 134 176 232 260 338 408
#     4  10  21  41  65  91 132 167 221 270 327 394
#     4  10  21  41  60  96 130 175 213 268 338 389
#
# _framework density 21.184047
#
# number of rings (size 3 to 8) (size 9 to 14) (size 15 to 20)
#    0.000    1.333    3.333    2.000    1.867    5.333 
#    0.000    0.667    0.000    0.000    0.000    0.000 
#    0.000    0.000    0.000    0.000    0.000    0.000 
#
# Total GULP energy -371936.022362 kJ/mol
# GULP energy per Si atom -12397.867412 kJ/mol
# Density = 2.113583 g / cm^3
# Si number density = 21.184047 Si / 1000 Ang^3
#
#
#
# Elastic Constant Matrix: (Units=GPa)
#
#
# Indices 1 2 3 4 5 6 
#
# 1 89.7471 44.1243 35.5970 0.0000 9.2322 0.0000
# 2 44.1243 107.7594 27.0889 0.0000 -1.8895 0.0000
# 3 35.5970 27.0889 92.1475 0.0000 9.2844 0.0000
# 4 0.0000 0.0000 0.0000 13.0476 0.0000 5.7489
# 5 9.2322 -1.8895 9.2844 0.0000 28.5509 0.0000
# 6 0.0000 0.0000 0.0000 5.7489 0.0000 40.9075
#
#
#
# Elastic Compliance Matrix: (Units=1/GPa)
#
#
# Indices 1 2 3 4 5 6 
#
# 1 0.015936 -0.005569 -0.004097 0.000000 -0.004189 0.000000
# 2 -0.005569 0.012045 -0.001707 0.000000 0.003153 0.000000
# 3 -0.004097 -0.001707 0.013249 0.000000 -0.003096 0.000000
# 4 0.000000 0.000000 0.000000 0.081702 0.000000 -0.011482
# 5 -0.004189 0.003153 -0.003096 0.000000 0.037595 0.000000
# 6 0.000000 0.000000 0.000000 -0.011482 0.000000 0.026059
#
#
# Mechanical properties :
#
#
# Convention : Reuss Voigt Hill
#
# Bulk Modulus (GPa) = 54.10270 55.91939 55.01104
# Shear Modulus (GPa) = 23.20253 28.69078 25.94665
#
# Velocity S-wave (km/s) = 3.31310 3.68415 3.50354
# Velocity P-wave (km/s) = 6.34273 6.67469 6.51083
#
# Compressibility (1/GPa) = 0.01848337
#
# Stress axis : x y z
#
# Youngs Moduli (GPa) = 62.74915 83.02386 75.47884
#
# Poissons Ratio (x) = 0.46236 0.30924
# Poissons Ratio (y) = 0.34945 0.12886
# Poissons Ratio (z) = 0.25709 0.14174
#
# Static dielectric constant tensor:
#      x y z
#    x 3.723640 0.000000 0.323960 
#    y 0.000000 3.884210 0.000000 
#    z 0.323960 0.000000 4.202450 
# 
# 
# High freq. dielectric constant tensor:
#      x y z
#    x 1.816410 0.000000 0.013340 
#    y 0.000000 1.834630 0.000000 
#    z 0.013340 0.000000 1.839760 
# 
# From -- ./inp_files/210636.got.cif
#   From: 2010.06.25/outbox.cif.g09.slc.cpg/sg15_106_cif.got.tgz:210636.got - 2010.06.28 07:06:18.
