data_PCOD8143365
_publ_section_title
;
Structure prediction by ZEFSAII (Michael W. Deem and Ramdas Pophale) SiO2 
 PCOD8143365
Probable space group: C 2/C
;
_chemical_formula_sum "Si O2"
_cell_formula_units_Z 40
_cell_length_a 12.839693
_cell_length_b 14.209322
_cell_length_c 12.846304
_cell_angle_alpha 90.000000
_cell_angle_beta 118.637768
_cell_angle_gamma 90.000000
_cell_volume 2057.008471
_symmetry_space_group_name_H-M "C 2/C"
_symmetry_group_IT_number 15
_symmetry_cell_setting 'monoclinic'
loop_
_space_group_symop_operation_xyz
x,y,z
-x,y,1/2-z
-x,-y,-z
x,-y,1/2+z
1/2+x,1/2+y,z
1/2-x,1/2+y,1/2-z
1/2-x,1/2-y,-z
1/2+x,1/2-y,1/2+z
loop_
_atom_site_type_symbol
_atom_site_label
_atom_site_fract_x
_atom_site_fract_y
_atom_site_fract_z
Si Si1 0.136747 0.012608 0.300635
Si Si2 0.542727 0.915098 0.087148
Si Si3 0.225602 0.504297 0.832783
Si Si4 0.727424 0.858574 0.013853
Si Si5 0.713324 0.145020 0.996736
O O1 0.162473 0.006607 0.190075
O O2 0.165108 0.915952 0.377924
O O3 0.000000 0.039797 0.250000
O O4 0.225578 0.097654 0.373873
O O5 0.608929 0.960419 0.217086
O O6 0.622944 0.852910 0.048875
O O7 0.429569 0.855781 0.069552
O O8 0.500000 0.000000 0.000000
O O9 0.196114 0.412289 0.890245
O O10 0.266509 0.588468 0.925857
O O11 0.750000 0.750000 0.000000
O O12 0.750000 0.250000 0.000000
#
# Coordination Sequence:
#
# PCOD8143365 Si02
#       5
#     8   8   8   8   8
#     4  10  23  41  57  86 128 163 201 249 311 367
#     4  11  20  42  65  91 121 161 210 251 303 369
#     4  10  21  40  66  83 125 165 201 258 307 351
#     4  10  23  40  62  95 120 160 213 251 302 367
#     4  11  24  38  62  96 119 160 211 252 304 367
#
# _framework density 19.445716000000001
#
# number of rings (size 3 to 8) (size 9 to 14) (size 15 to 20)
#    0.000    1.600    6.000    0.600    0.000   11.200 
#    3.600    0.000    0.000    0.000    0.000    0.000 
#    0.000    0.000    0.000    0.000    0.000    0.000 
#
# Total GULP energy -247829.374086 kJ/mol
# GULP energy per Si atom -12391.468704 kJ/mol
# Density = 1.940146 g / cm^3
# Si number density = 19.445716 Si / 1000 Ang^3
#
#
#
# Elastic Constant Matrix: (Units=GPa)
#
#
# Indices 1 2 3 4 5 6 
#
# 1 149.3609 38.3813 51.1926 0.0000 -5.7940 0.0000
# 2 38.3813 160.9918 44.9926 0.0000 -11.1432 0.0000
# 3 51.1926 44.9926 90.3614 0.0000 -19.5925 0.0000
# 4 0.0000 0.0000 0.0000 14.3865 0.0000 -1.0146
# 5 -5.7940 -11.1432 -19.5925 0.0000 35.9499 0.0000
# 6 0.0000 0.0000 0.0000 -1.0146 0.0000 31.5382
#
#
#
# Elastic Compliance Matrix: (Units=1/GPa)
#
#
# Indices 1 2 3 4 5 6 
#
# 1 0.008458 -0.000801 -0.004707 0.000000 -0.001451 0.000000
# 2 -0.000801 0.007295 -0.003080 0.000000 0.000453 0.000000
# 3 -0.004707 -0.003080 0.016892 0.000000 0.007493 0.000000
# 4 0.000000 0.000000 0.000000 0.069668 0.000000 0.002241
# 5 -0.001451 0.000453 0.007493 0.000000 0.031807 0.000000
# 6 0.000000 0.000000 0.000000 0.002241 0.000000 0.031780
#
#
# Mechanical properties :
#
#
# Convention : Reuss Voigt Hill
#
# Bulk Modulus (GPa) = 64.65225 74.42748 69.53986
# Shear Modulus (GPa) = 26.56300 34.11808 30.34054
#
# Velocity S-wave (km/s) = 3.69996 4.19325 3.95431
# Velocity P-wave (km/s) = 7.18141 7.86143 7.52910
#
# Compressibility (1/GPa) = 0.01546737
#
# Stress axis : x y z
#
# Youngs Moduli (GPa) = 118.22733 137.08679 59.20078
#
# Poissons Ratio (x) = 0.10985 0.27868
# Poissons Ratio (y) = 0.09474 0.18233
# Poissons Ratio (z) = 0.55655 0.42221
#
# Static dielectric constant tensor:
#      x y z
#    x 3.078750 0.000000 -0.289090 
#    y 0.000000 3.450450 0.000000 
#    z -0.289090 0.000000 3.602530 
# 
# 
# High freq. dielectric constant tensor:
#      x y z
#    x 1.763460 0.000000 -0.014280 
#    y 0.000000 1.743120 0.000000 
#    z -0.014280 0.000000 1.769350 
# 
# From -- ./inp_files/86240.got.cif
#   From: 2010.06.25/outbox.cif.g09.slc.cpg/sg15_44_cif.got.tgz:86240.got - 2010.06.28 07:06:18.
