data_PCOD8143812
_publ_section_title
;
Structure prediction by ZEFSAII (Michael W. Deem and Ramdas Pophale) SiO2 
 PCOD8143812
Probable space group: C 2/C
;
_chemical_formula_sum "Si O2"
_cell_formula_units_Z 40
_cell_length_a 12.555146
_cell_length_b 12.740498
_cell_length_c 12.326641
_cell_angle_alpha 90.000000
_cell_angle_beta 65.070696
_cell_angle_gamma 90.000000
_cell_volume 1788.043610
_symmetry_space_group_name_H-M "C 2/C"
_symmetry_group_IT_number 15
_symmetry_cell_setting 'monoclinic'
loop_
_space_group_symop_operation_xyz
x,y,z
-x,y,1/2-z
-x,-y,-z
x,-y,1/2+z
1/2+x,1/2+y,z
1/2-x,1/2+y,1/2-z
1/2-x,1/2-y,-z
1/2+x,1/2-y,1/2+z
loop_
_atom_site_type_symbol
_atom_site_label
_atom_site_fract_x
_atom_site_fract_y
_atom_site_fract_z
Si Si1 0.689895 0.905111 0.450950
Si Si2 0.814461 0.058480 0.544923
Si Si3 0.564573 0.368613 0.908688
Si Si4 0.403647 0.736132 0.879865
Si Si5 0.382120 0.837106 0.236816
O O1 0.610228 0.858887 0.583207
O O2 0.784051 0.812752 0.384247
O O3 0.620304 0.915745 0.367005
O O4 0.744456 0.012310 0.471163
O O5 0.929310 0.106496 0.437102
O O6 0.732057 0.144654 0.638389
O O7 0.852277 0.971953 0.620145
O O8 0.616180 0.284968 0.801287
O O9 0.554787 0.326463 0.033744
O O10 0.500000 0.721455 0.750000
O O11 0.500000 0.866638 0.250000
#
# Coordination Sequence:
#
# PCOD8143812 Si02
#       5
#     8   8   8   8   8
#     4   9  20  36  56  87 118 154 203 241 294 370
#     4  10  21  41  65  90 124 161 204 254 303 369
#     4   9  21  40  65  94 119 157 208 251 305 369
#     4   9  16  33  62  88 115 149 191 249 303 354
#     4  11  24  40  60  90 126 162 204 257 310 356
#
# _framework density 22.370818
#
# number of rings (size 3 to 8) (size 9 to 14) (size 15 to 20)
#    0.000    2.400    0.000    2.400    0.000    4.000 
#    0.000    6.000    0.000    0.000    0.000    0.000 
#    0.000    0.000    0.000    0.000    0.000    0.000 
#
# Total GULP energy -247908.147055 kJ/mol
# GULP energy per Si atom -12395.407353 kJ/mol
# Density = 2.231990 g / cm^3
# Si number density = 22.370818 Si / 1000 Ang^3
#
#
#
# Elastic Constant Matrix: (Units=GPa)
#
#
# Indices 1 2 3 4 5 6 
#
# 1 99.7518 56.5366 48.0897 0.0000 15.3037 0.0000
# 2 56.5366 87.9397 38.8721 0.0000 -7.2580 0.0000
# 3 48.0897 38.8721 86.9355 0.0000 0.7571 0.0000
# 4 0.0000 0.0000 0.0000 32.2283 0.0000 -1.3802
# 5 15.3037 -7.2580 0.7571 0.0000 39.8821 0.0000
# 6 0.0000 0.0000 0.0000 -1.3802 0.0000 31.7280
#
#
#
# Elastic Compliance Matrix: (Units=1/GPa)
#
#
# Indices 1 2 3 4 5 6 
#
# 1 0.021348 -0.011698 -0.006490 0.000000 -0.010197 0.000000
# 2 -0.011698 0.020879 -0.002938 0.000000 0.008344 0.000000
# 3 -0.006490 -0.002938 0.016392 0.000000 0.001644 0.000000
# 4 0.000000 0.000000 0.000000 0.031087 0.000000 0.001352
# 5 -0.010197 0.008344 0.001644 0.000000 0.030474 0.000000
# 6 0.000000 0.000000 0.000000 0.001352 0.000000 0.031577
#
#
# Mechanical properties :
#
#
# Convention : Reuss Voigt Hill
#
# Bulk Modulus (GPa) = 61.09185 62.40264 61.74725
# Shear Modulus (GPa) = 25.06736 29.50958 27.28847
#
# Velocity S-wave (km/s) = 3.35108 3.63590 3.49639
# Velocity P-wave (km/s) = 6.50699 6.75141 6.63033
#
# Compressibility (1/GPa) = 0.01636880
#
# Stress axis : x y z
#
# Youngs Moduli (GPa) = 46.84323 47.89475 61.00573
#
# Poissons Ratio (x) = 0.56025 0.39590
# Poissons Ratio (y) = 0.54795 0.17922
# Poissons Ratio (z) = 0.30400 0.14071
#
# Static dielectric constant tensor:
#      x y z
#    x 4.382060 0.000000 0.171510 
#    y 0.000000 3.973830 0.000000 
#    z 0.171510 0.000000 3.777440 
# 
# 
# High freq. dielectric constant tensor:
#      x y z
#    x 1.891240 0.000000 0.009150 
#    y 0.000000 1.861500 0.000000 
#    z 0.009150 0.000000 1.867730 
# 
# From -- ./inp_files/37789.got.cif
#   From: 2010.06.25/outbox.cif.g09.slc.cpg/sg15_19_cif.got.tgz:37789.got - 2010.06.28 07:06:18.
