data_PCOD8143395
_publ_section_title
;
Structure prediction by ZEFSAII (Michael W. Deem and Ramdas Pophale) SiO2 
 PCOD8143395
Probable space group: C 2/C
;
_chemical_formula_sum "Si O2"
_cell_formula_units_Z 64
_cell_length_a 28.159639
_cell_length_b 8.592723
_cell_length_c 16.309701
_cell_angle_alpha 90.000000
_cell_angle_beta 128.910254
_cell_angle_gamma 90.000000
_cell_volume 3070.834939
_symmetry_space_group_name_H-M "C 2/C"
_symmetry_group_IT_number 15
_symmetry_cell_setting 'monoclinic'
loop_
_space_group_symop_operation_xyz
x,y,z
-x,y,1/2-z
-x,-y,-z
x,-y,1/2+z
1/2+x,1/2+y,z
1/2-x,1/2+y,1/2-z
1/2-x,1/2-y,-z
1/2+x,1/2-y,1/2+z
loop_
_atom_site_type_symbol
_atom_site_label
_atom_site_fract_x
_atom_site_fract_y
_atom_site_fract_z
Si Si1 0.560103 0.598345 0.083316
Si Si2 0.933297 0.358117 0.707167
Si Si3 0.233434 0.353772 0.344329
Si Si4 0.140490 0.138636 0.759700
Si Si5 0.245682 0.319358 0.785361
Si Si6 0.901283 0.309687 0.235696
Si Si7 0.372303 0.709807 0.494877
Si Si8 0.340134 0.564994 0.069603
O O1 0.613404 0.475791 0.161822
O O2 0.553490 0.719560 0.152181
O O3 0.578350 0.701049 0.024350
O O4 0.500000 0.500000 0.000000
O O5 0.913159 0.241362 0.757524
O O6 0.933563 0.534078 0.740294
O O7 0.889533 0.340504 0.580538
O O8 0.000000 0.308340 0.750000
O O9 0.245417 0.497118 0.296802
O O10 0.253824 0.205843 0.312106
O O11 0.163082 0.346229 0.291587
O O12 0.275451 0.364478 0.470529
O O13 0.187132 0.252522 0.767163
O O14 0.174817 0.037240 0.866062
O O15 0.306145 0.242071 0.889797
O O16 0.888398 0.200385 0.143223
O O17 0.371489 0.538546 0.534151
#
# Coordination Sequence:
#
# PCOD8143395 Si02
#       8
#     8   8   8   8   8   8   8   8
#     4  11  23  44  67  88 126 171 226 261 308 389
#     4  11  24  42  62  90 131 167 214 268 320 371
#     4  11  22  38  59  94 131 160 205 258 325 387
#     4  10  21  40  66  93 123 172 211 260 327 379
#     4  11  22  37  64  92 131 160 205 265 327 393
#     4  11  23  42  59  95 125 165 214 266 315 384
#     4  10  22  41  62  94 121 167 212 260 322 387
#     4   9  22  36  63  88 125 163 209 252 321 392
#
# _framework density 20.841239000000002
#
# number of rings (size 3 to 8) (size 9 to 14) (size 15 to 20)
#    0.000    1.500    2.500    2.625    3.500    3.500 
#    0.000    5.000    0.000    0.000    0.000    0.000 
#    0.000    0.000    0.000    0.000    0.000    0.000 
#
# Total GULP energy -396864.960267 kJ/mol
# GULP energy per Si atom -12402.030008 kJ/mol
# Density = 2.079380 g / cm^3
# Si number density = 20.841239 Si / 1000 Ang^3
#
#
#
# Elastic Constant Matrix: (Units=GPa)
#
#
# Indices 1 2 3 4 5 6 
#
# 1 92.2998 7.8875 23.1494 0.0000 0.4242 0.0000
# 2 7.8875 75.4931 32.5181 0.0000 -3.6667 0.0000
# 3 23.1494 32.5181 101.4625 0.0000 1.9552 0.0000
# 4 0.0000 0.0000 0.0000 38.4176 0.0000 -4.4814
# 5 0.4242 -3.6667 1.9552 0.0000 27.1863 0.0000
# 6 0.0000 0.0000 0.0000 -4.4814 0.0000 29.5703
#
#
#
# Elastic Compliance Matrix: (Units=1/GPa)
#
#
# Indices 1 2 3 4 5 6 
#
# 1 0.011492 -0.000083 -0.002595 0.000000 -0.000004 0.000000
# 2 -0.000083 0.015530 -0.005006 0.000000 0.002456 0.000000
# 3 -0.002595 -0.005006 0.012081 0.000000 -0.001504 0.000000
# 4 0.000000 0.000000 0.000000 0.026498 0.000000 0.004016
# 5 -0.000004 0.002456 -0.001504 0.000000 0.037223 0.000000
# 6 0.000000 0.000000 0.000000 0.004016 0.000000 0.034426
#
#
# Mechanical properties :
#
#
# Convention : Reuss Voigt Hill
#
# Bulk Modulus (GPa) = 42.13058 44.04061 43.08560
# Shear Modulus (GPa) = 31.14653 32.74818 31.94735
#
# Velocity S-wave (km/s) = 3.87003 3.96828 3.91946
# Velocity P-wave (km/s) = 6.34258 6.49413 6.41880
#
# Compressibility (1/GPa) = 0.02373573
#
# Stress axis : x y z
#
# Youngs Moduli (GPa) = 87.01471 64.38984 82.77240
#
# Poissons Ratio (x) = 0.00534 0.21483
# Poissons Ratio (y) = 0.00722 0.41434
# Poissons Ratio (z) = 0.22584 0.32232
#
# Static dielectric constant tensor:
#      x y z
#    x 3.534010 0.000000 -0.075560 
#    y 0.000000 3.838830 0.000000 
#    z -0.075560 0.000000 4.004350 
# 
# 
# High freq. dielectric constant tensor:
#      x y z
#    x 1.806440 0.000000 -0.009980 
#    y 0.000000 1.817350 0.000000 
#    z -0.009980 0.000000 1.823150 
# 
# From -- ./inp_files/180830.got.cif
#   From: 2010.06.25/outbox.cif.g09.slc.cpg/sg15_91_cif.got.tgz:180830.got - 2010.06.28 07:06:18.
