data_PCOD8143821
_publ_section_title
;
Structure prediction by ZEFSAII (Michael W. Deem and Ramdas Pophale) SiO2 
 PCOD8143821
Probable space group: C 2/C
;
_chemical_formula_sum "Si O2"
_cell_formula_units_Z 44
_cell_length_a 24.822295
_cell_length_b 13.011264
_cell_length_c 8.984644
_cell_angle_alpha 90.000000
_cell_angle_beta 48.185491
_cell_angle_gamma 90.000000
_cell_volume 2162.706602
_symmetry_space_group_name_H-M "C 2/C"
_symmetry_group_IT_number 15
_symmetry_cell_setting 'monoclinic'
loop_
_space_group_symop_operation_xyz
x,y,z
-x,y,1/2-z
-x,-y,-z
x,-y,1/2+z
1/2+x,1/2+y,z
1/2-x,1/2+y,1/2-z
1/2-x,1/2-y,-z
1/2+x,1/2-y,1/2+z
loop_
_atom_site_type_symbol
_atom_site_label
_atom_site_fract_x
_atom_site_fract_y
_atom_site_fract_z
Si Si1 0.730078 0.760735 0.708709
Si Si2 0.438089 0.075394 0.559044
Si Si3 0.000000 0.749233 0.250000
Si Si4 0.138054 0.121737 0.518282
Si Si5 0.306136 0.454194 0.271327
Si Si6 0.154762 0.442578 0.989483
O O1 0.750000 0.750000 0.500000
O O2 0.805263 0.792960 0.650682
O O3 0.699515 0.650397 0.817716
O O4 0.669889 0.848031 0.849333
O O5 0.473999 0.181034 0.436597
O O6 0.500000 0.000000 0.500000
O O7 0.394380 0.025989 0.502875
O O8 0.386179 0.102112 0.791620
O O9 0.062728 0.824638 0.191832
O O10 0.171763 0.070470 0.602331
O O11 0.132534 0.029089 0.409624
O O12 0.227877 0.506707 0.414353
#
# Coordination Sequence:
#
# PCOD8143821 Si02
#       6
#     8   8   4   8   8   8
#     4   9  19  36  65  93 121 160 213 269 322 376
#     4  12  24  41  63  97 135 167 215 272 342 403
#     4  12  26  42  64  90 140 172 222 268 328 408
#     4  10  23  40  64  93 128 173 212 269 326 383
#     4  10  21  41  65  92 128 165 222 268 322 384
#     4  11  22  40  68  98 126 170 218 280 333 388
#
# _framework density 20.344877
#
# number of rings (size 3 to 8) (size 9 to 14) (size 15 to 20)
#    0.000    1.455    1.818    4.364    5.091    2.182 
#    0.000    4.545    0.000    0.000    0.000    0.000 
#    0.000    0.000    0.000    0.000    0.000    0.000 
#
# Total GULP energy -272745.836841 kJ/mol
# GULP energy per Si atom -12397.538038 kJ/mol
# Density = 2.029857 g / cm^3
# Si number density = 20.344877 Si / 1000 Ang^3
#
#
#
# Elastic Constant Matrix: (Units=GPa)
#
#
# Indices 1 2 3 4 5 6 
#
# 1 86.6012 30.6070 42.0802 0.0000 -11.4458 0.0000
# 2 30.6070 128.7892 66.5574 0.0000 -12.3780 0.0000
# 3 42.0802 66.5574 114.7703 0.0000 -1.8276 0.0000
# 4 0.0000 0.0000 0.0000 51.8779 0.0000 -6.7518
# 5 -11.4458 -12.3780 -1.8276 0.0000 29.0601 0.0000
# 6 0.0000 0.0000 0.0000 -6.7518 0.0000 28.9212
#
#
#
# Elastic Compliance Matrix: (Units=1/GPa)
#
#
# Indices 1 2 3 4 5 6 
#
# 1 0.014897 -0.000348 -0.005174 0.000000 0.005394 0.000000
# 2 -0.000348 0.011666 -0.006567 0.000000 0.004419 0.000000
# 3 -0.005174 -0.006567 0.014356 0.000000 -0.003933 0.000000
# 4 0.000000 0.000000 0.000000 0.019880 0.000000 0.004641
# 5 0.005394 0.004419 -0.003933 0.000000 0.038171 0.000000
# 6 0.000000 0.000000 0.000000 0.004641 0.000000 0.035660
#
#
# Mechanical properties :
#
#
# Convention : Reuss Voigt Hill
#
# Bulk Modulus (GPa) = 59.73677 67.62776 63.68227
# Shear Modulus (GPa) = 30.41543 34.69956 32.55749
#
# Velocity S-wave (km/s) = 3.87071 4.13433 4.00469
# Velocity P-wave (km/s) = 7.02868 7.49020 7.26311
#
# Compressibility (1/GPa) = 0.01674011
#
# Stress axis : x y z
#
# Youngs Moduli (GPa) = 67.12613 85.71907 69.65626
#
# Poissons Ratio (x) = 0.02982 0.36043
# Poissons Ratio (y) = 0.02335 0.45746
# Poissons Ratio (z) = 0.34734 0.56295
#
# Static dielectric constant tensor:
#      x y z
#    x 3.541220 0.000000 -0.112200 
#    y 0.000000 4.421680 0.000000 
#    z -0.112200 0.000000 3.762990 
# 
# 
# High freq. dielectric constant tensor:
#      x y z
#    x 1.783270 0.000000 -0.005000 
#    y 0.000000 1.807100 0.000000 
#    z -0.005000 0.000000 1.791090 
# 
# From -- ./inp_files/47079.got.cif
#   From: 2010.06.25/outbox.cif.g09.slc.cpg/sg15_24_cif.got.tgz:47079.got - 2010.06.28 07:06:18.
