data_PCOD8143906
_publ_section_title
;
Structure prediction by ZEFSAII (Michael W. Deem and Ramdas Pophale) SiO2 
 PCOD8143906
Probable space group: C 2/C
;
_chemical_formula_sum "Si O2"
_cell_formula_units_Z 32
_cell_length_a 16.687155
_cell_length_b 9.530189
_cell_length_c 13.598292
_cell_angle_alpha 90.000000
_cell_angle_beta 36.533614
_cell_angle_gamma 90.000000
_cell_volume 1287.359644
_symmetry_space_group_name_H-M "C 2/C"
_symmetry_group_IT_number 15
_symmetry_cell_setting 'monoclinic'
loop_
_space_group_symop_operation_xyz
x,y,z
-x,y,1/2-z
-x,-y,-z
x,-y,1/2+z
1/2+x,1/2+y,z
1/2-x,1/2+y,1/2-z
1/2-x,1/2-y,-z
1/2+x,1/2-y,1/2+z
loop_
_atom_site_type_symbol
_atom_site_label
_atom_site_fract_x
_atom_site_fract_y
_atom_site_fract_z
Si Si1 0.435382 0.887570 0.423637
Si Si2 0.858754 0.149180 0.940890
Si Si3 0.261924 0.860630 0.397265
Si Si4 0.612072 0.159335 0.922832
O O1 0.580270 0.877297 0.219221
O O2 0.309918 0.790038 0.506938
O O3 0.472363 0.836023 0.498467
O O4 0.388287 0.047817 0.486166
O O5 0.000000 0.173344 0.750000
O O6 0.750000 0.250000 0.000000
O O7 0.869532 0.189575 0.045445
O O8 0.822107 0.985586 0.971592
O O9 0.267174 0.872756 0.273266
#
# Coordination Sequence:
#
# PCOD8143906 Si02
#       4
#     8   8   8   8
#     4   9  20  37  69  91 122 164 236 265 301 372
#     4  12  27  43  65 100 139 170 209 278 344 377
#     4  10  21  41  66  97 125 175 224 258 319 396
#     4   9  21  41  68  91 132 172 225 261 319 392
#
# _framework density 24.857078000000001
#
# number of rings (size 3 to 8) (size 9 to 14) (size 15 to 20)
#    1.500    0.500    0.000    3.000    3.500    3.000 
#    0.000    6.250    0.000    0.000    0.000    0.000 
#    0.000    0.000    0.000    0.000    0.000    0.000 
#
# Total GULP energy -198376.065750 kJ/mol
# GULP energy per Si atom -12398.504109 kJ/mol
# Density = 2.480050 g / cm^3
# Si number density = 24.857078 Si / 1000 Ang^3
#
#
#
# Elastic Constant Matrix: (Units=GPa)
#
#
# Indices 1 2 3 4 5 6 
#
# 1 110.1974 50.8984 51.5522 0.0000 -11.2268 0.0000
# 2 50.8984 146.6260 70.2784 0.0000 -8.4325 0.0000
# 3 51.5522 70.2784 179.8404 0.0000 5.2938 0.0000
# 4 0.0000 0.0000 0.0000 45.4968 0.0000 -0.8814
# 5 -11.2268 -8.4325 5.2938 0.0000 37.9947 0.0000
# 6 0.0000 0.0000 0.0000 -0.8814 0.0000 45.1420
#
#
#
# Elastic Compliance Matrix: (Units=1/GPa)
#
#
# Indices 1 2 3 4 5 6 
#
# 1 0.011799 -0.002762 -0.002397 0.000000 0.003207 0.000000
# 2 -0.002762 0.009249 -0.002871 0.000000 0.001636 0.000000
# 3 -0.002397 -0.002871 0.007440 0.000000 -0.002382 0.000000
# 4 0.000000 0.000000 0.000000 0.021988 0.000000 0.000429
# 5 0.003207 0.001636 -0.002382 0.000000 0.027962 0.000000
# 6 0.000000 0.000000 0.000000 0.000429 0.000000 0.022161
#
#
# Mechanical properties :
#
#
# Convention : Reuss Voigt Hill
#
# Bulk Modulus (GPa) = 80.46971 86.90245 83.68608
# Shear Modulus (GPa) = 41.39056 43.32234 42.35645
#
# Velocity S-wave (km/s) = 4.08504 4.17928 4.13243
# Velocity P-wave (km/s) = 7.39549 7.63710 7.51727
#
# Compressibility (1/GPa) = 0.01242704
#
# Stress axis : x y z
#
# Youngs Moduli (GPa) = 84.75560 108.11989 134.41658
#
# Poissons Ratio (x) = 0.29866 0.32221
# Poissons Ratio (y) = 0.23412 0.38587
# Poissons Ratio (z) = 0.20317 0.31038
#
# Static dielectric constant tensor:
#      x y z
#    x 4.843470 0.000000 0.207960 
#    y 0.000000 4.265970 0.000000 
#    z 0.207960 0.000000 4.423660 
# 
# 
# High freq. dielectric constant tensor:
#      x y z
#    x 2.040590 0.000000 0.022230 
#    y 0.000000 1.980450 0.000000 
#    z 0.022230 0.000000 2.002160 
# 
# From -- ./inp_files/213641.got.cif
#   From: 2010.06.25/outbox.cif.g09.slc.cpg/sg15_107_cif.got.tgz:213641.got - 2010.06.28 07:06:18.
