data_PCOD8143091
_publ_section_title
;
Structure prediction by ZEFSAII (Michael W. Deem and Ramdas Pophale) SiO2 
 PCOD8143091
Probable space group: C 2/C
;
_chemical_formula_sum "Si O2"
_cell_formula_units_Z 40
_cell_length_a 23.638334
_cell_length_b 7.557797
_cell_length_c 18.578625
_cell_angle_alpha 90.000000
_cell_angle_beta 145.304938
_cell_angle_gamma 90.000000
_cell_volume 1889.283620
_symmetry_space_group_name_H-M "C 2/C"
_symmetry_group_IT_number 15
_symmetry_cell_setting 'monoclinic'
loop_
_space_group_symop_operation_xyz
x,y,z
-x,y,1/2-z
-x,-y,-z
x,-y,1/2+z
1/2+x,1/2+y,z
1/2-x,1/2+y,1/2-z
1/2-x,1/2-y,-z
1/2+x,1/2-y,1/2+z
loop_
_atom_site_type_symbol
_atom_site_label
_atom_site_fract_x
_atom_site_fract_y
_atom_site_fract_z
Si Si1 0.467764 0.090514 0.638390
Si Si2 0.150822 0.105207 0.556991
Si Si3 0.455413 0.312686 0.127258
Si Si4 0.622354 0.918281 0.176133
Si Si5 0.038376 0.216744 0.568010
O O1 0.500000 0.159748 0.750000
O O2 0.383612 0.216966 0.518840
O O3 0.566670 0.093734 0.694057
O O4 0.422470 0.892147 0.595549
O O5 0.263771 0.132838 0.696479
O O6 0.081678 0.071355 0.556766
O O7 0.138386 0.937330 0.490662
O O8 0.500000 0.374310 0.250000
O O9 0.538268 0.346673 0.151069
O O10 0.612717 0.116402 0.134896
O O11 0.573348 0.781567 0.068459
#
# Coordination Sequence:
#
# PCOD8143091 Si02
#       5
#     8   8   8   8   8
#     4   9  20  41  59  84 130 157 184 250 304 335
#     4  11  21  36  65  90 112 160 206 236 287 366
#     4  10  21  40  62  85 123 159 192 244 297 351
#     4   9  20  37  61  88 120 151 202 247 285 355
#     4   9  20  40  57  86 125 152 189 255 299 330
#
# _framework density 21.172045000000001
#
# number of rings (size 3 to 8) (size 9 to 14) (size 15 to 20)
#    0.000    2.400    0.000    2.400    2.800    0.800 
#    0.000   13.000    0.000    0.000    0.000    0.000 
#    0.000    0.000    0.000    0.000    0.000    0.000 
#
# Total GULP energy -247993.542172 kJ/mol
# GULP energy per Si atom -12399.677109 kJ/mol
# Density = 2.112386 g / cm^3
# Si number density = 21.172045 Si / 1000 Ang^3
#
#
#
# Elastic Constant Matrix: (Units=GPa)
#
#
# Indices 1 2 3 4 5 6 
#
# 1 85.9754 21.8785 69.2155 0.0000 -25.1310 0.0000
# 2 21.8785 77.5385 48.0139 0.0000 -5.3552 0.0000
# 3 69.2155 48.0139 158.0368 0.0000 1.8298 0.0000
# 4 0.0000 0.0000 0.0000 17.0448 0.0000 -13.5098
# 5 -25.1310 -5.3552 1.8298 0.0000 42.8500 0.0000
# 6 0.0000 0.0000 0.0000 -13.5098 0.0000 21.6485
#
#
#
# Elastic Compliance Matrix: (Units=1/GPa)
#
#
# Indices 1 2 3 4 5 6 
#
# 1 0.025101 0.001103 -0.011506 0.000000 0.015350 0.000000
# 2 0.001103 0.016142 -0.005421 0.000000 0.002895 0.000000
# 3 -0.011506 -0.005421 0.013106 0.000000 -0.007985 0.000000
# 4 0.000000 0.000000 0.000000 0.116091 0.000000 0.072446
# 5 0.015350 0.002895 -0.007985 0.000000 0.033043 0.000000
# 6 0.000000 0.000000 0.000000 0.072446 0.000000 0.091403
#
#
# Mechanical properties :
#
#
# Convention : Reuss Voigt Hill
#
# Bulk Modulus (GPa) = 44.05101 66.64073 55.34587
# Shear Modulus (GPa) = 14.96551 28.47152 21.71852
#
# Velocity S-wave (km/s) = 2.66155 3.67109 3.20630
# Velocity P-wave (km/s) = 5.50423 7.03657 6.31704
#
# Compressibility (1/GPa) = 0.02270095
#
# Stress axis : x y z
#
# Youngs Moduli (GPa) = 39.83926 61.94890 76.29896
#
# Poissons Ratio (x) = -0.06830 0.87791
# Poissons Ratio (y) = -0.04392 0.41359
# Poissons Ratio (z) = 0.45840 0.33581
#
# Static dielectric constant tensor:
#      x y z
#    x 3.809950 0.000000 -0.426170 
#    y 0.000000 3.996840 0.000000 
#    z -0.426170 0.000000 3.618850 
# 
# 
# High freq. dielectric constant tensor:
#      x y z
#    x 1.818790 0.000000 -0.031270 
#    y 0.000000 1.847000 0.000000 
#    z -0.031270 0.000000 1.812610 
# 
# From -- ./inp_files/109560.got.cif
#   From: 2010.06.25/outbox.cif.g09.slc.cpg/sg15_55_cif.got.tgz:109560.got - 2010.06.28 07:06:18.
