data_PCOD8143578
_publ_section_title
;
Structure prediction by ZEFSAII (Michael W. Deem and Ramdas Pophale) SiO2 
 PCOD8143578
Probable space group: C 2/C
;
_chemical_formula_sum "Si O2"
_cell_formula_units_Z 56
_cell_length_a 9.163874
_cell_length_b 28.198571
_cell_length_c 10.074661
_cell_angle_alpha 90.000000
_cell_angle_beta 106.302070
_cell_angle_gamma 90.000000
_cell_volume 2498.706248
_symmetry_space_group_name_H-M "C 2/C"
_symmetry_group_IT_number 15
_symmetry_cell_setting 'monoclinic'
loop_
_space_group_symop_operation_xyz
x,y,z
-x,y,1/2-z
-x,-y,-z
x,-y,1/2+z
1/2+x,1/2+y,z
1/2-x,1/2+y,1/2-z
1/2-x,1/2-y,-z
1/2+x,1/2-y,1/2+z
loop_
_atom_site_type_symbol
_atom_site_label
_atom_site_fract_x
_atom_site_fract_y
_atom_site_fract_z
Si Si1 0.890115 0.669663 0.355903
Si Si2 0.772453 0.343374 0.504723
Si Si3 0.157966 0.673992 0.858644
Si Si4 0.327769 0.264914 0.205103
Si Si5 0.328500 0.400203 0.261134
Si Si6 0.394022 0.501811 0.346104
Si Si7 0.346775 0.603616 0.294624
O O1 0.874326 0.690859 0.499521
O O2 0.832854 0.707666 0.225782
O O3 0.788974 0.622701 0.330646
O O4 0.065147 0.654239 0.377503
O O5 0.742463 0.288797 0.447874
O O6 0.780443 0.379677 0.382298
O O7 0.642436 0.362913 0.571545
O O8 0.228638 0.719357 0.804598
O O9 0.283622 0.631511 0.877900
O O10 0.000000 0.658617 0.750000
O O11 0.500000 0.284861 0.250000
O O12 0.500000 0.394586 0.250000
O O13 0.293792 0.454388 0.297562
O O14 0.500000 0.508475 0.250000
O O15 0.500000 0.500000 0.500000
O O16 0.297944 0.550447 0.328426
O O17 0.500000 0.606479 0.250000
#
# Coordination Sequence:
#
# PCOD8143578 Si02
#       7
#     8   8   8   8   8   8   8
#     4  12  26  44  66  95 142 171 220 282 336 394
#     4  11  23  48  66  94 138 181 220 268 349 402
#     4  11  22  44  66 101 134 172 221 277 334 394
#     4  11  25  43  70  91 126 183 227 268 325 408
#     4  10  21  40  76  96 130 186 222 265 327 415
#     4  10  22  41  67 104 140 171 225 282 333 393
#     4  11  26  41  69 103 132 171 223 289 330 387
#
# _framework density 22.411598000000001
#
# number of rings (size 3 to 8) (size 9 to 14) (size 15 to 20)
#    0.000    1.143    2.857    5.143    8.000    2.857 
#    0.000    2.143    0.000    0.000    0.000    0.000 
#    0.000    0.000    0.000    0.000    0.000    0.000 
#
# Total GULP energy -346871.326663 kJ/mol
# GULP energy per Si atom -12388.261667 kJ/mol
# Density = 2.236059 g / cm^3
# Si number density = 22.411598 Si / 1000 Ang^3
#
#
#
# Elastic Constant Matrix: (Units=GPa)
#
#
# Indices 1 2 3 4 5 6 
#
# 1 112.1327 47.4970 18.0993 0.0000 -1.0608 0.0000
# 2 47.4970 179.5133 50.4056 0.0000 13.3852 0.0000
# 3 18.0993 50.4056 98.4541 0.0000 4.8505 0.0000
# 4 0.0000 0.0000 0.0000 19.9891 0.0000 -0.8277
# 5 -1.0608 13.3852 4.8505 0.0000 46.1792 0.0000
# 6 0.0000 0.0000 0.0000 -0.8277 0.0000 27.5877
#
#
#
# Elastic Compliance Matrix: (Units=1/GPa)
#
#
# Indices 1 2 3 4 5 6 
#
# 1 0.010120 -0.002591 -0.000585 0.000000 0.001045 0.000000
# 2 -0.002591 0.007281 -0.003161 0.000000 -0.001838 0.000000
# 3 -0.000585 -0.003161 0.011900 0.000000 -0.000347 0.000000
# 4 0.000000 0.000000 0.000000 0.050090 0.000000 0.001503
# 5 0.001045 -0.001838 -0.000347 0.000000 0.022248 0.000000
# 6 0.000000 0.000000 0.000000 0.001503 0.000000 0.036293
#
#
# Mechanical properties :
#
#
# Convention : Reuss Voigt Hill
#
# Bulk Modulus (GPa) = 60.14546 69.12267 64.63406
# Shear Modulus (GPa) = 32.02099 37.02438 34.52269
#
# Velocity S-wave (km/s) = 3.78401 4.06891 3.92904
# Velocity P-wave (km/s) = 6.78134 7.27901 7.03458
#
# Compressibility (1/GPa) = 0.01662636
#
# Stress axis : x y z
#
# Youngs Moduli (GPa) = 98.81486 137.34885 84.03458
#
# Poissons Ratio (x) = 0.35590 0.04918
# Poissons Ratio (y) = 0.25605 0.26560
# Poissons Ratio (z) = 0.05783 0.43411
#
# Static dielectric constant tensor:
#      x y z
#    x 4.024560 0.000000 -0.257790 
#    y 0.000000 4.909790 0.000000 
#    z -0.257790 0.000000 4.241520 
# 
# 
# High freq. dielectric constant tensor:
#      x y z
#    x 1.872810 0.000000 -0.024080 
#    y 0.000000 1.884800 0.000000 
#    z -0.024080 0.000000 1.902570 
# 
# From -- ./inp_files/81394.got.cif
#   From: 2010.06.25/outbox.cif.g09.slc.cpg/sg15_41_cif.got.tgz:81394.got - 2010.06.28 07:06:18.
