data_PCOD8143050
_publ_section_title
;
Structure prediction by ZEFSAII (Michael W. Deem and Ramdas Pophale) SiO2 
 PCOD8143050
Probable space group: C 2/C
;
_chemical_formula_sum "Si O2"
_cell_formula_units_Z 48
_cell_length_a 8.931512
_cell_length_b 9.011472
_cell_length_c 27.776593
_cell_angle_alpha 90.000000
_cell_angle_beta 85.302633
_cell_angle_gamma 90.000000
_cell_volume 2228.119678
_symmetry_space_group_name_H-M "C 2/C"
_symmetry_group_IT_number 15
_symmetry_cell_setting 'monoclinic'
loop_
_space_group_symop_operation_xyz
x,y,z
-x,y,1/2-z
-x,-y,-z
x,-y,1/2+z
1/2+x,1/2+y,z
1/2-x,1/2+y,1/2-z
1/2-x,1/2-y,-z
1/2+x,1/2-y,1/2+z
loop_
_atom_site_type_symbol
_atom_site_label
_atom_site_fract_x
_atom_site_fract_y
_atom_site_fract_z
Si Si1 0.097696 0.783770 0.977747
Si Si2 0.335275 0.391123 0.766600
Si Si3 0.871186 0.287068 0.649611
Si Si4 0.171343 0.218112 0.693544
Si Si5 0.471117 0.419892 0.068242
Si Si6 0.696122 0.077668 0.900149
O O1 0.075547 0.648608 0.940780
O O2 0.250000 0.750000 0.000000
O O3 0.971441 0.804805 0.022527
O O4 0.112478 0.932478 0.945861
O O5 0.500000 0.332844 0.750000
O O6 0.281787 0.302153 0.815745
O O7 0.234032 0.353511 0.723247
O O8 0.332789 0.567360 0.775071
O O9 0.888336 0.432134 0.616107
O O10 0.005736 0.271148 0.683781
O O11 0.871490 0.145796 0.614221
O O12 0.274540 0.193398 0.643981
O O13 0.641704 0.457827 0.080072
#
# Coordination Sequence:
#
# PCOD8143050 Si02
#       6
#     8   8   8   8   8   8
#     4   9  18  37  60  84 118 155 191 235 289 346
#     4  11  23  40  61  86 118 155 196 243 296 348
#     4  10  21  40  61  86 120 155 196 244 292 346
#     4  10  23  41  60  86 119 155 196 244 293 346
#     4   9  19  38  60  85 120 154 188 238 292 345
#     4   9  20  36  58  88 116 149 194 238 289 347
#
# _framework density 21.542828
#
# number of rings (size 3 to 8) (size 9 to 14) (size 15 to 20)
#    0.000    2.333    0.000    1.500    0.000    8.667 
#    0.000   20.833    0.000    0.000    0.000    0.000 
#    0.000    0.000    0.000    0.000    0.000    0.000 
#
# Total GULP energy -297479.515975 kJ/mol
# GULP energy per Si atom -12394.979832 kJ/mol
# Density = 2.149380 g / cm^3
# Si number density = 21.542828 Si / 1000 Ang^3
#
#
#
# Elastic Constant Matrix: (Units=GPa)
#
#
# Indices 1 2 3 4 5 6 
#
# 1 74.6060 62.3125 57.1200 0.0000 -1.1099 0.0000
# 2 62.3125 104.5306 66.3753 0.0000 19.0624 0.0000
# 3 57.1200 66.3753 132.1569 0.0000 15.2453 0.0000
# 4 0.0000 0.0000 0.0000 61.7515 0.0000 8.7964
# 5 -1.1099 19.0624 15.2453 0.0000 17.4358 0.0000
# 6 0.0000 0.0000 0.0000 8.7964 0.0000 30.9691
#
#
#
# Elastic Compliance Matrix: (Units=1/GPa)
#
#
# Indices 1 2 3 4 5 6 
#
# 1 0.046139 -0.028775 -0.010519 0.000000 0.043593 0.000000
# 2 -0.028775 0.033845 -0.000091 0.000000 -0.038754 0.000000
# 3 -0.010519 -0.000091 0.013596 0.000000 -0.012458 0.000000
# 4 0.000000 0.000000 0.000000 0.016877 0.000000 -0.004794
# 5 0.043593 -0.038754 -0.012458 0.000000 0.113391 0.000000
# 6 0.000000 0.000000 0.000000 -0.004794 0.000000 0.033652
#
#
# Mechanical properties :
#
#
# Convention : Reuss Voigt Hill
#
# Bulk Modulus (GPa) = 67.51850 75.87880 71.69865
# Shear Modulus (GPa) = 14.65395 30.39699 22.52547
#
# Velocity S-wave (km/s) = 2.61094 3.76041 3.23710
# Velocity P-wave (km/s) = 6.36387 7.35887 6.87939
#
# Compressibility (1/GPa) = 0.01481076
#
# Stress axis : x y z
#
# Youngs Moduli (GPa) = 21.67367 29.54656 73.55176
#
# Poissons Ratio (x) = 0.85020 0.77366
# Poissons Ratio (y) = 0.62366 0.00669
# Poissons Ratio (z) = 0.22798 0.00269
#
# Static dielectric constant tensor:
#      x y z
#    x 3.602930 0.000000 -0.108750 
#    y 0.000000 3.852490 0.000000 
#    z -0.108750 0.000000 4.550680 
# 
# 
# High freq. dielectric constant tensor:
#      x y z
#    x 1.814570 0.000000 -0.001010 
#    y 0.000000 1.836320 0.000000 
#    z -0.001010 0.000000 1.878190 
# 
# From -- ./inp_files/306671.got.cif
#   From: 2010.06.25/outbox.cif.g09.slc.cpg/sg15_154_cif.got.tgz:306671.got - 2010.06.28 07:06:18.
