data_PCOD8143297
_publ_section_title
;
Structure prediction by ZEFSAII (Michael W. Deem and Ramdas Pophale) SiO2 
 PCOD8143297
Probable space group: C 2/C
;
_chemical_formula_sum "Si O2"
_cell_formula_units_Z 64
_cell_length_a 13.765375
_cell_length_b 17.451302
_cell_length_c 14.877207
_cell_angle_alpha 90.000000
_cell_angle_beta 57.150073
_cell_angle_gamma 90.000000
_cell_volume 3002.377499
_symmetry_space_group_name_H-M "C 2/C"
_symmetry_group_IT_number 15
_symmetry_cell_setting 'monoclinic'
loop_
_space_group_symop_operation_xyz
x,y,z
-x,y,1/2-z
-x,-y,-z
x,-y,1/2+z
1/2+x,1/2+y,z
1/2-x,1/2+y,1/2-z
1/2-x,1/2-y,-z
1/2+x,1/2-y,1/2+z
loop_
_atom_site_type_symbol
_atom_site_label
_atom_site_fract_x
_atom_site_fract_y
_atom_site_fract_z
Si Si1 0.252838 0.357908 0.052113
Si Si2 0.113425 0.737166 0.304832
Si Si3 0.848671 0.319941 0.213320
Si Si4 0.238654 0.471318 0.300327
Si Si5 0.375983 0.079796 0.288639
Si Si6 0.415491 0.221947 0.984884
Si Si7 0.524358 0.403836 0.335755
Si Si8 0.208324 0.974846 0.016592
O O1 0.161365 0.343547 0.177714
O O2 0.183847 0.336324 0.997062
O O3 0.297082 0.443793 0.029183
O O4 0.369207 0.308891 0.004323
O O5 0.247911 0.760430 0.240039
O O6 0.103730 0.670390 0.236683
O O7 0.063830 0.701063 0.421980
O O8 0.035423 0.811825 0.324265
O O9 0.845292 0.397620 0.156207
O O10 0.969987 0.279651 0.132639
O O11 0.183403 0.540373 0.269592
O O12 0.356879 0.443621 0.189854
O O13 0.261066 0.490033 0.393798
O O14 0.500000 0.041289 0.250000
O O15 0.304066 0.074408 0.416748
O O16 0.500000 0.437061 0.250000
O O17 0.411404 0.430853 0.446660
#
# Coordination Sequence:
#
# PCOD8143297 Si02
#       8
#     8   8   8   8   8   8   8   8
#     4  10  21  41  59 101 128 163 234 265 316 407
#     4  10  23  42  59  96 133 163 231 266 311 410
#     4  10  21  40  65  88 130 177 209 270 332 379
#     4  10  23  44  65  99 130 168 220 269 337 388
#     4  12  27  41  63 102 132 174 220 271 324 398
#     4  10  22  37  67  89 130 182 205 273 336 374
#     4   9  21  45  68  93 131 172 218 279 327 389
#     4  11  24  42  73  96 132 176 216 276 337 378
#
# _framework density 21.316441000000001
#
# number of rings (size 3 to 8) (size 9 to 14) (size 15 to 20)
#    0.000    1.750    1.250    1.500    5.250    2.000 
#    0.000    8.750    0.000    0.000    0.000    0.000 
#    0.000    0.000    0.000    0.000    0.000    0.000 
#
# Total GULP energy -396661.920610 kJ/mol
# GULP energy per Si atom -12395.685019 kJ/mol
# Density = 2.126792 g / cm^3
# Si number density = 21.316441 Si / 1000 Ang^3
#
#
#
# Elastic Constant Matrix: (Units=GPa)
#
#
# Indices 1 2 3 4 5 6 
#
# 1 77.4580 36.2364 39.5914 0.0000 -9.9178 0.0000
# 2 36.2364 124.4339 54.4560 0.0000 -15.9078 0.0000
# 3 39.5914 54.4560 128.8062 0.0000 -24.2619 0.0000
# 4 0.0000 0.0000 0.0000 30.7462 0.0000 0.8164
# 5 -9.9178 -15.9078 -24.2619 0.0000 34.5398 0.0000
# 6 0.0000 0.0000 0.0000 0.8164 0.0000 25.0138
#
#
#
# Elastic Compliance Matrix: (Units=1/GPa)
#
#
# Indices 1 2 3 4 5 6 
#
# 1 0.016266 -0.003086 -0.003553 0.000000 0.000754 0.000000
# 2 -0.003086 0.010551 -0.003185 0.000000 0.001736 0.000000
# 3 -0.003553 -0.003185 0.011218 0.000000 0.005393 0.000000
# 4 0.000000 0.000000 0.000000 0.032553 0.000000 -0.001062
# 5 0.000754 0.001736 0.005393 0.000000 0.033756 0.000000
# 6 0.000000 0.000000 0.000000 -0.001062 0.000000 0.040013
#
#
# Mechanical properties :
#
#
# Convention : Reuss Voigt Hill
#
# Bulk Modulus (GPa) = 54.38578 65.69619 60.04098
# Shear Modulus (GPa) = 29.38859 31.42092 30.40475
#
# Velocity S-wave (km/s) = 3.71709 3.84347 3.78081
# Velocity P-wave (km/s) = 6.63259 7.11215 6.87655
#
# Compressibility (1/GPa) = 0.01838716
#
# Stress axis : x y z
#
# Youngs Moduli (GPa) = 61.47620 94.77949 89.14065
#
# Poissons Ratio (x) = 0.29244 0.31675
# Poissons Ratio (y) = 0.18969 0.28393
# Poissons Ratio (z) = 0.21845 0.30189
#
# Static dielectric constant tensor:
#      x y z
#    x 3.945860 0.000000 0.005930 
#    y 0.000000 3.712550 0.000000 
#    z 0.005930 0.000000 3.804620 
# 
# 
# High freq. dielectric constant tensor:
#      x y z
#    x 1.843070 0.000000 0.003900 
#    y 0.000000 1.831490 0.000000 
#    z 0.003900 0.000000 1.834100 
# 
# From -- ./inp_files/155495.got.cif
#   From: 2010.06.25/outbox.cif.g09.slc.cpg/sg15_78_cif.got.tgz:155495.got - 2010.06.28 07:06:18.
