data_PCOD8143391
_publ_section_title
;
Structure prediction by ZEFSAII (Michael W. Deem and Ramdas Pophale) SiO2 
 PCOD8143391
Probable space group: C 2/C
;
_chemical_formula_sum "Si O2"
_cell_formula_units_Z 40
_cell_length_a 8.675814
_cell_length_b 10.990805
_cell_length_c 21.264620
_cell_angle_alpha 90.000000
_cell_angle_beta 114.908462
_cell_angle_gamma 90.000000
_cell_volume 1839.060194
_symmetry_space_group_name_H-M "C 2/C"
_symmetry_group_IT_number 15
_symmetry_cell_setting 'monoclinic'
loop_
_space_group_symop_operation_xyz
x,y,z
-x,y,1/2-z
-x,-y,-z
x,-y,1/2+z
1/2+x,1/2+y,z
1/2-x,1/2+y,1/2-z
1/2-x,1/2-y,-z
1/2+x,1/2-y,1/2+z
loop_
_atom_site_type_symbol
_atom_site_label
_atom_site_fract_x
_atom_site_fract_y
_atom_site_fract_z
Si Si1 0.549470 0.793362 0.125671
Si Si2 0.503773 0.057936 0.127005
Si Si3 0.445012 0.751439 0.517225
Si Si4 0.655778 0.265532 0.237352
Si Si5 0.767313 0.886963 0.373292
O O1 0.690976 0.723184 0.190539
O O2 0.363427 0.781273 0.125365
O O3 0.611338 0.934802 0.135798
O O4 0.530752 0.743507 0.052658
O O5 0.507164 0.123466 0.059953
O O6 0.408903 0.143427 0.307067
O O7 0.312764 0.018156 0.119757
O O8 0.250000 0.750000 0.500000
O O9 0.548152 0.636399 0.563738
O O10 0.500000 0.322030 0.250000
O O11 0.717478 0.370045 0.199332
#
# Coordination Sequence:
#
# PCOD8143391 Si02
#       5
#     8   8   8   8   8
#     4  10  21  40  66  92 133 168 226 267 331 395
#     4   9  23  39  69  85 137 170 218 266 338 382
#     4  11  21  41  64  99 130 175 222 277 324 402
#     4  11  22  40  65  97 129 173 222 278 319 394
#     4   9  22  40  66  91 132 177 216 269 337 392
#
# _framework density 21.750240000000002
#
# number of rings (size 3 to 8) (size 9 to 14) (size 15 to 20)
#    1.200    0.800    0.000    4.200    2.800    0.800 
#    0.000    4.000    4.400    0.000    0.000    0.000 
#    0.000    0.000    0.000    0.000    0.000    0.000 
#
# Total GULP energy -247801.894978 kJ/mol
# GULP energy per Si atom -12390.094749 kJ/mol
# Density = 2.170074 g / cm^3
# Si number density = 21.750240 Si / 1000 Ang^3
#
#
#
# Elastic Constant Matrix: (Units=GPa)
#
#
# Indices 1 2 3 4 5 6 
#
# 1 26.5114 40.9119 -6.8904 0.0000 35.0313 0.0000
# 2 40.9119 8.1547 49.5549 0.0000 -13.2599 0.0000
# 3 -6.8904 49.5549 136.7987 0.0000 19.7155 0.0000
# 4 0.0000 0.0000 0.0000 22.4317 0.0000 0.9945
# 5 35.0313 -13.2599 19.7155 0.0000 35.6385 0.0000
# 6 0.0000 0.0000 0.0000 0.9945 0.0000 35.6742
#
#
#
# Elastic Compliance Matrix: (Units=1/GPa)
#
#
# Indices 1 2 3 4 5 6 
#
# 1 0.005579 0.016330 -0.006215 0.000000 0.004030 0.000000
# 2 0.016330 0.003326 0.001905 0.000000 -0.015868 0.000000
# 3 -0.006215 0.001905 0.005786 0.000000 0.003617 0.000000
# 4 0.000000 0.000000 0.000000 0.044635 0.000000 -0.001244
# 5 0.004030 -0.015868 0.003617 0.000000 0.016193 0.000000
# 6 0.000000 0.000000 0.000000 -0.001244 0.000000 0.028066
#
#
# Mechanical properties :
#
#
# Convention : Reuss Voigt Hill
#
# Bulk Modulus (GPa) = 25.82000 37.62417 31.72209
# Shear Modulus (GPa) = 54.07940 24.60810 39.34375
#
# Velocity S-wave (km/s) = 4.99177 3.36727 4.25772
# Velocity P-wave (km/s) = 6.71719 5.69683 6.22794
#
# Compressibility (1/GPa) = 0.03872966
#
# Stress axis : x y z
#
# Youngs Moduli (GPa) = 179.23047 300.66915 172.84020
#
# Poissons Ratio (x) = -4.90990 1.07424
# Poissons Ratio (y) = -2.92682 -0.32919
# Poissons Ratio (z) = 1.11396 -0.57266
#
# Static dielectric constant tensor:
#      x y z
#    x 3.339240 0.000000 0.314470 
#    y 0.000000 3.601660 0.000000 
#    z 0.314470 0.000000 3.944380 
# 
# 
# High freq. dielectric constant tensor:
#      x y z
#    x 1.854070 0.000000 -0.002330 
#    y 0.000000 1.820950 0.000000 
#    z -0.002330 0.000000 1.870940 
# 
# From -- ./inp_files/230501.got.cif
#   From: 2010.06.25/outbox.cif.g09.slc.cpg/sg15_116_cif.got.tgz:230501.got - 2010.06.28 07:06:18.
