data_PCOD8143315
_publ_section_title
;
Structure prediction by ZEFSAII (Michael W. Deem and Ramdas Pophale) SiO2 
 PCOD8143315
Probable space group: C 2/C
;
_chemical_formula_sum "Si O2"
_cell_formula_units_Z 48
_cell_length_a 8.298512
_cell_length_b 31.897436
_cell_length_c 8.668552
_cell_angle_alpha 90.000000
_cell_angle_beta 88.448569
_cell_angle_gamma 90.000000
_cell_volume 2293.735462
_symmetry_space_group_name_H-M "C 2/C"
_symmetry_group_IT_number 15
_symmetry_cell_setting 'monoclinic'
loop_
_space_group_symop_operation_xyz
x,y,z
-x,y,1/2-z
-x,-y,-z
x,-y,1/2+z
1/2+x,1/2+y,z
1/2-x,1/2+y,1/2-z
1/2-x,1/2-y,-z
1/2+x,1/2-y,1/2+z
loop_
_atom_site_type_symbol
_atom_site_label
_atom_site_fract_x
_atom_site_fract_y
_atom_site_fract_z
Si Si1 0.790128 0.298353 0.499503
Si Si2 0.500000 0.838939 0.250000
Si Si3 0.290400 0.467665 0.396668
Si Si4 0.696628 0.115748 0.006424
Si Si5 0.162426 0.048471 0.945686
Si Si6 0.500000 0.837452 0.750000
Si Si7 0.545945 0.368518 0.571639
O O1 0.750000 0.250000 0.500000
O O2 0.864051 0.310006 0.331780
O O3 0.627296 0.323831 0.539938
O O4 0.921732 0.307095 0.627016
O O5 0.414971 0.867823 0.126816
O O6 0.189719 0.435030 0.504832
O O7 0.249138 0.515930 0.439546
O O8 0.249351 0.456357 0.220945
O O9 0.476786 0.462259 0.430610
O O10 0.635599 0.132626 0.172418
O O11 0.881820 0.130320 0.975487
O O12 0.173843 0.095693 0.012724
O O13 0.500000 0.376384 0.750000
#
# Coordination Sequence:
#
# PCOD8143315 Si02
#       7
#     8   4   8   8   8   4   8
#     4  11  25  42  66  93 127 163 212 263 320 382
#     4  10  24  42  64  91 132 170 202 265 328 380
#     4   9  18  32  54  89 123 159 201 255 310 357
#     4  10  21  40  65  91 128 169 211 259 315 383
#     4   9  19  30  55  89 124 153 202 261 309 352
#     4  10  22  42  62  93 128 172 204 255 332 384
#     4  11  22  38  66  96 122 163 217 265 313 376
#
# _framework density 20.926563999999999
#
# number of rings (size 3 to 8) (size 9 to 14) (size 15 to 20)
#    0.000    2.000    1.667    1.000    8.167    3.333 
#    0.000    3.333    0.000   17.000    0.000    0.000 
#    0.000    0.000    0.000    0.000    0.000    0.000 
#
# Total GULP energy -297595.074655 kJ/mol
# GULP energy per Si atom -12399.794777 kJ/mol
# Density = 2.087893 g / cm^3
# Si number density = 20.926564 Si / 1000 Ang^3
#
#
#
# Elastic Constant Matrix: (Units=GPa)
#
#
# Indices 1 2 3 4 5 6 
#
# 1 57.3466 38.4670 11.6990 0.0000 -1.3768 0.0000
# 2 38.4670 172.2863 46.4592 0.0000 -12.3963 0.0000
# 3 11.6990 46.4592 95.2061 0.0000 -13.0128 0.0000
# 4 0.0000 0.0000 0.0000 24.4170 0.0000 -3.7052
# 5 -1.3768 -12.3963 -13.0128 0.0000 22.9257 0.0000
# 6 0.0000 0.0000 0.0000 -3.7052 0.0000 27.0696
#
#
#
# Elastic Compliance Matrix: (Units=1/GPa)
#
#
# Indices 1 2 3 4 5 6 
#
# 1 0.020567 -0.004565 -0.000508 0.000000 -0.001521 0.000000
# 2 -0.004565 0.007775 -0.002923 0.000000 0.002271 0.000000
# 3 -0.000508 -0.002923 0.012762 0.000000 0.005633 0.000000
# 4 0.000000 0.000000 0.000000 0.041824 0.000000 0.005725
# 5 -0.001521 0.002271 0.005633 0.000000 0.047953 0.000000
# 6 0.000000 0.000000 0.000000 0.005725 0.000000 0.037725
#
#
# Mechanical properties :
#
#
# Convention : Reuss Voigt Hill
#
# Bulk Modulus (GPa) = 39.81893 57.56549 48.69221
# Shear Modulus (GPa) = 25.91111 30.09671 28.00391
#
# Velocity S-wave (km/s) = 3.52261 3.79648 3.66211
# Velocity P-wave (km/s) = 5.96777 6.84001 6.41873
#
# Compressibility (1/GPa) = 0.02511368
#
# Stress axis : x y z
#
# Youngs Moduli (GPa) = 48.62232 128.61735 78.35689
#
# Poissons Ratio (x) = 0.58708 0.03978
# Poissons Ratio (y) = 0.22194 0.22902
# Poissons Ratio (z) = 0.02469 0.37592
#
# Static dielectric constant tensor:
#      x y z
#    x 3.674680 0.000000 -0.131870 
#    y 0.000000 3.783640 0.000000 
#    z -0.131870 0.000000 3.966970 
# 
# 
# High freq. dielectric constant tensor:
#      x y z
#    x 1.802590 0.000000 -0.001320 
#    y 0.000000 1.815500 0.000000 
#    z -0.001320 0.000000 1.825760 
# 
# From -- ./inp_files/26168.got.cif
#   From: 2010.06.25/outbox.cif.g09.slc.cpg/sg15_14_cif.got.tgz:26168.got - 2010.06.28 07:06:18.
