data_PCOD8143292
_publ_section_title
;
Structure prediction by ZEFSAII (Michael W. Deem and Ramdas Pophale) SiO2 
 PCOD8143292
Probable space group: C 2/C
;
_chemical_formula_sum "Si O2"
_cell_formula_units_Z 48
_cell_length_a 14.886291
_cell_length_b 11.819995
_cell_length_c 28.232161
_cell_angle_alpha 90.000000
_cell_angle_beta 151.406580
_cell_angle_gamma 90.000000
_cell_volume 2377.455896
_symmetry_space_group_name_H-M "C 2/C"
_symmetry_group_IT_number 15
_symmetry_cell_setting 'monoclinic'
loop_
_space_group_symop_operation_xyz
x,y,z
-x,y,1/2-z
-x,-y,-z
x,-y,1/2+z
1/2+x,1/2+y,z
1/2-x,1/2+y,1/2-z
1/2-x,1/2-y,-z
1/2+x,1/2-y,1/2+z
loop_
_atom_site_type_symbol
_atom_site_label
_atom_site_fract_x
_atom_site_fract_y
_atom_site_fract_z
Si Si1 0.560289 0.173127 0.363043
Si Si2 0.500000 0.789089 0.250000
Si Si3 0.000000 0.173225 0.750000
Si Si4 0.473804 0.659211 0.569997
Si Si5 0.879535 0.329003 0.931765
Si Si6 0.658537 0.950214 0.243236
Si Si7 0.138117 0.437958 0.124779
O O1 0.598190 0.249556 0.334873
O O2 0.479599 0.251808 0.366926
O O3 0.758336 0.116801 0.471361
O O4 0.410059 0.077647 0.280028
O O5 0.333429 0.706640 0.156735
O O6 0.552141 0.865460 0.229059
O O7 0.157878 0.094703 0.800144
O O8 0.509700 0.720935 0.536901
O O9 0.617004 0.554070 0.642411
O O10 0.892115 0.429561 0.899102
O O11 0.973457 0.365820 0.024329
O O12 0.618329 0.912849 0.171021
#
# Coordination Sequence:
#
# PCOD8143292 Si02
#       7
#     8   4   4   8   8   8   8
#     4  11  22  40  62  93 123 161 208 253 308 369
#     4  10  24  44  60  86 134 164 196 258 320 358
#     4  12  22  38  62  98 120 162 212 258 296 374
#     4  10  21  40  65  87 129 162 197 260 317 352
#     4  10  21  41  61  91 127 160 203 261 310 359
#     4  11  23  43  62  93 121 167 206 251 310 376
#     4  11  22  38  66  93 122 160 217 251 301 373
#
# _framework density 20.189648999999999
#
# number of rings (size 3 to 8) (size 9 to 14) (size 15 to 20)
#    0.000    1.333    5.000    1.000    0.000    0.667 
#    6.000    2.500    0.000    0.000    0.000    0.000 
#    0.000    0.000    0.000    0.000    0.000    0.000 
#
# Total GULP energy -297648.992480 kJ/mol
# GULP energy per Si atom -12402.041353 kJ/mol
# Density = 2.014370 g / cm^3
# Si number density = 20.189649 Si / 1000 Ang^3
#
#
#
# Elastic Constant Matrix: (Units=GPa)
#
#
# Indices 1 2 3 4 5 6 
#
# 1 89.5283 8.9848 23.8488 0.0001 -5.8492 -0.0001
# 2 8.9848 62.5192 32.7347 0.0000 7.5093 0.0000
# 3 23.8488 32.7347 88.5670 -0.0002 11.1722 0.0006
# 4 0.0001 0.0000 -0.0002 30.3530 -0.0001 0.4898
# 5 -5.8492 7.5093 11.1722 -0.0001 39.6363 0.0001
# 6 -0.0001 0.0000 0.0006 0.4898 0.0001 23.6329
#
#
#
# Elastic Compliance Matrix: (Units=1/GPa)
#
#
# Indices 1 2 3 4 5 6 
#
# 1 0.012340 -0.000235 -0.003599 0.000000 0.002880 0.000000
# 2 -0.000235 0.019956 -0.007083 0.000000 -0.001819 0.000000
# 3 -0.003599 -0.007083 0.015321 0.000000 -0.003508 0.000000
# 4 0.000000 0.000000 0.000000 0.032957 0.000000 -0.000683
# 5 0.002880 -0.001819 -0.003508 0.000000 0.026988 0.000000
# 6 0.000000 0.000000 0.000000 -0.000683 0.000000 0.042328
#
#
# Mechanical properties :
#
#
# Convention : Reuss Voigt Hill
#
# Bulk Modulus (GPa) = 38.78665 41.30568 40.04616
# Shear Modulus (GPa) = 27.72882 30.39420 29.06151
#
# Velocity S-wave (km/s) = 3.70999 3.88420 3.79809
# Velocity P-wave (km/s) = 6.13228 6.37333 6.25396
#
# Compressibility (1/GPa) = 0.02578207
#
# Stress axis : x y z
#
# Youngs Moduli (GPa) = 81.03591 50.11028 65.27185
#
# Poissons Ratio (x) = 0.01176 0.23494
# Poissons Ratio (y) = 0.01902 0.46233
# Poissons Ratio (z) = 0.29168 0.35494
#
# Static dielectric constant tensor:
#      x y z
#    x 3.669140 0.000000 0.009640 
#    y 0.000000 3.502630 0.000000 
#    z 0.009640 0.000000 3.743660 
# 
# 
# High freq. dielectric constant tensor:
#      x y z
#    x 1.795380 0.000000 0.001190 
#    y 0.000000 1.773370 0.000000 
#    z 0.001190 0.000000 1.797060 
# 
# From -- ./inp_files/151875.got.cif
#   From: 2010.06.25/outbox.cif.g09.slc.cpg/sg15_76_cif.got.tgz:151875.got - 2010.06.28 07:06:18.
