data_PCOD8143337
_publ_section_title
;
Structure prediction by ZEFSAII (Michael W. Deem and Ramdas Pophale) SiO2 
 PCOD8143337
Probable space group: C 2/C
;
_chemical_formula_sum "Si O2"
_cell_formula_units_Z 56
_cell_length_a 16.463050
_cell_length_b 9.687984
_cell_length_c 27.588164
_cell_angle_alpha 90.000000
_cell_angle_beta 33.785325
_cell_angle_gamma 90.000000
_cell_volume 2446.842075
_symmetry_space_group_name_H-M "C 2/C"
_symmetry_group_IT_number 15
_symmetry_cell_setting 'monoclinic'
loop_
_space_group_symop_operation_xyz
x,y,z
-x,y,1/2-z
-x,-y,-z
x,-y,1/2+z
1/2+x,1/2+y,z
1/2-x,1/2+y,1/2-z
1/2-x,1/2-y,-z
1/2+x,1/2-y,1/2+z
loop_
_atom_site_type_symbol
_atom_site_label
_atom_site_fract_x
_atom_site_fract_y
_atom_site_fract_z
Si Si1 0.650162 0.878720 0.540703
Si Si2 0.641881 0.699221 0.226452
Si Si3 0.831799 0.078399 0.183726
Si Si4 0.452181 0.684995 0.584391
Si Si5 0.928069 0.703147 0.563699
Si Si6 0.023650 0.516828 0.792820
Si Si7 0.718926 0.963173 0.917469
O O1 0.750000 0.750000 0.500000
O O2 0.499996 0.817647 0.592937
O O3 0.612982 0.964894 0.607347
O O4 0.747230 0.972148 0.456044
O O5 0.654444 0.596153 0.265545
O O6 0.789039 0.787362 0.148455
O O7 0.637966 0.612559 0.177034
O O8 0.515652 0.814958 0.294454
O O9 0.870849 0.226102 0.140876
O O10 0.671560 0.036114 0.244785
O O11 0.953814 0.962588 0.110358
O O12 0.561732 0.680610 0.483861
O O13 0.819944 0.580396 0.602640
O O14 0.087653 0.641793 0.492238
O O15 0.000000 0.457615 0.750000
#
# Coordination Sequence:
#
# PCOD8143337 Si02
#       7
#     8   8   8   8   8   8   8
#     4  11  23  44  64  90 133 179 219 265 332 412
#     4  10  21  40  65  94 125 166 220 277 327 389
#     4  11  21  36  69  92 127 167 221 275 323 391
#     4   9  20  37  58  97 118 161 228 259 312 389
#     4   9  18  33  62  91 122 156 203 276 319 369
#     4  11  26  43  62  97 137 168 211 281 347 386
#     4   9  20  37  63  90 123 163 220 265 324 390
#
# _framework density 22.886641000000001
#
# number of rings (size 3 to 8) (size 9 to 14) (size 15 to 20)
#    0.000    2.000    1.429    2.143    8.000    0.000 
#    2.571    0.714    0.000    0.000    0.000    0.000 
#    0.000    0.000    0.000    0.000    0.000    0.000 
#
# Total GULP energy -346988.933863 kJ/mol
# GULP energy per Si atom -12392.461924 kJ/mol
# Density = 2.283455 g / cm^3
# Si number density = 22.886641 Si / 1000 Ang^3
#
#
#
# Elastic Constant Matrix: (Units=GPa)
#
#
# Indices 1 2 3 4 5 6 
#
# 1 58.1514 24.6564 38.5202 -0.0002 33.1958 0.0003
# 2 24.6564 124.4243 74.2947 -0.0004 20.3843 0.0007
# 3 38.5202 74.2947 123.4092 0.0000 35.2750 0.0000
# 4 -0.0002 -0.0004 0.0000 38.7536 0.0000 10.5589
# 5 33.1958 20.3843 35.2750 0.0000 36.5969 0.0000
# 6 0.0003 0.0007 0.0000 10.5589 0.0000 32.2761
#
#
#
# Elastic Compliance Matrix: (Units=1/GPa)
#
#
# Indices 1 2 3 4 5 6 
#
# 1 0.036357 -0.000995 -0.002045 0.000000 -0.030453 0.000000
# 2 -0.000995 0.012579 -0.007616 0.000000 0.001236 0.000000
# 3 -0.002045 -0.007616 0.015989 0.000000 -0.009314 0.000000
# 4 0.000000 0.000000 0.000000 0.028329 0.000000 -0.009268
# 5 -0.030453 0.001236 -0.009314 0.000000 0.063237 0.000000
# 6 0.000000 0.000000 0.000000 -0.009268 0.000000 0.034015
#
#
# Mechanical properties :
#
#
# Convention : Reuss Voigt Hill
#
# Bulk Modulus (GPa) = 22.92827 64.54751 43.73789
# Shear Modulus (GPa) = 22.08934 32.75956 27.42445
#
# Velocity S-wave (km/s) = 3.11008 3.78747 3.46536
# Velocity P-wave (km/s) = 4.78923 6.88411 5.92991
#
# Compressibility (1/GPa) = 0.04361429
#
# Stress axis : x y z
#
# Youngs Moduli (GPa) = 27.50506 79.49784 62.54457
#
# Poissons Ratio (x) = 0.07906 0.12789
# Poissons Ratio (y) = 0.02735 0.47632
# Poissons Ratio (z) = 0.05624 0.60543
#
# Static dielectric constant tensor:
#      x y z
#    x 3.275730 -0.000440 0.343660 
#    y -0.000440 121.285900 -0.000040 
#    z 0.343660 -0.000040 4.298040 
# 
# 
# High freq. dielectric constant tensor:
#      x y z
#    x 1.883950 0.000000 0.016930 
#    y 0.000000 1.909350 0.000000 
#    z 0.016930 0.000000 1.903560 
# 
# From -- ./inp_files/298520.got.cif
#   From: 2010.06.25/outbox.cif.g09.slc.cpg/sg15_150_cif.got.tgz:298520.got - 2010.06.28 07:06:18.
