data_PCOD8143900
_publ_section_title
;
Structure prediction by ZEFSAII (Michael W. Deem and Ramdas Pophale) SiO2 
 PCOD8143900
Probable space group: C 2/C
;
_chemical_formula_sum "Si O2"
_cell_formula_units_Z 52
_cell_length_a 13.927135
_cell_length_b 13.805172
_cell_length_c 13.283092
_cell_angle_alpha 90.000000
_cell_angle_beta 77.502928
_cell_angle_gamma 90.000000
_cell_volume 2493.384301
_symmetry_space_group_name_H-M "C 2/C"
_symmetry_group_IT_number 15
_symmetry_cell_setting 'monoclinic'
loop_
_space_group_symop_operation_xyz
x,y,z
-x,y,1/2-z
-x,-y,-z
x,-y,1/2+z
1/2+x,1/2+y,z
1/2-x,1/2+y,1/2-z
1/2-x,1/2-y,-z
1/2+x,1/2-y,1/2+z
loop_
_atom_site_type_symbol
_atom_site_label
_atom_site_fract_x
_atom_site_fract_y
_atom_site_fract_z
Si Si1 0.517036 0.240132 0.092340
Si Si2 0.902851 0.563091 0.536469
Si Si3 0.229856 0.474825 0.612148
Si Si4 0.951907 0.092055 0.058371
Si Si5 0.000000 0.797098 0.750000
Si Si6 0.672899 0.154236 0.748758
Si Si7 0.152702 0.707493 0.235984
O O1 0.582883 0.263372 0.174364
O O2 0.407544 0.201490 0.145356
O O3 0.575349 0.168780 0.007818
O O4 0.507643 0.335751 0.032651
O O5 0.813355 0.518768 0.491300
O O6 0.872080 0.579565 0.659068
O O7 0.000000 0.500000 0.500000
O O8 0.336377 0.426896 0.587377
O O9 0.225662 0.584481 0.655536
O O10 0.166896 0.403002 0.697056
O O11 0.989626 0.129996 0.158083
O O12 0.000000 0.000000 0.000000
O O13 0.091762 0.723644 0.715884
O O14 0.749560 0.229008 0.779393
#
# Coordination Sequence:
#
# PCOD8143900 Si02
#       7
#     8   8   8   8   4   8   8
#     4  10  21  41  66  96 130 176 222 276 340 412
#     4  11  22  40  69  99 134 174 225 284 348 400
#     4  11  24  42  67 103 134 180 231 281 345 413
#     4  12  26  46  66  98 139 181 226 276 344 416
#     4  12  26  46  70 100 140 178 232 288 346 396
#     4  12  23  43  69  97 140 179 226 289 337 398
#     4  10  21  41  67  95 133 176 227 276 341 413
#
# _framework density 20.855187999999998
#
# number of rings (size 3 to 8) (size 9 to 14) (size 15 to 20)
#    0.000    0.923    3.077    3.692    0.000    8.615 
#    2.769    1.538    0.000    0.000    0.000    0.000 
#    0.000    0.000    0.000    0.000    0.000    0.000 
#
# Total GULP energy -322247.882547 kJ/mol
# GULP energy per Si atom -12394.149329 kJ/mol
# Density = 2.080772 g / cm^3
# Si number density = 20.855188 Si / 1000 Ang^3
#
#
#
# Elastic Constant Matrix: (Units=GPa)
#
#
# Indices 1 2 3 4 5 6 
#
# 1 118.9467 23.7870 30.5329 0.0000 7.2808 0.0000
# 2 23.7870 76.2934 23.5195 0.0000 18.9938 0.0000
# 3 30.5329 23.5195 75.0111 0.0000 2.0492 0.0000
# 4 0.0000 0.0000 0.0000 34.7976 0.0000 -8.1746
# 5 7.2808 18.9938 2.0492 0.0000 29.5896 0.0000
# 6 0.0000 0.0000 0.0000 -8.1746 0.0000 42.4082
#
#
#
# Elastic Compliance Matrix: (Units=1/GPa)
#
#
# Indices 1 2 3 4 5 6 
#
# 1 0.009681 -0.001718 -0.003373 0.000000 -0.001046 0.000000
# 2 -0.001718 0.017691 -0.004558 0.000000 -0.010618 0.000000
# 3 -0.003373 -0.004558 0.016061 0.000000 0.002643 0.000000
# 4 0.000000 0.000000 0.000000 0.030101 0.000000 0.005802
# 5 -0.001046 -0.010618 0.002643 0.000000 0.040686 0.000000
# 6 0.000000 0.000000 0.000000 0.005802 0.000000 0.024699
#
#
# Mechanical properties :
#
#
# Convention : Reuss Voigt Hill
#
# Bulk Modulus (GPa) = 41.43303 47.32557 44.37930
# Shear Modulus (GPa) = 30.07318 34.18653 32.12986
#
# Velocity S-wave (km/s) = 3.80149 4.05314 3.92933
# Velocity P-wave (km/s) = 6.25928 6.68174 6.47395
#
# Compressibility (1/GPa) = 0.02413533
#
# Stress axis : x y z
#
# Youngs Moduli (GPa) = 103.29958 56.52473 62.26176
#
# Poissons Ratio (x) = 0.09711 0.21002
# Poissons Ratio (y) = 0.17748 0.28377
# Poissons Ratio (z) = 0.34845 0.25762
#
# Static dielectric constant tensor:
#      x y z
#    x 3.693590 0.000000 0.503240 
#    y 0.000000 3.464420 0.000000 
#    z 0.503240 0.000000 3.478010 
# 
# 
# High freq. dielectric constant tensor:
#      x y z
#    x 1.822740 0.000000 -0.003520 
#    y 0.000000 1.827130 0.000000 
#    z -0.003520 0.000000 1.819500 
# 
# From -- ./inp_files/152561.got.cif
#   From: 2010.06.25/outbox.cif.g09.slc.cpg/sg15_77_cif.got.tgz:152561.got - 2010.06.28 07:06:18.
