data_PCOD8143264
_publ_section_title
;
Structure prediction by ZEFSAII (Michael W. Deem and Ramdas Pophale) SiO2 
 PCOD8143264
Probable space group: C 2/C
;
_chemical_formula_sum "Si O2"
_cell_formula_units_Z 56
_cell_length_a 16.816111
_cell_length_b 9.283483
_cell_length_c 25.194716
_cell_angle_alpha 90.000000
_cell_angle_beta 139.317444
_cell_angle_gamma 90.000000
_cell_volume 2563.925167
_symmetry_space_group_name_H-M "C 2/C"
_symmetry_group_IT_number 15
_symmetry_cell_setting 'monoclinic'
loop_
_space_group_symop_operation_xyz
x,y,z
-x,y,1/2-z
-x,-y,-z
x,-y,1/2+z
1/2+x,1/2+y,z
1/2-x,1/2+y,1/2-z
1/2-x,1/2-y,-z
1/2+x,1/2-y,1/2+z
loop_
_atom_site_type_symbol
_atom_site_label
_atom_site_fract_x
_atom_site_fract_y
_atom_site_fract_z
Si Si1 0.682422 0.126490 0.499286
Si Si2 0.758510 0.000065 0.644062
Si Si3 0.410148 0.268273 0.776006
Si Si4 0.231658 0.062449 0.636583
Si Si5 0.841374 0.233673 0.359159
Si Si6 0.329887 0.853966 0.075558
Si Si7 0.036921 0.284959 0.540647
O O1 0.750000 0.250000 0.500000
O O2 0.561319 0.193282 0.463099
O O3 0.771591 0.063546 0.590830
O O4 0.634992 0.997805 0.438088
O O5 0.872096 0.896811 0.716223
O O6 0.631058 0.915419 0.583261
O O7 0.750369 0.130648 0.682200
O O8 0.345781 0.119244 0.727934
O O9 0.363443 0.314154 0.810300
O O10 0.553345 0.237132 0.845699
O O11 0.248597 0.099017 0.583744
O O12 0.106594 0.138658 0.591696
O O13 0.222455 0.893223 0.640280
O O14 0.971698 0.272062 0.450710
O O15 0.250000 0.750000 0.000000
#
# Coordination Sequence:
#
# PCOD8143264 Si02
#       7
#     8   8   8   8   8   8   8
#     4  11  23  41  68  98 130 169 216 274 329 385
#     4  10  21  40  64  95 130 167 213 267 323 383
#     4  11  23  40  62  90 127 169 210 264 326 384
#     4  11  24  40  61  94 127 162 210 264 316 380
#     4  11  20  37  64  94 123 164 213 260 313 382
#     4  12  24  43  67  93 124 169 218 267 325 392
#     4  10  21  41  65  92 126 166 210 260 314 384
#
# _framework density 21.841511000000001
#
# number of rings (size 3 to 8) (size 9 to 14) (size 15 to 20)
#    0.000    1.143    0.000    9.429    0.000    2.286 
#    0.000    1.429    0.000    6.857    0.000    0.000 
#    0.000    0.000    0.000    0.000    0.000    0.000 
#
# Total GULP energy -347282.458031 kJ/mol
# GULP energy per Si atom -12402.944930 kJ/mol
# Density = 2.179180 g / cm^3
# Si number density = 21.841511 Si / 1000 Ang^3
#
#
#
# Elastic Constant Matrix: (Units=GPa)
#
#
# Indices 1 2 3 4 5 6 
#
# 1 117.9986 51.4510 45.1871 0.0000 -14.2140 0.0000
# 2 51.4510 149.5510 58.2226 0.0000 2.1562 0.0000
# 3 45.1871 58.2226 114.4204 0.0000 6.1550 0.0000
# 4 0.0000 0.0000 0.0000 27.4874 0.0000 -12.4301
# 5 -14.2140 2.1562 6.1550 0.0000 30.1389 0.0000
# 6 0.0000 0.0000 0.0000 -12.4301 0.0000 39.6970
#
#
#
# Elastic Compliance Matrix: (Units=1/GPa)
#
#
# Indices 1 2 3 4 5 6 
#
# 1 0.011854 -0.002760 -0.003628 0.000000 0.006529 0.000000
# 2 -0.002760 0.008983 -0.003414 0.000000 -0.001247 0.000000
# 3 -0.003628 -0.003414 0.012122 0.000000 -0.003942 0.000000
# 4 0.000000 0.000000 0.000000 0.042382 0.000000 0.013271
# 5 0.006529 -0.001247 -0.003942 0.000000 0.037153 0.000000
# 6 0.000000 0.000000 0.000000 0.013271 0.000000 0.029346
#
#
# Mechanical properties :
#
#
# Convention : Reuss Voigt Hill
#
# Bulk Modulus (GPa) = 74.87968 76.85460 75.86714
# Shear Modulus (GPa) = 30.13932 34.60526 32.37229
#
# Velocity S-wave (km/s) = 3.71874 3.98475 3.85404
# Velocity P-wave (km/s) = 7.26611 7.51230 7.39023
#
# Compressibility (1/GPa) = 0.01335476
#
# Stress axis : x y z
#
# Youngs Moduli (GPa) = 84.36027 111.31754 82.49488
#
# Poissons Ratio (x) = 0.30721 0.29932
# Poissons Ratio (y) = 0.23281 0.28165
# Poissons Ratio (z) = 0.30608 0.38006
#
# Static dielectric constant tensor:
#      x y z
#    x 3.922520 0.000000 -0.188870 
#    y 0.000000 4.178800 0.000000 
#    z -0.188870 0.000000 4.124160 
# 
# 
# High freq. dielectric constant tensor:
#      x y z
#    x 1.860050 0.000000 -0.011430 
#    y 0.000000 1.872260 0.000000 
#    z -0.011430 0.000000 1.855920 
# 
# From -- ./inp_files/298559.got.cif
#   From: 2010.06.25/outbox.cif.g09.slc.cpg/sg15_150_cif.got.tgz:298559.got - 2010.06.28 07:06:18.
