data_PCOD8143260
_publ_section_title
;
Structure prediction by ZEFSAII (Michael W. Deem and Ramdas Pophale) SiO2 
 PCOD8143260
Probable space group: C 2/C
;
_chemical_formula_sum "Si O2"
_cell_formula_units_Z 40
_cell_length_a 13.706949
_cell_length_b 14.372768
_cell_length_c 10.634603
_cell_angle_alpha 90.000000
_cell_angle_beta 56.300228
_cell_angle_gamma 90.000000
_cell_volume 1743.022626
_symmetry_space_group_name_H-M "C 2/C"
_symmetry_group_IT_number 15
_symmetry_cell_setting 'monoclinic'
loop_
_space_group_symop_operation_xyz
x,y,z
-x,y,1/2-z
-x,-y,-z
x,-y,1/2+z
1/2+x,1/2+y,z
1/2-x,1/2+y,1/2-z
1/2-x,1/2-y,-z
1/2+x,1/2-y,1/2+z
loop_
_atom_site_type_symbol
_atom_site_label
_atom_site_fract_x
_atom_site_fract_y
_atom_site_fract_z
Si Si1 0.000000 0.917403 0.250000
Si Si2 0.693658 0.464779 0.698415
Si Si3 0.000000 0.678975 0.750000
Si Si4 0.388398 0.669371 0.055849
Si Si5 0.176556 0.363623 0.314529
Si Si6 0.129394 0.833493 0.522661
O O1 0.927742 0.978114 0.201420
O O2 0.909053 0.856434 0.396168
O O3 0.710126 0.395602 0.806272
O O4 0.798416 0.541214 0.627334
O O5 0.687109 0.413306 0.568761
O O6 0.060743 0.615876 0.812582
O O7 0.112292 0.739022 0.616567
O O8 0.497667 0.647878 0.069917
O O9 0.353949 0.777559 0.072571
O O10 0.288698 0.326445 0.156692
#
# Coordination Sequence:
#
# PCOD8143260 Si02
#       6
#     4   8   4   8   8   8
#     4  12  21  38  66  95 138 162 217 284 324 373
#     4  12  21  38  69 103 126 166 221 281 324 376
#     4  10  21  40  64  95 128 170 225 264 312 395
#     4  11  23  41  66 102 131 169 223 272 325 385
#     4  11  24  39  67  99 130 176 218 268 333 387
#     4  11  19  41  69  97 125 169 225 273 311 384
#
# _framework density 22.948640000000001
#
# number of rings (size 3 to 8) (size 9 to 14) (size 15 to 20)
#    0.000    0.800    8.000    2.400    0.000    0.800 
#    0.000    1.000    0.000    1.200    0.000    0.000 
#    0.000    0.000    0.000    0.000    0.000    0.000 
#
# Total GULP energy -247845.768472 kJ/mol
# GULP energy per Si atom -12392.288424 kJ/mol
# Density = 2.289641 g / cm^3
# Si number density = 22.948640 Si / 1000 Ang^3
#
#
#
# Elastic Constant Matrix: (Units=GPa)
#
#
# Indices 1 2 3 4 5 6 
#
# 1 68.7207 55.8697 -10.6937 0.0000 -0.3763 0.0000
# 2 55.8697 119.1718 18.3667 0.0000 6.8985 0.0000
# 3 -10.6937 18.3667 74.0635 0.0000 10.3887 0.0000
# 4 0.0000 0.0000 0.0000 20.1577 0.0000 8.2550
# 5 -0.3763 6.8985 10.3887 0.0000 18.7284 0.0000
# 6 0.0000 0.0000 0.0000 8.2550 0.0000 52.6442
#
#
#
# Elastic Compliance Matrix: (Units=1/GPa)
#
#
# Indices 1 2 3 4 5 6 
#
# 1 0.026862 -0.013779 0.007057 0.000000 0.001701 0.000000
# 2 -0.013779 0.015876 -0.005495 0.000000 -0.003077 0.000000
# 3 0.007057 -0.005495 0.016894 0.000000 -0.007205 0.000000
# 4 0.000000 0.000000 0.000000 0.053013 0.000000 -0.008313
# 5 0.001701 -0.003077 -0.007205 0.000000 0.058559 0.000000
# 6 0.000000 0.000000 0.000000 -0.008313 0.000000 0.020299
#
#
# Mechanical properties :
#
#
# Convention : Reuss Voigt Hill
#
# Bulk Modulus (GPa) = 28.41127 43.22683 35.81905
# Shear Modulus (GPa) = 21.96159 31.53362 26.74761
#
# Velocity S-wave (km/s) = 3.09688 3.71090 3.41771
# Velocity P-wave (km/s) = 5.01944 6.10232 5.58718
#
# Compressibility (1/GPa) = 0.03519729
#
# Stress axis : x y z
#
# Youngs Moduli (GPa) = 37.22799 62.98762 59.19184
#
# Poissons Ratio (x) = 0.86792 -0.41771
# Poissons Ratio (y) = 0.51297 0.32526
# Poissons Ratio (z) = -0.26271 0.34612
#
# Static dielectric constant tensor:
#      x y z
#    x 4.175760 0.000000 0.056070 
#    y 0.000000 4.190540 0.000000 
#    z 0.056070 0.000000 3.878660 
# 
# 
# High freq. dielectric constant tensor:
#      x y z
#    x 1.896260 0.000000 0.009440 
#    y 0.000000 1.896990 0.000000 
#    z 0.009440 0.000000 1.887000 
# 
# From -- ./inp_files/104756.got.cif
#   From: 2010.06.25/outbox.cif.g09.slc.cpg/sg15_53_cif.got.tgz:104756.got - 2010.06.28 07:06:18.
