data_PCOD8143096
_publ_section_title
;
Structure prediction by ZEFSAII (Michael W. Deem and Ramdas Pophale) SiO2 
 PCOD8143096
Probable space group: C 2/C
;
_chemical_formula_sum "Si O2"
_cell_formula_units_Z 36
_cell_length_a 26.088804
_cell_length_b 8.153034
_cell_length_c 14.583536
_cell_angle_alpha 90.000000
_cell_angle_beta 34.120111
_cell_angle_gamma 90.000000
_cell_volume 1739.981492
_symmetry_space_group_name_H-M "C 2/C"
_symmetry_group_IT_number 15
_symmetry_cell_setting 'monoclinic'
loop_
_space_group_symop_operation_xyz
x,y,z
-x,y,1/2-z
-x,-y,-z
x,-y,1/2+z
1/2+x,1/2+y,z
1/2-x,1/2+y,1/2-z
1/2-x,1/2-y,-z
1/2+x,1/2-y,1/2+z
loop_
_atom_site_type_symbol
_atom_site_label
_atom_site_fract_x
_atom_site_fract_y
_atom_site_fract_z
Si Si1 0.816259 0.845910 0.610021
Si Si2 0.698100 0.419005 0.068545
Si Si3 0.999034 0.028477 0.650575
Si Si4 0.000000 0.712990 0.750000
Si Si5 0.315048 0.971824 0.549665
O O1 0.805894 0.963943 0.534354
O O2 0.823819 0.658672 0.568762
O O3 0.728694 0.865733 0.803962
O O4 0.906418 0.905826 0.534431
O O5 0.593405 0.410663 0.263405
O O6 0.753856 0.547725 0.048031
O O7 0.750000 0.250000 0.000000
O O8 0.997269 0.829487 0.663335
O O9 0.000000 0.112468 0.750000
O O10 0.086539 0.596108 0.620004
#
# Coordination Sequence:
#
# PCOD8143096 Si02
#       5
#     8   8   8   4   8
#     4  10  21  40  62  87 121 155 200 247 296 357
#     4   9  20  37  65  86 118 156 201 242 300 349
#     4   8  18  38  59  82 120 151 192 245 296 341
#     4  10  22  36  60  90 120 160 194 244 304 344
#     4  11  23  38  63  89 118 160 201 242 301 353
#
# _framework density 20.689876000000002
#
# number of rings (size 3 to 8) (size 9 to 14) (size 15 to 20)
#    0.667    1.778    0.000    1.333    7.778    1.778 
#    0.000    1.111    0.000    0.000    0.000    0.000 
#    0.000    0.000    0.000    0.000    0.000    0.000 
#
# Total GULP energy -222989.679915 kJ/mol
# GULP energy per Si atom -12388.315551 kJ/mol
# Density = 2.064279 g / cm^3
# Si number density = 20.689876 Si / 1000 Ang^3
#
#
#
# Elastic Constant Matrix: (Units=GPa)
#
#
# Indices 1 2 3 4 5 6 
#
# 1 104.6268 37.6716 64.0580 -0.0003 -36.7088 0.0001
# 2 37.6716 90.1125 42.8052 -0.0011 -17.1571 0.0002
# 3 64.0580 42.8052 120.5180 -0.0006 -42.2771 0.0001
# 4 -0.0003 -0.0011 -0.0006 38.1585 -0.0001 -9.7173
# 5 -36.7088 -17.1571 -42.2771 -0.0001 40.2840 0.0000
# 6 0.0001 0.0002 0.0001 -9.7173 0.0000 19.8290
#
#
#
# Elastic Compliance Matrix: (Units=1/GPa)
#
#
# Indices 1 2 3 4 5 6 
#
# 1 0.016640 -0.003056 -0.004584 0.000000 0.009051 0.000000
# 2 -0.003056 0.013943 -0.003516 0.000000 -0.000536 0.000000
# 3 -0.004584 -0.003516 0.015814 0.000000 0.010922 0.000000
# 4 0.000000 0.000000 0.000000 0.029943 0.000000 0.014674
# 5 0.009051 -0.000536 0.010922 0.000000 0.044305 0.000000
# 6 0.000000 0.000000 0.000000 0.014674 0.000000 0.057622
#
#
# Mechanical properties :
#
#
# Convention : Reuss Voigt Hill
#
# Bulk Modulus (GPa) = 41.51936 67.14744 54.33340
# Shear Modulus (GPa) = 23.96835 31.03580 27.50208
#
# Velocity S-wave (km/s) = 3.40731 3.87725 3.64985
# Velocity P-wave (km/s) = 5.96579 7.25043 6.63926
#
# Compressibility (1/GPa) = 0.02408515
#
# Stress axis : x y z
#
# Youngs Moduli (GPa) = 60.09500 71.72178 63.23358
#
# Poissons Ratio (x) = 0.21915 0.28989
# Poissons Ratio (y) = 0.18362 0.22234
# Poissons Ratio (z) = 0.27550 0.25219
#
# Static dielectric constant tensor:
#      x y z
#    x 4.160780 0.000000 -0.201500 
#    y 0.000000 3.447120 0.000000 
#    z -0.201500 0.000000 3.786830 
# 
# 
# High freq. dielectric constant tensor:
#      x y z
#    x 1.798460 0.000000 -0.027290 
#    y 0.000000 1.790440 0.000000 
#    z -0.027290 0.000000 1.811530 
# 
# From -- ./inp_files/171209.got.cif
#   From: 2010.06.25/outbox.cif.g09.slc.cpg/sg15_86_cif.got.tgz:171209.got - 2010.06.28 07:06:18.
