data_PCOD8143861
_publ_section_title
;
Structure prediction by ZEFSAII (Michael W. Deem and Ramdas Pophale) SiO2 
 PCOD8143861
Probable space group: C 2/C
;
_chemical_formula_sum "Si O2"
_cell_formula_units_Z 52
_cell_length_a 7.787449
_cell_length_b 22.140471
_cell_length_c 16.905009
_cell_angle_alpha 90.000000
_cell_angle_beta 55.364853
_cell_angle_gamma 90.000000
_cell_volume 2398.199806
_symmetry_space_group_name_H-M "C 2/C"
_symmetry_group_IT_number 15
_symmetry_cell_setting 'monoclinic'
loop_
_space_group_symop_operation_xyz
x,y,z
-x,y,1/2-z
-x,-y,-z
x,-y,1/2+z
1/2+x,1/2+y,z
1/2-x,1/2+y,1/2-z
1/2-x,1/2-y,-z
1/2+x,1/2-y,1/2+z
loop_
_atom_site_type_symbol
_atom_site_label
_atom_site_fract_x
_atom_site_fract_y
_atom_site_fract_z
Si Si1 0.979486 0.057541 0.113344
Si Si2 0.509049 0.250532 0.987094
Si Si3 0.863851 0.511659 0.710907
Si Si4 0.000000 0.905136 0.250000
Si Si5 0.737194 0.958507 0.519263
Si Si6 0.112293 0.811820 0.636575
Si Si7 0.349231 0.661349 0.931542
O O1 0.903346 0.058886 0.043497
O O2 0.078547 0.120041 0.115833
O O3 0.782520 0.043078 0.221058
O O4 0.152485 0.003920 0.072812
O O5 0.465135 0.262208 0.906582
O O6 0.732957 0.219320 0.927689
O O7 0.357437 0.204181 0.074505
O O8 0.516247 0.315625 0.028664
O O9 0.716353 0.558571 0.704197
O O10 0.000000 0.537898 0.750000
O O11 0.022778 0.487052 0.604184
O O12 0.006190 0.863196 0.325030
O O13 0.690373 0.893722 0.492563
O O14 0.000000 0.800915 0.750000
#
# Coordination Sequence:
#
# PCOD8143861 Si02
#       7
#     8   8   8   4   8   8   8
#     4  10  21  41  66 104 138 173 227 282 349 419
#     4  10  26  48  65  97 134 181 233 281 348 398
#     4  10  24  42  64 108 143 179 227 282 364 414
#     4  12  26  42  70 104 140 184 238 282 340 438
#     4  10  21  41  71  96 140 182 210 293 354 401
#     4  11  25  44  71  99 131 180 232 288 337 425
#     4  11  24  46  66  95 136 179 228 288 336 414
#
# _framework density 21.682929999999999
#
# number of rings (size 3 to 8) (size 9 to 14) (size 15 to 20)
#    0.000    1.538    3.077    0.000    7.538    0.615 
#    2.769    0.000    0.000    0.000    0.000    0.000 
#    0.000    0.000    0.000    0.000    0.000    0.000 
#
# Total GULP energy -322233.366194 kJ/mol
# GULP energy per Si atom -12393.591007 kJ/mol
# Density = 2.163358 g / cm^3
# Si number density = 21.682930 Si / 1000 Ang^3
#
#
#
# Elastic Constant Matrix: (Units=GPa)
#
#
# Indices 1 2 3 4 5 6 
#
# 1 77.5624 41.1614 39.3934 0.0000 -9.1617 0.0000
# 2 41.1614 121.3274 56.5157 0.0000 -6.4176 0.0000
# 3 39.3934 56.5157 127.5656 0.0000 -4.2865 0.0000
# 4 0.0000 0.0000 0.0000 23.8365 0.0000 -5.5928
# 5 -9.1617 -6.4176 -4.2865 0.0000 29.7064 0.0000
# 6 0.0000 0.0000 0.0000 -5.5928 0.0000 15.9554
#
#
#
# Elastic Compliance Matrix: (Units=1/GPa)
#
#
# Indices 1 2 3 4 5 6 
#
# 1 0.017236 -0.004059 -0.003392 0.000000 0.003949 0.000000
# 2 -0.004059 0.011416 -0.003782 0.000000 0.000669 0.000000
# 3 -0.003392 -0.003782 0.010551 0.000000 -0.000341 0.000000
# 4 0.000000 0.000000 0.000000 0.045712 0.000000 0.016023
# 5 0.003949 0.000669 -0.000341 0.000000 0.034976 0.000000
# 6 0.000000 0.000000 0.000000 0.016023 0.000000 0.068291
#
#
# Mechanical properties :
#
#
# Convention : Reuss Voigt Hill
#
# Bulk Modulus (GPa) = 59.74432 66.73293 63.23862
# Shear Modulus (GPa) = 23.12394 26.52531 24.82463
#
# Velocity S-wave (km/s) = 3.26921 3.50140 3.38730
# Velocity P-wave (km/s) = 6.47022 6.86949 6.67284
#
# Compressibility (1/GPa) = 0.01673799
#
# Stress axis : x y z
#
# Youngs Moduli (GPa) = 58.01851 87.59561 94.78147
#
# Poissons Ratio (x) = 0.35551 0.32148
# Poissons Ratio (y) = 0.23547 0.35845
# Poissons Ratio (z) = 0.19679 0.33128
#
# Static dielectric constant tensor:
#      x y z
#    x 4.022540 0.000000 0.106150 
#    y 0.000000 3.860490 0.000000 
#    z 0.106150 0.000000 3.925640 
# 
# 
# High freq. dielectric constant tensor:
#      x y z
#    x 1.852840 0.000000 0.008710 
#    y 0.000000 1.850580 0.000000 
#    z 0.008710 0.000000 1.855580 
# 
# From -- ./inp_files/192474.got.cif
#   From: 2010.06.25/outbox.cif.g09.slc.cpg/sg15_97_cif.got.tgz:192474.got - 2010.06.28 07:06:18.
