data_PCOD8143573
_publ_section_title
;
Structure prediction by ZEFSAII (Michael W. Deem and Ramdas Pophale) SiO2 
 PCOD8143573
Probable space group: C 2/C
;
_chemical_formula_sum "Si O2"
_cell_formula_units_Z 56
_cell_length_a 5.005796
_cell_length_b 17.488708
_cell_length_c 35.660803
_cell_angle_alpha 90.000000
_cell_angle_beta 59.868245
_cell_angle_gamma 90.000000
_cell_volume 2700.066744
_symmetry_space_group_name_H-M "C 2/C"
_symmetry_group_IT_number 15
_symmetry_cell_setting 'monoclinic'
loop_
_space_group_symop_operation_xyz
x,y,z
-x,y,1/2-z
-x,-y,-z
x,-y,1/2+z
1/2+x,1/2+y,z
1/2-x,1/2+y,1/2-z
1/2-x,1/2-y,-z
1/2+x,1/2-y,1/2+z
loop_
_atom_site_type_symbol
_atom_site_label
_atom_site_fract_x
_atom_site_fract_y
_atom_site_fract_z
Si Si1 0.765204 0.294888 0.800387
Si Si2 0.328808 0.021549 0.851686
Si Si3 0.171854 0.920155 0.649322
Si Si4 0.402025 0.206635 0.377049
Si Si5 0.644556 0.137381 0.778784
Si Si6 0.383098 0.783128 0.452739
Si Si7 0.492603 0.654491 0.585607
O O1 0.507290 0.359957 0.811176
O O2 0.912485 0.304379 0.831357
O O3 0.627902 0.209338 0.808119
O O4 0.000000 0.306497 0.750000
O O5 0.659088 0.989769 0.841929
O O6 0.420236 0.069573 0.808562
O O7 0.172545 0.074809 0.893966
O O8 0.081522 0.954531 0.861228
O O9 0.443822 0.866914 0.612726
O O10 0.593345 0.282744 0.376084
O O11 0.051667 0.214932 0.417243
O O12 0.500000 0.165223 0.750000
O O13 0.000000 0.109165 0.750000
O O14 0.250000 0.750000 0.500000
O O15 0.107332 0.817795 0.448270
O O16 0.633694 0.851042 0.442850
#
# Coordination Sequence:
#
# PCOD8143573 Si02
#       7
#     8   8   8   8   8   8   8
#     4  11  26  44  67  95 128 174 231 279 324 385
#     4  12  25  42  64  89 136 173 219 261 335 391
#     4  12  25  41  61  93 128 179 210 271 321 392
#     4  10  23  43  67  96 131 169 228 264 328 386
#     4  11  26  42  63  89 122 167 224 283 327 376
#     4  10  21  40  74 107 131 160 220 283 322 391
#     4  10  23  40  72  97 130 167 222 261 329 395
#
# _framework density 20.740227999999998
#
# number of rings (size 3 to 8) (size 9 to 14) (size 15 to 20)
#    0.857    0.286    1.429    4.714   10.000    1.714 
#    2.571    0.000    0.000    5.143    0.000    0.000 
#    0.000    0.000    0.000    0.000    0.000    0.000 
#
# Total GULP energy -346904.883150 kJ/mol
# GULP energy per Si atom -12389.460112 kJ/mol
# Density = 2.069302 g / cm^3
# Si number density = 20.740228 Si / 1000 Ang^3
#
#
#
# Elastic Constant Matrix: (Units=GPa)
#
#
# Indices 1 2 3 4 5 6 
#
# 1 108.4011 12.8068 23.3435 0.0001 8.7090 0.0000
# 2 12.8068 79.3437 11.2153 0.0000 -2.3968 0.0000
# 3 23.3435 11.2153 89.1719 0.0000 1.9586 -0.0001
# 4 0.0001 0.0000 0.0000 5.8894 0.0000 -10.3865
# 5 8.7090 -2.3968 1.9586 0.0000 26.9625 0.0000
# 6 0.0000 0.0000 -0.0001 -10.3865 0.0000 45.1923
#
#
#
# Elastic Compliance Matrix: (Units=1/GPa)
#
#
# Indices 1 2 3 4 5 6 
#
# 1 0.010170 -0.001398 -0.002416 0.000000 -0.003234 0.000000
# 2 -0.001398 0.013066 -0.001315 0.000000 0.001709 0.000000
# 3 -0.002416 -0.001315 0.012017 0.000000 -0.000210 0.000000
# 4 0.000000 0.000000 0.000000 0.285528 0.000000 0.065623
# 5 -0.003234 0.001709 -0.000210 0.000000 0.038300 0.000000
# 6 0.000000 0.000000 0.000000 0.065623 0.000000 0.037210
#
#
# Mechanical properties :
#
#
# Convention : Reuss Voigt Hill
#
# Bulk Modulus (GPa) = 40.00547 41.29425 40.64986
# Shear Modulus (GPa) = 12.05166 30.91225 21.48196
#
# Velocity S-wave (km/s) = 2.41317 3.86482 3.22182
# Velocity P-wave (km/s) = 5.20531 6.31421 5.78638
#
# Compressibility (1/GPa) = 0.02499658
#
# Stress axis : x y z
#
# Youngs Moduli (GPa) = 98.32740 76.53160 83.21809
#
# Poissons Ratio (x) = 0.10698 0.20101
# Poissons Ratio (y) = 0.13744 0.10943
# Poissons Ratio (z) = 0.23751 0.10064
#
# Static dielectric constant tensor:
#      x y z
#    x 4.003970 0.000000 -0.101480 
#    y 0.000000 3.827050 0.000000 
#    z -0.101480 0.000000 3.344090 
# 
# 
# High freq. dielectric constant tensor:
#      x y z
#    x 1.836860 0.000000 -0.005910 
#    y 0.000000 1.805350 0.000000 
#    z -0.005910 0.000000 1.775280 
# 
# From -- ./inp_files/305749.got.cif
#   From: 2010.06.25/outbox.cif.g09.slc.cpg/sg15_153_cif.got.tgz:305749.got - 2010.06.28 07:06:18.
