data_PCOD8143377
_publ_section_title
;
Structure prediction by ZEFSAII (Michael W. Deem and Ramdas Pophale) SiO2 
 PCOD8143377
Probable space group: C 2/C
;
_chemical_formula_sum "Si O2"
_cell_formula_units_Z 44
_cell_length_a 28.524559
_cell_length_b 8.733838
_cell_length_c 9.051024
_cell_angle_alpha 90.000000
_cell_angle_beta 103.932062
_cell_angle_gamma 90.000000
_cell_volume 2188.537416
_symmetry_space_group_name_H-M "C 2/C"
_symmetry_group_IT_number 15
_symmetry_cell_setting 'monoclinic'
loop_
_space_group_symop_operation_xyz
x,y,z
-x,y,1/2-z
-x,-y,-z
x,-y,1/2+z
1/2+x,1/2+y,z
1/2-x,1/2+y,1/2-z
1/2-x,1/2-y,-z
1/2+x,1/2-y,1/2+z
loop_
_atom_site_type_symbol
_atom_site_label
_atom_site_fract_x
_atom_site_fract_y
_atom_site_fract_z
Si Si1 0.400796 0.322644 0.129426
Si Si2 0.195782 0.695683 0.460625
Si Si3 0.653226 0.972610 0.201880
Si Si4 0.500000 0.790082 0.250000
Si Si5 0.550558 0.543366 0.107485
Si Si6 0.587496 0.039023 0.904044
O O1 0.342558 0.330219 0.108139
O O2 0.428972 0.399875 0.285886
O O3 0.415466 0.144809 0.122677
O O4 0.411405 0.416059 0.989206
O O5 0.250000 0.750000 0.500000
O O6 0.190979 0.567069 0.330104
O O7 0.183316 0.637998 0.617131
O O8 0.616618 0.885928 0.287193
O O9 0.617921 0.079236 0.074404
O O10 0.540266 0.690865 0.198734
O O11 0.466883 0.896902 0.119514
O O12 0.500000 0.500000 0.000000
#
# Coordination Sequence:
#
# PCOD8143377 Si02
#       6
#     8   8   8   4   8   8
#     4  10  24  42  58  83 131 158 204 259 309 363
#     4  10  21  40  66  90 117 161 207 266 318 371
#     4   8  19  40  58  84 126 144 205 262 311 344
#     4  12  24  32  66  86 118 160 226 230 314 366
#     4  12  24  40  55  88 127 168 195 251 317 385
#     4  10  22  39  61  89 115 169 206 259 290 366
#
# _framework density 20.104751
#
# number of rings (size 3 to 8) (size 9 to 14) (size 15 to 20)
#    0.000    2.182    1.818    2.182    7.636    2.909 
#    0.000    3.636    0.000    0.000    0.000    0.000 
#    0.000    0.000    0.000    0.000    0.000    0.000 
#
# Total GULP energy -272565.921483 kJ/mol
# GULP energy per Si atom -12389.360067 kJ/mol
# Density = 2.005899 g / cm^3
# Si number density = 20.104751 Si / 1000 Ang^3
#
#
#
# Elastic Constant Matrix: (Units=GPa)
#
#
# Indices 1 2 3 4 5 6 
#
# 1 118.2390 38.9830 37.7596 0.0000 24.3859 0.0000
# 2 38.9830 75.8378 28.4864 0.0000 12.9876 0.0000
# 3 37.7596 28.4864 102.7786 0.0000 2.3093 0.0000
# 4 0.0000 0.0000 0.0000 21.2309 0.0000 5.9363
# 5 24.3859 12.9876 2.3093 0.0000 40.3432 0.0000
# 6 0.0000 0.0000 0.0000 5.9363 0.0000 39.3932
#
#
#
# Elastic Compliance Matrix: (Units=1/GPa)
#
#
# Indices 1 2 3 4 5 6 
#
# 1 0.011970 -0.003975 -0.003166 0.000000 -0.005775 0.000000
# 2 -0.003975 0.016906 -0.003161 0.000000 -0.002859 0.000000
# 3 -0.003166 -0.003161 0.011718 0.000000 0.002261 0.000000
# 4 0.000000 0.000000 0.000000 0.049173 0.000000 -0.007410
# 5 -0.005775 -0.002859 0.002261 0.000000 0.029069 0.000000
# 6 0.000000 0.000000 0.000000 -0.007410 0.000000 0.026502
#
#
# Mechanical properties :
#
#
# Convention : Reuss Voigt Hill
#
# Bulk Modulus (GPa) = 50.02492 56.36818 53.19655
# Shear Modulus (GPa) = 28.96769 32.96855 30.96812
#
# Velocity S-wave (km/s) = 3.79996 4.05389 3.92897
# Velocity P-wave (km/s) = 6.64748 7.07178 6.86291
#
# Compressibility (1/GPa) = 0.01999004
#
# Stress axis : x y z
#
# Youngs Moduli (GPa) = 83.54210 59.14978 85.33667
#
# Poissons Ratio (x) = 0.23510 0.27020
# Poissons Ratio (y) = 0.33206 0.26977
# Poissons Ratio (z) = 0.26452 0.18699
#
# Static dielectric constant tensor:
#      x y z
#    x 3.881040 0.000000 -0.368020 
#    y 0.000000 3.532540 0.000000 
#    z -0.368020 0.000000 4.588840 
# 
# 
# High freq. dielectric constant tensor:
#      x y z
#    x 1.780800 0.000000 -0.003940 
#    y 0.000000 1.761430 0.000000 
#    z -0.003940 0.000000 1.803390 
# 
# From -- ./inp_files/68315.got.cif
#   From: 2010.06.25/outbox.cif.g09.slc.cpg/sg15_35_cif.got.tgz:68315.got - 2010.06.28 07:06:18.
