data_PCOD8143747
_publ_section_title
;
Structure prediction by ZEFSAII (Michael W. Deem and Ramdas Pophale) SiO2 
 PCOD8143747
Probable space group: C 2/C
;
_chemical_formula_sum "Si O2"
_cell_formula_units_Z 40
_cell_length_a 8.668025
_cell_length_b 10.695066
_cell_length_c 18.170065
_cell_angle_alpha 90.000000
_cell_angle_beta 89.351680
_cell_angle_gamma 90.000000
_cell_volume 1684.349848
_symmetry_space_group_name_H-M "C 2/C"
_symmetry_group_IT_number 15
_symmetry_cell_setting 'monoclinic'
loop_
_space_group_symop_operation_xyz
x,y,z
-x,y,1/2-z
-x,-y,-z
x,-y,1/2+z
1/2+x,1/2+y,z
1/2-x,1/2+y,1/2-z
1/2-x,1/2-y,-z
1/2+x,1/2-y,1/2+z
loop_
_atom_site_type_symbol
_atom_site_label
_atom_site_fract_x
_atom_site_fract_y
_atom_site_fract_z
Si Si1 0.085234 0.393077 0.079032
Si Si2 0.433042 0.243295 0.446785
Si Si3 0.079094 0.605624 0.327619
Si Si4 0.847819 0.925382 0.558007
Si Si5 0.078183 0.849884 0.672461
O O1 0.250553 0.447926 0.051477
O O2 0.118591 0.276332 0.130142
O O3 0.990598 0.491632 0.126769
O O4 0.991658 0.356143 0.007254
O O5 0.542763 0.232870 0.374553
O O6 0.260739 0.197126 0.425519
O O7 0.434639 0.386237 0.480002
O O8 0.260019 0.579990 0.315285
O O9 0.000000 0.619349 0.250000
O O10 0.966730 0.937635 0.624721
O O11 0.000000 0.818107 0.750000
#
# Coordination Sequence:
#
# PCOD8143747 Si02
#       5
#     8   8   8   8   8
#     4  10  21  41  64  86 117 157 195 239 296 347
#     4   9  19  38  62  88 119 154 193 241 293 348
#     4  11  22  40  62  85 120 159 193 239 298 350
#     4   9  18  36  61  87 117 152 194 241 290 342
#     4  11  23  38  58  87 120 155 199 244 286 345
#
# _framework density 23.748033
#
# number of rings (size 3 to 8) (size 9 to 14) (size 15 to 20)
#    0.000    2.000    0.000    5.400    0.000    3.200 
#    0.000   24.000    0.000    0.000    0.000    0.000 
#    0.000    0.000    0.000    0.000    0.000    0.000 
#
# Total GULP energy -248017.183633 kJ/mol
# GULP energy per Si atom -12400.859182 kJ/mol
# Density = 2.369398 g / cm^3
# Si number density = 23.748033 Si / 1000 Ang^3
#
#
#
# Elastic Constant Matrix: (Units=GPa)
#
#
# Indices 1 2 3 4 5 6 
#
# 1 156.5744 20.6550 66.9124 0.0000 15.5340 0.0000
# 2 20.6550 69.7839 32.3852 0.0000 0.5286 0.0000
# 3 66.9124 32.3852 160.5275 0.0000 8.3266 0.0000
# 4 0.0000 0.0000 0.0000 11.7708 0.0000 -3.4951
# 5 15.5340 0.5286 8.3266 0.0000 40.4780 0.0000
# 6 0.0000 0.0000 0.0000 -3.4951 0.0000 28.5332
#
#
#
# Elastic Compliance Matrix: (Units=1/GPa)
#
#
# Indices 1 2 3 4 5 6 
#
# 1 0.008054 -0.000956 -0.003037 0.000000 -0.002454 0.000000
# 2 -0.000956 0.015932 -0.002854 0.000000 0.000746 0.000000
# 3 -0.003037 -0.002854 0.008095 0.000000 -0.000462 0.000000
# 4 0.000000 0.000000 0.000000 0.088163 0.000000 0.010799
# 5 -0.002454 0.000746 -0.000462 0.000000 0.025732 0.000000
# 6 0.000000 0.000000 0.000000 0.010799 0.000000 0.036370
#
#
# Mechanical properties :
#
#
# Convention : Reuss Voigt Hill
#
# Bulk Modulus (GPa) = 54.38747 69.64344 62.01546
# Shear Modulus (GPa) = 24.73177 33.95196 29.34187
#
# Velocity S-wave (km/s) = 3.23061 3.78521 3.51885
# Velocity P-wave (km/s) = 6.07185 6.96372 6.53302
#
# Compressibility (1/GPa) = 0.01838659
#
# Stress axis : x y z
#
# Youngs Moduli (GPa) = 124.15920 62.76716 123.52929
#
# Poissons Ratio (x) = 0.06000 0.37517
# Poissons Ratio (y) = 0.11868 0.35260
# Poissons Ratio (z) = 0.37708 0.17916
#
# Static dielectric constant tensor:
#      x y z
#    x 4.526640 0.000000 -0.115840 
#    y 0.000000 4.066770 0.000000 
#    z -0.115840 0.000000 4.435150 
# 
# 
# High freq. dielectric constant tensor:
#      x y z
#    x 1.962870 0.000000 -0.000800 
#    y 0.000000 1.925860 0.000000 
#    z -0.000800 0.000000 1.940730 
# 
# From -- ./inp_files/187909.got.cif
#   From: 2010.06.25/outbox.cif.g09.slc.cpg/sg15_94_cif.got.tgz:187909.got - 2010.06.28 07:06:18.
