data_PCOD8143477
_publ_section_title
;
Structure prediction by ZEFSAII (Michael W. Deem and Ramdas Pophale) SiO2 
 PCOD8143477
Probable space group: C 2/C
;
_chemical_formula_sum "Si O2"
_cell_formula_units_Z 48
_cell_length_a 11.410875
_cell_length_b 11.221864
_cell_length_c 22.510457
_cell_angle_alpha 90.000000
_cell_angle_beta 51.927368
_cell_angle_gamma 90.000000
_cell_volume 2269.184002
_symmetry_space_group_name_H-M "C 2/C"
_symmetry_group_IT_number 15
_symmetry_cell_setting 'monoclinic'
loop_
_space_group_symop_operation_xyz
x,y,z
-x,y,1/2-z
-x,-y,-z
x,-y,1/2+z
1/2+x,1/2+y,z
1/2-x,1/2+y,1/2-z
1/2-x,1/2-y,-z
1/2+x,1/2-y,1/2+z
loop_
_atom_site_type_symbol
_atom_site_label
_atom_site_fract_x
_atom_site_fract_y
_atom_site_fract_z
Si Si1 0.111179 0.771663 0.769549
Si Si2 0.440021 0.288638 0.128266
Si Si3 0.408544 0.117881 0.902338
Si Si4 0.102946 0.379158 0.660589
Si Si5 0.414964 0.568199 0.119109
Si Si6 0.109236 0.237109 0.982643
O O1 0.280904 0.755729 0.699461
O O2 0.091712 0.896031 0.809850
O O3 0.000000 0.768994 0.750000
O O4 0.066148 0.666936 0.829257
O O5 0.559983 0.244742 0.140151
O O6 0.439682 0.428296 0.114554
O O7 0.476837 0.233440 0.051687
O O8 0.394519 0.141090 0.977655
O O9 0.410290 0.979527 0.885923
O O10 0.275689 0.193646 0.912518
O O11 0.270413 0.381065 0.630739
O O12 0.000000 0.403961 0.750000
O O13 0.549612 0.626905 0.040801
#
# Coordination Sequence:
#
# PCOD8143477 Si02
#       6
#     8   8   8   8   8   8
#     4  11  21  40  66  90 122 173 218 278 325 393
#     4  12  24  40  69  96 129 171 224 267 337 397
#     4  10  21  40  68  89 130 172 222 264 334 398
#     4  12  24  42  67  97 129 173 218 272 333 394
#     4  11  24  43  62  92 139 167 213 277 335 392
#     4  10  22  41  64  96 126 176 217 268 331 401
#
# _framework density 21.152978000000001
#
# number of rings (size 3 to 8) (size 9 to 14) (size 15 to 20)
#    0.000    1.000    5.000    2.000    0.000    2.000 
#    0.000    0.000    0.000    0.000    0.000    0.000 
#    0.000    0.000    0.000    0.000    0.000    0.000 
#
# Total GULP energy -297456.545212 kJ/mol
# GULP energy per Si atom -12394.022717 kJ/mol
# Density = 2.110483 g / cm^3
# Si number density = 21.152978 Si / 1000 Ang^3
#
#
#
# Elastic Constant Matrix: (Units=GPa)
#
#
# Indices 1 2 3 4 5 6 
#
# 1 32.7117 22.9389 0.4769 0.0000 -14.6306 0.0000
# 2 22.9389 42.1238 32.8611 0.0000 -3.9999 0.0000
# 3 0.4769 32.8611 88.5715 0.0000 8.1638 0.0000
# 4 0.0000 0.0000 0.0000 12.1413 0.0000 0.3527
# 5 -14.6306 -3.9999 8.1638 0.0000 15.9932 0.0000
# 6 0.0000 0.0000 0.0000 0.3527 0.0000 24.6010
#
#
#
# Elastic Compliance Matrix: (Units=1/GPa)
#
#
# Indices 1 2 3 4 5 6 
#
# 1 0.111172 -0.066620 0.017084 0.000000 0.076318 0.000000
# 2 -0.066620 0.077389 -0.025731 0.000000 -0.028455 0.000000
# 3 0.017084 -0.025731 0.020880 0.000000 -0.001465 0.000000
# 4 0.000000 0.000000 0.000000 0.082398 0.000000 -0.001181
# 5 0.076318 -0.028455 -0.001465 0.000000 0.125974 0.000000
# 6 0.000000 0.000000 0.000000 -0.001181 0.000000 0.040666
#
#
# Mechanical properties :
#
#
# Convention : Reuss Voigt Hill
#
# Bulk Modulus (GPa) = 16.97603 30.66230 23.81916
# Shear Modulus (GPa) = 7.95359 17.68909 12.82134
#
# Velocity S-wave (km/s) = 1.94118 2.89493 2.46463
# Velocity P-wave (km/s) = 3.61484 5.06963 4.40274
#
# Compressibility (1/GPa) = 0.05890658
#
# Stress axis : x y z
#
# Youngs Moduli (GPa) = 8.99510 12.92174 47.89315
#
# Poissons Ratio (x) = 0.86085 -0.81820
# Poissons Ratio (y) = 0.59925 1.23233
# Poissons Ratio (z) = -0.15367 0.33249
#
# Static dielectric constant tensor:
#      x y z
#    x 4.006500 0.000000 0.108860 
#    y 0.000000 3.650380 0.000000 
#    z 0.108860 0.000000 4.533510 
# 
# 
# High freq. dielectric constant tensor:
#      x y z
#    x 1.826090 0.000000 0.006100 
#    y 0.000000 1.806970 0.000000 
#    z 0.006100 0.000000 1.851700 
# 
# From -- ./inp_files/196227.got.cif
#   From: 2010.06.25/outbox.cif.g09.slc.cpg/sg15_99_cif.got.tgz:196227.got - 2010.06.28 07:06:18.
