data_PCOD8143511
_publ_section_title
;
Structure prediction by ZEFSAII (Michael W. Deem and Ramdas Pophale) SiO2 
 PCOD8143511
Probable space group: C 2/C
;
_chemical_formula_sum "Si O2"
_cell_formula_units_Z 40
_cell_length_a 10.788337
_cell_length_b 14.951358
_cell_length_c 13.712686
_cell_angle_alpha 90.000000
_cell_angle_beta 129.351897
_cell_angle_gamma 90.000000
_cell_volume 1710.356724
_symmetry_space_group_name_H-M "C 2/C"
_symmetry_group_IT_number 15
_symmetry_cell_setting 'monoclinic'
loop_
_space_group_symop_operation_xyz
x,y,z
-x,y,1/2-z
-x,-y,-z
x,-y,1/2+z
1/2+x,1/2+y,z
1/2-x,1/2+y,1/2-z
1/2-x,1/2-y,-z
1/2+x,1/2-y,1/2+z
loop_
_atom_site_type_symbol
_atom_site_label
_atom_site_fract_x
_atom_site_fract_y
_atom_site_fract_z
Si Si1 0.560442 0.681440 0.991835
Si Si2 0.659519 0.863227 0.985023
Si Si3 0.562831 0.231410 0.890424
Si Si4 0.637819 0.571805 0.751758
Si Si5 0.966368 0.469665 0.346394
O O1 0.542438 0.778342 0.930091
O O2 0.428514 0.617073 0.879129
O O3 0.738183 0.640236 0.064551
O O4 0.528481 0.694190 0.090527
O O5 0.570291 0.957172 0.956050
O O6 0.787211 0.853985 0.137787
O O7 0.500000 0.245851 0.750000
O O8 0.518601 0.130722 0.903747
O O9 0.750000 0.250000 0.000000
O O10 0.500000 0.522005 0.750000
O O11 0.780812 0.509716 0.781619
O O12 0.000000 0.485097 0.250000
#
# Coordination Sequence:
#
# PCOD8143511 Si02
#       5
#     8   8   8   8   8
#     4  10  21  40  69 101 136 173 237 280 345 419
#     4  10  22  40  70  99 131 180 231 283 349 412
#     4  11  24  44  70 101 143 189 232 290 357 425
#     4  10  21  41  68  98 139 178 221 296 345 413
#     4  11  23  43  67  96 140 184 232 290 355 416
#
# _framework density 23.386932000000002
#
# number of rings (size 3 to 8) (size 9 to 14) (size 15 to 20)
#    0.000    1.600    2.000    3.000    0.000    4.000 
#    0.000   12.000    0.000    0.000    0.000    0.000 
#    0.000    0.000    0.000    0.000    0.000    0.000 
#
# Total GULP energy -247843.658820 kJ/mol
# GULP energy per Si atom -12392.182941 kJ/mol
# Density = 2.333370 g / cm^3
# Si number density = 23.386932 Si / 1000 Ang^3
#
#
#
# Elastic Constant Matrix: (Units=GPa)
#
#
# Indices 1 2 3 4 5 6 
#
# 1 197.6463 48.6215 50.8246 0.0000 8.1051 0.0000
# 2 48.6215 71.0175 29.1349 0.0000 4.5468 0.0000
# 3 50.8246 29.1349 92.9058 0.0000 0.4036 0.0000
# 4 0.0000 0.0000 0.0000 20.3399 0.0000 -0.5871
# 5 8.1051 4.5468 0.4036 0.0000 34.4021 0.0000
# 6 0.0000 0.0000 0.0000 -0.5871 0.0000 33.3369
#
#
#
# Elastic Compliance Matrix: (Units=1/GPa)
#
#
# Indices 1 2 3 4 5 6 
#
# 1 0.006593 -0.003405 -0.002534 0.000000 -0.001073 0.000000
# 2 -0.003405 0.018069 -0.003797 0.000000 -0.001541 0.000000
# 3 -0.002534 -0.003797 0.013336 0.000000 0.000942 0.000000
# 4 0.000000 0.000000 0.000000 0.049189 0.000000 0.000866
# 5 -0.001073 -0.001541 0.000942 0.000000 0.029514 0.000000
# 6 0.000000 0.000000 0.000000 0.000866 0.000000 0.030012
#
#
# Mechanical properties :
#
#
# Convention : Reuss Voigt Hill
#
# Bulk Modulus (GPa) = 53.97894 68.74795 61.36345
# Shear Modulus (GPa) = 29.00891 33.14836 31.07863
#
# Velocity S-wave (km/s) = 3.52574 3.76891 3.64935
# Velocity P-wave (km/s) = 6.30122 6.95696 6.63719
#
# Compressibility (1/GPa) = 0.01852574
#
# Stress axis : x y z
#
# Youngs Moduli (GPa) = 151.67695 55.34401 74.98271
#
# Poissons Ratio (x) = 0.18847 0.19001
# Poissons Ratio (y) = 0.51653 0.28468
# Poissons Ratio (z) = 0.38437 0.21012
#
# Static dielectric constant tensor:
#      x y z
#    x 4.752130 0.000000 -0.066640 
#    y 0.000000 3.904950 0.000000 
#    z -0.066640 0.000000 4.020220 
# 
# 
# High freq. dielectric constant tensor:
#      x y z
#    x 1.961080 0.000000 -0.008820 
#    y 0.000000 1.891840 0.000000 
#    z -0.008820 0.000000 1.913900 
# 
# From -- ./inp_files/143923.got.cif
#   From: 2010.06.25/outbox.cif.g09.slc.cpg/sg15_72_cif.got.tgz:143923.got - 2010.06.28 07:06:18.
