data_PCOD8143501
_publ_section_title
;
Structure prediction by ZEFSAII (Michael W. Deem and Ramdas Pophale) SiO2 
 PCOD8143501
Probable space group: C 2/C
;
_chemical_formula_sum "Si O2"
_cell_formula_units_Z 60
_cell_length_a 16.840958
_cell_length_b 11.244319
_cell_length_c 13.941776
_cell_angle_alpha 90.000000
_cell_angle_beta 70.521542
_cell_angle_gamma 90.000000
_cell_volume 2488.985640
_symmetry_space_group_name_H-M "C 2/C"
_symmetry_group_IT_number 15
_symmetry_cell_setting 'monoclinic'
loop_
_space_group_symop_operation_xyz
x,y,z
-x,y,1/2-z
-x,-y,-z
x,-y,1/2+z
1/2+x,1/2+y,z
1/2-x,1/2+y,1/2-z
1/2-x,1/2-y,-z
1/2+x,1/2-y,1/2+z
loop_
_atom_site_type_symbol
_atom_site_label
_atom_site_fract_x
_atom_site_fract_y
_atom_site_fract_z
Si Si1 0.000000 0.754700 0.750000
Si Si2 0.652479 0.362305 0.620825
Si Si3 0.001197 0.866701 0.138400
Si Si4 0.918348 0.354666 0.581531
Si Si5 0.277653 0.323706 0.098660
Si Si6 0.568431 0.113369 0.888549
Si Si7 0.156325 0.017568 0.317126
Si Si8 0.832551 0.792396 0.527571
O O1 0.948348 0.843145 0.841722
O O2 0.933773 0.681384 0.712316
O O3 0.688930 0.407031 0.503986
O O4 0.684961 0.226114 0.621820
O O5 0.673350 0.449610 0.700057
O O6 0.000000 0.891848 0.250000
O O7 0.964914 0.736152 0.133435
O O8 0.098428 0.867733 0.062831
O O9 0.939278 0.970163 0.119604
O O10 0.831329 0.297854 0.582974
O O11 0.900908 0.478692 0.643710
O O12 0.972651 0.384737 0.465420
O O13 0.281781 0.405011 0.191160
O O14 0.628019 0.172864 0.944287
O O15 0.187331 0.124811 0.372633
O O16 0.750000 0.750000 0.500000
#
# Coordination Sequence:
#
# PCOD8143501 Si02
#       8
#     4   8   8   8   8   8   8   8
#     4  12  22  40  70 100 138 180 246 284 354 452
#     4  11  25  43  70 104 139 186 238 298 363 441
#     4  10  24  43  69 102 143 194 247 302 369 445
#     4   9  20  42  65  94 138 180 233 290 365 426
#     4  10  24  47  68 102 143 183 238 304 369 430
#     4  10  21  40  68  98 135 186 233 294 357 440
#     4  11  25  45  72 102 141 192 244 302 372 448
#     4  11  25  44  69 105 149 190 247 310 372 440
#
# _framework density 24.106206
#
# number of rings (size 3 to 8) (size 9 to 14) (size 15 to 20)
#    0.000    1.600    2.667    0.400    3.733    5.333 
#    2.400    0.000    0.000    0.000    0.000    0.000 
#    0.000    0.000    0.000    0.000    0.000    0.000 
#
# Total GULP energy -371740.836341 kJ/mol
# GULP energy per Si atom -12391.361211 kJ/mol
# Density = 2.405134 g / cm^3
# Si number density = 24.106206 Si / 1000 Ang^3
#
#
#
# Elastic Constant Matrix: (Units=GPa)
#
#
# Indices 1 2 3 4 5 6 
#
# 1 84.3875 16.8004 14.5051 0.0000 18.2227 0.0000
# 2 16.8004 80.4127 20.4384 0.0000 15.8986 0.0000
# 3 14.5051 20.4384 72.2282 0.0000 13.9989 0.0000
# 4 0.0000 0.0000 0.0000 35.2916 0.0000 8.5524
# 5 18.2227 15.8986 13.9989 0.0000 36.3361 0.0000
# 6 0.0000 0.0000 0.0000 8.5524 0.0000 38.3354
#
#
#
# Elastic Compliance Matrix: (Units=1/GPa)
#
#
# Indices 1 2 3 4 5 6 
#
# 1 0.013574 -0.001393 -0.001222 0.000000 -0.005727 0.000000
# 2 -0.001393 0.014349 -0.002917 0.000000 -0.004456 0.000000
# 3 -0.001222 -0.002917 0.015724 0.000000 -0.004169 0.000000
# 4 0.000000 0.000000 0.000000 0.029955 0.000000 -0.006683
# 5 -0.005727 -0.004456 -0.004169 0.000000 0.033949 0.000000
# 6 0.000000 0.000000 0.000000 -0.006683 0.000000 0.027576
#
#
# Mechanical properties :
#
#
# Convention : Reuss Voigt Hill
#
# Bulk Modulus (GPa) = 30.69040 37.83513 34.26276
# Shear Modulus (GPa) = 31.83650 34.34491 33.09070
#
# Velocity S-wave (km/s) = 3.63805 3.77866 3.70902
# Velocity P-wave (km/s) = 5.51418 5.89635 5.70847
#
# Compressibility (1/GPa) = 0.03258348
#
# Stress axis : x y z
#
# Youngs Moduli (GPa) = 73.66907 69.68970 63.59800
#
# Poissons Ratio (x) = 0.09709 0.07770
# Poissons Ratio (y) = 0.10263 0.18552
# Poissons Ratio (z) = 0.09001 0.20329
#
# Static dielectric constant tensor:
#      x y z
#    x 4.388970 0.000000 -0.012140 
#    y 0.000000 4.376970 0.000000 
#    z -0.012140 0.000000 4.217870 
# 
# 
# High freq. dielectric constant tensor:
#      x y z
#    x 1.957320 0.000000 0.003770 
#    y 0.000000 1.959940 0.000000 
#    z 0.003770 0.000000 1.948160 
# 
# From -- ./inp_files/161317.got.cif
#   From: 2010.06.25/outbox.cif.g09.slc.cpg/sg15_81_cif.got.tgz:161317.got - 2010.06.28 07:06:18.
