data_PCOD8143044
_publ_section_title
;
Structure prediction by ZEFSAII (Michael W. Deem and Ramdas Pophale) SiO2 
 PCOD8143044
Probable space group: C 2/C
;
_chemical_formula_sum "Si O2"
_cell_formula_units_Z 48
_cell_length_a 16.060108
_cell_length_b 11.143747
_cell_length_c 18.376545
_cell_angle_alpha 90.000000
_cell_angle_beta 134.063622
_cell_angle_gamma 90.000000
_cell_volume 2363.259649
_symmetry_space_group_name_H-M "C 2/C"
_symmetry_group_IT_number 15
_symmetry_cell_setting 'monoclinic'
loop_
_space_group_symop_operation_xyz
x,y,z
-x,y,1/2-z
-x,-y,-z
x,-y,1/2+z
1/2+x,1/2+y,z
1/2-x,1/2+y,1/2-z
1/2-x,1/2-y,-z
1/2+x,1/2-y,1/2+z
loop_
_atom_site_type_symbol
_atom_site_label
_atom_site_fract_x
_atom_site_fract_y
_atom_site_fract_z
Si Si1 0.987541 0.107342 0.047658
Si Si2 0.792701 0.744060 0.781414
Si Si3 0.079349 0.331151 0.581714
Si Si4 0.159668 0.425623 0.059871
Si Si5 0.137923 0.700553 0.833261
Si Si6 0.706205 0.428151 0.960764
O O1 0.113316 0.151864 0.148935
O O2 0.916621 0.217787 0.970421
O O3 0.915959 0.056000 0.072599
O O4 0.000000 0.000000 0.000000
O O5 0.667848 0.808700 0.701499
O O6 0.784066 0.645845 0.839236
O O7 0.821025 0.674479 0.723880
O O8 0.114633 0.444336 0.555420
O O9 0.950543 0.349446 0.536505
O O10 0.255220 0.446966 0.054758
O O11 0.190431 0.602939 0.920314
O O12 0.000000 0.694178 0.750000
O O13 0.187470 0.829837 0.886521
#
# Coordination Sequence:
#
# PCOD8143044 Si02
#       6
#     8   8   8   8   8   8
#     4  11  24  40  63  93 129 167 216 272 321 379
#     4  11  22  39  65  95 127 174 212 262 326 390
#     4  10  21  40  60  94 126 167 209 260 323 377
#     4  10  23  38  66  94 132 162 205 272 325 378
#     4  11  21  35  63  96 124 158 220 272 312 365
#     4  11  21  40  61  94 127 161 213 275 315 366
#
# _framework density 20.310929000000002
#
# number of rings (size 3 to 8) (size 9 to 14) (size 15 to 20)
#    0.000    1.333    5.000    1.000    7.000    0.000 
#    0.000    3.333    0.000    4.000    0.000    0.000 
#    0.000    0.000    0.000    0.000    0.000    0.000 
#
# Total GULP energy -297601.162848 kJ/mol
# GULP energy per Si atom -12400.048452 kJ/mol
# Density = 2.026470 g / cm^3
# Si number density = 20.310929 Si / 1000 Ang^3
#
#
#
# Elastic Constant Matrix: (Units=GPa)
#
#
# Indices 1 2 3 4 5 6 
#
# 1 116.9941 60.2664 62.0492 0.0000 -11.5271 0.0000
# 2 60.2664 78.5545 51.2260 0.0000 -8.6402 0.0000
# 3 62.0492 51.2260 146.6127 0.0000 11.9351 0.0000
# 4 0.0000 0.0000 0.0000 26.2995 0.0000 -8.9966
# 5 -11.5271 -8.6402 11.9351 0.0000 34.5458 0.0000
# 6 0.0000 0.0000 0.0000 -8.9966 0.0000 39.2618
#
#
#
# Elastic Compliance Matrix: (Units=1/GPa)
#
#
# Indices 1 2 3 4 5 6 
#
# 1 0.015653 -0.009055 -0.003809 0.000000 0.004274 0.000000
# 2 -0.009055 0.023169 -0.004619 0.000000 0.004369 0.000000
# 3 -0.003809 -0.004619 0.010540 0.000000 -0.006068 0.000000
# 4 0.000000 0.000000 0.000000 0.041258 0.000000 0.009454
# 5 0.004274 0.004369 -0.006068 0.000000 0.033562 0.000000
# 6 0.000000 0.000000 0.000000 0.009454 0.000000 0.027636
#
#
# Mechanical properties :
#
#
# Convention : Reuss Voigt Hill
#
# Bulk Modulus (GPa) = 69.45555 76.58271 73.01913
# Shear Modulus (GPa) = 26.09828 31.26272 28.68050
#
# Velocity S-wave (km/s) = 3.58849 3.92753 3.76183
# Velocity P-wave (km/s) = 7.17217 7.63900 7.40927
#
# Compressibility (1/GPa) = 0.01439770
#
# Stress axis : x y z
#
# Youngs Moduli (GPa) = 63.88511 43.16030 94.87342
#
# Poissons Ratio (x) = 0.39082 0.36136
# Poissons Ratio (y) = 0.57848 0.43819
# Poissons Ratio (z) = 0.24333 0.19935
#
# Static dielectric constant tensor:
#      x y z
#    x 3.901500 0.000000 0.314980 
#    y 0.000000 3.533400 0.000000 
#    z 0.314980 0.000000 3.937820 
# 
# 
# High freq. dielectric constant tensor:
#      x y z
#    x 1.792850 0.000000 0.018300 
#    y 0.000000 1.768140 0.000000 
#    z 0.018300 0.000000 1.801930 
# 
# From -- ./inp_files/152750.got.cif
#   From: 2010.06.25/outbox.cif.g09.slc.cpg/sg15_77_cif.got.tgz:152750.got - 2010.06.28 07:06:18.
