data_PCOD8143478
_publ_section_title
;
Structure prediction by ZEFSAII (Michael W. Deem and Ramdas Pophale) SiO2 
 PCOD8143478
Probable space group: C 2/C
;
_chemical_formula_sum "Si O2"
_cell_formula_units_Z 48
_cell_length_a 11.413178
_cell_length_b 16.561945
_cell_length_c 12.514320
_cell_angle_alpha 90.000000
_cell_angle_beta 107.314735
_cell_angle_gamma 90.000000
_cell_volume 2258.317298
_symmetry_space_group_name_H-M "C 2/C"
_symmetry_group_IT_number 15
_symmetry_cell_setting 'monoclinic'
loop_
_space_group_symop_operation_xyz
x,y,z
-x,y,1/2-z
-x,-y,-z
x,-y,1/2+z
1/2+x,1/2+y,z
1/2-x,1/2+y,1/2-z
1/2-x,1/2-y,-z
1/2+x,1/2-y,1/2+z
loop_
_atom_site_type_symbol
_atom_site_label
_atom_site_fract_x
_atom_site_fract_y
_atom_site_fract_z
Si Si1 0.324062 0.107927 0.577157
Si Si2 0.786796 0.337150 0.478484
Si Si3 0.932292 0.352805 0.881983
Si Si4 0.500000 0.011421 0.250000
Si Si5 0.875805 0.014860 0.528900
Si Si6 0.810246 0.190107 0.779426
Si Si7 0.500000 0.425355 0.250000
O O1 0.375000 0.146186 0.483392
O O2 0.283747 0.178577 0.647616
O O3 0.418081 0.045392 0.654071
O O4 0.202125 0.063087 0.511786
O O5 0.750000 0.250000 0.500000
O O6 0.700033 0.402545 0.515428
O O7 0.769721 0.336052 0.345622
O O8 0.923346 0.348260 0.557840
O O9 0.869221 0.279896 0.798222
O O10 0.914365 0.433162 0.804517
O O11 0.906564 0.017083 0.662827
O O12 0.000000 0.000000 0.500000
O O13 0.927376 0.130228 0.816110
#
# Coordination Sequence:
#
# PCOD8143478 Si02
#       7
#     8   8   8   4   8   8   4
#     4  12  26  42  69 100 143 174 226 293 351 400
#     4  11  24  44  71  97 132 180 233 278 335 424
#     4  12  25  45  68 103 137 181 232 284 348 417
#     4  12  25  44  72 103 136 184 234 284 349 422
#     4  11  23  42  66  99 132 174 221 283 337 406
#     4  11  24  44  67  97 136 183 225 282 343 412
#     4  10  21  40  68  89 132 174 228 262 333 406
#
# _framework density 21.254764000000002
#
# number of rings (size 3 to 8) (size 9 to 14) (size 15 to 20)
#    0.000    0.667    3.333    5.500    4.667    0.000 
#    0.000    0.000    0.000    0.000    0.000    0.000 
#    0.000    0.000    0.000    0.000    0.000    0.000 
#
# Total GULP energy -297402.957352 kJ/mol
# GULP energy per Si atom -12391.789890 kJ/mol
# Density = 2.120639 g / cm^3
# Si number density = 21.254764 Si / 1000 Ang^3
#
#
#
# Elastic Constant Matrix: (Units=GPa)
#
#
# Indices 1 2 3 4 5 6 
#
# 1 82.5631 24.9187 -0.2719 0.0000 -22.5268 0.0000
# 2 24.9187 77.9011 14.6522 0.0000 1.0040 0.0000
# 3 -0.2719 14.6522 57.4079 0.0000 -13.0577 0.0000
# 4 0.0000 0.0000 0.0000 42.1159 0.0000 -1.2539
# 5 -22.5268 1.0040 -13.0577 0.0000 39.6290 0.0000
# 6 0.0000 0.0000 0.0000 -1.2539 0.0000 24.2882
#
#
#
# Elastic Compliance Matrix: (Units=1/GPa)
#
#
# Indices 1 2 3 4 5 6 
#
# 1 0.017166 -0.006447 0.004306 0.000000 0.011340 0.000000
# 2 -0.006447 0.015999 -0.005448 0.000000 -0.005865 0.000000
# 3 0.004306 -0.005448 0.020992 0.000000 0.009503 0.000000
# 4 0.000000 0.000000 0.000000 0.023781 0.000000 0.001228
# 5 0.011340 -0.005865 0.009503 0.000000 0.034960 0.000000
# 6 0.000000 0.000000 0.000000 0.001228 0.000000 0.041236
#
#
# Mechanical properties :
#
#
# Convention : Reuss Voigt Hill
#
# Bulk Modulus (GPa) = 25.65499 32.94113 29.29806
# Shear Modulus (GPa) = 27.42671 33.11149 30.26910
#
# Velocity S-wave (km/s) = 3.59608 3.95123 3.77783
# Velocity P-wave (km/s) = 5.41653 6.02894 5.73092
#
# Compressibility (1/GPa) = 0.03897877
#
# Stress axis : x y z
#
# Youngs Moduli (GPa) = 58.25466 62.50248 47.63826
#
# Poissons Ratio (x) = 0.40296 -0.20514
# Poissons Ratio (y) = 0.37557 0.25954
# Poissons Ratio (z) = -0.25085 0.34052
#
# Static dielectric constant tensor:
#      x y z
#    x 3.759660 0.000000 0.217880 
#    y 0.000000 3.875090 0.000000 
#    z 0.217880 0.000000 3.829470 
# 
# 
# High freq. dielectric constant tensor:
#      x y z
#    x 1.837480 0.000000 0.007560 
#    y 0.000000 1.830900 0.000000 
#    z 0.007560 0.000000 1.850790 
# 
# From -- ./inp_files/87916.got.cif
#   From: 2010.06.25/outbox.cif.g09.slc.cpg/sg15_44_cif.got.tgz:87916.got - 2010.06.28 07:06:18.
