data_PCOD8143870
_publ_section_title
;
Structure prediction by ZEFSAII (Michael W. Deem and Ramdas Pophale) SiO2 
 PCOD8143870
Probable space group: C 2/C
;
_chemical_formula_sum "Si O2"
_cell_formula_units_Z 64
_cell_length_a 13.572247
_cell_length_b 31.085012
_cell_length_c 9.060470
_cell_angle_alpha 90.000000
_cell_angle_beta 57.416730
_cell_angle_gamma 90.000000
_cell_volume 3220.920193
_symmetry_space_group_name_H-M "C 2/C"
_symmetry_group_IT_number 15
_symmetry_cell_setting 'monoclinic'
loop_
_space_group_symop_operation_xyz
x,y,z
-x,y,1/2-z
-x,-y,-z
x,-y,1/2+z
1/2+x,1/2+y,z
1/2-x,1/2+y,1/2-z
1/2-x,1/2-y,-z
1/2+x,1/2-y,1/2+z
loop_
_atom_site_type_symbol
_atom_site_label
_atom_site_fract_x
_atom_site_fract_y
_atom_site_fract_z
Si Si1 0.199044 0.465032 0.468049
Si Si2 0.387404 0.396384 0.237950
Si Si3 0.485850 0.546895 0.086423
Si Si4 0.244644 0.192814 0.639633
Si Si5 0.380965 0.219937 0.258434
Si Si6 0.495970 0.092431 0.080747
Si Si7 0.270693 0.952946 0.737141
Si Si8 0.977668 0.677754 0.595689
O O1 0.296637 0.428221 0.387624
O O2 0.178995 0.474712 0.655764
O O3 0.242504 0.509557 0.370373
O O4 0.078653 0.449108 0.490799
O O5 0.500000 0.390500 0.250000
O O6 0.324601 0.350681 0.264533
O O7 0.422252 0.418538 0.053306
O O8 0.500000 0.542430 0.250000
O O9 0.358819 0.566753 0.148606
O O10 0.500000 0.500000 0.000000
O O11 0.285049 0.193825 0.433996
O O12 0.159363 0.232032 0.744301
O O13 0.356976 0.201666 0.653167
O O14 0.500000 0.222861 0.250000
O O15 0.407960 0.195848 0.082407
O O16 0.500000 0.107207 0.250000
O O17 0.366121 0.083390 0.121345
O O18 0.547439 0.129355 0.936949
O O19 0.000000 0.681173 0.750000
#
# Coordination Sequence:
#
# PCOD8143870 Si02
#       8
#     8   8   8   8   8   8   8   8
#     4  11  22  38  59  86 116 157 201 261 304 358
#     4  12  23  38  63  90 118 156 210 258 314 368
#     4  12  24  39  57  82 118 162 209 256 307 369
#     4  10  21  41  66  90 124 160 206 255 302 371
#     4   9  20  40  67  95 120 160 207 251 303 375
#     4  10  22  40  61  86 119 158 210 254 301 363
#     4  11  23  37  58  84 115 160 202 254 307 356
#     4  11  23  37  61  94 128 162 194 249 317 368
#
# _framework density 19.870097999999999
#
# number of rings (size 3 to 8) (size 9 to 14) (size 15 to 20)
#    0.000    1.250    3.750    3.000    1.750    2.500 
#    0.000    0.625    0.000    0.000    0.000    0.000 
#    0.000    0.000    0.000    0.000    0.000    0.000 
#
# Total GULP energy -396725.460134 kJ/mol
# GULP energy per Si atom -12397.670629 kJ/mol
# Density = 1.982487 g / cm^3
# Si number density = 19.870098 Si / 1000 Ang^3
#
#
#
# Elastic Constant Matrix: (Units=GPa)
#
#
# Indices 1 2 3 4 5 6 
#
# 1 71.6986 16.4412 34.2460 0.0000 -7.6693 0.0000
# 2 16.4412 84.1078 42.8278 0.0000 2.0819 0.0000
# 3 34.2460 42.8278 106.3627 0.0000 10.8813 0.0000
# 4 0.0000 0.0000 0.0000 31.7483 0.0000 -10.0247
# 5 -7.6693 2.0819 10.8813 0.0000 35.9392 0.0000
# 6 0.0000 0.0000 0.0000 -10.0247 0.0000 29.6992
#
#
#
# Elastic Compliance Matrix: (Units=1/GPa)
#
#
# Indices 1 2 3 4 5 6 
#
# 1 0.017534 -0.000503 -0.006015 0.000000 0.005592 0.000000
# 2 -0.000503 0.015004 -0.005965 0.000000 0.000829 0.000000
# 3 -0.006015 -0.005965 0.014278 0.000000 -0.005261 0.000000
# 4 0.000000 0.000000 0.000000 0.035255 0.000000 0.011900
# 5 0.005592 0.000829 -0.005261 0.000000 0.030563 0.000000
# 6 0.000000 0.000000 0.000000 0.011900 0.000000 0.037688
#
#
# Mechanical properties :
#
#
# Convention : Reuss Voigt Hill
#
# Bulk Modulus (GPa) = 45.76347 49.91101 47.83724
# Shear Modulus (GPa) = 27.38655 30.72094 29.05374
#
# Velocity S-wave (km/s) = 3.71655 3.93630 3.82800
# Velocity P-wave (km/s) = 6.44192 6.76997 6.60798
#
# Compressibility (1/GPa) = 0.02185149
#
# Stress axis : x y z
#
# Youngs Moduli (GPa) = 57.03298 66.64685 70.03612
#
# Poissons Ratio (x) = 0.03353 0.42126
# Poissons Ratio (y) = 0.02869 0.41773
# Poissons Ratio (z) = 0.34305 0.39752
#
# Static dielectric constant tensor:
#      x y z
#    x 3.727050 0.000000 -0.267440 
#    y 0.000000 3.469890 0.000000 
#    z -0.267440 0.000000 3.785690 
# 
# 
# High freq. dielectric constant tensor:
#      x y z
#    x 1.779110 0.000000 -0.018520 
#    y 0.000000 1.761290 0.000000 
#    z -0.018520 0.000000 1.775170 
# 
# From -- ./inp_files/44540.got.cif
#   From: 2010.06.25/outbox.cif.g09.slc.cpg/sg15_23_cif.got.tgz:44540.got - 2010.06.28 07:06:18.
