data_PCOD8143429
_publ_section_title
;
Structure prediction by ZEFSAII (Michael W. Deem and Ramdas Pophale) SiO2 
 PCOD8143429
Probable space group: C 2/C
;
_chemical_formula_sum "Si O2"
_cell_formula_units_Z 48
_cell_length_a 9.606295
_cell_length_b 13.258058
_cell_length_c 18.539941
_cell_angle_alpha 90.000000
_cell_angle_beta 77.604510
_cell_angle_gamma 90.000000
_cell_volume 2306.219061
_symmetry_space_group_name_H-M "C 2/C"
_symmetry_group_IT_number 15
_symmetry_cell_setting 'monoclinic'
loop_
_space_group_symop_operation_xyz
x,y,z
-x,y,1/2-z
-x,-y,-z
x,-y,1/2+z
1/2+x,1/2+y,z
1/2-x,1/2+y,1/2-z
1/2-x,1/2-y,-z
1/2+x,1/2-y,1/2+z
loop_
_atom_site_type_symbol
_atom_site_label
_atom_site_fract_x
_atom_site_fract_y
_atom_site_fract_z
Si Si1 0.601378 0.331698 0.002244
Si Si2 0.671376 0.042142 0.374454
Si Si3 0.229935 0.311792 0.383132
Si Si4 0.711006 0.634620 0.998985
Si Si5 0.338057 0.852123 0.771141
Si Si6 0.846175 0.533197 0.409352
O O1 0.605973 0.233954 0.948937
O O2 0.449955 0.384387 0.009555
O O3 0.733868 0.404976 0.969853
O O4 0.624536 0.304032 0.084380
O O5 0.773366 0.080830 0.425853
O O6 0.716874 0.105940 0.299012
O O7 0.507078 0.062070 0.414318
O O8 0.694184 0.923154 0.359371
O O9 0.245920 0.242498 0.309956
O O10 0.750000 0.750000 0.000000
O O11 0.816230 0.584378 0.928446
O O12 0.500000 0.814680 0.750000
O O13 0.324044 0.946163 0.827522
#
# Coordination Sequence:
#
# PCOD8143429 Si02
#       6
#     8   8   8   8   8   8
#     4  10  22  39  65  94 121 160 209 256 310 366
#     4  11  23  41  63  94 124 165 206 254 317 363
#     4  10  21  40  67  86 124 166 206 251 311 374
#     4  12  25  35  61 100 128 153 207 267 305 355
#     4   9  22  41  63  87 121 170 210 246 307 382
#     4  10  21  42  64  87 125 167 207 249 308 378
#
# _framework density 20.813288
#
# number of rings (size 3 to 8) (size 9 to 14) (size 15 to 20)
#    0.000    1.667    1.667    2.000    9.333    1.333 
#    0.000    5.000    0.000    0.000    0.000    0.000 
#    0.000    0.000    0.000    0.000    0.000    0.000 
#
# Total GULP energy -297543.271841 kJ/mol
# GULP energy per Si atom -12397.636327 kJ/mol
# Density = 2.076592 g / cm^3
# Si number density = 20.813288 Si / 1000 Ang^3
#
#
#
# Elastic Constant Matrix: (Units=GPa)
#
#
# Indices 1 2 3 4 5 6 
#
# 1 82.5588 21.3010 40.0337 0.0000 10.1604 0.0000
# 2 21.3010 124.0556 40.4197 0.0000 -4.7152 0.0000
# 3 40.0337 40.4197 100.7642 0.0000 0.2432 0.0000
# 4 0.0000 0.0000 0.0000 40.9218 0.0000 -4.2495
# 5 10.1604 -4.7152 0.2432 0.0000 21.9504 0.0000
# 6 0.0000 0.0000 0.0000 -4.2495 0.0000 29.9789
#
#
#
# Elastic Compliance Matrix: (Units=1/GPa)
#
#
# Indices 1 2 3 4 5 6 
#
# 1 0.016255 -0.001134 -0.005985 0.000000 -0.007701 0.000000
# 2 -0.001134 0.009444 -0.003344 0.000000 0.002590 0.000000
# 3 -0.005985 -0.003344 0.013639 0.000000 0.001901 0.000000
# 4 0.000000 0.000000 0.000000 0.024802 0.000000 0.003516
# 5 -0.007701 0.002590 0.001901 0.000000 0.049657 0.000000
# 6 0.000000 0.000000 0.000000 0.003516 0.000000 0.033855
#
#
# Mechanical properties :
#
#
# Convention : Reuss Voigt Hill
#
# Bulk Modulus (GPa) = 54.31153 56.76526 55.53839
# Shear Modulus (GPa) = 28.61822 32.27852 30.44837
#
# Velocity S-wave (km/s) = 3.71212 3.94237 3.82898
# Velocity P-wave (km/s) = 6.67266 6.93223 6.80368
#
# Compressibility (1/GPa) = 0.01841230
#
# Stress axis : x y z
#
# Youngs Moduli (GPa) = 61.51959 105.89246 73.32114
#
# Poissons Ratio (x) = 0.12007 0.43881
# Poissons Ratio (y) = 0.06975 0.24518
# Poissons Ratio (z) = 0.36818 0.35409
#
# Static dielectric constant tensor:
#      x y z
#    x 3.725020 0.000000 -0.027350 
#    y 0.000000 4.005250 0.000000 
#    z -0.027350 0.000000 3.815700 
# 
# 
# High freq. dielectric constant tensor:
#      x y z
#    x 1.799690 0.000000 0.002370 
#    y 0.000000 1.825880 0.000000 
#    z 0.002370 0.000000 1.808040 
# 
# From -- ./inp_files/189196.got.cif
#   From: 2010.06.25/outbox.cif.g09.slc.cpg/sg15_95_cif.got.tgz:189196.got - 2010.06.28 07:06:18.
