data_PCOD8143964
_publ_section_title
;
Structure prediction by ZEFSAII (Michael W. Deem and Ramdas Pophale) SiO2 
 PCOD8143964
Probable space group: C 2/C
;
_chemical_formula_sum "Si O2"
_cell_formula_units_Z 48
_cell_length_a 8.435472
_cell_length_b 30.769379
_cell_length_c 16.454597
_cell_angle_alpha 90.000000
_cell_angle_beta 29.396028
_cell_angle_gamma 90.000000
_cell_volume 2096.323421
_symmetry_space_group_name_H-M "C 2/C"
_symmetry_group_IT_number 15
_symmetry_cell_setting 'monoclinic'
loop_
_space_group_symop_operation_xyz
x,y,z
-x,y,1/2-z
-x,-y,-z
x,-y,1/2+z
1/2+x,1/2+y,z
1/2-x,1/2+y,1/2-z
1/2-x,1/2-y,-z
1/2+x,1/2-y,1/2+z
loop_
_atom_site_type_symbol
_atom_site_label
_atom_site_fract_x
_atom_site_fract_y
_atom_site_fract_z
Si Si1 0.438812 0.624925 0.373391
Si Si2 0.313462 0.866429 0.248703
Si Si3 0.547056 0.550890 0.634068
Si Si4 0.661318 0.710327 0.355271
Si Si5 0.080148 0.225482 0.873100
Si Si6 0.711063 0.537089 0.236215
O O1 0.500000 0.628901 0.250000
O O2 0.627767 0.662459 0.335198
O O3 0.579444 0.579020 0.344014
O O4 0.059346 0.627542 0.563379
O O5 0.500000 0.861680 0.250000
O O6 0.099813 0.823208 0.327405
O O7 0.075283 0.907353 0.360807
O O8 0.500000 0.560058 0.750000
O O9 0.346350 0.508591 0.691555
O O10 0.919123 0.543367 0.449775
O O11 0.636845 0.745508 0.293506
O O12 0.380934 0.721520 0.546340
O O13 0.000000 0.712882 0.250000
O O14 0.750000 0.250000 0.000000
O O15 0.500000 0.532234 0.250000
#
# Coordination Sequence:
#
# PCOD8143964 Si02
#       6
#     8   8   8   8   8   8
#     4  11  24  42  68  99 141 179 236 279 354 408
#     4  12  26  46  68 105 147 185 231 297 356 418
#     4  11  22  41  74 100 145 186 242 289 346 415
#     4  10  23  43  68  96 135 179 229 287 346 412
#     4  10  24  44  68  97 137 178 233 285 350 414
#     4  10  21  41  68 107 139 184 237 294 342 415
#
# _framework density 22.897231000000001
#
# number of rings (size 3 to 8) (size 9 to 14) (size 15 to 20)
#    0.000    1.333    1.667    5.000    7.000    3.333 
#    0.000    4.167    0.000    0.000    0.000    0.000 
#    0.000    0.000    0.000    0.000    0.000    0.000 
#
# Total GULP energy -297526.857923 kJ/mol
# GULP energy per Si atom -12396.952413 kJ/mol
# Density = 2.284512 g / cm^3
# Si number density = 22.897231 Si / 1000 Ang^3
#
#
#
# Elastic Constant Matrix: (Units=GPa)
#
#
# Indices 1 2 3 4 5 6 
#
# 1 50.0877 41.3188 30.7100 0.0000 -0.6944 0.0000
# 2 41.3188 242.6860 75.7811 0.0000 -4.0610 0.0000
# 3 30.7100 75.7811 160.6343 0.0000 2.7508 0.0000
# 4 0.0000 0.0000 0.0000 46.9718 0.0000 -4.5242
# 5 -0.6944 -4.0610 2.7508 0.0000 39.0302 0.0000
# 6 0.0000 0.0000 0.0000 -4.5242 0.0000 33.0274
#
#
#
# Elastic Compliance Matrix: (Units=1/GPa)
#
#
# Indices 1 2 3 4 5 6 
#
# 1 0.024552 -0.003175 -0.003202 0.000000 0.000332 0.000000
# 2 -0.003175 0.005260 -0.001885 0.000000 0.000624 0.000000
# 3 -0.003202 -0.001885 0.007741 0.000000 -0.000799 0.000000
# 4 0.000000 0.000000 0.000000 0.021574 0.000000 0.002955
# 5 0.000332 0.000624 -0.000799 0.000000 0.025748 0.000000
# 6 0.000000 0.000000 0.000000 0.002955 0.000000 0.030683
#
#
# Mechanical properties :
#
#
# Convention : Reuss Voigt Hill
#
# Bulk Modulus (GPa) = 47.55387 83.22530 65.38959
# Shear Modulus (GPa) = 35.94784 44.17910 40.06347
#
# Velocity S-wave (km/s) = 3.96658 4.39732 4.18749
# Velocity P-wave (km/s) = 6.46466 7.88721 7.21110
#
# Compressibility (1/GPa) = 0.02102878
#
# Stress axis : x y z
#
# Youngs Moduli (GPa) = 40.73058 190.10650 129.19030
#
# Poissons Ratio (x) = 0.60354 0.41363
# Poissons Ratio (y) = 0.12931 0.24356
# Poissons Ratio (z) = 0.13041 0.35841
#
# Static dielectric constant tensor:
#      x y z
#    x 4.087010 0.000000 0.377930 
#    y 0.000000 4.897380 0.000000 
#    z 0.377930 0.000000 4.874020 
# 
# 
# High freq. dielectric constant tensor:
#      x y z
#    x 1.869380 0.000000 0.000900 
#    y 0.000000 1.932280 0.000000 
#    z 0.000900 0.000000 1.920710 
# 
# From -- ./inp_files/194160.got.cif
#   From: 2010.06.25/outbox.cif.g09.slc.cpg/sg15_98_cif.got.tgz:194160.got - 2010.06.28 07:06:18.
