data_PCOD8143274
_publ_section_title
;
Structure prediction by ZEFSAII (Michael W. Deem and Ramdas Pophale) SiO2 
 PCOD8143274
Probable space group: C 2/C
;
_chemical_formula_sum "Si O2"
_cell_formula_units_Z 56
_cell_length_a 20.243694
_cell_length_b 16.032452
_cell_length_c 16.725982
_cell_angle_alpha 90.000000
_cell_angle_beta 149.537611
_cell_angle_gamma 90.000000
_cell_volume 2752.110503
_symmetry_space_group_name_H-M "C 2/C"
_symmetry_group_IT_number 15
_symmetry_cell_setting 'monoclinic'
loop_
_space_group_symop_operation_xyz
x,y,z
-x,y,1/2-z
-x,-y,-z
x,-y,1/2+z
1/2+x,1/2+y,z
1/2-x,1/2+y,1/2-z
1/2-x,1/2-y,-z
1/2+x,1/2-y,1/2+z
loop_
_atom_site_type_symbol
_atom_site_label
_atom_site_fract_x
_atom_site_fract_y
_atom_site_fract_z
Si Si1 0.242161 0.090993 0.004519
Si Si2 0.229674 0.435038 0.558188
Si Si3 0.572410 0.174317 0.188346
Si Si4 0.889570 0.782017 0.770338
Si Si5 0.000000 0.669916 0.750000
Si Si6 0.693313 0.097547 0.601286
Si Si7 0.500000 0.697987 0.750000
Si Si8 0.661493 0.282099 0.143464
O O1 0.285787 0.135079 0.966541
O O2 0.112525 0.136345 0.898649
O O3 0.227329 0.991405 0.973659
O O4 0.351584 0.101762 0.185904
O O5 0.348935 0.374459 0.701310
O O6 0.096028 0.386493 0.402537
O O7 0.202472 0.496540 0.605858
O O8 0.539513 0.248370 0.214903
O O9 0.660766 0.209465 0.209020
O O10 0.446843 0.131365 0.016994
O O11 0.913192 0.726760 0.716958
O O12 0.769685 0.740281 0.691474
O O13 0.018984 0.791109 0.957542
O O14 0.801841 0.130328 0.776267
#
# Coordination Sequence:
#
# PCOD8143274 Si02
#       8
#     8   8   8   8   4   8   4   8
#     4  10  22  35  62  98 137 177 217 271 324 382
#     4  10  23  46  68  99 131 167 231 285 322 391
#     4  12  19  36  67  96 142 179 220 260 321 414
#     4  12  27  47  73  96 128 178 231 280 328 399
#     4  12  24  50  80  88 118 178 242 278 322 402
#     4  10  21  40  64  98 141 171 212 272 331 392
#     4  12  18  32  58  98 134 186 218 250 320 402
#     4  12  25  43  68 105 139 174 218 272 343 398
#
# _framework density 20.348020000000002
#
# number of rings (size 3 to 8) (size 9 to 14) (size 15 to 20)
#    0.857    0.000    5.714    2.571    0.000    1.143 
#    0.000    4.286    0.000    0.000    0.000    0.000 
#    0.000    0.000    0.000    0.000    0.000    0.000 
#
# Total GULP energy -347165.430281 kJ/mol
# GULP energy per Si atom -12398.765367 kJ/mol
# Density = 2.030171 g / cm^3
# Si number density = 20.348020 Si / 1000 Ang^3
#
#
#
# Elastic Constant Matrix: (Units=GPa)
#
#
# Indices 1 2 3 4 5 6 
#
# 1 103.1745 46.3368 20.1635 -0.0001 6.2870 0.0000
# 2 46.3368 141.1127 55.4212 0.0000 0.5791 0.0001
# 3 20.1635 55.4212 122.8343 -0.0003 8.1668 0.0000
# 4 -0.0001 0.0000 -0.0003 43.7562 0.0000 -2.5435
# 5 6.2870 0.5791 8.1668 0.0000 24.1152 0.0001
# 6 0.0000 0.0001 0.0000 -2.5435 0.0001 9.7699
#
#
#
# Elastic Compliance Matrix: (Units=1/GPa)
#
#
# Indices 1 2 3 4 5 6 
#
# 1 0.011572 -0.003790 0.000005 0.000000 -0.002928 0.000000
# 2 -0.003790 0.009884 -0.003977 0.000000 0.002098 0.000000
# 3 0.000005 -0.003977 0.010157 0.000000 -0.003346 0.000000
# 4 0.000000 0.000000 0.000000 0.023205 0.000000 0.006041
# 5 -0.002928 0.002098 -0.003346 0.000000 0.043313 -0.000001
# 6 0.000000 0.000000 0.000000 0.006041 -0.000001 0.103928
#
#
# Mechanical properties :
#
#
# Convention : Reuss Voigt Hill
#
# Bulk Modulus (GPa) = 62.15214 67.88496 65.01855
# Shear Modulus (GPa) = 22.42693 31.87492 27.15093
#
# Velocity S-wave (km/s) = 3.32349 3.96218 3.65681
# Velocity P-wave (km/s) = 6.73338 7.37335 7.06061
#
# Compressibility (1/GPa) = 0.01608955
#
# Stress axis : x y z
#
# Youngs Moduli (GPa) = 86.41739 101.17052 98.45385
#
# Poissons Ratio (x) = 0.38341 -0.00049
# Poissons Ratio (y) = 0.32750 0.39155
# Poissons Ratio (z) = -0.00043 0.40236
#
# Static dielectric constant tensor:
#      x y z
#    x 3.579020 0.000000 0.028350 
#    y 0.000000 3.624240 0.000000 
#    z 0.028350 0.000000 3.774110 
# 
# 
# High freq. dielectric constant tensor:
#      x y z
#    x 1.779830 0.000000 0.005400 
#    y 0.000000 1.789930 0.000000 
#    z 0.005400 0.000000 1.806120 
# 
# From -- ./inp_files/215803.got.cif
#   From: 2010.06.25/outbox.cif.g09.slc.cpg/sg15_108_cif.got.tgz:215803.got - 2010.06.28 07:06:18.
