data_PCOD8143190
_publ_section_title
;
Structure prediction by ZEFSAII (Michael W. Deem and Ramdas Pophale) SiO2 
 PCOD8143190
Probable space group: C 2/C
;
_chemical_formula_sum "Si O2"
_cell_formula_units_Z 56
_cell_length_a 15.289799
_cell_length_b 16.128501
_cell_length_c 11.336587
_cell_angle_alpha 90.000000
_cell_angle_beta 103.907778
_cell_angle_gamma 90.000000
_cell_volume 2713.663017
_symmetry_space_group_name_H-M "C 2/C"
_symmetry_group_IT_number 15
_symmetry_cell_setting 'monoclinic'
loop_
_space_group_symop_operation_xyz
x,y,z
-x,y,1/2-z
-x,-y,-z
x,-y,1/2+z
1/2+x,1/2+y,z
1/2-x,1/2+y,1/2-z
1/2-x,1/2-y,-z
1/2+x,1/2-y,1/2+z
loop_
_atom_site_type_symbol
_atom_site_label
_atom_site_fract_x
_atom_site_fract_y
_atom_site_fract_z
Si Si1 0.373326 0.994441 0.076827
Si Si2 0.784186 0.884346 0.001336
Si Si3 0.092907 0.641128 0.727267
Si Si4 0.936235 0.227506 0.839863
Si Si5 0.759787 0.253951 0.317547
Si Si6 0.504434 0.889503 0.532489
Si Si7 0.515545 0.557983 0.890487
O O1 0.366456 0.935631 0.187355
O O2 0.274468 0.032287 0.025534
O O3 0.450313 0.066263 0.123277
O O4 0.405559 0.939797 0.974327
O O5 0.785174 0.836780 0.875950
O O6 0.740771 0.822382 0.080636
O O7 0.883439 0.908093 0.074978
O O8 0.163486 0.717192 0.749359
O O9 0.072161 0.604946 0.592436
O O10 0.000000 0.676612 0.750000
O O11 0.834290 0.250750 0.779609
O O12 0.000000 0.238553 0.750000
O O13 0.971532 0.293660 0.945249
O O14 0.946105 0.133846 0.890261
O O15 0.500000 0.521107 0.750000
O O16 0.500000 0.500000 0.000000
#
# Coordination Sequence:
#
# PCOD8143190 Si02
#       7
#     8   8   8   8   8   8   8
#     4  10  22  36  64  97 127 163 206 268 341 398
#     4  11  22  41  69  94 125 173 232 276 329 408
#     4  10  22  40  62  91 133 167 202 278 337 395
#     4  11  22  41  67  94 130 170 227 275 324 406
#     4  11  22  40  67  96 125 173 227 275 332 392
#     4  10  21  40  63  94 130 162 206 267 346 401
#     4  11  25  46  69  98 135 187 233 286 335 404
#
# _framework density 20.636313000000001
#
# number of rings (size 3 to 8) (size 9 to 14) (size 15 to 20)
#    0.000    1.429    4.286    1.714    2.000    7.429 
#    2.571    8.571    0.000    0.000    0.000    0.000 
#    0.000    0.000    0.000    0.000    0.000    0.000 
#
# Total GULP energy -347010.802573 kJ/mol
# GULP energy per Si atom -12393.242949 kJ/mol
# Density = 2.058934 g / cm^3
# Si number density = 20.636313 Si / 1000 Ang^3
#
#
#
# Elastic Constant Matrix: (Units=GPa)
#
#
# Indices 1 2 3 4 5 6 
#
# 1 103.3582 29.4939 34.9874 0.0000 12.7878 0.0000
# 2 29.4939 85.0482 46.8189 0.0000 -5.1619 0.0000
# 3 34.9874 46.8189 90.8627 0.0000 8.2403 0.0000
# 4 0.0000 0.0000 0.0000 40.9764 0.0000 -0.1376
# 5 12.7878 -5.1619 8.2403 0.0000 26.7039 0.0000
# 6 0.0000 0.0000 0.0000 -0.1376 0.0000 87.8029
#
#
#
# Elastic Compliance Matrix: (Units=1/GPa)
#
#
# Indices 1 2 3 4 5 6 
#
# 1 0.012130 -0.003153 -0.002535 0.000000 -0.005636 0.000000
# 2 -0.003153 0.018207 -0.008872 0.000000 0.007767 0.000000
# 3 -0.002535 -0.008872 0.017076 0.000000 -0.005770 0.000000
# 4 0.000000 0.000000 0.000000 0.024404 0.000000 0.000038
# 5 -0.005636 0.007767 -0.005770 0.000000 0.043429 0.000000
# 6 0.000000 0.000000 0.000000 0.000038 0.000000 0.011389
#
#
# Mechanical properties :
#
#
# Convention : Reuss Voigt Hill
#
# Bulk Modulus (GPa) = 54.66349 55.76327 55.21338
# Shear Modulus (GPa) = 30.89214 42.29456 36.59335
#
# Velocity S-wave (km/s) = 3.87328 4.53208 4.21557
# Velocity P-wave (km/s) = 6.82272 7.38017 7.10691
#
# Compressibility (1/GPa) = 0.01829375
#
# Stress axis : x y z
#
# Youngs Moduli (GPa) = 82.43814 54.92449 58.56055
#
# Poissons Ratio (x) = 0.17319 0.14845
# Poissons Ratio (y) = 0.25995 0.51953
# Poissons Ratio (z) = 0.20898 0.48727
#
# Static dielectric constant tensor:
#      x y z
#    x 3.832080 0.000000 0.005480 
#    y 0.000000 4.008040 0.000000 
#    z 0.005480 0.000000 3.795530 
# 
# 
# High freq. dielectric constant tensor:
#      x y z
#    x 1.807790 0.000000 0.008570 
#    y 0.000000 1.802020 0.000000 
#    z 0.008570 0.000000 1.797240 
# 
# From -- ./inp_files/105401.got.cif
#   From: 2010.06.25/outbox.cif.g09.slc.cpg/sg15_53_cif.got.tgz:105401.got - 2010.06.28 07:06:18.
