data_PCOD8143146
_publ_section_title
;
Structure prediction by ZEFSAII (Michael W. Deem and Ramdas Pophale) SiO2 
 PCOD8143146
Probable space group: C 2/C
;
_chemical_formula_sum "Si O2"
_cell_formula_units_Z 44
_cell_length_a 14.053793
_cell_length_b 13.543648
_cell_length_c 28.033731
_cell_angle_alpha 90.000000
_cell_angle_beta 159.169706
_cell_angle_gamma 90.000000
_cell_volume 1897.462971
_symmetry_space_group_name_H-M "C 2/C"
_symmetry_group_IT_number 15
_symmetry_cell_setting 'monoclinic'
loop_
_space_group_symop_operation_xyz
x,y,z
-x,y,1/2-z
-x,-y,-z
x,-y,1/2+z
1/2+x,1/2+y,z
1/2-x,1/2+y,1/2-z
1/2-x,1/2-y,-z
1/2+x,1/2-y,1/2+z
loop_
_atom_site_type_symbol
_atom_site_label
_atom_site_fract_x
_atom_site_fract_y
_atom_site_fract_z
Si Si1 0.360897 0.930862 0.098442
Si Si2 0.939097 0.217463 0.983291
Si Si3 0.441806 0.410012 0.395685
Si Si4 0.500000 0.232522 0.250000
Si Si5 0.470839 0.072353 0.541607
Si Si6 0.432565 0.595138 0.652361
O O1 0.656730 0.963395 0.253562
O O2 0.290856 0.830323 0.092703
O O3 0.343079 0.908126 0.033890
O O4 0.152290 0.014371 0.018019
O O5 0.231103 0.174473 0.138977
O O6 0.904285 0.186141 0.911539
O O7 0.918279 0.334861 0.982301
O O8 0.562963 0.380630 0.401403
O O9 0.619262 0.298849 0.348812
O O10 0.787962 0.051183 0.696254
O O11 0.312719 0.976990 0.446689
#
# Coordination Sequence:
#
# PCOD8143146 Si02
#       6
#     8   8   8   4   8   8
#     4  10  21  40  63  89 121 162 200 250 304 368
#     4  11  22  36  59  91 125 157 201 250 304 356
#     4  10  22  39  64  89 121 157 205 250 305 359
#     4  10  24  40  60  86 126 158 196 250 306 360
#     4   9  20  41  64  87 122 160 202 251 302 359
#     4   9  20  42  62  87 119 160 204 244 304 365
#
# _framework density 23.188858
#
# number of rings (size 3 to 8) (size 9 to 14) (size 15 to 20)
#    0.000    2.182    0.000    1.636    2.545    3.636 
#    9.818    0.000    0.000    0.000    0.000    0.000 
#    0.000    0.000    0.000    0.000    0.000    0.000 
#
# Total GULP energy -272675.008648 kJ/mol
# GULP energy per Si atom -12394.318575 kJ/mol
# Density = 2.313608 g / cm^3
# Si number density = 23.188858 Si / 1000 Ang^3
#
#
#
# Elastic Constant Matrix: (Units=GPa)
#
#
# Indices 1 2 3 4 5 6 
#
# 1 40.4279 27.7249 28.6241 -0.0023 -3.4653 -0.0035
# 2 27.7249 64.4606 35.7336 -0.0051 -11.8424 -0.0013
# 3 28.6241 35.7336 112.9398 0.0282 6.2208 -0.0197
# 4 -0.0023 -0.0051 0.0282 42.4369 -0.0031 -3.3577
# 5 -3.4653 -11.8424 6.2208 -0.0031 39.5571 0.0007
# 6 -0.0035 -0.0013 -0.0197 -3.3577 0.0007 27.4127
#
#
#
# Elastic Compliance Matrix: (Units=1/GPa)
#
#
# Indices 1 2 3 4 5 6 
#
# 1 0.037572 -0.013143 -0.005375 0.000004 0.000202 0.000001
# 2 -0.013143 0.025306 -0.005073 0.000006 0.007222 -0.000004
# 3 -0.005375 -0.005073 0.012036 -0.000009 -0.003882 0.000007
# 4 0.000004 0.000006 -0.000009 0.023795 0.000005 0.002915
# 5 0.000202 0.007222 -0.003882 0.000005 0.028070 -0.000003
# 6 0.000001 -0.000004 0.000007 0.002915 -0.000003 0.036837
#
#
# Mechanical properties :
#
#
# Convention : Reuss Voigt Hill
#
# Bulk Modulus (GPa) = 36.06216 44.66594 40.36405
# Shear Modulus (GPa) = 22.72301 30.26437 26.49369
#
# Velocity S-wave (km/s) = 3.13375 3.61657 3.38378
# Velocity P-wave (km/s) = 5.35529 6.06161 5.71936
#
# Compressibility (1/GPa) = 0.02772989
#
# Stress axis : x y z
#
# Youngs Moduli (GPa) = 26.61565 39.51707 83.08687
#
# Poissons Ratio (x) = 0.51938 0.44660
# Poissons Ratio (y) = 0.34981 0.42152
# Poissons Ratio (z) = 0.14306 0.20048
#
# Static dielectric constant tensor:
#      x y z
#    x 4.479360 0.000010 0.235320 
#    y 0.000010 3.763580 -0.000040 
#    z 0.235320 -0.000040 4.408220 
# 
# 
# High freq. dielectric constant tensor:
#      x y z
#    x 1.942690 0.000000 0.015070 
#    y 0.000000 1.879510 0.000000 
#    z 0.015070 0.000000 1.928030 
# 
# From -- ./inp_files/95044.got.cif
#   From: 2010.06.25/outbox.cif.g09.slc.cpg/sg15_48_cif.got.tgz:95044.got - 2010.06.28 07:06:18.
