data_PCOD8143941
_publ_section_title
;
Structure prediction by ZEFSAII (Michael W. Deem and Ramdas Pophale) SiO2 
 PCOD8143941
Probable space group: C 2/C
;
_chemical_formula_sum "Si O2"
_cell_formula_units_Z 56
_cell_length_a 18.150961
_cell_length_b 14.609860
_cell_length_c 20.522848
_cell_angle_alpha 90.000000
_cell_angle_beta 27.818016
_cell_angle_gamma 90.000000
_cell_volume 2539.734488
_symmetry_space_group_name_H-M "C 2/C"
_symmetry_group_IT_number 15
_symmetry_cell_setting 'monoclinic'
loop_
_space_group_symop_operation_xyz
x,y,z
-x,y,1/2-z
-x,-y,-z
x,-y,1/2+z
1/2+x,1/2+y,z
1/2-x,1/2+y,1/2-z
1/2-x,1/2-y,-z
1/2+x,1/2-y,1/2+z
loop_
_atom_site_type_symbol
_atom_site_label
_atom_site_fract_x
_atom_site_fract_y
_atom_site_fract_z
Si Si1 0.117333 0.906586 0.841900
Si Si2 0.301104 0.406638 0.158131
Si Si3 0.464141 0.866227 0.847995
Si Si4 0.844731 0.075964 0.334125
Si Si5 0.839839 0.133757 0.848038
Si Si6 0.811057 0.750026 0.250037
Si Si7 0.987012 0.575951 0.834130
O O1 0.159818 0.880273 0.734224
O O2 0.172547 0.820300 0.841297
O O3 0.205603 0.999954 0.794421
O O4 0.928778 0.918723 0.000011
O O5 0.355120 0.320407 0.158779
O O6 0.128249 0.380290 0.265798
O O7 0.500000 0.822146 0.750000
O O8 0.534460 0.808264 0.852420
O O9 0.529083 0.968969 0.801154
O O10 0.275943 0.867122 0.999971
O O11 0.683911 0.098634 0.499999
O O12 0.000000 0.114413 0.250000
O O13 0.868584 0.968978 0.301181
O O14 0.760635 0.191730 0.852505
O O15 0.000000 0.177828 0.750000
O O16 0.000000 0.614403 0.750000
#
# Coordination Sequence:
#
# PCOD8143941 Si02
#       7
#     8   8   8   8   8   8   8
#     4  11  24  42  65  95 132 173 216 265 319 381
#     4  11  24  42  65  95 132 173 216 265 319 381
#     4  10  22  38  60  92 128 167 207 257 318 387
#     4  10  21  41  67  93 126 168 215 264 319 382
#     4  10  22  38  60  92 128 167 207 257 318 387
#     4  12  23  40  63  96 130 170 214 266 315 386
#     4  10  21  41  67  93 126 168 215 264 319 382
#
# _framework density 22.04955
#
# number of rings (size 3 to 8) (size 9 to 14) (size 15 to 20)
#    0.000    1.429    2.857    2.143    0.000    7.429 
#    0.000    0.714    0.000    3.429    0.000    0.000 
#    0.000    0.000    0.000    0.000    0.000    0.000 
#
# Total GULP energy -347157.215316 kJ/mol
# GULP energy per Si atom -12398.471976 kJ/mol
# Density = 2.199936 g / cm^3
# Si number density = 22.049550 Si / 1000 Ang^3
#
#
#
# Elastic Constant Matrix: (Units=GPa)
#
#
# Indices 1 2 3 4 5 6 
#
# 1 150.5214 27.6245 71.3414 -0.0374 -0.0098 -0.0039
# 2 27.6245 55.4911 12.3490 -0.0660 -0.1164 -0.0009
# 3 71.3414 12.3490 134.1858 -0.1943 -0.1076 0.0026
# 4 -0.0374 -0.0660 -0.1943 315.2241 -0.0309 2.6556
# 5 -0.0098 -0.1164 -0.1076 -0.0309 37.5849 -0.0040
# 6 -0.0039 -0.0009 0.0026 2.6556 -0.0040 35.3502
#
#
#
# Elastic Compliance Matrix: (Units=1/GPa)
#
#
# Indices 1 2 3 4 5 6 
#
# 1 0.009576 -0.003710 -0.004750 -0.000003 -0.000023 0.000002
# 2 -0.003710 0.019835 0.000147 0.000004 0.000061 0.000000
# 3 -0.004750 0.000147 0.009964 0.000006 0.000028 -0.000002
# 4 -0.000003 0.000004 0.000006 0.003174 0.000003 -0.000238
# 5 -0.000023 0.000061 0.000028 0.000003 0.026607 0.000003
# 6 0.000002 0.000000 -0.000002 -0.000238 0.000003 0.028306
#
#
# Mechanical properties :
#
#
# Convention : Reuss Voigt Hill
#
# Bulk Modulus (GPa) = 43.95623 62.53645 53.24634
# Shear Modulus (GPa) = 41.09469 92.89074 66.99272
#
# Velocity S-wave (km/s) = 4.32179 6.49766 5.51804
# Velocity P-wave (km/s) = 6.69943 9.20414 8.04980
#
# Compressibility (1/GPa) = 0.02274990
#
# Stress axis : x y z
#
# Youngs Moduli (GPa) = 104.43267 50.41539 100.36135
#
# Poissons Ratio (x) = 0.18704 0.47667
# Poissons Ratio (y) = 0.38744 -0.01476
# Poissons Ratio (z) = 0.49601 -0.00742
#
# Static dielectric constant tensor:
#      x y z
#    x 3.930620 0.000000 -0.001090 
#    y 0.000000 3.809120 0.000070 
#    z -0.001090 0.000070 3.803250 
# 
# 
# High freq. dielectric constant tensor:
#      x y z
#    x 1.866210 0.000000 0.000000 
#    y 0.000000 1.859240 0.000000 
#    z 0.000000 0.000000 1.865340 
# 
# From -- ./inp_files/249240.got.cif
#   From: 2010.06.25/outbox.cif.g09.slc.cpg/sg15_125_cif.got.tgz:249240.got - 2010.06.28 07:06:18.
