data_PCOD8143956
_publ_section_title
;
Structure prediction by ZEFSAII (Michael W. Deem and Ramdas Pophale) SiO2 
 PCOD8143956
Probable space group: C 2/C
;
_chemical_formula_sum "Si O2"
_cell_formula_units_Z 56
_cell_length_a 14.768223
_cell_length_b 10.672092
_cell_length_c 16.396416
_cell_angle_alpha 90.000000
_cell_angle_beta 65.320170
_cell_angle_gamma 90.000000
_cell_volume 2348.150120
_symmetry_space_group_name_H-M "C 2/C"
_symmetry_group_IT_number 15
_symmetry_cell_setting 'monoclinic'
loop_
_space_group_symop_operation_xyz
x,y,z
-x,y,1/2-z
-x,-y,-z
x,-y,1/2+z
1/2+x,1/2+y,z
1/2-x,1/2+y,1/2-z
1/2-x,1/2-y,-z
1/2+x,1/2-y,1/2+z
loop_
_atom_site_type_symbol
_atom_site_label
_atom_site_fract_x
_atom_site_fract_y
_atom_site_fract_z
Si Si1 0.500000 0.741804 0.250000
Si Si2 0.129427 0.467593 0.381208
Si Si3 0.719361 0.383356 0.912086
Si Si4 0.808969 0.873881 0.396578
Si Si5 0.500000 0.652916 0.750000
Si Si6 0.292676 0.118731 0.808605
Si Si7 0.027924 0.792274 0.915828
Si Si8 0.086977 0.746749 0.384047
O O1 0.600703 0.821456 0.215581
O O2 0.513297 0.667015 0.158700
O O3 0.206700 0.451832 0.427195
O O4 0.202466 0.460610 0.276049
O O5 0.048075 0.357327 0.410269
O O6 0.073942 0.599364 0.406991
O O7 0.796668 0.269615 0.868742
O O8 0.772108 0.517539 0.886942
O O9 0.629779 0.371236 0.881309
O O10 0.664232 0.369488 0.019076
O O11 0.903204 0.930183 0.310531
O O12 0.473206 0.730519 0.677416
O O13 0.203938 0.219646 0.834116
O O14 0.955890 0.821780 0.020097
#
# Coordination Sequence:
#
# PCOD8143956 Si02
#       8
#     4   8   8   8   4   8   8   8
#     4  10  26  47  67  98 136 188 237 269 358 404
#     4  10  23  42  66  97 142 177 226 285 337 412
#     4  10  22  42  68  98 140 172 230 289 336 406
#     4  10  21  41  67  97 132 181 226 281 346 398
#     4  12  22  43  69 106 130 180 237 279 346 412
#     4  11  25  44  68  98 136 184 229 287 339 408
#     4  10  23  45  66 100 136 180 228 287 340 409
#     4  12  25  43  70 103 142 178 233 281 346 415
#
# _framework density 23.848559999999999
#
# number of rings (size 3 to 8) (size 9 to 14) (size 15 to 20)
#    0.000    1.429    2.857    1.286    6.000    6.286 
#    0.000    1.429    0.000    0.000    0.000    0.000 
#    0.000    0.000    0.000    0.000    0.000    0.000 
#
# Total GULP energy -346985.795318 kJ/mol
# GULP energy per Si atom -12392.349833 kJ/mol
# Density = 2.379428 g / cm^3
# Si number density = 23.848560 Si / 1000 Ang^3
#
#
#
# Elastic Constant Matrix: (Units=GPa)
#
#
# Indices 1 2 3 4 5 6 
#
# 1 121.8713 4.0324 55.0008 0.0000 16.5680 0.0000
# 2 4.0324 23.1681 -2.8559 0.0000 7.9353 0.0000
# 3 55.0008 -2.8559 136.6924 0.0000 6.8431 0.0000
# 4 0.0000 0.0000 0.0000 21.9168 0.0000 -4.6124
# 5 16.5680 7.9353 6.8431 0.0000 44.7832 0.0000
# 6 0.0000 0.0000 0.0000 -4.6124 0.0000 16.5281
#
#
#
# Elastic Compliance Matrix: (Units=1/GPa)
#
#
# Indices 1 2 3 4 5 6 
#
# 1 0.010513 -0.001297 -0.004106 0.000000 -0.003032 0.000000
# 2 -0.001297 0.046371 0.001893 0.000000 -0.008026 0.000000
# 3 -0.004106 0.001893 0.009017 0.000000 -0.000194 0.000000
# 4 0.000000 0.000000 0.000000 0.048474 0.000000 0.013527
# 5 -0.003032 -0.008026 -0.000194 0.000000 0.024903 0.000000
# 6 0.000000 0.000000 0.000000 0.013527 0.000000 0.064278
#
#
# Mechanical properties :
#
#
# Convention : Reuss Voigt Hill
#
# Bulk Modulus (GPa) = 16.98352 43.78737 30.38544
# Shear Modulus (GPa) = 21.71986 31.68258 26.70122
#
# Velocity S-wave (km/s) = 3.02112 3.64880 3.34970
# Velocity P-wave (km/s) = 4.39391 6.01266 5.26586
#
# Compressibility (1/GPa) = 0.05888060
#
# Stress axis : x y z
#
# Youngs Moduli (GPa) = 95.11685 21.56528 110.90273
#
# Poissons Ratio (x) = 0.02798 0.45532
# Poissons Ratio (y) = 0.12340 -0.20990
# Poissons Ratio (z) = 0.39051 -0.04081
#
# Static dielectric constant tensor:
#      x y z
#    x 4.248690 0.000000 0.178930 
#    y 0.000000 3.836020 0.000000 
#    z 0.178930 0.000000 4.614540 
# 
# 
# High freq. dielectric constant tensor:
#      x y z
#    x 1.951650 0.000000 0.001060 
#    y 0.000000 1.908480 0.000000 
#    z 0.001060 0.000000 1.966040 
# 
# From -- ./inp_files/203969.got.cif
#   From: 2010.06.25/outbox.cif.g09.slc.cpg/sg15_102_cif.got.tgz:203969.got - 2010.06.28 07:06:18.
