data_PCOD8143184
_publ_section_title
;
Structure prediction by ZEFSAII (Michael W. Deem and Ramdas Pophale) SiO2 
 PCOD8143184
Probable space group: C 2/C
;
_chemical_formula_sum "Si O2"
_cell_formula_units_Z 64
_cell_length_a 10.260112
_cell_length_b 11.209906
_cell_length_c 22.372154
_cell_angle_alpha 90.000000
_cell_angle_beta 82.247291
_cell_angle_gamma 90.000000
_cell_volume 2549.611205
_symmetry_space_group_name_H-M "C 2/C"
_symmetry_group_IT_number 15
_symmetry_cell_setting 'monoclinic'
loop_
_space_group_symop_operation_xyz
x,y,z
-x,y,1/2-z
-x,-y,-z
x,-y,1/2+z
1/2+x,1/2+y,z
1/2-x,1/2+y,1/2-z
1/2-x,1/2-y,-z
1/2+x,1/2-y,1/2+z
loop_
_atom_site_type_symbol
_atom_site_label
_atom_site_fract_x
_atom_site_fract_y
_atom_site_fract_z
Si Si1 0.455312 0.184468 0.024806
Si Si2 0.296698 0.037486 0.225283
Si Si3 0.590709 0.553486 0.642322
Si Si4 0.932989 0.857671 0.695750
Si Si5 0.365578 0.985334 0.438352
Si Si6 0.876657 0.753090 0.153912
Si Si7 0.113732 0.091133 0.506823
Si Si8 0.602373 0.130191 0.687344
O O1 0.372864 0.251373 0.081569
O O2 0.567785 0.274316 0.993721
O O3 0.513236 0.066287 0.050686
O O4 0.363480 0.139325 0.976059
O O5 0.220736 0.112465 0.282980
O O6 0.394943 0.123323 0.182254
O O7 0.204372 0.966259 0.183917
O O8 0.395447 0.944110 0.250389
O O9 0.497531 0.435509 0.638271
O O10 0.494024 0.661190 0.668841
O O11 0.656305 0.582366 0.574034
O O12 0.000000 0.915478 0.750000
O O13 0.973854 0.717728 0.689547
O O14 0.386217 0.958772 0.368095
O O15 0.233517 0.060337 0.456092
O O16 0.732383 0.790057 0.183834
O O17 0.000000 0.000000 0.500000
#
# Coordination Sequence:
#
# PCOD8143184 Si02
#       8
#     8   8   8   8   8   8   8   8
#     4  10  25  46  66  99 141 182 228 296 351 415
#     4  11  24  45  69  94 146 183 229 296 352 414
#     4  10  21  42  68  99 134 173 232 290 345 415
#     4  10  21  40  63  93 135 175 226 286 339 413
#     4  11  25  45  66  99 146 180 230 294 352 421
#     4  11  22  43  69 100 130 182 236 279 353 416
#     4  11  24  42  75 103 128 182 239 287 352 419
#     4  12  25  40  68 104 134 181 239 277 348 428
#
# _framework density 25.101866000000001
#
# number of rings (size 3 to 8) (size 9 to 14) (size 15 to 20)
#    0.000    1.250    3.750    2.625    1.750    2.000 
#    6.750    0.000    0.000    0.000    0.000    0.000 
#    0.000    0.000    0.000    0.000    0.000    0.000 
#
# Total GULP energy -396661.700037 kJ/mol
# GULP energy per Si atom -12395.678126 kJ/mol
# Density = 2.504473 g / cm^3
# Si number density = 25.101866 Si / 1000 Ang^3
#
#
#
# Elastic Constant Matrix: (Units=GPa)
#
#
# Indices 1 2 3 4 5 6 
#
# 1 83.7873 41.9145 22.8447 0.0000 -1.6806 0.0000
# 2 41.9145 140.9586 51.9172 0.0000 8.4217 0.0000
# 3 22.8447 51.9172 82.1509 0.0000 13.6568 0.0000
# 4 0.0000 0.0000 0.0000 42.9108 0.0000 -4.8691
# 5 -1.6806 8.4217 13.6568 0.0000 18.9974 0.0000
# 6 0.0000 0.0000 0.0000 -4.8691 0.0000 48.0253
#
#
#
# Elastic Compliance Matrix: (Units=1/GPa)
#
#
# Indices 1 2 3 4 5 6 
#
# 1 0.014557 -0.003689 -0.002501 0.000000 0.004722 0.000000
# 2 -0.003689 0.010182 -0.005229 0.000000 -0.001081 0.000000
# 3 -0.002501 -0.005229 0.017972 0.000000 -0.010823 0.000000
# 4 0.000000 0.000000 0.000000 0.023575 0.000000 0.002390
# 5 0.004722 -0.001081 -0.010823 0.000000 0.061316 0.000000
# 6 0.000000 0.000000 0.000000 0.002390 0.000000 0.021065
#
#
# Mechanical properties :
#
#
# Convention : Reuss Voigt Hill
#
# Bulk Modulus (GPa) = 50.32300 60.02773 55.17537
# Shear Modulus (GPa) = 28.06923 34.66806 31.36864
#
# Velocity S-wave (km/s) = 3.34760 3.72034 3.53888
# Velocity P-wave (km/s) = 5.91886 6.51307 6.22306
#
# Compressibility (1/GPa) = 0.01987163
#
# Stress axis : x y z
#
# Youngs Moduli (GPa) = 68.69380 98.21392 55.64176
#
# Poissons Ratio (x) = 0.36236 0.13918
# Poissons Ratio (y) = 0.25344 0.29095
# Poissons Ratio (z) = 0.17183 0.51356
#
# Static dielectric constant tensor:
#      x y z
#    x 4.849010 0.000000 -0.390350 
#    y 0.000000 4.719890 0.000000 
#    z -0.390350 0.000000 4.735500 
# 
# 
# High freq. dielectric constant tensor:
#      x y z
#    x 1.993940 0.000000 -0.017400 
#    y 0.000000 2.012790 0.000000 
#    z -0.017400 0.000000 1.999200 
# 
# From -- ./inp_files/268871.got.cif
#   From: 2010.06.25/outbox.cif.g09.slc.cpg/sg15_135_cif.got.tgz:268871.got - 2010.06.28 07:06:18.
