data_PCOD8143077
_publ_section_title
;
Structure prediction by ZEFSAII (Michael W. Deem and Ramdas Pophale) SiO2 
 PCOD8143077
Probable space group: C 2/C
;
_chemical_formula_sum "Si O2"
_cell_formula_units_Z 44
_cell_length_a 5.323037
_cell_length_b 27.627166
_cell_length_c 15.535993
_cell_angle_alpha 90.000000
_cell_angle_beta 111.754990
_cell_angle_gamma 90.000000
_cell_volume 2122.005086
_symmetry_space_group_name_H-M "C 2/C"
_symmetry_group_IT_number 15
_symmetry_cell_setting 'monoclinic'
loop_
_space_group_symop_operation_xyz
x,y,z
-x,y,1/2-z
-x,-y,-z
x,-y,1/2+z
1/2+x,1/2+y,z
1/2-x,1/2+y,1/2-z
1/2-x,1/2-y,-z
1/2+x,1/2-y,1/2+z
loop_
_atom_site_type_symbol
_atom_site_label
_atom_site_fract_x
_atom_site_fract_y
_atom_site_fract_z
Si Si1 0.184435 0.545671 0.698006
Si Si2 0.500000 0.953025 0.750000
Si Si3 0.023962 0.605147 0.983752
Si Si4 0.474848 0.210528 0.518015
Si Si5 0.370985 0.387771 0.905168
Si Si6 0.340356 0.212896 0.140994
O O1 0.500000 0.558193 0.750000
O O2 0.000000 0.569983 0.750000
O O3 0.130915 0.487545 0.692652
O O4 0.081375 0.565280 0.594879
O O5 0.735146 0.918776 0.813551
O O6 0.057082 0.658089 0.941594
O O7 0.326217 0.591186 0.051344
O O8 0.799132 0.605565 0.029438
O O9 0.250000 0.250000 0.500000
O O10 0.475371 0.197610 0.416299
O O11 0.732642 0.234710 0.596930
O O12 0.379235 0.330694 0.877961
O O13 0.500000 0.219454 0.250000
#
# Coordination Sequence:
#
# PCOD8143077 Si02
#       6
#     8   4   8   8   8   8
#     4  10  24  45  63  92 129 166 215 269 319 389
#     4  10  26  42  66  96 132 160 222 274 314 396
#     4  11  24  42  67  92 132 173 210 269 326 381
#     4  10  21  40  61  92 130 161 219 261 313 389
#     4  11  23  40  68  94 127 169 215 265 326 381
#     4  10  21  40  61  94 127 172 211 266 323 382
#
# _framework density 20.735106999999999
#
# number of rings (size 3 to 8) (size 9 to 14) (size 15 to 20)
#    0.545    1.091    2.727    1.091    2.545    2.909 
#    3.273    0.000    0.000    0.000    0.000    0.000 
#    0.000    0.000    0.000    0.000    0.000    0.000 
#
# Total GULP energy -272541.948025 kJ/mol
# GULP energy per Si atom -12388.270365 kJ/mol
# Density = 2.068791 g / cm^3
# Si number density = 20.735107 Si / 1000 Ang^3
#
#
#
# Elastic Constant Matrix: (Units=GPa)
#
#
# Indices 1 2 3 4 5 6 
#
# 1 84.6979 7.3916 19.9000 0.0000 18.6068 0.0000
# 2 7.3916 111.5773 46.6000 0.0000 3.4390 0.0000
# 3 19.9000 46.6000 129.3485 0.0000 16.3224 0.0000
# 4 0.0000 0.0000 0.0000 28.1122 0.0000 -4.4761
# 5 18.6068 3.4390 16.3224 0.0000 31.3451 0.0000
# 6 0.0000 0.0000 0.0000 -4.4761 0.0000 10.3434
#
#
#
# Elastic Compliance Matrix: (Units=1/GPa)
#
#
# Indices 1 2 3 4 5 6 
#
# 1 0.013743 -0.000227 -0.001077 0.000000 -0.007572 0.000000
# 2 -0.000227 0.010576 -0.003902 0.000000 0.001007 0.000000
# 3 -0.001077 -0.003902 0.009813 0.000000 -0.004042 0.000000
# 4 0.000000 0.000000 0.000000 0.038204 0.000000 0.016533
# 5 -0.007572 0.001007 -0.004042 0.000000 0.038392 0.000000
# 6 0.000000 0.000000 0.000000 0.016533 0.000000 0.103835
#
#
# Mechanical properties :
#
#
# Convention : Reuss Voigt Hill
#
# Bulk Modulus (GPa) = 42.16035 52.60076 47.38056
# Shear Modulus (GPa) = 21.47000 30.74227 26.10613
#
# Velocity S-wave (km/s) = 3.22132 3.85466 3.55213
# Velocity P-wave (km/s) = 5.84917 6.72564 6.30266
#
# Compressibility (1/GPa) = 0.02371897
#
# Stress axis : x y z
#
# Youngs Moduli (GPa) = 72.76409 94.55173 101.90857
#
# Poissons Ratio (x) = 0.02149 0.10975
# Poissons Ratio (y) = 0.01654 0.39768
# Poissons Ratio (z) = 0.07836 0.36897
#
# Static dielectric constant tensor:
#      x y z
#    x 4.090290 0.000000 0.472490 
#    y 0.000000 4.810590 0.000000 
#    z 0.472490 0.000000 4.056730 
# 
# 
# High freq. dielectric constant tensor:
#      x y z
#    x 1.811430 0.000000 0.008380 
#    y 0.000000 1.820290 0.000000 
#    z 0.008380 0.000000 1.798320 
# 
# From -- ./inp_files/130525.got.cif
#   From: 2010.06.25/outbox.cif.g09.slc.cpg/sg15_66_cif.got.tgz:130525.got - 2010.06.28 07:06:18.
