data_PCOD8143710
_publ_section_title
;
Structure prediction by ZEFSAII (Michael W. Deem and Ramdas Pophale) SiO2 
 PCOD8143710
Probable space group: C 2/C
;
_chemical_formula_sum "Si O2"
_cell_formula_units_Z 52
_cell_length_a 22.621901
_cell_length_b 18.639615
_cell_length_c 14.918760
_cell_angle_alpha 90.000000
_cell_angle_beta 155.866553
_cell_angle_gamma 90.000000
_cell_volume 2572.034901
_symmetry_space_group_name_H-M "C 2/C"
_symmetry_group_IT_number 15
_symmetry_cell_setting 'monoclinic'
loop_
_space_group_symop_operation_xyz
x,y,z
-x,y,1/2-z
-x,-y,-z
x,-y,1/2+z
1/2+x,1/2+y,z
1/2-x,1/2+y,1/2-z
1/2-x,1/2-y,-z
1/2+x,1/2-y,1/2+z
loop_
_atom_site_type_symbol
_atom_site_label
_atom_site_fract_x
_atom_site_fract_y
_atom_site_fract_z
Si Si1 0.305675 0.411216 0.629216
Si Si2 0.927531 0.165533 0.938597
Si Si3 0.500000 0.137258 0.750000
Si Si4 0.240474 0.399424 0.335932
Si Si5 0.952795 0.673305 0.490862
Si Si6 0.896724 0.934326 0.237437
Si Si7 0.282223 0.437983 0.888475
O O1 0.402155 0.351776 0.813209
O O2 0.142020 0.412189 0.439070
O O3 0.314696 0.396216 0.535852
O O4 0.374936 0.487422 0.750292
O O5 0.912017 0.249499 0.895086
O O6 0.842667 0.143102 0.910030
O O7 0.858403 0.125154 0.758006
O O8 0.491725 0.185830 0.649585
O O9 0.222554 0.482636 0.283185
O O10 0.085335 0.361219 0.120091
O O11 0.818800 0.620064 0.297723
O O12 0.060967 0.926717 0.435207
O O13 0.787443 0.925079 0.002718
#
# Coordination Sequence:
#
# PCOD8143710 Si02
#       7
#     8   8   4   8   8   8   8
#     4  10  21  41  63  93 123 160 207 251 308 362
#     4  12  24  37  65  93 129 159 207 248 317 369
#     4  10  24  38  64  92 126 160 204 248 308 378
#     4  10  23  40  63  92 123 165 200 257 306 368
#     4  11  26  39  62  92 129 164 197 260 312 365
#     4  10  22  40  67  92 113 168 211 257 293 368
#     4  10  21  45  66  85 123 161 216 253 303 352
#
# _framework density 20.217455999999999
#
# number of rings (size 3 to 8) (size 9 to 14) (size 15 to 20)
#    0.000    1.538    1.538    2.308    8.615    1.846 
#    0.000    0.000    0.000    0.000    0.000    0.000 
#    0.000    0.000    0.000    0.000    0.000    0.000 
#
# Total GULP energy -322511.012168 kJ/mol
# GULP energy per Si atom -12404.269699 kJ/mol
# Density = 2.017144 g / cm^3
# Si number density = 20.217456 Si / 1000 Ang^3
#
#
#
# Elastic Constant Matrix: (Units=GPa)
#
#
# Indices 1 2 3 4 5 6 
#
# 1 85.2946 27.6164 26.3526 0.0000 9.0552 0.0000
# 2 27.6164 139.6168 42.0573 0.0000 0.1219 0.0000
# 3 26.3526 42.0573 80.4022 0.0000 17.1778 0.0000
# 4 0.0000 0.0000 0.0000 17.6144 0.0000 -6.5588
# 5 9.0552 0.1219 17.1778 0.0000 25.4494 0.0000
# 6 0.0000 0.0000 0.0000 -6.5588 0.0000 13.6093
#
#
#
# Elastic Compliance Matrix: (Units=1/GPa)
#
#
# Indices 1 2 3 4 5 6 
#
# 1 0.013498 -0.001803 -0.002871 0.000000 -0.002856 0.000000
# 2 -0.001803 0.009012 -0.004967 0.000000 0.003951 0.000000
# 3 -0.002871 -0.004967 0.018408 0.000000 -0.011380 0.000000
# 4 0.000000 0.000000 0.000000 0.069188 0.000000 0.033344
# 5 -0.002856 0.003951 -0.011380 0.000000 0.047972 0.000000
# 6 0.000000 0.000000 0.000000 0.033344 0.000000 0.089549
#
#
# Mechanical properties :
#
#
# Convention : Reuss Voigt Hill
#
# Bulk Modulus (GPa) = 46.21884 55.26292 50.74088
# Shear Modulus (GPa) = 18.24015 25.28709 21.76362
#
# Velocity S-wave (km/s) = 3.00692 3.54044 3.28453
# Velocity P-wave (km/s) = 5.91320 6.64128 6.28778
#
# Compressibility (1/GPa) = 0.02163620
#
# Stress axis : x y z
#
# Youngs Moduli (GPa) = 74.08529 110.96440 54.32404
#
# Poissons Ratio (x) = 0.20002 0.15596
# Poissons Ratio (y) = 0.13355 0.26984
# Poissons Ratio (z) = 0.21269 0.55120
#
# Static dielectric constant tensor:
#      x y z
#    x 3.812650 0.000000 -0.060180 
#    y 0.000000 3.536350 0.000000 
#    z -0.060180 0.000000 3.682660 
# 
# 
# High freq. dielectric constant tensor:
#      x y z
#    x 1.798760 0.000000 0.002810 
#    y 0.000000 1.779690 0.000000 
#    z 0.002810 0.000000 1.785180 
# 
# From -- ./inp_files/169032.got.cif
#   From: 2010.06.25/outbox.cif.g09.slc.cpg/sg15_85_cif.got.tgz:169032.got - 2010.06.28 07:06:18.
