data_PCOD8143290
_publ_section_title
;
Structure prediction by ZEFSAII (Michael W. Deem and Ramdas Pophale) SiO2 
 PCOD8143290
Probable space group: C 2/C
;
_chemical_formula_sum "Si O2"
_cell_formula_units_Z 52
_cell_length_a 16.088021
_cell_length_b 12.429936
_cell_length_c 13.023558
_cell_angle_alpha 90.000000
_cell_angle_beta 102.953344
_cell_angle_gamma 90.000000
_cell_volume 2538.087513
_symmetry_space_group_name_H-M "C 2/C"
_symmetry_group_IT_number 15
_symmetry_cell_setting 'monoclinic'
loop_
_space_group_symop_operation_xyz
x,y,z
-x,y,1/2-z
-x,-y,-z
x,-y,1/2+z
1/2+x,1/2+y,z
1/2-x,1/2+y,1/2-z
1/2-x,1/2-y,-z
1/2+x,1/2-y,1/2+z
loop_
_atom_site_type_symbol
_atom_site_label
_atom_site_fract_x
_atom_site_fract_y
_atom_site_fract_z
Si Si1 0.000000 0.972968 0.750000
Si Si2 0.237718 0.405484 0.912889
Si Si3 0.848140 0.935688 0.332547
Si Si4 0.237241 0.334595 0.132346
Si Si5 0.961491 0.888602 0.531798
Si Si6 0.959601 0.337117 0.447889
Si Si7 0.946542 0.484006 0.637347
O O1 0.950971 0.899132 0.652108
O O2 0.930229 0.048248 0.783814
O O3 0.313660 0.449978 0.863620
O O4 0.223041 0.282495 0.877004
O O5 0.154332 0.478487 0.867942
O O6 0.261465 0.409532 0.041022
O O7 0.776654 0.874743 0.249202
O O8 0.873926 0.869096 0.443268
O O9 0.136140 0.339900 0.121675
O O10 0.021105 0.787216 0.527004
O O11 0.000000 0.000000 0.500000
O O12 0.969170 0.397404 0.557649
O O13 0.024658 0.394975 0.386747
O O14 0.000000 0.446988 0.750000
#
# Coordination Sequence:
#
# PCOD8143290 Si02
#       7
#     4   8   8   8   8   8   8
#     4  10  22  38  62  86 124 164 196 262 312 368
#     4  10  22  40  60  91 127 163 210 255 320 372
#     4  11  22  39  62  91 122 156 212 255 304 372
#     4  10  21  40  65  87 124 171 201 259 313 380
#     4  10  22  40  63  94 123 161 208 259 308 376
#     4  10  22  41  63  93 127 162 212 252 320 375
#     4  10  22  39  65  91 124 168 207 259 310 380
#
# _framework density 20.487867999999999
#
# number of rings (size 3 to 8) (size 9 to 14) (size 15 to 20)
#    0.000    1.846    0.000    3.692    3.231    6.154 
#    4.154    0.769    0.000    0.000    0.000    0.000 
#    0.000    0.000    0.000    0.000    0.000    0.000 
#
# Total GULP energy -322311.857010 kJ/mol
# GULP energy per Si atom -12396.609885 kJ/mol
# Density = 2.044124 g / cm^3
# Si number density = 20.487868 Si / 1000 Ang^3
#
#
#
# Elastic Constant Matrix: (Units=GPa)
#
#
# Indices 1 2 3 4 5 6 
#
# 1 105.2659 47.1083 45.2342 0.0000 5.0265 0.0000
# 2 47.1083 102.9696 50.8017 0.0000 7.0261 0.0000
# 3 45.2342 50.8017 186.7715 0.0000 30.9154 0.0000
# 4 0.0000 0.0000 0.0000 19.0398 0.0000 -0.7866
# 5 5.0265 7.0261 30.9154 0.0000 29.3258 0.0000
# 6 0.0000 0.0000 0.0000 -0.7866 0.0000 34.7378
#
#
#
# Elastic Compliance Matrix: (Units=1/GPa)
#
#
# Indices 1 2 3 4 5 6 
#
# 1 0.012412 -0.004830 -0.001855 0.000000 0.000986 0.000000
# 2 -0.004830 0.013107 -0.002438 0.000000 0.000258 0.000000
# 3 -0.001855 -0.002438 0.007653 0.000000 -0.007165 0.000000
# 4 0.000000 0.000000 0.000000 0.052571 0.000000 0.001190
# 5 0.000986 0.000258 -0.007165 0.000000 0.041423 0.000000
# 6 0.000000 0.000000 0.000000 0.001190 0.000000 0.028814
#
#
# Mechanical properties :
#
#
# Convention : Reuss Voigt Hill
#
# Bulk Modulus (GPa) = 67.00566 75.69948 71.35257
# Shear Modulus (GPa) = 27.90190 33.41154 30.65672
#
# Velocity S-wave (km/s) = 3.69436 4.04269 3.87245
# Velocity P-wave (km/s) = 7.13959 7.66941 7.40924
#
# Compressibility (1/GPa) = 0.01492411
#
# Stress axis : x y z
#
# Youngs Moduli (GPa) = 80.57040 76.29787 130.67450
#
# Poissons Ratio (x) = 0.36853 0.24244
# Poissons Ratio (y) = 0.38917 0.31856
# Poissons Ratio (z) = 0.14948 0.18600
#
# Static dielectric constant tensor:
#      x y z
#    x 3.677800 0.000000 0.101940 
#    y 0.000000 3.520460 0.000000 
#    z 0.101940 0.000000 4.278750 
# 
# 
# High freq. dielectric constant tensor:
#      x y z
#    x 1.793590 0.000000 0.005380 
#    y 0.000000 1.784940 0.000000 
#    z 0.005380 0.000000 1.821170 
# 
# From -- ./inp_files/152683.got.cif
#   From: 2010.06.25/outbox.cif.g09.slc.cpg/sg15_77_cif.got.tgz:152683.got - 2010.06.28 07:06:18.
