data_PCOD8143965
_publ_section_title
;
Structure prediction by ZEFSAII (Michael W. Deem and Ramdas Pophale) SiO2 
 PCOD8143965
Probable space group: C 2/C
;
_chemical_formula_sum "Si O2"
_cell_formula_units_Z 60
_cell_length_a 26.311722
_cell_length_b 20.235132
_cell_length_c 8.752196
_cell_angle_alpha 90.000000
_cell_angle_beta 37.988348
_cell_angle_gamma 90.000000
_cell_volume 2868.146023
_symmetry_space_group_name_H-M "C 2/C"
_symmetry_group_IT_number 15
_symmetry_cell_setting 'monoclinic'
loop_
_space_group_symop_operation_xyz
x,y,z
-x,y,1/2-z
-x,-y,-z
x,-y,1/2+z
1/2+x,1/2+y,z
1/2-x,1/2+y,1/2-z
1/2-x,1/2-y,-z
1/2+x,1/2-y,1/2+z
loop_
_atom_site_type_symbol
_atom_site_label
_atom_site_fract_x
_atom_site_fract_y
_atom_site_fract_z
Si Si1 0.000000 0.468430 0.750000
Si Si2 0.104657 0.447934 0.768085
Si Si3 0.161775 0.920035 0.162867
Si Si4 0.734633 0.751032 0.271773
Si Si5 0.491662 0.426767 0.448931
Si Si6 0.823495 0.152762 0.337382
Si Si7 0.695374 0.172785 0.146291
Si Si8 0.769228 0.973075 0.812476
O O1 0.940309 0.425361 0.783323
O O2 0.049020 0.512945 0.515806
O O3 0.126056 0.382552 0.810544
O O4 0.182403 0.490754 0.530608
O O5 0.072916 0.891026 0.325073
O O6 0.157303 0.978033 0.301999
O O7 0.213870 0.858395 0.099809
O O8 0.211153 0.954543 0.906787
O O9 0.674860 0.707997 0.302417
O O10 0.678951 0.777036 0.544944
O O11 0.805864 0.706036 0.182686
O O12 0.780421 0.812164 0.082415
O O13 0.500000 0.433558 0.250000
O O14 0.500000 0.500000 0.500000
O O15 0.412371 0.379892 0.672727
O O16 0.764920 0.093011 0.424358
#
# Coordination Sequence:
#
# PCOD8143965 Si02
#       8
#     4   8   8   8   8   8   8   8
#     4  10  22  40  58 100 122 146 188 260 356 376
#     4  10  22  37  66  90 126 155 199 272 329 385
#     4  11  21  36  60  97 126 159 205 262 326 384
#     4  10  23  41  63  89 120 172 233 254 292 383
#     4  12  22  37  60  94 142 161 196 269 338 388
#     4  11  23  39  62  92 131 171 218 263 315 384
#     4  10  21  41  68  86 118 163 223 266 301 380
#     4  11  21  36  64  96 118 164 206 253 330 389
#
# _framework density 20.919436000000001
#
# number of rings (size 3 to 8) (size 9 to 14) (size 15 to 20)
#    0.000    1.333    4.000    1.600    5.600    1.067 
#    0.000    0.000   16.133    0.000    0.000    0.000 
#    0.000    0.000    0.000    0.000    0.000    0.000 
#
# Total GULP energy -371706.812126 kJ/mol
# GULP energy per Si atom -12390.227071 kJ/mol
# Density = 2.087182 g / cm^3
# Si number density = 20.919436 Si / 1000 Ang^3
#
#
#
# Elastic Constant Matrix: (Units=GPa)
#
#
# Indices 1 2 3 4 5 6 
#
# 1 99.3941 19.4603 12.5146 0.0000 -10.0009 0.0000
# 2 19.4603 78.4939 1.6337 0.0000 -8.2230 0.0000
# 3 12.5146 1.6337 42.3103 0.0000 -8.6970 0.0000
# 4 0.0000 0.0000 0.0000 25.2222 0.0000 4.6729
# 5 -10.0009 -8.2230 -8.6970 0.0000 30.4281 0.0000
# 6 0.0000 0.0000 0.0000 4.6729 0.0000 43.4698
#
#
#
# Elastic Compliance Matrix: (Units=1/GPa)
#
#
# Indices 1 2 3 4 5 6 
#
# 1 0.011110 -0.002467 -0.002738 0.000000 0.002202 0.000000
# 2 -0.002467 0.013661 0.000844 0.000000 0.003122 0.000000
# 3 -0.002738 0.000844 0.025789 0.000000 0.006699 0.000000
# 4 0.000000 0.000000 0.000000 0.040453 0.000000 -0.004349
# 5 0.002202 0.003122 0.006699 0.000000 0.036347 0.000000
# 6 0.000000 0.000000 0.000000 -0.004349 0.000000 0.023472
#
#
# Mechanical properties :
#
#
# Convention : Reuss Voigt Hill
#
# Bulk Modulus (GPa) = 23.90154 31.93504 27.91829
# Shear Modulus (GPa) = 28.81831 32.26334 30.54083
#
# Velocity S-wave (km/s) = 3.71561 3.93143 3.82504
# Velocity P-wave (km/s) = 5.46425 5.99225 5.73433
#
# Compressibility (1/GPa) = 0.04183831
#
# Stress axis : x y z
#
# Youngs Moduli (GPa) = 90.00658 73.20151 38.77581
#
# Poissons Ratio (x) = 0.18057 0.10618
# Poissons Ratio (y) = 0.22203 -0.03272
# Poissons Ratio (z) = 0.24646 -0.06178
#
# Static dielectric constant tensor:
#      x y z
#    x 4.634490 0.000000 -0.001040 
#    y 0.000000 3.951230 0.000000 
#    z -0.001040 0.000000 3.712360 
# 
# 
# High freq. dielectric constant tensor:
#      x y z
#    x 1.843810 0.000000 0.016290 
#    y 0.000000 1.818400 0.000000 
#    z 0.016290 0.000000 1.792010 
# 
# From -- ./inp_files/67504.got.cif
#   From: 2010.06.25/outbox.cif.g09.slc.cpg/sg15_34_cif.got.tgz:67504.got - 2010.06.28 07:06:18.
