data_PCOD8143841
_publ_section_title
;
Structure prediction by ZEFSAII (Michael W. Deem and Ramdas Pophale) SiO2 
 PCOD8143841
Probable space group: C 2/C
;
_chemical_formula_sum "Si O2"
_cell_formula_units_Z 64
_cell_length_a 8.493835
_cell_length_b 15.175391
_cell_length_c 29.782410
_cell_angle_alpha 90.000000
_cell_angle_beta 129.601207
_cell_angle_gamma 90.000000
_cell_volume 2957.849594
_symmetry_space_group_name_H-M "C 2/C"
_symmetry_group_IT_number 15
_symmetry_cell_setting 'monoclinic'
loop_
_space_group_symop_operation_xyz
x,y,z
-x,y,1/2-z
-x,-y,-z
x,-y,1/2+z
1/2+x,1/2+y,z
1/2-x,1/2+y,1/2-z
1/2-x,1/2-y,-z
1/2+x,1/2-y,1/2+z
loop_
_atom_site_type_symbol
_atom_site_label
_atom_site_fract_x
_atom_site_fract_y
_atom_site_fract_z
Si Si1 0.728445 0.076420 0.283022
Si Si2 0.957909 0.092207 0.791365
Si Si3 0.460845 0.645185 0.408259
Si Si4 0.354200 0.832571 0.406235
Si Si5 0.155719 0.119285 0.010560
Si Si6 0.329276 0.953576 0.997592
Si Si7 0.765404 0.238248 0.220177
Si Si8 0.545159 0.741710 0.918074
O O1 0.500000 0.045395 0.250000
O O2 0.797820 0.109657 0.343827
O O3 0.739494 0.149544 0.245134
O O4 0.859885 0.989663 0.298690
O O5 0.811460 0.178109 0.765166
O O6 0.000000 0.057665 0.750000
O O7 0.181233 0.113338 0.849758
O O8 0.445513 0.749108 0.396576
O O9 0.415908 0.616938 0.451201
O O10 0.687102 0.607166 0.439315
O O11 0.552861 0.892685 0.446104
O O12 0.250183 0.799914 0.433227
O O13 0.379920 0.165394 0.048073
O O14 0.992141 0.172714 0.948727
O O15 0.182429 0.020497 0.997528
O O16 0.500000 0.000000 0.000000
O O17 0.635950 0.239161 0.150143
O O18 0.000000 0.250119 0.250000
#
# Coordination Sequence:
#
# PCOD8143841 Si02
#       8
#     8   8   8   8   8   8   8   8
#     4  12  25  45  70 100 137 182 230 286 345 418
#     4  11  24  45  70  98 136 178 231 291 350 411
#     4  11  25  43  65  97 138 182 225 275 345 412
#     4  10  21  42  65  93 133 173 222 279 338 405
#     4  10  21  41  65  96 130 179 217 274 336 409
#     4  12  23  39  64  99 136 172 227 283 337 406
#     4  11  24  45  70 102 135 178 232 287 348 415
#     4   9  20  41  68  91 134 175 216 273 344 401
#
# _framework density 21.637339999999998
#
# number of rings (size 3 to 8) (size 9 to 14) (size 15 to 20)
#    0.000    1.250    1.250    5.625    1.750    4.000 
#    4.500    0.000    0.000    0.000    0.000    0.000 
#    0.000    0.000    0.000    0.000    0.000    0.000 
#
# Total GULP energy -396570.557423 kJ/mol
# GULP energy per Si atom -12392.829919 kJ/mol
# Density = 2.158809 g / cm^3
# Si number density = 21.637340 Si / 1000 Ang^3
#
#
#
# Elastic Constant Matrix: (Units=GPa)
#
#
# Indices 1 2 3 4 5 6 
#
# 1 44.2712 16.8400 50.4817 0.0000 8.9513 0.0000
# 2 16.8400 135.5622 65.3589 0.0000 11.0511 0.0000
# 3 50.4817 65.3589 156.7013 0.0000 9.0022 0.0000
# 4 0.0000 0.0000 0.0000 45.8898 0.0000 12.0657
# 5 8.9513 11.0511 9.0022 0.0000 35.8183 0.0000
# 6 0.0000 0.0000 0.0000 12.0657 0.0000 27.2313
#
#
#
# Elastic Compliance Matrix: (Units=1/GPa)
#
#
# Indices 1 2 3 4 5 6 
#
# 1 0.037465 0.001918 -0.012478 0.000000 -0.006819 0.000000
# 2 0.001918 0.009462 -0.004433 0.000000 -0.002284 0.000000
# 3 -0.012478 -0.004433 0.012168 0.000000 0.001428 0.000000
# 4 0.000000 0.000000 0.000000 0.024665 0.000000 -0.010928
# 5 -0.006819 -0.002284 0.001428 0.000000 0.029969 0.000000
# 6 0.000000 0.000000 0.000000 -0.010928 0.000000 0.041565
#
#
# Mechanical properties :
#
#
# Convention : Reuss Voigt Hill
#
# Bulk Modulus (GPa) = 34.35312 66.87733 50.61523
# Shear Modulus (GPa) = 25.64326 35.37815 30.51070
#
# Velocity S-wave (km/s) = 3.44632 4.04796 3.75920
# Velocity P-wave (km/s) = 5.63448 7.26797 6.50272
#
# Compressibility (1/GPa) = 0.02910944
#
# Stress axis : x y z
#
# Youngs Moduli (GPa) = 26.69133 105.68560 82.18090
#
# Poissons Ratio (x) = -0.20267 1.02543
# Poissons Ratio (y) = -0.05119 0.36432
# Poissons Ratio (z) = 0.33305 0.46851
#
# Static dielectric constant tensor:
#      x y z
#    x 3.823190 0.000000 0.067780 
#    y 0.000000 4.631680 0.000000 
#    z 0.067780 0.000000 5.332920 
# 
# 
# High freq. dielectric constant tensor:
#      x y z
#    x 1.839020 0.000000 0.001370 
#    y 0.000000 1.866440 0.000000 
#    z 0.001370 0.000000 1.859700 
# 
# From -- ./inp_files/308303.got.cif
#   From: 2010.06.25/outbox.cif.g09.slc.cpg/sg15_155_cif.got.tgz:308303.got - 2010.06.28 07:06:18.
