data_PCOD8143263
_publ_section_title
;
Structure prediction by ZEFSAII (Michael W. Deem and Ramdas Pophale) SiO2 
 PCOD8143263
Probable space group: C 2/C
;
_chemical_formula_sum "Si O2"
_cell_formula_units_Z 56
_cell_length_a 19.691472
_cell_length_b 7.845883
_cell_length_c 26.298453
_cell_angle_alpha 90.000000
_cell_angle_beta 147.853420
_cell_angle_gamma 90.000000
_cell_volume 2161.886728
_symmetry_space_group_name_H-M "C 2/C"
_symmetry_group_IT_number 15
_symmetry_cell_setting 'monoclinic'
loop_
_space_group_symop_operation_xyz
x,y,z
-x,y,1/2-z
-x,-y,-z
x,-y,1/2+z
1/2+x,1/2+y,z
1/2-x,1/2+y,1/2-z
1/2-x,1/2-y,-z
1/2+x,1/2-y,1/2+z
loop_
_atom_site_type_symbol
_atom_site_label
_atom_site_fract_x
_atom_site_fract_y
_atom_site_fract_z
Si Si1 0.320764 0.903509 0.213983
Si Si2 0.785493 0.548103 0.467265
Si Si3 0.349325 0.895633 0.347626
Si Si4 0.872761 0.777292 0.234407
Si Si5 0.406629 0.820790 0.950291
Si Si6 0.848405 0.280136 0.605613
Si Si7 0.403072 0.841190 0.138152
O O1 0.345231 0.839476 0.286695
O O2 0.188096 0.837858 0.107069
O O3 0.441270 0.845028 0.253261
O O4 0.303261 0.102635 0.204436
O O5 0.852327 0.533464 0.455217
O O6 0.766782 0.357571 0.485735
O O7 0.656983 0.663115 0.381104
O O8 0.885525 0.650763 0.565866
O O9 0.204936 0.906171 0.278950
O O10 0.449770 0.769645 0.441073
O O11 0.404383 0.087457 0.393478
O O12 0.857309 0.823814 0.165245
O O13 0.022105 0.759930 0.343410
O O14 0.834747 0.480481 0.614023
#
# Coordination Sequence:
#
# PCOD8143263 Si02
#       7
#     8   8   8   8   8   8   8
#     4  11  23  42  64  95 133 169 217 279 329 390
#     4  11  21  41  66  97 132 171 218 270 332 391
#     4  11  23  44  63  94 132 169 225 265 327 407
#     4  10  22  39  62  93 126 170 221 267 328 395
#     4  11  24  40  69  92 127 181 214 270 333 394
#     4  10  21  40  64  95 129 171 219 271 329 389
#     4  10  23  39  65  99 132 167 217 278 326 390
#
# _framework density 25.903299000000001
#
# number of rings (size 3 to 8) (size 9 to 14) (size 15 to 20)
#    0.000    1.429    2.857    2.143    2.000    2.286 
#    0.000    0.000    0.000    0.000    0.000    0.000 
#    0.000    0.000    0.000    0.000    0.000    0.000 
#
# Total GULP energy -346911.502523 kJ/mol
# GULP energy per Si atom -12389.696519 kJ/mol
# Density = 2.584434 g / cm^3
# Si number density = 25.903299 Si / 1000 Ang^3
#
#
#
# Elastic Constant Matrix: (Units=GPa)
#
#
# Indices 1 2 3 4 5 6 
#
# 1 85.8235 15.3584 12.7247 0.0000 16.6895 0.0000
# 2 15.3584 87.0925 30.5629 -0.0004 10.1503 0.0001
# 3 12.7247 30.5629 110.8849 0.0000 21.3257 0.0000
# 4 0.0000 -0.0004 0.0000 43.3387 0.0000 4.8644
# 5 16.6895 10.1503 21.3257 0.0000 32.9152 0.0000
# 6 0.0000 0.0001 0.0000 4.8644 0.0000 34.8250
#
#
#
# Elastic Compliance Matrix: (Units=1/GPa)
#
#
# Indices 1 2 3 4 5 6 
#
# 1 0.013139 -0.001640 0.000146 0.000000 -0.006251 0.000000
# 2 -0.001640 0.013019 -0.003185 0.000000 -0.001120 0.000000
# 3 0.000146 -0.003185 0.011086 0.000000 -0.006275 0.000000
# 4 0.000000 0.000000 0.000000 0.023442 0.000000 -0.003274
# 5 -0.006251 -0.001120 -0.006275 0.000000 0.037962 0.000000
# 6 0.000000 0.000000 0.000000 -0.003274 0.000000 0.029172
#
#
# Mechanical properties :
#
#
# Convention : Reuss Voigt Hill
#
# Bulk Modulus (GPa) = 35.85748 44.56586 40.21167
# Shear Modulus (GPa) = 34.13594 37.22611 35.68103
#
# Velocity S-wave (km/s) = 3.63412 3.79505 3.71546
# Velocity P-wave (km/s) = 5.61088 6.03699 5.82783
#
# Compressibility (1/GPa) = 0.02788818
#
# Stress axis : x y z
#
# Youngs Moduli (GPa) = 76.10793 76.80828 90.20223
#
# Poissons Ratio (x) = 0.12596 -0.01321
# Poissons Ratio (y) = 0.12481 0.28729
# Poissons Ratio (z) = -0.01115 0.24463
#
# Static dielectric constant tensor:
#      x y z
#    x 4.789120 0.000000 -0.284120 
#    y 0.000000 4.371500 0.000000 
#    z -0.284120 0.000000 5.253690 
# 
# 
# High freq. dielectric constant tensor:
#      x y z
#    x 2.047440 0.000000 -0.021150 
#    y 0.000000 2.013140 0.000000 
#    z -0.021150 0.000000 2.061560 
# 
# From -- ./inp_files/317538.got.cif
#   From: 2010.06.25/outbox.cif.g09.slc.cpg/sg15_159_cif.got.tgz:317538.got - 2010.06.28 07:06:18.
