data_PCOD8143834
_publ_section_title
;
Structure prediction by ZEFSAII (Michael W. Deem and Ramdas Pophale) SiO2 
 PCOD8143834
Probable space group: C 2/C
;
_chemical_formula_sum "Si O2"
_cell_formula_units_Z 56
_cell_length_a 16.215364
_cell_length_b 23.079232
_cell_length_c 7.788519
_cell_angle_alpha 90.000000
_cell_angle_beta 64.130518
_cell_angle_gamma 90.000000
_cell_volume 2622.673633
_symmetry_space_group_name_H-M "C 2/C"
_symmetry_group_IT_number 15
_symmetry_cell_setting 'monoclinic'
loop_
_space_group_symop_operation_xyz
x,y,z
-x,y,1/2-z
-x,-y,-z
x,-y,1/2+z
1/2+x,1/2+y,z
1/2-x,1/2+y,1/2-z
1/2-x,1/2-y,-z
1/2+x,1/2-y,1/2+z
loop_
_atom_site_type_symbol
_atom_site_label
_atom_site_fract_x
_atom_site_fract_y
_atom_site_fract_z
Si Si1 0.500000 0.715780 0.750000
Si Si2 0.583423 0.102420 0.055184
Si Si3 0.475355 0.197653 0.961469
Si Si4 0.314700 0.872757 0.713647
Si Si5 0.891236 0.126701 0.040107
Si Si6 0.204855 0.501518 0.384170
Si Si7 0.000000 0.088296 0.250000
Si Si8 0.652053 0.500942 0.494247
O O1 0.475097 0.753081 0.606093
O O2 0.585531 0.674783 0.623180
O O3 0.500000 0.079955 0.250000
O O4 0.656691 0.134294 0.112441
O O5 0.548119 0.147710 0.945714
O O6 0.631376 0.048877 0.914114
O O7 0.500000 0.222177 0.750000
O O8 0.372821 0.171646 0.045498
O O9 0.207757 0.858774 0.789743
O O10 0.338603 0.937542 0.629214
O O11 0.966288 0.128560 0.124940
O O12 0.893942 0.063976 0.945757
O O13 0.315800 0.491417 0.233253
O O14 0.236770 0.501870 0.555158
O O15 0.915035 0.049083 0.385616
#
# Coordination Sequence:
#
# PCOD8143834 Si02
#       8
#     4   8   8   8   8   8   4   8
#     4  12  27  50  68  96 134 183 236 292 328 384
#     4  10  21  41  65  94 137 177 216 275 342 400
#     4  11  26  47  72  94 131 176 234 291 337 392
#     4  10  21  44  63 100 136 176 220 275 345 406
#     4  11  25  40  70  97 136 183 225 277 336 401
#     4  11  21  36  63 100 140 172 214 264 336 417
#     4  12  23  40  62 100 138 173 226 268 344 410
#     4  11  22  39  61  99 142 173 212 270 331 412
#
# _framework density 21.352255
#
# number of rings (size 3 to 8) (size 9 to 14) (size 15 to 20)
#    0.000    1.143    7.857    0.857    5.000    3.429 
#    0.000    0.714    0.000    0.000    0.000    0.000 
#    0.000    0.000    0.000    0.000    0.000    0.000 
#
# Total GULP energy -347002.141249 kJ/mol
# GULP energy per Si atom -12392.933616 kJ/mol
# Density = 2.130366 g / cm^3
# Si number density = 21.352255 Si / 1000 Ang^3
#
#
#
# Elastic Constant Matrix: (Units=GPa)
#
#
# Indices 1 2 3 4 5 6 
#
# 1 113.2123 42.0071 31.8887 0.0000 3.4579 0.0000
# 2 42.0071 107.3565 71.5162 0.0000 -8.3126 0.0000
# 3 31.8887 71.5162 100.5694 0.0000 -5.9791 0.0000
# 4 0.0000 0.0000 0.0000 42.5738 0.0000 -0.0511
# 5 3.4579 -8.3126 -5.9791 0.0000 31.3493 0.0000
# 6 0.0000 0.0000 0.0000 -0.0511 0.0000 14.6918
#
#
#
# Elastic Compliance Matrix: (Units=1/GPa)
#
#
# Indices 1 2 3 4 5 6 
#
# 1 0.010526 -0.003767 -0.000796 0.000000 -0.002312 0.000000
# 2 -0.003767 0.019216 -0.012282 0.000000 0.003168 0.000000
# 3 -0.000796 -0.012282 0.018956 0.000000 0.000447 0.000000
# 4 0.000000 0.000000 0.000000 0.023489 0.000000 0.000082
# 5 -0.002312 0.003168 0.000447 0.000000 0.033079 0.000000
# 6 0.000000 0.000000 0.000000 0.000082 0.000000 0.068065
#
#
# Mechanical properties :
#
#
# Convention : Reuss Voigt Hill
#
# Bulk Modulus (GPa) = 66.63334 67.99581 67.31457
# Shear Modulus (GPa) = 23.58244 29.43806 26.51025
#
# Velocity S-wave (km/s) = 3.32693 3.71709 3.52741
# Velocity P-wave (km/s) = 6.78472 7.09481 6.94149
#
# Compressibility (1/GPa) = 0.01500750
#
# Stress axis : x y z
#
# Youngs Moduli (GPa) = 95.00634 52.04105 52.75408
#
# Poissons Ratio (x) = 0.19605 0.04199
# Poissons Ratio (y) = 0.35792 0.64790
# Poissons Ratio (z) = 0.07562 0.63914
#
# Static dielectric constant tensor:
#      x y z
#    x 3.986950 0.000000 0.197770 
#    y 0.000000 3.631320 0.000000 
#    z 0.197770 0.000000 4.046430 
# 
# 
# High freq. dielectric constant tensor:
#      x y z
#    x 1.845020 0.000000 0.006290 
#    y 0.000000 1.813890 0.000000 
#    z 0.006290 0.000000 1.852190 
# 
# From -- ./inp_files/42166.got.cif
#   From: 2010.06.25/outbox.cif.g09.slc.cpg/sg15_22_cif.got.tgz:42166.got - 2010.06.28 07:06:18.
