data_PCOD8143960
_publ_section_title
;
Structure prediction by ZEFSAII (Michael W. Deem and Ramdas Pophale) SiO2 
 PCOD8143960
Probable space group: C 2/C
;
_chemical_formula_sum "Si O2"
_cell_formula_units_Z 60
_cell_length_a 12.451283
_cell_length_b 19.447148
_cell_length_c 17.404189
_cell_angle_alpha 90.000000
_cell_angle_beta 143.852805
_cell_angle_gamma 90.000000
_cell_volume 2485.844833
_symmetry_space_group_name_H-M "C 2/C"
_symmetry_group_IT_number 15
_symmetry_cell_setting 'monoclinic'
loop_
_space_group_symop_operation_xyz
x,y,z
-x,y,1/2-z
-x,-y,-z
x,-y,1/2+z
1/2+x,1/2+y,z
1/2-x,1/2+y,1/2-z
1/2-x,1/2-y,-z
1/2+x,1/2-y,1/2+z
loop_
_atom_site_type_symbol
_atom_site_label
_atom_site_fract_x
_atom_site_fract_y
_atom_site_fract_z
Si Si1 0.301875 0.694094 0.365757
Si Si2 0.054158 0.424455 0.000699
Si Si3 0.509104 0.410318 0.625663
Si Si4 0.363252 0.214088 0.389081
Si Si5 0.770058 0.594615 0.057080
Si Si6 0.369680 0.442992 0.288701
Si Si7 0.304493 0.958530 0.151151
Si Si8 0.500000 0.303195 0.750000
O O1 0.390005 0.622601 0.388566
O O2 0.458704 0.746928 0.480803
O O3 0.175816 0.726035 0.224985
O O4 0.197172 0.669745 0.383523
O O5 0.086391 0.420621 0.927858
O O6 0.244174 0.405426 0.152927
O O7 0.000000 0.500000 0.000000
O O8 0.896474 0.367618 0.925578
O O9 0.622450 0.474929 0.725323
O O10 0.314621 0.438281 0.490162
O O11 0.463510 0.350129 0.656684
O O12 0.185284 0.239371 0.336072
O O13 0.567027 0.591690 0.903768
O O14 0.808342 0.541095 0.148178
O O15 0.276817 0.431291 0.317099
O O16 0.500000 0.924480 0.250000
#
# Coordination Sequence:
#
# PCOD8143960 Si02
#       8
#     8   8   8   8   8   8   8   4
#     4  11  24  51  70 101 145 194 255 296 372 444
#     4  12  27  44  70 113 143 183 250 308 373 449
#     4  10  21  41  67  99 143 193 224 302 376 441
#     4  11  29  46  76 106 146 200 248 315 365 451
#     4  11  24  43  71  96 147 194 231 309 363 434
#     4  11  22  41  66 107 141 187 236 293 375 444
#     4  11  22  35  65 109 138 189 235 289 366 439
#     4  10  24  44  68 100 144 186 232 300 382 416
#
# _framework density 24.136662999999999
#
# number of rings (size 3 to 8) (size 9 to 14) (size 15 to 20)
#    0.000    1.067    2.667    3.600   13.067    2.667 
#    1.200    0.000    0.000    0.000    0.000    0.000 
#    0.000    0.000    0.000    0.000    0.000    0.000 
#
# Total GULP energy -371785.028765 kJ/mol
# GULP energy per Si atom -12392.834292 kJ/mol
# Density = 2.408173 g / cm^3
# Si number density = 24.136663 Si / 1000 Ang^3
#
#
#
# Elastic Constant Matrix: (Units=GPa)
#
#
# Indices 1 2 3 4 5 6 
#
# 1 114.1508 13.3236 18.3057 0.0007 -1.1967 0.0088
# 2 13.3236 51.0355 23.6411 0.0004 -3.4905 0.0081
# 3 18.3057 23.6411 119.8633 0.0015 -9.2008 -0.0188
# 4 0.0007 0.0004 0.0015 25.0132 0.0008 20.2380
# 5 -1.1967 -3.4905 -9.2008 0.0008 31.6083 0.0004
# 6 0.0088 0.0081 -0.0188 20.2380 0.0004 233.4899
#
#
#
# Elastic Compliance Matrix: (Units=1/GPa)
#
#
# Indices 1 2 3 4 5 6 
#
# 1 0.009148 -0.001922 -0.001031 0.000000 -0.000166 0.000000
# 2 -0.001922 0.022011 -0.003955 0.000001 0.001207 -0.000001
# 3 -0.001031 -0.003955 0.009455 -0.000001 0.002276 0.000001
# 4 0.000000 0.000001 -0.000001 0.042994 -0.000001 -0.003727
# 5 -0.000166 0.001207 0.002276 -0.000001 0.032427 0.000000
# 6 0.000000 -0.000001 0.000001 -0.003727 0.000000 0.004606
#
#
# Mechanical properties :
#
#
# Convention : Reuss Voigt Hill
#
# Bulk Modulus (GPa) = 37.31621 43.95446 40.63534
# Shear Modulus (GPa) = 34.87010 73.34090 54.10550
#
# Velocity S-wave (km/s) = 3.80504 5.51830 4.73972
# Velocity P-wave (km/s) = 5.89901 7.67153 6.84291
#
# Compressibility (1/GPa) = 0.02679800
#
# Stress axis : x y z
#
# Youngs Moduli (GPa) = 109.31050 45.43254 105.76331
#
# Poissons Ratio (x) = 0.08733 0.10902
# Poissons Ratio (y) = 0.21011 0.41830
# Poissons Ratio (z) = 0.11267 0.17969
#
# Static dielectric constant tensor:
#      x y z
#    x 5.855580 0.000000 0.127790 
#    y 0.000000 4.173550 0.000000 
#    z 0.127790 0.000000 4.650030 
# 
# 
# High freq. dielectric constant tensor:
#      x y z
#    x 1.956230 0.000000 0.001600 
#    y 0.000000 1.925680 0.000000 
#    z 0.001600 0.000000 1.980610 
# 
# From -- ./inp_files/200538.got.cif
#   From: 2010.06.25/outbox.cif.g09.slc.cpg/sg15_101_cif.got.tgz:200538.got - 2010.06.28 07:06:18.
