data_PCOD8143097
_publ_section_title
;
Structure prediction by ZEFSAII (Michael W. Deem and Ramdas Pophale) SiO2 
 PCOD8143097
Probable space group: C 2/C
;
_chemical_formula_sum "Si O2"
_cell_formula_units_Z 40
_cell_length_a 31.196750
_cell_length_b 8.886830
_cell_length_c 15.685197
_cell_angle_alpha 90.000000
_cell_angle_beta 151.698954
_cell_angle_gamma 90.000000
_cell_volume 2061.674415
_symmetry_space_group_name_H-M "C 2/C"
_symmetry_group_IT_number 15
_symmetry_cell_setting 'monoclinic'
loop_
_space_group_symop_operation_xyz
x,y,z
-x,y,1/2-z
-x,-y,-z
x,-y,1/2+z
1/2+x,1/2+y,z
1/2-x,1/2+y,1/2-z
1/2-x,1/2-y,-z
1/2+x,1/2-y,1/2+z
loop_
_atom_site_type_symbol
_atom_site_label
_atom_site_fract_x
_atom_site_fract_y
_atom_site_fract_z
Si Si1 0.748160 0.758104 0.639151
Si Si2 0.620297 0.157263 0.767663
Si Si3 0.222629 0.905197 0.264671
Si Si4 0.547052 0.658090 0.567776
Si Si5 0.337882 0.819685 0.611694
O O1 0.668181 0.759084 0.430121
O O2 0.838924 0.705143 0.751695
O O3 0.719190 0.641307 0.660766
O O4 0.768087 0.916439 0.717498
O O5 0.517161 0.214614 0.586136
O O6 0.632793 0.979696 0.797935
O O7 0.131759 0.853960 0.152840
O O8 0.313086 0.835346 0.468318
O O9 0.500000 0.500000 0.500000
O O10 0.579697 0.708974 0.720011
O O11 0.250000 0.750000 0.500000
#
# Coordination Sequence:
#
# PCOD8143097 Si02
#       5
#     8   8   8   8   8
#     4  10  22  38  62  89 119 159 198 248 298 364
#     4  10  21  40  62  87 123 160 199 244 311 357
#     4  10  22  39  60  89 119 156 204 245 298 360
#     4  11  21  38  63  90 120 155 204 249 304 358
#     4   9  21  38  60  87 116 162 198 240 298 368
#
# _framework density 19.401706999999998
#
# number of rings (size 3 to 8) (size 9 to 14) (size 15 to 20)
#    0.000    2.000    2.000    0.600    8.400    0.800 
#    0.000    1.000    0.000    0.000    0.000    0.000 
#    0.000    0.000    0.000    0.000    0.000    0.000 
#
# Total GULP energy -247892.380335 kJ/mol
# GULP energy per Si atom -12394.619017 kJ/mol
# Density = 1.935755 g / cm^3
# Si number density = 19.401707 Si / 1000 Ang^3
#
#
#
# Elastic Constant Matrix: (Units=GPa)
#
#
# Indices 1 2 3 4 5 6 
#
# 1 106.3109 40.9523 44.4947 0.0000 -16.6173 0.0000
# 2 40.9523 101.6469 55.2860 0.0000 -5.7112 0.0000
# 3 44.4947 55.2860 116.1553 0.0000 4.5463 0.0000
# 4 0.0000 0.0000 0.0000 41.2865 0.0000 -0.8463
# 5 -16.6173 -5.7112 4.5463 0.0000 20.6799 0.0000
# 6 0.0000 0.0000 0.0000 -0.8463 0.0000 33.0528
#
#
#
# Elastic Compliance Matrix: (Units=1/GPa)
#
#
# Indices 1 2 3 4 5 6 
#
# 1 0.014167 -0.002493 -0.004699 0.000000 0.011728 0.000000
# 2 -0.002493 0.014268 -0.005964 0.000000 0.003249 0.000000
# 3 -0.004699 -0.005964 0.013577 0.000000 -0.008408 0.000000
# 4 0.000000 0.000000 0.000000 0.024234 0.000000 0.000620
# 5 0.011728 0.003249 -0.008408 0.000000 0.060526 0.000000
# 6 0.000000 0.000000 0.000000 0.000620 0.000000 0.030271
#
#
# Mechanical properties :
#
#
# Convention : Reuss Voigt Hill
#
# Bulk Modulus (GPa) = 63.69114 67.28657 65.48885
# Shear Modulus (GPa) = 26.51298 31.22918 28.87108
#
# Velocity S-wave (km/s) = 3.70067 4.01635 3.86173
# Velocity P-wave (km/s) = 7.15254 7.50094 7.32881
#
# Compressibility (1/GPa) = 0.01570077
#
# Stress axis : x y z
#
# Youngs Moduli (GPa) = 70.58846 70.08516 73.65468
#
# Poissons Ratio (x) = 0.17469 0.34613
# Poissons Ratio (y) = 0.17595 0.43925
# Poissons Ratio (z) = 0.33172 0.41796
#
# Static dielectric constant tensor:
#      x y z
#    x 3.235710 0.000000 -0.097200 
#    y 0.000000 3.672780 0.000000 
#    z -0.097200 0.000000 3.972110 
# 
# 
# High freq. dielectric constant tensor:
#      x y z
#    x 1.725830 0.000000 -0.008430 
#    y 0.000000 1.771360 0.000000 
#    z -0.008430 0.000000 1.770700 
# 
# From -- ./inp_files/150540.got.cif
#   From: 2010.06.25/outbox.cif.g09.slc.cpg/sg15_76_cif.got.tgz:150540.got - 2010.06.28 07:06:18.
