data_PCOD8143434
_publ_section_title
;
Structure prediction by ZEFSAII (Michael W. Deem and Ramdas Pophale) SiO2 
 PCOD8143434
Probable space group: C 2/C
;
_chemical_formula_sum "Si O2"
_cell_formula_units_Z 48
_cell_length_a 9.293608
_cell_length_b 16.765509
_cell_length_c 14.087334
_cell_angle_alpha 90.000000
_cell_angle_beta 70.258434
_cell_angle_gamma 90.000000
_cell_volume 2065.968538
_symmetry_space_group_name_H-M "C 2/C"
_symmetry_group_IT_number 15
_symmetry_cell_setting 'monoclinic'
loop_
_space_group_symop_operation_xyz
x,y,z
-x,y,1/2-z
-x,-y,-z
x,-y,1/2+z
1/2+x,1/2+y,z
1/2-x,1/2+y,1/2-z
1/2-x,1/2-y,-z
1/2+x,1/2-y,1/2+z
loop_
_atom_site_type_symbol
_atom_site_label
_atom_site_fract_x
_atom_site_fract_y
_atom_site_fract_z
Si Si1 0.167665 0.406657 0.238971
Si Si2 0.220614 0.226142 0.195223
Si Si3 0.026575 0.005537 0.855318
Si Si4 0.000602 0.168802 0.404117
Si Si5 0.268829 0.629098 0.919161
Si Si6 0.447294 0.771862 0.919758
O O1 0.190682 0.319772 0.189328
O O2 0.302102 0.461441 0.167052
O O3 0.175118 0.403576 0.351221
O O4 0.000000 0.440698 0.250000
O O5 0.158954 0.186541 0.112513
O O6 0.398160 0.202235 0.166235
O O7 0.140740 0.191811 0.305411
O O8 0.899336 0.067373 0.921770
O O9 0.000000 0.987478 0.750000
O O10 0.007970 0.926017 0.922017
O O11 0.012123 0.218442 0.497327
O O12 0.349687 0.713672 0.872301
O O13 0.150981 0.649228 0.031345
#
# Coordination Sequence:
#
# PCOD8143434 Si02
#       6
#     8   8   8   8   8   8
#     4  11  20  39  67  92 122 173 221 259 317 386
#     4  11  20  38  65  97 122 168 217 268 298 395
#     4  10  21  40  67  90 128 171 206 266 330 381
#     4  11  22  40  66  95 129 166 215 262 325 380
#     4  10  22  39  61  93 130 164 214 259 325 382
#     4  11  22  38  65  96 127 167 219 265 311 384
#
# _framework density 23.233654999999999
#
# number of rings (size 3 to 8) (size 9 to 14) (size 15 to 20)
#    0.000    1.333    6.667    0.500    0.000    0.667 
#    0.000    4.167    0.000    0.000    0.000    0.000 
#    0.000    0.000    0.000    0.000    0.000    0.000 
#
# Total GULP energy -297609.101085 kJ/mol
# GULP energy per Si atom -12400.379212 kJ/mol
# Density = 2.318077 g / cm^3
# Si number density = 23.233655 Si / 1000 Ang^3
#
#
#
# Elastic Constant Matrix: (Units=GPa)
#
#
# Indices 1 2 3 4 5 6 
#
# 1 128.1525 11.3597 17.0932 0.0000 -31.6387 0.0000
# 2 11.3597 92.9899 1.5679 0.0000 -8.6762 0.0000
# 3 17.0932 1.5679 37.0667 0.0000 -19.2186 0.0000
# 4 0.0000 0.0000 0.0000 20.0826 0.0000 -5.1934
# 5 -31.6387 -8.6762 -19.2186 0.0000 47.6963 0.0000
# 6 0.0000 0.0000 0.0000 -5.1934 0.0000 27.8009
#
#
#
# Elastic Compliance Matrix: (Units=1/GPa)
#
#
# Indices 1 2 3 4 5 6 
#
# 1 0.009421 -0.000608 -0.001436 0.000000 0.005560 0.000000
# 2 -0.000608 0.010994 0.000813 0.000000 0.001924 0.000000
# 3 -0.001436 0.000813 0.034369 0.000000 0.013044 0.000000
# 4 0.000000 0.000000 0.000000 0.052322 0.000000 0.009774
# 5 0.005560 0.001924 0.013044 0.000000 0.030260 0.000000
# 6 0.000000 0.000000 0.000000 0.009774 0.000000 0.037796
#
#
# Mechanical properties :
#
#
# Convention : Reuss Voigt Hill
#
# Bulk Modulus (GPa) = 19.11210 35.36117 27.23664
# Shear Modulus (GPa) = 25.63243 34.32853 29.98048
#
# Velocity S-wave (km/s) = 3.32512 3.84804 3.59610
# Velocity P-wave (km/s) = 4.79435 5.91575 5.38432
#
# Compressibility (1/GPa) = 0.05232288
#
# Stress axis : x y z
#
# Youngs Moduli (GPa) = 106.14153 90.95915 29.09567
#
# Poissons Ratio (x) = 0.05530 0.04178
# Poissons Ratio (y) = 0.06452 -0.02365
# Poissons Ratio (z) = 0.15241 -0.07395
#
# Static dielectric constant tensor:
#      x y z
#    x 4.536450 0.000000 -0.165130 
#    y 0.000000 4.091270 0.000000 
#    z -0.165130 0.000000 4.052300 
# 
# 
# High freq. dielectric constant tensor:
#      x y z
#    x 1.935730 0.000000 -0.000380 
#    y 0.000000 1.898760 0.000000 
#    z -0.000380 0.000000 1.907790 
# 
# From -- ./inp_files/190231.got.cif
#   From: 2010.06.25/outbox.cif.g09.slc.cpg/sg15_96_cif.got.tgz:190231.got - 2010.06.28 07:06:18.
