data_PCOD8143499
_publ_section_title
;
Structure prediction by ZEFSAII (Michael W. Deem and Ramdas Pophale) SiO2 
 PCOD8143499
Probable space group: C 2/C
;
_chemical_formula_sum "Si O2"
_cell_formula_units_Z 60
_cell_length_a 8.284497
_cell_length_b 20.695427
_cell_length_c 22.262963
_cell_angle_alpha 90.000000
_cell_angle_beta 49.305028
_cell_angle_gamma 90.000000
_cell_volume 2894.026114
_symmetry_space_group_name_H-M "C 2/C"
_symmetry_group_IT_number 15
_symmetry_cell_setting 'monoclinic'
loop_
_space_group_symop_operation_xyz
x,y,z
-x,y,1/2-z
-x,-y,-z
x,-y,1/2+z
1/2+x,1/2+y,z
1/2-x,1/2+y,1/2-z
1/2-x,1/2-y,-z
1/2+x,1/2-y,1/2+z
loop_
_atom_site_type_symbol
_atom_site_label
_atom_site_fract_x
_atom_site_fract_y
_atom_site_fract_z
Si Si1 0.088470 0.713834 0.667618
Si Si2 0.569365 0.623271 0.406071
Si Si3 0.911242 0.105191 0.570557
Si Si4 0.255679 0.850276 0.613892
Si Si5 0.750102 0.496194 0.803387
Si Si6 0.271504 0.747571 0.836734
Si Si7 0.500000 0.544978 0.250000
Si Si8 0.282505 0.815619 0.028497
O O1 0.226775 0.657995 0.603290
O O2 0.218574 0.779311 0.651882
O O3 0.000000 0.682646 0.750000
O O4 0.892776 0.734000 0.675263
O O5 0.500721 0.586731 0.483405
O O6 0.358096 0.646239 0.422912
O O7 0.710131 0.577103 0.331076
O O8 0.723744 0.683971 0.380900
O O9 0.852525 0.042579 0.622491
O O10 0.091033 0.136839 0.566000
O O11 0.175017 0.908666 0.675717
O O12 0.506872 0.854835 0.541711
O O13 0.635519 0.500551 0.764478
O O14 0.000000 0.510830 0.750000
O O15 0.500000 0.745806 0.750000
O O16 0.230717 0.694596 0.897096
O O17 0.250000 0.750000 0.000000
#
# Coordination Sequence:
#
# PCOD8143499 Si02
#       8
#     8   8   8   8   8   8   4   8
#     4  11  21  37  63  93 134 170 210 268 338 392
#     4  10  22  42  67  92 124 173 228 271 326 391
#     4  12  24  42  62  95 137 171 217 266 336 407
#     4  10  21  40  68  98 128 170 218 282 326 387
#     4  11  26  47  69  93 129 180 223 280 334 395
#     4  11  23  38  63 101 133 170 221 273 330 396
#     4  10  24  48  72  98 130 170 244 282 326 402
#     4  12  23  38  64 100 140 171 210 270 338 401
#
# _framework density 20.732362999999999
#
# number of rings (size 3 to 8) (size 9 to 14) (size 15 to 20)
#    0.000    1.067    3.333    2.800    1.867    2.133 
#    8.400    1.333    0.000    0.000    0.000    0.000 
#    0.000    0.000    0.000    0.000    0.000    0.000 
#
# Total GULP energy -371866.055753 kJ/mol
# GULP energy per Si atom -12395.535192 kJ/mol
# Density = 2.068518 g / cm^3
# Si number density = 20.732363 Si / 1000 Ang^3
#
#
#
# Elastic Constant Matrix: (Units=GPa)
#
#
# Indices 1 2 3 4 5 6 
#
# 1 73.1054 24.1762 40.5024 0.0000 2.3397 -0.0001
# 2 24.1762 49.4626 24.3478 0.0000 -6.7798 0.0000
# 3 40.5024 24.3478 120.3381 0.0001 0.5488 -0.0001
# 4 0.0000 0.0000 0.0001 33.7395 -0.0001 4.5264
# 5 2.3397 -6.7798 0.5488 -0.0001 41.0097 0.0001
# 6 -0.0001 0.0000 -0.0001 4.5264 0.0001 25.1190
#
#
#
# Elastic Compliance Matrix: (Units=1/GPa)
#
#
# Indices 1 2 3 4 5 6 
#
# 1 0.018796 -0.007082 -0.004883 0.000000 -0.002178 0.000000
# 2 -0.007082 0.025721 -0.002842 0.000000 0.004694 0.000000
# 3 -0.004883 -0.002842 0.010530 0.000000 -0.000332 0.000000
# 4 0.000000 0.000000 0.000000 0.030373 0.000000 -0.005473
# 5 -0.002178 0.004694 -0.000332 0.000000 0.025289 0.000000
# 6 0.000000 0.000000 0.000000 -0.005473 0.000000 0.040797
#
#
# Mechanical properties :
#
#
# Convention : Reuss Voigt Hill
#
# Bulk Modulus (GPa) = 39.31921 46.77323 43.04622
# Shear Modulus (GPa) = 26.37151 30.23227 28.30189
#
# Velocity S-wave (km/s) = 3.57038 3.82280 3.69874
# Velocity P-wave (km/s) = 6.00026 6.48803 6.24891
#
# Compressibility (1/GPa) = 0.02543286
#
# Stress axis : x y z
#
# Youngs Moduli (GPa) = 53.20245 38.87861 94.96586
#
# Poissons Ratio (x) = 0.27533 0.46376
# Poissons Ratio (y) = 0.37677 0.26989
# Poissons Ratio (z) = 0.25981 0.11049
#
# Static dielectric constant tensor:
#      x y z
#    x 3.851570 -0.000010 -0.104030 
#    y -0.000010 5.907440 0.000000 
#    z -0.104030 0.000000 3.756450 
# 
# 
# High freq. dielectric constant tensor:
#      x y z
#    x 1.821690 0.000000 0.001490 
#    y 0.000000 1.795740 0.000000 
#    z 0.001490 0.000000 1.824040 
# 
# From -- ./inp_files/266218.got.cif
#   From: 2010.06.25/outbox.cif.g09.slc.cpg/sg15_134_cif.got.tgz:266218.got - 2010.06.28 07:06:18.
