data_PCOD8143507
_publ_section_title
;
Structure prediction by ZEFSAII (Michael W. Deem and Ramdas Pophale) SiO2 
 PCOD8143507
Probable space group: C 2/C
;
_chemical_formula_sum "Si O2"
_cell_formula_units_Z 44
_cell_length_a 15.249742
_cell_length_b 11.469672
_cell_length_c 12.834684
_cell_angle_alpha 90.000000
_cell_angle_beta 69.240949
_cell_angle_gamma 90.000000
_cell_volume 2099.167462
_symmetry_space_group_name_H-M "C 2/C"
_symmetry_group_IT_number 15
_symmetry_cell_setting 'monoclinic'
loop_
_space_group_symop_operation_xyz
x,y,z
-x,y,1/2-z
-x,-y,-z
x,-y,1/2+z
1/2+x,1/2+y,z
1/2-x,1/2+y,1/2-z
1/2-x,1/2-y,-z
1/2+x,1/2-y,1/2+z
loop_
_atom_site_type_symbol
_atom_site_label
_atom_site_fract_x
_atom_site_fract_y
_atom_site_fract_z
Si Si1 0.213437 0.059835 0.628707
Si Si2 0.909222 0.847869 0.488568
Si Si3 0.156596 0.179048 0.061253
Si Si4 0.600401 0.438200 0.375303
Si Si5 0.500000 0.820832 0.250000
Si Si6 0.427869 0.095070 0.572104
O O1 0.180592 0.149201 0.551262
O O2 0.170673 0.102140 0.755953
O O3 0.324319 0.052435 0.590529
O O4 0.177938 0.930832 0.623364
O O5 0.939411 0.719054 0.509775
O O6 0.992728 0.911938 0.388725
O O7 0.886173 0.924847 0.601644
O O8 0.076753 0.248791 0.154755
O O9 0.250000 0.250000 0.000000
O O10 0.117107 0.142824 0.967127
O O11 0.556315 0.898268 0.310277
O O12 0.500000 0.000000 0.500000
#
# Coordination Sequence:
#
# PCOD8143507 Si02
#       6
#     8   8   8   8   4   8
#     4  11  24  39  70 100 133 173 224 274 342 390
#     4  10  22  43  67  96 137 168 224 278 332 390
#     4  11  23  41  69 101 134 176 229 278 328 409
#     4  10  21  40  69 101 128 171 228 279 323 397
#     4  12  24  46  72  90 136 186 226 272 334 400
#     4  12  26  47  64  98 139 180 217 275 341 407
#
# _framework density 20.96069
#
# number of rings (size 3 to 8) (size 9 to 14) (size 15 to 20)
#    0.000    1.091    1.818    4.364    5.091    1.455 
#    3.273    0.000    0.000    0.000    0.000    0.000 
#    0.000    0.000    0.000    0.000    0.000    0.000 
#
# Total GULP energy -272794.632384 kJ/mol
# GULP energy per Si atom -12399.756017 kJ/mol
# Density = 2.091298 g / cm^3
# Si number density = 20.960690 Si / 1000 Ang^3
#
#
#
# Elastic Constant Matrix: (Units=GPa)
#
#
# Indices 1 2 3 4 5 6 
#
# 1 148.8827 24.6218 47.6158 0.0000 7.4046 0.0000
# 2 24.6218 74.9779 26.0870 0.0000 14.4933 0.0000
# 3 47.6158 26.0870 104.1918 0.0000 6.8745 0.0000
# 4 0.0000 0.0000 0.0000 27.0627 0.0000 -7.7953
# 5 7.4046 14.4933 6.8745 0.0000 36.2462 0.0000
# 6 0.0000 0.0000 0.0000 -7.7953 0.0000 34.5465
#
#
#
# Elastic Compliance Matrix: (Units=1/GPa)
#
#
# Indices 1 2 3 4 5 6 
#
# 1 0.008022 -0.001404 -0.003285 0.000000 -0.000455 0.000000
# 2 -0.001404 0.015898 -0.002976 0.000000 -0.005506 0.000000
# 3 -0.003285 -0.002976 0.011870 0.000000 -0.000390 0.000000
# 4 0.000000 0.000000 0.000000 0.039520 0.000000 0.008918
# 5 -0.000455 -0.005506 -0.000390 0.000000 0.029957 0.000000
# 6 0.000000 0.000000 0.000000 0.008918 0.000000 0.030959
#
#
# Mechanical properties :
#
#
# Convention : Reuss Voigt Hill
#
# Bulk Modulus (GPa) = 48.87249 58.30018 53.58633
# Shear Modulus (GPa) = 31.57092 34.88628 33.22860
#
# Velocity S-wave (km/s) = 3.88519 4.08409 3.98588
# Velocity P-wave (km/s) = 6.59493 7.07914 6.84132
#
# Compressibility (1/GPa) = 0.02046141
#
# Stress axis : x y z
#
# Youngs Moduli (GPa) = 124.65849 62.90191 84.24925
#
# Poissons Ratio (x) = 0.08829 0.27673
# Poissons Ratio (y) = 0.17497 0.25070
# Poissons Ratio (z) = 0.40945 0.18718
#
# Static dielectric constant tensor:
#      x y z
#    x 4.119420 0.000000 0.161970 
#    y 0.000000 3.676500 0.000000 
#    z 0.161970 0.000000 3.792360 
# 
# 
# High freq. dielectric constant tensor:
#      x y z
#    x 1.845300 0.000000 0.007030 
#    y 0.000000 1.814220 0.000000 
#    z 0.007030 0.000000 1.820230 
# 
# From -- ./inp_files/94971.got.cif
#   From: 2010.06.25/outbox.cif.g09.slc.cpg/sg15_48_cif.got.tgz:94971.got - 2010.06.28 07:06:18.
