data_PCOD8143743
_publ_section_title
;
Structure prediction by ZEFSAII (Michael W. Deem and Ramdas Pophale) SiO2 
 PCOD8143743
Probable space group: C 2/C
;
_chemical_formula_sum "Si O2"
_cell_formula_units_Z 40
_cell_length_a 11.229480
_cell_length_b 11.791885
_cell_length_c 14.297037
_cell_angle_alpha 90.000000
_cell_angle_beta 107.365100
_cell_angle_gamma 90.000000
_cell_volume 1806.880794
_symmetry_space_group_name_H-M "C 2/C"
_symmetry_group_IT_number 15
_symmetry_cell_setting 'monoclinic'
loop_
_space_group_symop_operation_xyz
x,y,z
-x,y,1/2-z
-x,-y,-z
x,-y,1/2+z
1/2+x,1/2+y,z
1/2-x,1/2+y,1/2-z
1/2-x,1/2-y,-z
1/2+x,1/2-y,1/2+z
loop_
_atom_site_type_symbol
_atom_site_label
_atom_site_fract_x
_atom_site_fract_y
_atom_site_fract_z
Si Si1 0.346948 0.923927 0.375961
Si Si2 0.938566 0.236131 0.873391
Si Si3 0.874874 0.606648 0.521927
Si Si4 0.225761 0.957863 0.151467
Si Si5 0.802902 0.294585 0.655088
O O1 0.495272 0.938602 0.406184
O O2 0.296237 0.961905 0.265126
O O3 0.302788 0.797840 0.390912
O O4 0.301582 0.011218 0.444797
O O5 0.912561 0.098704 0.867035
O O6 0.850232 0.291035 0.773034
O O7 0.081552 0.268445 0.887124
O O8 0.899015 0.282584 0.965374
O O9 0.791700 0.629333 0.594194
O O10 0.233297 0.086685 0.115244
#
# Coordination Sequence:
#
# PCOD8143743 Si02
#       5
#     8   8   8   8   8
#     4  10  22  38  63  94 119 165 212 248 314 379
#     4  10  22  39  62  93 121 164 213 249 311 379
#     4  11  21  37  63  91 124 160 210 254 306 379
#     4  11  22  39  65  92 125 163 205 261 310 369
#     4  10  21  41  64  84 129 166 200 261 315 364
#
# _framework density 22.137598000000001
#
# number of rings (size 3 to 8) (size 9 to 14) (size 15 to 20)
#    0.000    1.600    2.000    3.600    2.800    3.200 
#    0.000    6.000   13.200    0.000    0.000    0.000 
#    0.000    0.000    0.000    0.000    0.000    0.000 
#
# Total GULP energy -247861.240606 kJ/mol
# GULP energy per Si atom -12393.062030 kJ/mol
# Density = 2.208721 g / cm^3
# Si number density = 22.137598 Si / 1000 Ang^3
#
#
#
# Elastic Constant Matrix: (Units=GPa)
#
#
# Indices 1 2 3 4 5 6 
#
# 1 37.9639 64.9006 -45.8147 0.0000 28.2505 0.0000
# 2 64.9006 143.4499 43.2751 0.0000 -12.8551 0.0000
# 3 -45.8147 43.2751 -125.8896 0.0000 121.7492 0.0000
# 4 0.0000 0.0000 0.0000 -4.9297 0.0000 1.6261
# 5 28.2505 -12.8551 121.7492 0.0000 -65.2654 0.0000
# 6 0.0000 0.0000 0.0000 1.6261 0.0000 36.3544
#
#
#
# Elastic Compliance Matrix: (Units=1/GPa)
#
#
# Indices 1 2 3 4 5 6 
#
# 1 0.038366 -0.015643 0.000372 0.000000 0.020382 0.000000
# 2 -0.015643 0.013406 -0.001491 0.000000 -0.012194 0.000000
# 3 0.000372 -0.001491 0.010138 0.000000 0.019366 0.000000
# 4 0.000000 0.000000 0.000000 -0.199903 0.000000 0.008941
# 5 0.020382 -0.012194 0.019366 0.000000 0.032029 0.000000
# 6 0.000000 0.000000 0.000000 0.008941 0.000000 0.027107
#
#
# Mechanical properties :
#
#
# Convention : Reuss Voigt Hill
#
# Bulk Modulus (GPa) = 35.23074 20.02736 27.62905
# Shear Modulus (GPa) = -139.38419 -7.22391 -73.30405
#
# Velocity S-wave (km/s) = -7.94351 -1.80839 -5.76063
# Velocity P-wave (km/s) = 8.25733 2.16934 5.63371
#
# Compressibility (1/GPa) = 0.02838431
#
# Stress axis : x y z
#
# Youngs Moduli (GPa) = 26.06501 74.59501 98.64193
#
# Poissons Ratio (x) = 1.16692 -0.03672
# Poissons Ratio (y) = 0.40775 0.14710
# Poissons Ratio (z) = -0.00970 0.11124
#
# Static dielectric constant tensor:
#      x y z
#    x 3.795360 0.000000 -0.131150 
#    y 0.000000 4.027250 0.000000 
#    z -0.131150 0.000000 4.036760 
# 
# 
# High freq. dielectric constant tensor:
#      x y z
#    x 1.847700 0.000000 -0.013610 
#    y 0.000000 1.869020 0.000000 
#    z -0.013610 0.000000 1.886750 
# 
# From -- ./inp_files/141884.got.cif
#   From: 2010.06.25/outbox.cif.g09.slc.cpg/sg15_71_cif.got.tgz:141884.got - 2010.06.28 07:06:18.
