data_PCOD8143419
_publ_section_title
;
Structure prediction by ZEFSAII (Michael W. Deem and Ramdas Pophale) SiO2 
 PCOD8143419
Probable space group: C 2/C
;
_chemical_formula_sum "Si O2"
_cell_formula_units_Z 40
_cell_length_a 10.295638
_cell_length_b 9.923811
_cell_length_c 19.470822
_cell_angle_alpha 90.000000
_cell_angle_beta 109.533510
_cell_angle_gamma 90.000000
_cell_volume 1874.876029
_symmetry_space_group_name_H-M "C 2/C"
_symmetry_group_IT_number 15
_symmetry_cell_setting 'monoclinic'
loop_
_space_group_symop_operation_xyz
x,y,z
-x,y,1/2-z
-x,-y,-z
x,-y,1/2+z
1/2+x,1/2+y,z
1/2-x,1/2+y,1/2-z
1/2-x,1/2-y,-z
1/2+x,1/2-y,1/2+z
loop_
_atom_site_type_symbol
_atom_site_label
_atom_site_fract_x
_atom_site_fract_y
_atom_site_fract_z
Si Si1 0.161741 0.818542 0.927710
Si Si2 0.633960 0.383340 0.415221
Si Si3 0.347102 0.750984 0.224469
Si Si4 0.351113 0.519901 0.814860
Si Si5 0.137655 0.175578 0.071374
O O1 0.209627 0.770397 0.861944
O O2 0.999184 0.786517 0.909498
O O3 0.204220 0.974121 0.940889
O O4 0.250000 0.750000 0.000000
O O5 0.500919 0.407660 0.343285
O O6 0.740546 0.283974 0.395946
O O7 0.594701 0.329077 0.484090
O O8 0.500000 0.810147 0.250000
O O9 0.345679 0.611465 0.265645
O O10 0.251530 0.870873 0.236652
O O11 0.312931 0.467181 0.885783
#
# Coordination Sequence:
#
# PCOD8143419 Si02
#       5
#     8   8   8   8   8
#     4  11  22  40  65  96 135 173 223 279 329 395
#     4  10  21  40  67  95 133 177 218 272 338 393
#     4  12  25  43  67  99 131 178 222 276 342 394
#     4  11  25  43  67  92 138 172 224 278 333 401
#     4  10  21  40  66  99 132 175 220 272 336 399
#
# _framework density 21.334741999999999
#
# number of rings (size 3 to 8) (size 9 to 14) (size 15 to 20)
#    0.000    1.200    4.000    4.800    2.800    2.400 
#    0.000    0.000    0.000    0.000    0.000    0.000 
#    0.000    0.000    0.000    0.000    0.000    0.000 
#
# Total GULP energy -247872.386566 kJ/mol
# GULP energy per Si atom -12393.619328 kJ/mol
# Density = 2.128618 g / cm^3
# Si number density = 21.334742 Si / 1000 Ang^3
#
#
#
# Elastic Constant Matrix: (Units=GPa)
#
#
# Indices 1 2 3 4 5 6 
#
# 1 83.6160 75.3344 28.8260 0.0000 18.3141 0.0000
# 2 75.3344 127.9589 37.4463 0.0000 32.4494 0.0000
# 3 28.8260 37.4463 105.8836 0.0000 17.8102 0.0000
# 4 0.0000 0.0000 0.0000 48.1625 0.0000 7.8804
# 5 18.3141 32.4494 17.8102 0.0000 33.3160 0.0000
# 6 0.0000 0.0000 0.0000 7.8804 0.0000 45.9738
#
#
#
# Elastic Compliance Matrix: (Units=1/GPa)
#
#
# Indices 1 2 3 4 5 6 
#
# 1 0.025839 -0.015007 -0.001974 0.000000 0.001468 0.000000
# 2 -0.015007 0.019567 -0.001117 0.000000 -0.010211 0.000000
# 3 -0.001974 -0.001117 0.011000 0.000000 -0.003708 0.000000
# 4 0.000000 0.000000 0.000000 0.021362 0.000000 -0.003662
# 5 0.001468 -0.010211 -0.003708 0.000000 0.041136 0.000000
# 6 0.000000 0.000000 0.000000 -0.003662 0.000000 0.022379
#
#
# Mechanical properties :
#
#
# Convention : Reuss Voigt Hill
#
# Bulk Modulus (GPa) = 49.47984 66.74135 58.11059
# Shear Modulus (GPa) = 27.14201 37.21392 32.17797
#
# Velocity S-wave (km/s) = 3.57066 4.18100 3.88782
# Velocity P-wave (km/s) = 6.34365 7.39314 6.88841
#
# Compressibility (1/GPa) = 0.02021025
#
# Stress axis : x y z
#
# Youngs Moduli (GPa) = 38.70083 51.10768 90.90615
#
# Poissons Ratio (x) = 0.76698 0.17946
# Poissons Ratio (y) = 0.58079 0.10151
# Poissons Ratio (z) = 0.07640 0.05707
#
# Static dielectric constant tensor:
#      x y z
#    x 3.941640 0.000000 0.154300 
#    y 0.000000 -3.018270 0.000000 
#    z 0.154300 0.000000 4.476980 
# 
# 
# High freq. dielectric constant tensor:
#      x y z
#    x 1.821670 0.000000 -0.001590 
#    y 0.000000 1.834980 0.000000 
#    z -0.001590 0.000000 1.855890 
# 
# From -- ./inp_files/235919.got.cif
#   From: 2010.06.25/outbox.cif.g09.slc.cpg/sg15_118_cif.got.tgz:235919.got - 2010.06.28 07:06:18.
