data_PCOD8143725
_publ_section_title
;
Structure prediction by ZEFSAII (Michael W. Deem and Ramdas Pophale) SiO2 
 PCOD8143725
Probable space group: C 2/C
;
_chemical_formula_sum "Si O2"
_cell_formula_units_Z 48
_cell_length_a 29.159374
_cell_length_b 6.636437
_cell_length_c 14.739312
_cell_angle_alpha 90.000000
_cell_angle_beta 129.127739
_cell_angle_gamma 90.000000
_cell_volume 2212.621460
_symmetry_space_group_name_H-M "C 2/C"
_symmetry_group_IT_number 15
_symmetry_cell_setting 'monoclinic'
loop_
_space_group_symop_operation_xyz
x,y,z
-x,y,1/2-z
-x,-y,-z
x,-y,1/2+z
1/2+x,1/2+y,z
1/2-x,1/2+y,1/2-z
1/2-x,1/2-y,-z
1/2+x,1/2-y,1/2+z
loop_
_atom_site_type_symbol
_atom_site_label
_atom_site_fract_x
_atom_site_fract_y
_atom_site_fract_z
Si Si1 0.063073 0.746095 0.867810
Si Si2 0.684705 0.035507 0.281825
Si Si3 0.617438 0.369409 0.496604
Si Si4 0.065769 0.474034 0.045074
Si Si5 0.213835 0.197663 0.664810
Si Si6 0.666386 0.994984 0.457522
O O1 0.111629 0.651076 0.860957
O O2 0.000000 0.689948 0.750000
O O3 0.070526 0.985950 0.886977
O O4 0.075425 0.639762 0.979603
O O5 0.613854 0.019314 0.182971
O O6 0.718081 0.856490 0.269921
O O7 0.707648 0.240326 0.262562
O O8 0.703512 0.028199 0.411158
O O9 0.579576 0.251732 0.526133
O O10 0.671177 0.506491 0.599113
O O11 0.644060 0.213782 0.458504
O O12 0.000000 0.500000 0.000000
O O13 0.201369 0.386376 0.582465
#
# Coordination Sequence:
#
# PCOD8143725 Si02
#       6
#     8   8   8   8   8   8
#     4  10  21  41  63  95 136 176 224 282 330 394
#     4  12  23  44  70  97 134 180 217 281 339 392
#     4  10  21  45  64  93 140 171 226 281 326 404
#     4  11  23  42  66  96 136 175 224 272 336 406
#     4  11  24  46  66 101 138 171 228 279 331 404
#     4  10  23  44  66  96 134 177 227 275 338 397
#
# _framework density 21.693724
#
# number of rings (size 3 to 8) (size 9 to 14) (size 15 to 20)
#    0.000    1.333    5.000    2.500    0.000    5.333 
#   15.000    0.000    0.000    0.000    0.000    0.000 
#    0.000    0.000    0.000    0.000    0.000    0.000 
#
# Total GULP energy -297481.556159 kJ/mol
# GULP energy per Si atom -12395.064840 kJ/mol
# Density = 2.164435 g / cm^3
# Si number density = 21.693724 Si / 1000 Ang^3
#
#
#
# Elastic Constant Matrix: (Units=GPa)
#
#
# Indices 1 2 3 4 5 6 
#
# 1 125.7686 37.3184 26.4873 0.0000 -9.2167 0.0000
# 2 37.3184 137.7353 26.6792 0.0000 -13.4622 0.0001
# 3 26.4873 26.6792 38.3309 0.0000 -5.2957 0.0000
# 4 0.0000 0.0000 0.0000 20.2490 0.0000 5.6191
# 5 -9.2167 -13.4622 -5.2957 0.0000 44.0615 0.0000
# 6 0.0000 0.0001 0.0000 5.6191 0.0000 32.6660
#
#
#
# Elastic Compliance Matrix: (Units=1/GPa)
#
#
# Indices 1 2 3 4 5 6 
#
# 1 0.009607 -0.001448 -0.005505 0.000000 0.000905 0.000000
# 2 -0.001448 0.008768 -0.004855 0.000000 0.001793 0.000000
# 3 -0.005505 -0.004855 0.033463 0.000000 0.001387 0.000000
# 4 0.000000 0.000000 0.000000 0.051861 0.000000 -0.008921
# 5 0.000905 0.001793 0.001387 0.000000 0.023599 0.000000
# 6 0.000000 0.000000 0.000000 -0.008921 0.000000 0.032147
#
#
# Mechanical properties :
#
#
# Convention : Reuss Voigt Hill
#
# Bulk Modulus (GPa) = 35.43303 53.64497 44.53900
# Shear Modulus (GPa) = 25.97822 33.48530 29.73176
#
# Velocity S-wave (km/s) = 3.46424 3.93306 3.70607
# Velocity P-wave (km/s) = 5.68947 6.73850 6.23608
#
# Compressibility (1/GPa) = 0.02822226
#
# Stress axis : x y z
#
# Youngs Moduli (GPa) = 104.09559 114.04906 29.88334
#
# Poissons Ratio (x) = 0.16514 0.16452
# Poissons Ratio (y) = 0.15073 0.14507
# Poissons Ratio (z) = 0.57309 0.55366
#
# Static dielectric constant tensor:
#      x y z
#    x 4.191250 0.000000 0.130520 
#    y 0.000000 4.071490 0.000000 
#    z 0.130520 0.000000 3.787190 
# 
# 
# High freq. dielectric constant tensor:
#      x y z
#    x 1.853320 0.000000 0.009700 
#    y 0.000000 1.861780 0.000000 
#    z 0.009700 0.000000 1.845600 
# 
# From -- ./inp_files/179962.got.cif
#   From: 2010.06.25/outbox.cif.g09.slc.cpg/sg15_90_cif.got.tgz:179962.got - 2010.06.28 07:06:18.
