data_PCOD8143145
_publ_section_title
;
Structure prediction by ZEFSAII (Michael W. Deem and Ramdas Pophale) SiO2 
 PCOD8143145
Probable space group: C 2/C
;
_chemical_formula_sum "Si O2"
_cell_formula_units_Z 56
_cell_length_a 21.482460
_cell_length_b 7.902882
_cell_length_c 16.318339
_cell_angle_alpha 90.000000
_cell_angle_beta 84.563733
_cell_angle_gamma 90.000000
_cell_volume 2757.958220
_symmetry_space_group_name_H-M "C 2/C"
_symmetry_group_IT_number 15
_symmetry_cell_setting 'monoclinic'
loop_
_space_group_symop_operation_xyz
x,y,z
-x,y,1/2-z
-x,-y,-z
x,-y,1/2+z
1/2+x,1/2+y,z
1/2-x,1/2+y,1/2-z
1/2-x,1/2-y,-z
1/2+x,1/2-y,1/2+z
loop_
_atom_site_type_symbol
_atom_site_label
_atom_site_fract_x
_atom_site_fract_y
_atom_site_fract_z
Si Si1 0.221507 0.742733 0.679081
Si Si2 0.400934 0.214525 0.702062
Si Si3 0.703276 0.363235 0.183368
Si Si4 0.737071 0.058556 0.060761
Si Si5 0.500000 0.464047 0.750000
Si Si6 0.000000 0.467934 0.750000
Si Si7 0.645224 0.259518 0.975497
Si Si8 0.430633 0.296638 0.359938
O O1 0.159711 0.685153 0.735131
O O2 0.280576 0.681152 0.724950
O O3 0.225004 0.943376 0.658482
O O4 0.224764 0.629063 0.596507
O O5 0.436608 0.371873 0.735531
O O6 0.380002 0.241413 0.612027
O O7 0.450965 0.065516 0.699198
O O8 0.735588 0.217408 0.124744
O O9 0.629477 0.350209 0.184999
O O10 0.808281 0.077148 0.017848
O O11 0.683947 0.091427 0.998585
O O12 0.514778 0.569560 0.665731
O O13 0.957089 0.377604 0.822226
O O14 0.585361 0.285834 0.041986
#
# Coordination Sequence:
#
# PCOD8143145 Si02
#       8
#     8   8   8   8   4   4   8   8
#     4  12  21  37  68  98 122 166 213 260 312 386
#     4  11  21  39  65  92 121 163 213 263 315 364
#     4  11  20  35  66  93 123 162 207 262 311 372
#     4  10  22  39  60  96 133 162 201 254 333 386
#     4  10  22  40  62  86 118 168 224 250 294 386
#     4  10  24  40  68  90 116 172 224 256 296 390
#     4  10  21  40  63  88 136 164 193 273 328 366
#     4  10  22  42  61  88 126 164 211 260 316 371
#
# _framework density 20.304877000000001
#
# number of rings (size 3 to 8) (size 9 to 14) (size 15 to 20)
#    0.000    1.429    4.286    1.714    0.000    1.143 
#    0.000    6.429   12.571    0.000    0.000    0.000 
#    0.000    0.000    0.000    0.000    0.000    0.000 
#
# Total GULP energy -346942.548054 kJ/mol
# GULP energy per Si atom -12390.805288 kJ/mol
# Density = 2.025866 g / cm^3
# Si number density = 20.304877 Si / 1000 Ang^3
#
#
#
# Elastic Constant Matrix: (Units=GPa)
#
#
# Indices 1 2 3 4 5 6 
#
# 1 57.9795 12.3421 23.0650 0.0000 -5.8368 0.0000
# 2 12.3421 106.3362 5.9526 0.0000 -3.8504 0.0000
# 3 23.0650 5.9526 60.3134 0.0000 -3.2691 0.0000
# 4 0.0000 0.0000 0.0000 33.7171 0.0000 -4.0072
# 5 -5.8368 -3.8504 -3.2691 0.0000 47.2905 0.0000
# 6 0.0000 0.0000 0.0000 -4.0072 0.0000 45.0461
#
#
#
# Elastic Compliance Matrix: (Units=1/GPa)
#
#
# Indices 1 2 3 4 5 6 
#
# 1 0.020913 -0.001928 -0.007705 0.000000 0.001892 0.000000
# 2 -0.001928 0.009658 -0.000187 0.000000 0.000536 0.000000
# 3 -0.007705 -0.000187 0.019566 0.000000 0.000386 0.000000
# 4 0.000000 0.000000 0.000000 0.029975 0.000000 0.002667
# 5 0.001892 0.000536 0.000386 0.000000 0.021450 0.000000
# 6 0.000000 0.000000 0.000000 0.002667 0.000000 0.022437
#
#
# Mechanical properties :
#
#
# Convention : Reuss Voigt Hill
#
# Bulk Modulus (GPa) = 32.78888 34.14982 33.46935
# Shear Modulus (GPa) = 32.50897 37.42869 34.96883
#
# Velocity S-wave (km/s) = 4.00564 4.29807 4.15443
# Velocity P-wave (km/s) = 6.13000 6.44098 6.28741
#
# Compressibility (1/GPa) = 0.03049814
#
# Stress axis : x y z
#
# Youngs Moduli (GPa) = 47.81639 103.54412 51.10925
#
# Poissons Ratio (x) = 0.19959 0.39379
# Poissons Ratio (y) = 0.09217 0.00956
# Poissons Ratio (z) = 0.36842 0.01936
#
# Static dielectric constant tensor:
#      x y z
#    x 4.169140 0.000000 -0.101590 
#    y 0.000000 3.690560 0.000000 
#    z -0.101590 0.000000 3.577520 
# 
# 
# High freq. dielectric constant tensor:
#      x y z
#    x 1.802980 0.000000 -0.006310 
#    y 0.000000 1.788240 0.000000 
#    z -0.006310 0.000000 1.785690 
# 
# From -- ./inp_files/213435.got.cif
#   From: 2010.06.25/outbox.cif.g09.slc.cpg/sg15_107_cif.got.tgz:213435.got - 2010.06.28 07:06:18.
