data_PCOD8143618
_publ_section_title
;
Structure prediction by ZEFSAII (Michael W. Deem and Ramdas Pophale) SiO2 
 PCOD8143618
Probable space group: C 2/C
;
_chemical_formula_sum "Si O2"
_cell_formula_units_Z 64
_cell_length_a 13.408652
_cell_length_b 8.524545
_cell_length_c 26.463292
_cell_angle_alpha 90.000000
_cell_angle_beta 100.991089
_cell_angle_gamma 90.000000
_cell_volume 2969.339779
_symmetry_space_group_name_H-M "C 2/C"
_symmetry_group_IT_number 15
_symmetry_cell_setting 'monoclinic'
loop_
_space_group_symop_operation_xyz
x,y,z
-x,y,1/2-z
-x,-y,-z
x,-y,1/2+z
1/2+x,1/2+y,z
1/2-x,1/2+y,1/2-z
1/2-x,1/2-y,-z
1/2+x,1/2-y,1/2+z
loop_
_atom_site_type_symbol
_atom_site_label
_atom_site_fract_x
_atom_site_fract_y
_atom_site_fract_z
Si Si1 0.660900 0.393540 0.436469
Si Si2 0.317620 0.099743 0.499708
Si Si3 0.283377 0.822782 0.646042
Si Si4 0.917879 0.112012 0.148740
Si Si5 0.547402 0.211695 0.079446
Si Si6 0.382997 0.591265 0.732092
Si Si7 0.876940 0.954891 0.341663
Si Si8 0.927853 0.549424 0.615041
O O1 0.744090 0.445366 0.486473
O O2 0.714608 0.267550 0.406322
O O3 0.652774 0.558614 0.404644
O O4 0.553272 0.317899 0.446037
O O5 0.250000 0.250000 0.500000
O O6 0.399883 0.132087 0.463553
O O7 0.381173 0.069584 0.555533
O O8 0.322538 0.723328 0.696427
O O9 0.169298 0.882088 0.643142
O O10 0.349378 0.980800 0.647935
O O11 0.959700 0.286623 0.144065
O O12 0.871079 0.076283 0.200184
O O13 0.004650 0.980847 0.154938
O O14 0.631641 0.316790 0.117228
O O15 0.520152 0.072648 0.116405
O O16 0.500000 0.641671 0.750000
O O17 0.329376 0.583525 0.781975
#
# Coordination Sequence:
#
# PCOD8143618 Si02
#       8
#     8   8   8   8   8   8   8   8
#     4   9  21  42  60  88 126 164 201 262 311 364
#     4  12  23  39  64  95 123 168 215 259 309 371
#     4  10  22  39  62  90 121 162 203 259 310 368
#     4   9  19  38  62  85 124 157 198 254 309 369
#     4  10  24  42  61  90 130 166 208 261 316 372
#     4   9  19  41  64  85 124 161 199 252 324 379
#     4  10  21  41  61  91 119 163 204 252 317 374
#     4  11  22  40  59  91 125 162 210 253 312 368
#
# _framework density 21.553612000000001
#
# number of rings (size 3 to 8) (size 9 to 14) (size 15 to 20)
#    0.000    2.000    1.250    3.375    1.750    3.500 
#    4.500    6.875    0.000    0.000    0.000    0.000 
#    0.000    0.000    0.000    0.000    0.000    0.000 
#
# Total GULP energy -396479.216919 kJ/mol
# GULP energy per Si atom -12389.975529 kJ/mol
# Density = 2.150455 g / cm^3
# Si number density = 21.553612 Si / 1000 Ang^3
#
#
#
# Elastic Constant Matrix: (Units=GPa)
#
#
# Indices 1 2 3 4 5 6 
#
# 1 61.1254 24.2970 24.3635 0.0000 -8.4944 0.0000
# 2 24.2970 116.7306 35.3044 0.0000 1.6799 0.0000
# 3 24.3635 35.3044 88.8260 0.0000 -2.2081 0.0000
# 4 0.0000 0.0000 0.0000 31.1907 0.0000 3.0853
# 5 -8.4944 1.6799 -2.2081 0.0000 23.7194 0.0000
# 6 0.0000 0.0000 0.0000 3.0853 0.0000 38.1137
#
#
#
# Elastic Compliance Matrix: (Units=1/GPa)
#
#
# Indices 1 2 3 4 5 6 
#
# 1 0.020211 -0.003052 -0.004155 0.000000 0.007067 0.000000
# 2 -0.003052 0.010224 -0.003279 0.000000 -0.002122 0.000000
# 3 -0.004155 -0.003279 0.013701 0.000000 0.000020 0.000000
# 4 0.000000 0.000000 0.000000 0.032320 0.000000 -0.002616
# 5 0.007067 -0.002122 0.000020 0.000000 0.044843 0.000000
# 6 0.000000 0.000000 0.000000 -0.002616 0.000000 0.026449
#
#
# Mechanical properties :
#
#
# Convention : Reuss Voigt Hill
#
# Bulk Modulus (GPa) = 43.16945 48.29022 45.72983
# Shear Modulus (GPa) = 28.33786 30.78590 29.56188
#
# Velocity S-wave (km/s) = 3.62990 3.78344 3.70746
# Velocity P-wave (km/s) = 6.13519 6.44509 6.29205
#
# Compressibility (1/GPa) = 0.02316453
#
# Stress axis : x y z
#
# Youngs Moduli (GPa) = 49.47766 97.80557 72.98476
#
# Poissons Ratio (x) = 0.29850 0.30324
# Poissons Ratio (y) = 0.15100 0.23935
# Poissons Ratio (z) = 0.20557 0.32074
#
# Static dielectric constant tensor:
#      x y z
#    x 3.936510 0.000000 -0.254760 
#    y 0.000000 9.311120 0.000000 
#    z -0.254760 0.000000 4.608830 
# 
# 
# High freq. dielectric constant tensor:
#      x y z
#    x 1.832220 0.000000 -0.007350 
#    y 0.000000 1.851130 0.000000 
#    z -0.007350 0.000000 1.844430 
# 
# From -- ./inp_files/295203.got.cif
#   From: 2010.06.25/outbox.cif.g09.slc.cpg/sg15_148_cif.got.tgz:295203.got - 2010.06.28 07:06:18.
