data_PCOD8143201
_publ_section_title
;
Structure prediction by ZEFSAII (Michael W. Deem and Ramdas Pophale) SiO2 
 PCOD8143201
Probable space group: C 2/C
;
_chemical_formula_sum "Si O2"
_cell_formula_units_Z 56
_cell_length_a 16.793662
_cell_length_b 27.021552
_cell_length_c 8.620548
_cell_angle_alpha 90.000000
_cell_angle_beta 141.367869
_cell_angle_gamma 90.000000
_cell_volume 2442.284580
_symmetry_space_group_name_H-M "C 2/C"
_symmetry_group_IT_number 15
_symmetry_cell_setting 'monoclinic'
loop_
_space_group_symop_operation_xyz
x,y,z
-x,y,1/2-z
-x,-y,-z
x,-y,1/2+z
1/2+x,1/2+y,z
1/2-x,1/2+y,1/2-z
1/2-x,1/2-y,-z
1/2+x,1/2-y,1/2+z
loop_
_atom_site_type_symbol
_atom_site_label
_atom_site_fract_x
_atom_site_fract_y
_atom_site_fract_z
Si Si1 0.846442 0.699971 0.716441
Si Si2 0.340822 0.455008 0.675342
Si Si3 0.559862 0.706423 0.001664
Si Si4 0.131433 0.055238 0.643961
Si Si5 0.922392 0.653798 0.272072
Si Si6 0.721074 0.134554 0.158294
Si Si7 0.811053 0.834776 0.259490
O O1 0.843277 0.759745 0.741623
O O2 0.853624 0.676323 0.556735
O O3 0.726135 0.673534 0.617335
O O4 0.981084 0.692531 0.007757
O O5 0.300104 0.510739 0.659776
O O6 0.339263 0.451695 0.490423
O O7 0.241575 0.415933 0.595352
O O8 0.481451 0.443967 0.955147
O O9 0.644076 0.658508 0.082345
O O10 0.500000 0.728610 0.750000
O O11 0.445257 0.691085 0.939650
O O12 0.188584 0.107227 0.784662
O O13 0.866057 0.619887 0.325449
O O14 0.000000 0.624877 0.250000
O O15 0.804581 0.686247 0.022411
#
# Coordination Sequence:
#
# PCOD8143201 Si02
#       7
#     8   8   8   8   8   8   8
#     4  11  26  44  65  96 141 185 233 279 337 406
#     4  10  22  38  67 102 138 175 221 286 356 413
#     4  12  25  40  69 105 136 183 231 279 346 417
#     4  10  21  40  64 103 141 172 222 284 357 414
#     4  10  24  44  67  92 129 186 224 273 333 410
#     4  12  23  44  68 102 136 177 225 290 344 409
#     4  11  22  43  70  95 145 176 225 288 347 402
#
# _framework density 22.929349999999999
#
# number of rings (size 3 to 8) (size 9 to 14) (size 15 to 20)
#    0.000    1.143    4.286    2.143    4.000    1.714 
#    2.571    0.000    0.000    9.429    0.000    0.000 
#    0.000    0.000    0.000    0.000    0.000    0.000 
#
# Total GULP energy -347014.006081 kJ/mol
# GULP energy per Si atom -12393.357360 kJ/mol
# Density = 2.287716 g / cm^3
# Si number density = 22.929350 Si / 1000 Ang^3
#
#
#
# Elastic Constant Matrix: (Units=GPa)
#
#
# Indices 1 2 3 4 5 6 
#
# 1 163.9603 43.5622 24.6600 0.0000 2.4011 0.0000
# 2 43.5622 105.1379 8.4766 0.0000 1.9673 0.0000
# 3 24.6600 8.4766 50.9978 0.0000 -2.8059 0.0000
# 4 0.0000 0.0000 0.0000 18.3810 0.0000 -6.3383
# 5 2.4011 1.9673 -2.8059 0.0000 30.3939 0.0000
# 6 0.0000 0.0000 0.0000 -6.3383 0.0000 26.9927
#
#
#
# Elastic Compliance Matrix: (Units=1/GPa)
#
#
# Indices 1 2 3 4 5 6 
#
# 1 0.007312 -0.002766 -0.003114 0.000000 -0.000686 0.000000
# 2 -0.002766 0.010705 -0.000470 0.000000 -0.000518 0.000000
# 3 -0.003114 -0.000470 0.021316 0.000000 0.002244 0.000000
# 4 0.000000 0.000000 0.000000 0.059197 0.000000 0.013900
# 5 -0.000686 -0.000518 0.002244 0.000000 0.033196 0.000000
# 6 0.000000 0.000000 0.000000 0.013900 0.000000 0.040311
#
#
# Mechanical properties :
#
#
# Convention : Reuss Voigt Hill
#
# Bulk Modulus (GPa) = 37.54733 52.61042 45.07888
# Shear Modulus (GPa) = 25.82434 31.37999 28.60216
#
# Velocity S-wave (km/s) = 3.35962 3.70341 3.53569
# Velocity P-wave (km/s) = 5.60893 6.42506 6.03082
#
# Compressibility (1/GPa) = 0.02663305
#
# Stress axis : x y z
#
# Youngs Moduli (GPa) = 136.75648 93.41511 46.91297
#
# Poissons Ratio (x) = 0.25837 0.14608
# Poissons Ratio (y) = 0.37825 0.02207
# Poissons Ratio (z) = 0.42584 0.04394
#
# Static dielectric constant tensor:
#      x y z
#    x 4.308380 0.000000 -0.012080 
#    y 0.000000 3.911420 0.000000 
#    z -0.012080 0.000000 4.114630 
# 
# 
# High freq. dielectric constant tensor:
#      x y z
#    x 1.917390 0.000000 -0.006960 
#    y 0.000000 1.875060 0.000000 
#    z -0.006960 0.000000 1.907210 
# 
# From -- ./inp_files/52342.got.cif
#   From: 2010.06.25/outbox.cif.g09.slc.cpg/sg15_27_cif.got.tgz:52342.got - 2010.06.28 07:06:18.
