data_PCOD8143994
_publ_section_title
;
Structure prediction by ZEFSAII (Michael W. Deem and Ramdas Pophale) SiO2 
 PCOD8143994
Probable space group: C 2/C
;
_chemical_formula_sum "Si O2"
_cell_formula_units_Z 52
_cell_length_a 17.948551
_cell_length_b 15.315249
_cell_length_c 8.804841
_cell_angle_alpha 90.000000
_cell_angle_beta 120.731927
_cell_angle_gamma 90.000000
_cell_volume 2080.439230
_symmetry_space_group_name_H-M "C 2/C"
_symmetry_group_IT_number 15
_symmetry_cell_setting 'monoclinic'
loop_
_space_group_symop_operation_xyz
x,y,z
-x,y,1/2-z
-x,-y,-z
x,-y,1/2+z
1/2+x,1/2+y,z
1/2-x,1/2+y,1/2-z
1/2-x,1/2-y,-z
1/2+x,1/2-y,1/2+z
loop_
_atom_site_type_symbol
_atom_site_label
_atom_site_fract_x
_atom_site_fract_y
_atom_site_fract_z
Si Si1 0.500000 0.291181 0.250000
Si Si2 0.880998 0.727575 0.380366
Si Si3 0.258697 0.933131 0.685288
Si Si4 0.432853 0.418479 0.934578
Si Si5 0.747640 0.832018 0.106217
Si Si6 0.391236 0.925074 0.406365
Si Si7 0.500000 0.704221 0.250000
Si Si8 0.500000 0.969155 0.250000
O O1 0.445112 0.225820 0.301011
O O2 0.558569 0.357303 0.408723
O O3 0.818480 0.643723 0.319834
O O4 0.824833 0.817721 0.307807
O O5 0.934055 0.732191 0.591560
O O6 0.167379 0.948285 0.674946
O O7 0.241475 0.917735 0.487253
O O8 0.310848 0.021732 0.755196
O O9 0.446640 0.358385 0.803809
O O10 0.500000 0.500000 0.000000
O O11 0.653085 0.833768 0.090641
O O12 0.750000 0.750000 0.000000
O O13 0.460928 0.909524 0.345149
O O14 0.429883 0.969145 0.597266
#
# Coordination Sequence:
#
# PCOD8143994 Si02
#       8
#     4   8   8   8   8   8   4   4
#     4  10  21  41  68  98 138 198 240 306 361 459
#     4  10  23  45  70 104 147 190 252 300 382 453
#     4  11  24  42  74 107 141 197 252 314 371 451
#     4  11  24  41  67 103 148 192 250 313 380 451
#     4  10  22  45  72 106 137 201 257 308 369 459
#     4  11  23  44  73 108 152 199 252 315 376 464
#     4  10  25  43  64 106 148 198 234 322 391 445
#     4  10  24  44  66 110 158 196 246 302 392 438
#
# _framework density 24.994723
#
# number of rings (size 3 to 8) (size 9 to 14) (size 15 to 20)
#    0.000    1.538    3.077    0.462    4.308    4.308 
#    2.769    1.538    0.000    0.000    0.000    0.000 
#    0.000    0.000    0.000    0.000    0.000    0.000 
#
# Total GULP energy -322297.077699 kJ/mol
# GULP energy per Si atom -12396.041450 kJ/mol
# Density = 2.493783 g / cm^3
# Si number density = 24.994723 Si / 1000 Ang^3
#
#
#
# Elastic Constant Matrix: (Units=GPa)
#
#
# Indices 1 2 3 4 5 6 
#
# 1 152.7059 44.8380 39.0152 0.0000 12.5373 0.0000
# 2 44.8380 73.1445 25.6246 0.0000 5.3304 0.0000
# 3 39.0152 25.6246 132.9869 0.0000 1.8663 0.0000
# 4 0.0000 0.0000 0.0000 14.5330 0.0000 7.0306
# 5 12.5373 5.3304 1.8663 0.0000 42.6538 0.0000
# 6 0.0000 0.0000 0.0000 7.0306 0.0000 55.3942
#
#
#
# Elastic Compliance Matrix: (Units=1/GPa)
#
#
# Indices 1 2 3 4 5 6 
#
# 1 0.008417 -0.004471 -0.001582 0.000000 -0.001846 0.000000
# 2 -0.004471 0.017162 -0.001985 0.000000 -0.000744 0.000000
# 3 -0.001582 -0.001985 0.008361 0.000000 0.000347 0.000000
# 4 0.000000 0.000000 0.000000 0.073310 0.000000 -0.009304
# 5 -0.001846 -0.000744 0.000347 0.000000 0.024065 0.000000
# 6 0.000000 0.000000 0.000000 -0.009304 0.000000 0.019233
#
#
# Mechanical properties :
#
#
# Convention : Reuss Voigt Hill
#
# Bulk Modulus (GPa) = 55.97610 64.19921 60.08765
# Shear Modulus (GPa) = 28.97231 39.14017 34.05624
#
# Velocity S-wave (km/s) = 3.40830 3.96149 3.69526
# Velocity P-wave (km/s) = 6.15894 6.83120 6.50376
#
# Compressibility (1/GPa) = 0.01786477
#
# Stress axis : x y z
#
# Youngs Moduli (GPa) = 118.80637 58.26899 119.60003
#
# Poissons Ratio (x) = 0.26052 0.18920
# Poissons Ratio (y) = 0.53118 0.23737
# Poissons Ratio (z) = 0.18795 0.11565
#
# Static dielectric constant tensor:
#      x y z
#    x 5.159850 0.000000 0.152230 
#    y 0.000000 4.676380 0.000000 
#    z 0.152230 0.000000 5.234960 
# 
# 
# High freq. dielectric constant tensor:
#      x y z
#    x 2.007740 0.000000 0.008830 
#    y 0.000000 1.983560 0.000000 
#    z 0.008830 0.000000 2.007170 
# 
# From -- ./inp_files/49257.got.cif
#   From: 2010.06.25/outbox.cif.g09.slc.cpg/sg15_25_cif.got.tgz:49257.got - 2010.06.28 07:06:18.
