data_PCOD8143521
_publ_section_title
;
Structure prediction by ZEFSAII (Michael W. Deem and Ramdas Pophale) SiO2 
 PCOD8143521
Probable space group: C 2/C
;
_chemical_formula_sum "Si O2"
_cell_formula_units_Z 44
_cell_length_a 17.392276
_cell_length_b 11.014475
_cell_length_c 28.792401
_cell_angle_alpha 90.000000
_cell_angle_beta 21.974384
_cell_angle_gamma 90.000000
_cell_volume 2063.918921
_symmetry_space_group_name_H-M "C 2/C"
_symmetry_group_IT_number 15
_symmetry_cell_setting 'monoclinic'
loop_
_space_group_symop_operation_xyz
x,y,z
-x,y,1/2-z
-x,-y,-z
x,-y,1/2+z
1/2+x,1/2+y,z
1/2-x,1/2+y,1/2-z
1/2-x,1/2-y,-z
1/2+x,1/2-y,1/2+z
loop_
_atom_site_type_symbol
_atom_site_label
_atom_site_fract_x
_atom_site_fract_y
_atom_site_fract_z
Si Si1 0.067031 0.600152 0.124148
Si Si2 0.741265 0.355037 0.468957
Si Si3 0.500000 0.720913 0.250000
Si Si4 0.855882 0.594868 0.106986
Si Si5 0.074752 0.212939 0.536278
Si Si6 0.829729 0.972040 0.689919
O O1 0.184824 0.475703 0.045809
O O2 0.082599 0.693390 0.073788
O O3 0.828282 0.562581 0.263684
O O4 0.192000 0.656910 0.098710
O O5 0.750000 0.250000 0.500000
O O6 0.508170 0.373876 0.583159
O O7 0.881467 0.316849 0.347887
O O8 0.656171 0.631476 0.189190
O O9 0.780411 0.539593 0.198246
O O10 0.999030 0.714735 0.033477
O O11 0.000000 0.500000 0.000000
O O12 0.907853 0.108917 0.640326
#
# Coordination Sequence:
#
# PCOD8143521 Si02
#       6
#     8   8   4   8   8   8
#     4   9  20  37  66  92 125 172 224 273 329 400
#     4  11  23  42  66  95 133 180 225 271 343 407
#     4  12  26  42  66 102 140 172 230 286 328 414
#     4  11  25  39  63 100 136 173 229 283 339 403
#     4   9  20  40  63  94 128 172 226 274 338 406
#     4  10  21  40  69  94 128 185 222 272 344 411
#
# _framework density 21.318667000000001
#
# number of rings (size 3 to 8) (size 9 to 14) (size 15 to 20)
#    0.000    1.818    1.818    1.091    7.636    1.455 
#    0.000   11.818    0.000    0.000    0.000    0.000 
#    0.000    0.000    0.000    0.000    0.000    0.000 
#
# Total GULP energy -272543.214871 kJ/mol
# GULP energy per Si atom -12388.327949 kJ/mol
# Density = 2.127014 g / cm^3
# Si number density = 21.318667 Si / 1000 Ang^3
#
#
#
# Elastic Constant Matrix: (Units=GPa)
#
#
# Indices 1 2 3 4 5 6 
#
# 1 102.2032 60.7887 70.4442 -0.0106 -39.0765 0.0000
# 2 60.7887 150.1931 70.7103 -0.0101 -25.9446 -0.0047
# 3 70.4442 70.7103 154.9732 -0.0642 -29.6365 -0.0013
# 4 -0.0106 -0.0101 -0.0642 30.4534 -0.0247 -10.9042
# 5 -39.0765 -25.9446 -29.6365 -0.0247 57.4021 -0.0115
# 6 0.0000 -0.0047 -0.0013 -10.9042 -0.0115 36.5689
#
#
#
# Elastic Compliance Matrix: (Units=1/GPa)
#
#
# Indices 1 2 3 4 5 6 
#
# 1 0.018830 -0.003686 -0.005265 0.000002 0.008435 0.000003
# 2 -0.003686 0.009421 -0.002539 -0.000003 0.000438 0.000000
# 3 -0.005265 -0.002539 0.010097 0.000021 0.000481 0.000007
# 4 0.000002 -0.000003 0.000021 0.036762 0.000029 0.010962
# 5 0.008435 0.000438 0.000481 0.000029 0.023609 0.000016
# 6 0.000003 0.000000 0.000007 0.010962 0.000016 0.030614
#
#
# Mechanical properties :
#
#
# Convention : Reuss Voigt Hill
#
# Bulk Modulus (GPa) = 65.06975 90.13954 77.60465
# Shear Modulus (GPa) = 31.75892 38.57996 35.16944
#
# Velocity S-wave (km/s) = 3.86388 4.25865 4.06606
# Velocity P-wave (km/s) = 7.10597 8.15814 7.65016
#
# Compressibility (1/GPa) = 0.01536812
#
# Stress axis : x y z
#
# Youngs Moduli (GPa) = 53.10591 106.14523 99.04361
#
# Poissons Ratio (x) = 0.39122 0.52144
# Poissons Ratio (y) = 0.19573 0.25152
# Poissons Ratio (z) = 0.27959 0.26955
#
# Static dielectric constant tensor:
#      x y z
#    x 3.967480 -0.000110 -0.837710 
#    y -0.000110 4.269880 -0.000030 
#    z -0.837710 -0.000030 4.115950 
# 
# 
# High freq. dielectric constant tensor:
#      x y z
#    x 1.827260 0.000000 -0.043470 
#    y 0.000000 1.859110 0.000010 
#    z -0.043470 0.000010 1.832800 
# 
# From -- ./inp_files/316156.got.cif
#   From: 2010.06.25/outbox.cif.g09.slc.cpg/sg15_159_cif.got.tgz:316156.got - 2010.06.28 07:06:18.
