data_PCOD8143370
_publ_section_title
;
Structure prediction by ZEFSAII (Michael W. Deem and Ramdas Pophale) SiO2 
 PCOD8143370
Probable space group: C 2/C
;
_chemical_formula_sum "Si O2"
_cell_formula_units_Z 52
_cell_length_a 20.595560
_cell_length_b 25.035683
_cell_length_c 5.267776
_cell_angle_alpha 90.000000
_cell_angle_beta 58.124376
_cell_angle_gamma 90.000000
_cell_volume 2306.579927
_symmetry_space_group_name_H-M "C 2/C"
_symmetry_group_IT_number 15
_symmetry_cell_setting 'monoclinic'
loop_
_space_group_symop_operation_xyz
x,y,z
-x,y,1/2-z
-x,-y,-z
x,-y,1/2+z
1/2+x,1/2+y,z
1/2-x,1/2+y,1/2-z
1/2-x,1/2-y,-z
1/2+x,1/2-y,1/2+z
loop_
_atom_site_type_symbol
_atom_site_label
_atom_site_fract_x
_atom_site_fract_y
_atom_site_fract_z
Si Si1 0.500000 0.819448 0.250000
Si Si2 0.584862 0.522620 0.873227
Si Si3 0.665419 0.379422 0.342022
Si Si4 0.801432 0.185169 0.216487
Si Si5 0.640569 0.204025 0.741469
Si Si6 0.081470 0.386864 0.700179
Si Si7 0.793070 0.467464 0.080499
O O1 0.445513 0.783253 0.186212
O O2 0.434906 0.857194 0.503511
O O3 0.626489 0.511529 0.515153
O O4 0.587997 0.585089 0.952322
O O5 0.500000 0.500000 0.000000
O O6 0.667931 0.351057 0.611387
O O7 0.671069 0.335746 0.110943
O O8 0.731942 0.421695 0.158940
O O9 0.709179 0.190765 0.403489
O O10 0.837963 0.243693 0.146388
O O11 0.635632 0.151993 0.926362
O O12 0.123370 0.442952 0.646137
O O13 0.000000 0.399225 0.750000
O O14 0.783627 0.513167 0.889102
#
# Coordination Sequence:
#
# PCOD8143370 Si02
#       7
#     4   8   8   8   8   8   8
#     4  10  22  42  72  88 142 176 226 258 350 404
#     4  10  21  40  66  88 125 178 225 267 334 395
#     4  12  23  43  65 101 133 174 225 282 336 397
#     4  11  25  40  74  99 137 168 230 281 336 395
#     4  10  23  43  67 102 131 180 219 278 338 410
#     4  10  23  42  67  93 135 178 219 265 338 410
#     4  12  26  41  66  97 133 170 223 279 329 393
#
# _framework density 22.544198000000002
#
# number of rings (size 3 to 8) (size 9 to 14) (size 15 to 20)
#    0.000    1.231    1.538    3.692    6.462    1.846 
#    0.000    4.615    0.000    0.000    0.000    0.000 
#    0.000    0.000    0.000    0.000    0.000    0.000 
#
# Total GULP energy -322186.459775 kJ/mol
# GULP energy per Si atom -12391.786914 kJ/mol
# Density = 2.249289 g / cm^3
# Si number density = 22.544198 Si / 1000 Ang^3
#
#
#
# Elastic Constant Matrix: (Units=GPa)
#
#
# Indices 1 2 3 4 5 6 
#
# 1 81.5551 55.6338 32.9083 0.0000 5.3761 0.0000
# 2 55.6338 58.7305 -4.9503 0.0000 -5.8001 0.0000
# 3 32.9083 -4.9503 59.1475 0.0000 16.2415 0.0000
# 4 0.0000 0.0000 0.0000 -50.4942 0.0000 -87.2242
# 5 5.3761 -5.8001 16.2415 0.0000 33.6807 0.0000
# 6 0.0000 0.0000 0.0000 -87.2242 0.0000 -63.9740
#
#
#
# Elastic Compliance Matrix: (Units=1/GPa)
#
#
# Indices 1 2 3 4 5 6 
#
# 1 0.209891 -0.210585 -0.132835 0.000000 -0.005711 0.000000
# 2 -0.210585 0.228629 0.134002 0.000000 0.008367 0.000000
# 3 -0.132835 0.134002 0.103586 0.000000 -0.005672 0.000000
# 4 0.000000 0.000000 0.000000 0.014613 0.000000 -0.019924
# 5 -0.005711 0.008367 -0.005672 0.000000 0.034778 0.000000
# 6 0.000000 0.000000 0.000000 -0.019924 0.000000 0.011534
#
#
# Mechanical properties :
#
#
# Convention : Reuss Voigt Hill
#
# Bulk Modulus (GPa) = 8.11223 40.73517 24.42370
# Shear Modulus (GPa) = 4.70386 -8.43474 -1.86544
#
# Velocity S-wave (km/s) = 1.44604 -1.93637 -0.91064
# Velocity P-wave (km/s) = 2.52868 3.62062 3.12275
#
# Compressibility (1/GPa) = 0.12327062
#
# Stress axis : x y z
#
# Youngs Moduli (GPa) = 4.76437 4.37390 9.65383
#
# Poissons Ratio (x) = 0.92108 1.28237
# Poissons Ratio (y) = 1.00330 -1.29363
# Poissons Ratio (z) = 0.63288 -0.58611
#
# Static dielectric constant tensor:
#      x y z
#    x 5.886740 0.000000 5.353270 
#    y 0.000000 4.267710 0.000000 
#    z 5.353270 0.000000 39.244310 
# 
# 
# High freq. dielectric constant tensor:
#      x y z
#    x 1.903400 0.000000 0.004230 
#    y 0.000000 1.881470 0.000000 
#    z 0.004230 0.000000 1.891230 
# 
# From -- ./inp_files/13849.got.cif
#   From: 2010.06.25/outbox.cif.g09.slc.cpg/sg15_7_cif.got.tgz:13849.got - 2010.06.28 07:06:18.
