data_PCOD8143740
_publ_section_title
;
Structure prediction by ZEFSAII (Michael W. Deem and Ramdas Pophale) SiO2 
 PCOD8143740
Probable space group: C 2/C
;
_chemical_formula_sum "Si O2"
_cell_formula_units_Z 60
_cell_length_a 13.460383
_cell_length_b 17.512384
_cell_length_c 21.818544
_cell_angle_alpha 90.000000
_cell_angle_beta 32.947001
_cell_angle_gamma 90.000000
_cell_volume 2797.164382
_symmetry_space_group_name_H-M "C 2/C"
_symmetry_group_IT_number 15
_symmetry_cell_setting 'monoclinic'
loop_
_space_group_symop_operation_xyz
x,y,z
-x,y,1/2-z
-x,-y,-z
x,-y,1/2+z
1/2+x,1/2+y,z
1/2-x,1/2+y,1/2-z
1/2-x,1/2-y,-z
1/2+x,1/2-y,1/2+z
loop_
_atom_site_type_symbol
_atom_site_label
_atom_site_fract_x
_atom_site_fract_y
_atom_site_fract_z
Si Si1 0.880791 0.814687 0.752144
Si Si2 0.545624 0.903986 0.939537
Si Si3 0.000000 0.883325 0.250000
Si Si4 0.399473 0.677968 0.583770
Si Si5 0.981488 0.559361 0.917836
Si Si6 0.115904 0.897236 0.537191
Si Si7 0.693010 0.781306 0.465023
Si Si8 0.610705 0.452463 0.318536
O O1 0.764261 0.894553 0.816820
O O2 0.758060 0.737574 0.811895
O O3 0.000000 0.805704 0.750000
O O4 0.018983 0.827182 0.623648
O O5 0.441304 0.980911 0.974796
O O6 0.501648 0.881694 0.033786
O O7 0.462948 0.841776 0.936740
O O8 0.155907 0.824720 0.151281
O O9 0.060880 0.939517 0.273150
O O10 0.343597 0.631933 0.552105
O O11 0.595117 0.718919 0.471915
O O12 0.451026 0.620466 0.611414
O O13 0.169820 0.545052 0.784170
O O14 0.816261 0.582719 0.959578
O O15 0.988037 0.972159 0.604095
O O16 0.750000 0.750000 0.500000
#
# Coordination Sequence:
#
# PCOD8143740 Si02
#       8
#     8   8   4   8   8   8   8   8
#     4  11  24  43  71  99 138 186 234 284 354 423
#     4  10  21  41  64 105 133 170 236 299 337 406
#     4  12  24  42  76 102 132 184 246 298 346 414
#     4  11  29  46  67 101 152 184 229 291 363 436
#     4  11  23  39  73  99 138 180 240 296 352 414
#     4  12  27  46  73 104 145 188 233 303 360 421
#     4  11  23  43  68 101 136 179 227 288 353 419
#     4  12  26  47  73 104 139 184 245 294 353 430
#
# _framework density 21.450295000000001
#
# number of rings (size 3 to 8) (size 9 to 14) (size 15 to 20)
#    0.000    0.800    5.333    1.200    6.533    0.533 
#    0.000    0.000    0.000    0.000    0.000    0.000 
#    0.000    0.000    0.000    0.000    0.000    0.000 
#
# Total GULP energy -371677.334607 kJ/mol
# GULP energy per Si atom -12389.244487 kJ/mol
# Density = 2.140147 g / cm^3
# Si number density = 21.450295 Si / 1000 Ang^3
#
#
#
# Elastic Constant Matrix: (Units=GPa)
#
#
# Indices 1 2 3 4 5 6 
#
# 1 125.5280 58.4387 37.1120 0.0015 -7.1951 0.0141
# 2 58.4387 102.4059 39.9853 -0.0080 -3.8079 -0.0251
# 3 37.1120 39.9853 90.5855 0.0309 -16.6736 0.0088
# 4 0.0015 -0.0080 0.0309 52.0834 -0.0118 49.3358
# 5 -7.1951 -3.8079 -16.6736 -0.0118 35.6801 -0.0133
# 6 0.0141 -0.0251 0.0088 49.3358 -0.0133 127.8371
#
#
#
# Elastic Compliance Matrix: (Units=1/GPa)
#
#
# Indices 1 2 3 4 5 6 
#
# 1 0.011196 -0.005587 -0.001986 0.000003 0.000733 -0.000003
# 2 -0.005587 0.014640 -0.004479 0.000002 -0.001657 0.000003
# 3 -0.001986 -0.004479 0.014954 -0.000011 0.006110 0.000003
# 4 0.000003 0.000002 -0.000011 0.030263 0.000001 -0.011679
# 5 0.000733 -0.001657 0.006110 0.000001 0.030853 0.000002
# 6 -0.000003 0.000003 0.000003 -0.011679 0.000002 0.012330
#
#
# Mechanical properties :
#
#
# Convention : Reuss Voigt Hill
#
# Bulk Modulus (GPa) = 59.92099 65.51016 62.71557
# Shear Modulus (GPa) = 34.74581 55.31902 45.03242
#
# Velocity S-wave (km/s) = 4.02908 5.08384 4.58687
# Velocity P-wave (km/s) = 7.04557 8.06643 7.57322
#
# Compressibility (1/GPa) = 0.01668864
#
# Stress axis : x y z
#
# Youngs Moduli (GPa) = 89.31493 68.30545 66.86976
#
# Poissons Ratio (x) = 0.38159 0.13281
# Poissons Ratio (y) = 0.49896 0.29948
# Poissons Ratio (z) = 0.17739 0.30591
#
# Static dielectric constant tensor:
#      x y z
#    x 3.763160 0.000000 -0.049370 
#    y 0.000000 4.001620 0.000010 
#    z -0.049370 0.000010 3.896650 
# 
# 
# High freq. dielectric constant tensor:
#      x y z
#    x 1.847410 0.000000 -0.018530 
#    y 0.000000 1.849860 0.000000 
#    z -0.018530 0.000000 1.838690 
# 
# From -- ./inp_files/239956.got.cif
#   From: 2010.06.25/outbox.cif.g09.slc.cpg/sg15_120_cif.got.tgz:239956.got - 2010.06.28 07:06:18.
