data_PCOD8143826
_publ_section_title
;
Structure prediction by ZEFSAII (Michael W. Deem and Ramdas Pophale) SiO2 
 PCOD8143826
Probable space group: C 2/C
;
_chemical_formula_sum "Si O2"
_cell_formula_units_Z 64
_cell_length_a 12.527321
_cell_length_b 28.084680
_cell_length_c 14.928302
_cell_angle_alpha 90.000000
_cell_angle_beta 35.261253
_cell_angle_gamma 90.000000
_cell_volume 3032.102265
_symmetry_space_group_name_H-M "C 2/C"
_symmetry_group_IT_number 15
_symmetry_cell_setting 'monoclinic'
loop_
_space_group_symop_operation_xyz
x,y,z
-x,y,1/2-z
-x,-y,-z
x,-y,1/2+z
1/2+x,1/2+y,z
1/2-x,1/2+y,1/2-z
1/2-x,1/2-y,-z
1/2+x,1/2-y,1/2+z
loop_
_atom_site_type_symbol
_atom_site_label
_atom_site_fract_x
_atom_site_fract_y
_atom_site_fract_z
Si Si1 0.205689 0.028771 0.622404
Si Si2 0.906247 0.303273 0.562497
Si Si3 0.804471 0.877017 0.564162
Si Si4 0.699726 0.056074 0.580222
Si Si5 0.953166 0.202100 0.073186
Si Si6 0.451098 0.882561 0.918763
Si Si7 0.090162 0.042693 0.889126
Si Si8 0.820088 0.845136 0.932133
O O1 0.370187 0.065807 0.495582
O O2 0.217096 0.020107 0.722586
O O3 0.000000 0.049967 0.750000
O O4 0.224666 0.983515 0.542210
O O5 0.740232 0.297626 0.744557
O O6 0.826680 0.312306 0.518385
O O7 0.018386 0.254607 0.483888
O O8 0.039919 0.346641 0.502708
O O9 0.937349 0.833707 0.500640
O O10 0.658848 0.891261 0.741386
O O11 0.687848 0.859635 0.558410
O O12 0.932728 0.922556 0.455827
O O13 0.500000 0.039655 0.750000
O O14 0.803421 0.067532 0.602353
O O15 0.709059 0.106287 0.524141
O O16 0.121830 0.183927 0.019381
O O17 0.000000 0.000000 0.000000
O O18 0.000000 0.857494 0.750000
#
# Coordination Sequence:
#
# PCOD8143826 Si02
#       8
#     8   8   8   8   8   8   8   8
#     4  12  25  43  66  96 134 175 222 272 332 397
#     4  10  23  39  64  97 125 172 216 273 339 395
#     4  10  21  42  68  91 128 176 217 276 332 395
#     4  12  28  44  65 102 135 176 226 276 334 403
#     4  10  21  41  65  93 129 168 219 275 335 396
#     4  10  23  41  64  95 131 169 223 270 335 397
#     4  12  25  43  67  95 131 178 224 270 339 397
#     4  10  22  43  66  92 133 172 221 275 333 396
#
# _framework density 21.107467
#
# number of rings (size 3 to 8) (size 9 to 14) (size 15 to 20)
#    0.000    1.250    3.750    0.750    5.250    3.000 
#    0.000    0.000    0.000    0.000    0.000    0.000 
#    0.000    0.000    0.000    0.000    0.000    0.000 
#
# Total GULP energy -396561.862916 kJ/mol
# GULP energy per Si atom -12392.558216 kJ/mol
# Density = 2.105943 g / cm^3
# Si number density = 21.107467 Si / 1000 Ang^3
#
#
#
# Elastic Constant Matrix: (Units=GPa)
#
#
# Indices 1 2 3 4 5 6 
#
# 1 95.5439 30.0901 28.4694 0.0000 3.6759 -0.0001
# 2 30.0901 101.7222 33.8747 0.0000 -2.2323 0.0000
# 3 28.4694 33.8747 66.7370 0.0001 4.6029 -0.0002
# 4 0.0000 0.0000 0.0001 38.4605 0.0000 -1.1951
# 5 3.6759 -2.2323 4.6029 0.0000 32.9204 0.0001
# 6 -0.0001 0.0000 -0.0002 -1.1951 0.0001 36.5832
#
#
#
# Elastic Compliance Matrix: (Units=1/GPa)
#
#
# Indices 1 2 3 4 5 6 
#
# 1 0.012453 -0.002357 -0.004048 0.000000 -0.000984 0.000000
# 2 -0.002357 0.012367 -0.005400 0.000000 0.001857 0.000000
# 3 -0.004048 -0.005400 0.019635 0.000000 -0.002660 0.000000
# 4 0.000000 0.000000 0.000000 0.026027 0.000000 0.000850
# 5 -0.000984 0.001857 -0.002660 0.000000 0.030984 0.000000
# 6 0.000000 0.000000 0.000000 0.000850 0.000000 0.027363
#
#
# Mechanical properties :
#
#
# Convention : Reuss Voigt Hill
#
# Bulk Modulus (GPa) = 47.97256 49.87462 48.92359
# Shear Modulus (GPa) = 31.37021 33.03075 32.20048
#
# Velocity S-wave (km/s) = 3.85933 3.96015 3.91007
# Velocity P-wave (km/s) = 6.52965 6.67762 6.60405
#
# Compressibility (1/GPa) = 0.02084525
#
# Stress axis : x y z
#
# Youngs Moduli (GPa) = 80.30327 80.86092 50.92881
#
# Poissons Ratio (x) = 0.19061 0.20615
# Poissons Ratio (y) = 0.18929 0.27500
# Poissons Ratio (z) = 0.32506 0.43663
#
# Static dielectric constant tensor:
#      x y z
#    x 3.889380 0.000000 0.148390 
#    y 0.000000 3.902310 0.000000 
#    z 0.148390 0.000000 3.791120 
# 
# 
# High freq. dielectric constant tensor:
#      x y z
#    x 1.843190 0.000000 0.004360 
#    y 0.000000 1.819910 0.000000 
#    z 0.004360 0.000000 1.822080 
# 
# From -- ./inp_files/148764.got.cif
#   From: 2010.06.25/outbox.cif.g09.slc.cpg/sg15_75_cif.got.tgz:148764.got - 2010.06.28 07:06:18.
