data_PCOD8143009
_publ_section_title
;
Structure prediction by ZEFSAII (Michael W. Deem and Ramdas Pophale) SiO2 
 PCOD8143009
Probable space group: C 2/C
;
_chemical_formula_sum "Si O2"
_cell_formula_units_Z 48
_cell_length_a 11.830912
_cell_length_b 24.339301
_cell_length_c 8.849852
_cell_angle_alpha 90.000000
_cell_angle_beta 63.427622
_cell_angle_gamma 90.000000
_cell_volume 2279.184876
_symmetry_space_group_name_H-M "C 2/C"
_symmetry_group_IT_number 15
_symmetry_cell_setting 'monoclinic'
loop_
_space_group_symop_operation_xyz
x,y,z
-x,y,1/2-z
-x,-y,-z
x,-y,1/2+z
1/2+x,1/2+y,z
1/2-x,1/2+y,1/2-z
1/2-x,1/2-y,-z
1/2+x,1/2-y,1/2+z
loop_
_atom_site_type_symbol
_atom_site_label
_atom_site_fract_x
_atom_site_fract_y
_atom_site_fract_z
Si Si1 0.879120 0.739808 0.237362
Si Si2 0.854961 0.624990 0.374152
Si Si3 0.776279 0.654117 0.738568
Si Si4 0.335891 0.548447 0.193873
Si Si5 0.126730 0.062742 0.980796
Si Si6 0.111447 0.275986 0.097643
O O1 0.818423 0.687891 0.358768
O O2 0.777315 0.787492 0.285615
O O3 0.000000 0.764393 0.250000
O O4 0.932137 0.714485 0.047428
O O5 0.832926 0.618447 0.567335
O O6 0.765028 0.585176 0.333559
O O7 0.000000 0.610997 0.250000
O O8 0.667327 0.620501 0.887283
O O9 0.880715 0.668540 0.804341
O O10 0.318631 0.554671 0.383544
O O11 0.316484 0.485293 0.158001
O O12 0.476146 0.565863 0.062792
O O13 0.000000 0.240267 0.250000
O O14 0.250000 0.250000 0.000000
#
# Coordination Sequence:
#
# PCOD8143009 Si02
#       6
#     8   8   8   8   8   8
#     4  10  22  39  60  91 127 172 216 263 317 380
#     4  11  23  40  62  91 130 171 213 260 320 386
#     4  11  23  39  62  93 127 170 214 262 327 379
#     4  10  22  43  68  93 132 158 218 269 325 383
#     4  10  22  42  67  98 120 169 210 275 326 381
#     4  10  21  40  59  84 125 168 214 265 318 384
#
# _framework density 21.06016
#
# number of rings (size 3 to 8) (size 9 to 14) (size 15 to 20)
#    0.000    1.667    0.000    4.500    2.333    2.667 
#   18.000    4.167    0.000    0.000    0.000    0.000 
#    0.000    0.000    0.000    0.000    0.000    0.000 
#
# Total GULP energy -297451.386688 kJ/mol
# GULP energy per Si atom -12393.807779 kJ/mol
# Density = 2.101223 g / cm^3
# Si number density = 21.060160 Si / 1000 Ang^3
#
#
#
# Elastic Constant Matrix: (Units=GPa)
#
#
# Indices 1 2 3 4 5 6 
#
# 1 125.4132 49.4202 56.4883 0.0000 7.9145 0.0000
# 2 49.4202 80.9376 25.8122 0.0000 -2.8033 0.0000
# 3 56.4883 25.8122 143.2858 0.0000 5.2809 0.0000
# 4 0.0000 0.0000 0.0000 33.3748 0.0000 3.5477
# 5 7.9145 -2.8033 5.2809 0.0000 37.1634 0.0000
# 6 0.0000 0.0000 0.0000 3.5477 0.0000 34.1486
#
#
#
# Elastic Compliance Matrix: (Units=1/GPa)
#
#
# Indices 1 2 3 4 5 6 
#
# 1 0.012298 -0.006454 -0.003590 0.000000 -0.002596 0.000000
# 2 -0.006454 0.016561 -0.000539 0.000000 0.002700 0.000000
# 3 -0.003590 -0.000539 0.008509 0.000000 -0.000485 0.000000
# 4 0.000000 0.000000 0.000000 0.030297 0.000000 -0.003148
# 5 -0.002596 0.002700 -0.000485 0.000000 0.027734 0.000000
# 6 0.000000 0.000000 0.000000 -0.003148 0.000000 0.029611
#
#
# Mechanical properties :
#
#
# Convention : Reuss Voigt Hill
#
# Bulk Modulus (GPa) = 61.71562 68.11979 64.91770
# Shear Modulus (GPa) = 32.98686 35.46508 34.22597
#
# Velocity S-wave (km/s) = 3.96196 4.10810 4.03569
# Velocity P-wave (km/s) = 7.09208 7.41063 7.25311
#
# Compressibility (1/GPa) = 0.01620335
#
# Stress axis : x y z
#
# Youngs Moduli (GPa) = 81.31674 60.38209 117.51977
#
# Poissons Ratio (x) = 0.38970 0.42188
# Poissons Ratio (y) = 0.52481 0.06329
# Poissons Ratio (z) = 0.29191 0.03252
#
# Static dielectric constant tensor:
#      x y z
#    x 3.928060 0.000000 0.336170 
#    y 0.000000 3.561280 0.000000 
#    z 0.336170 0.000000 4.489980 
# 
# 
# High freq. dielectric constant tensor:
#      x y z
#    x 1.832940 0.000000 0.011110 
#    y 0.000000 1.798260 0.000000 
#    z 0.011110 0.000000 1.851440 
# 
# From -- ./inp_files/32557.got.cif
#   From: 2010.06.25/outbox.cif.g09.slc.cpg/sg15_17_cif.got.tgz:32557.got - 2010.06.28 07:06:18.
