data_PCOD8143647
_publ_section_title
;
Structure prediction by ZEFSAII (Michael W. Deem and Ramdas Pophale) SiO2 
 PCOD8143647
Probable space group: C 2/C
;
_chemical_formula_sum "Si O2"
_cell_formula_units_Z 48
_cell_length_a 8.487823
_cell_length_b 17.953033
_cell_length_c 19.224269
_cell_angle_alpha 90.000000
_cell_angle_beta 52.625467
_cell_angle_gamma 90.000000
_cell_volume 2327.977221
_symmetry_space_group_name_H-M "C 2/C"
_symmetry_group_IT_number 15
_symmetry_cell_setting 'monoclinic'
loop_
_space_group_symop_operation_xyz
x,y,z
-x,y,1/2-z
-x,-y,-z
x,-y,1/2+z
1/2+x,1/2+y,z
1/2-x,1/2+y,1/2-z
1/2-x,1/2-y,-z
1/2+x,1/2-y,1/2+z
loop_
_atom_site_type_symbol
_atom_site_label
_atom_site_fract_x
_atom_site_fract_y
_atom_site_fract_z
Si Si1 0.951482 0.402228 0.153001
Si Si2 0.980698 0.436928 0.834537
Si Si3 0.023334 0.692792 0.989278
Si Si4 0.267937 0.681478 0.322159
Si Si5 0.212749 0.850693 0.335051
Si Si6 0.340127 0.346247 0.518026
O O1 0.995227 0.488661 0.125202
O O2 0.919709 0.359832 0.089291
O O3 0.754129 0.397272 0.253710
O O4 0.123559 0.361001 0.149189
O O5 0.150455 0.377495 0.806470
O O6 0.000000 0.462482 0.750000
O O7 0.755191 0.407373 0.905258
O O8 0.061092 0.780091 0.961641
O O9 0.156759 0.679289 0.020791
O O10 0.799394 0.676340 0.077777
O O11 0.500000 0.665808 0.250000
O O12 0.207678 0.764243 0.313435
O O13 0.005964 0.879775 0.422045
#
# Coordination Sequence:
#
# PCOD8143647 Si02
#       6
#     8   8   8   8   8   8
#     4  11  22  41  59  90 129 159 189 256 308 352
#     4  11  24  41  60  90 127 156 200 254 302 354
#     4   9  21  40  63  91 121 158 204 250 298 359
#     4  10  21  41  63  87 120 158 205 246 294 363
#     4  10  21  41  62  89 123 159 204 245 297 366
#     4   9  21  40  61  93 118 157 211 245 292 365
#
# _framework density 20.618758
#
# number of rings (size 3 to 8) (size 9 to 14) (size 15 to 20)
#    0.000    2.000    3.333    1.000    2.333    8.000 
#    6.000    0.000    0.000    0.000    0.000    0.000 
#    0.000    0.000    0.000    0.000    0.000    0.000 
#
# Total GULP energy -297473.605884 kJ/mol
# GULP energy per Si atom -12394.733579 kJ/mol
# Density = 2.057183 g / cm^3
# Si number density = 20.618758 Si / 1000 Ang^3
#
#
#
# Elastic Constant Matrix: (Units=GPa)
#
#
# Indices 1 2 3 4 5 6 
#
# 1 44.0816 31.9219 39.2428 -0.0001 -6.8939 0.0001
# 2 31.9219 121.7033 53.2601 0.0000 0.8545 0.0000
# 3 39.2428 53.2601 157.9279 0.0000 -25.1410 0.0000
# 4 -0.0001 0.0000 0.0000 22.1846 0.0001 5.2199
# 5 -6.8939 0.8545 -25.1410 0.0001 35.4804 -0.0001
# 6 0.0001 0.0000 0.0000 5.2199 -0.0001 23.3535
#
#
#
# Elastic Compliance Matrix: (Units=1/GPa)
#
#
# Indices 1 2 3 4 5 6 
#
# 1 0.032481 -0.006073 -0.005630 0.000000 0.002468 0.000000
# 2 -0.006073 0.011039 -0.002755 0.000000 -0.003398 0.000000
# 3 -0.005630 -0.002755 0.009577 0.000000 0.005758 0.000000
# 4 0.000000 0.000000 0.000000 0.047579 0.000000 -0.010635
# 5 0.002468 -0.003398 0.005758 0.000000 0.032826 0.000000
# 6 0.000000 0.000000 0.000000 -0.010635 0.000000 0.045197
#
#
# Mechanical properties :
#
#
# Convention : Reuss Voigt Hill
#
# Bulk Modulus (GPa) = 41.35457 63.61807 52.48632
# Shear Modulus (GPa) = 23.18306 29.48956 26.33631
#
# Velocity S-wave (km/s) = 3.35680 3.78594 3.57781
# Velocity P-wave (km/s) = 5.92659 7.07337 6.52522
#
# Compressibility (1/GPa) = 0.02418113
#
# Stress axis : x y z
#
# Youngs Moduli (GPa) = 30.78717 90.58814 104.42026
#
# Poissons Ratio (x) = 0.55014 0.58790
# Poissons Ratio (y) = 0.18697 0.28764
# Poissons Ratio (z) = 0.17334 0.24954
#
# Static dielectric constant tensor:
#      x y z
#    x 3.387330 0.000000 -0.339640 
#    y 0.000000 3.734140 0.000000 
#    z -0.339640 0.000000 4.171980 
# 
# 
# High freq. dielectric constant tensor:
#      x y z
#    x 1.773180 0.000000 -0.015210 
#    y 0.000000 1.803700 0.000000 
#    z -0.015210 0.000000 1.824670 
# 
# From -- ./inp_files/232512.got.cif
#   From: 2010.06.25/outbox.cif.g09.slc.cpg/sg15_117_cif.got.tgz:232512.got - 2010.06.28 07:06:18.
