data_PCOD8143323
_publ_section_title
;
Structure prediction by ZEFSAII (Michael W. Deem and Ramdas Pophale) SiO2 
 PCOD8143323
Probable space group: C 2/C
;
_chemical_formula_sum "Si O2"
_cell_formula_units_Z 56
_cell_length_a 17.510861
_cell_length_b 9.588733
_cell_length_c 27.326138
_cell_angle_alpha 90.000000
_cell_angle_beta 39.079188
_cell_angle_gamma 90.000000
_cell_volume 2892.404106
_symmetry_space_group_name_H-M "C 2/C"
_symmetry_group_IT_number 15
_symmetry_cell_setting 'monoclinic'
loop_
_space_group_symop_operation_xyz
x,y,z
-x,y,1/2-z
-x,-y,-z
x,-y,1/2+z
1/2+x,1/2+y,z
1/2-x,1/2+y,1/2-z
1/2-x,1/2-y,-z
1/2+x,1/2-y,1/2+z
loop_
_atom_site_type_symbol
_atom_site_label
_atom_site_fract_x
_atom_site_fract_y
_atom_site_fract_z
Si Si1 0.654032 0.008541 0.768378
Si Si2 0.441396 0.430172 0.982410
Si Si3 0.629631 0.295274 0.823280
Si Si4 0.181194 0.413501 0.144073
Si Si5 0.458345 0.348867 0.821537
Si Si6 0.602514 0.127242 0.109654
Si Si7 0.657393 0.427757 0.060529
O O1 0.669487 0.133015 0.800393
O O2 0.663792 0.079809 0.710461
O O3 0.756684 0.893290 0.723118
O O4 0.526664 0.933691 0.841097
O O5 0.531081 0.312630 0.915901
O O6 0.415028 0.546335 0.954058
O O7 0.500000 0.500000 0.000000
O O8 0.315525 0.362157 0.062699
O O9 0.573054 0.341136 0.799941
O O10 0.089783 0.306133 0.164393
O O11 0.148798 0.565427 0.138303
O O12 0.500000 0.418890 0.750000
O O13 0.353612 0.441808 0.897625
O O14 0.596955 0.294203 0.116751
O O15 0.699296 0.089777 0.019156
#
# Coordination Sequence:
#
# PCOD8143323 Si02
#       7
#     8   8   8   8   8   8   8
#     4  12  24  40  64  94 133 168 215 265 328 382
#     4  10  21  40  65  92 128 169 214 263 323 386
#     4  11  25  40  62  96 128 169 213 267 327 382
#     4  11  21  40  69  89 122 174 219 258 312 396
#     4  11  21  40  64  93 123 162 218 264 313 380
#     4  10  21  41  61  90 124 169 210 260 319 386
#     4   9  23  38  63  93 125 162 215 268 314 373
#
# _framework density 19.361056999999999
#
# number of rings (size 3 to 8) (size 9 to 14) (size 15 to 20)
#    0.000    1.429    4.286    0.429    6.000    2.857 
#    0.000    0.000    0.000    2.571    0.000    0.000 
#    0.000    0.000    0.000    0.000    0.000    0.000 
#
# Total GULP energy -347203.448308 kJ/mol
# GULP energy per Si atom -12400.123154 kJ/mol
# Density = 1.931699 g / cm^3
# Si number density = 19.361057 Si / 1000 Ang^3
#
#
#
# Elastic Constant Matrix: (Units=GPa)
#
#
# Indices 1 2 3 4 5 6 
#
# 1 85.2340 31.0350 45.9574 -0.0001 1.4252 0.0003
# 2 31.0350 109.0180 53.7902 -0.0001 -0.9259 0.0006
# 3 45.9574 53.7902 121.4122 0.0000 -8.5835 -0.0001
# 4 -0.0001 -0.0001 0.0000 30.8496 0.0000 -0.1496
# 5 1.4252 -0.9259 -8.5835 0.0000 37.4670 0.0000
# 6 0.0003 0.0006 -0.0001 -0.1496 0.0000 25.3619
#
#
#
# Elastic Compliance Matrix: (Units=1/GPa)
#
#
# Indices 1 2 3 4 5 6 
#
# 1 0.015153 -0.001839 -0.005047 0.000000 -0.001778 0.000000
# 2 -0.001839 0.011993 -0.004667 0.000000 -0.000703 0.000000
# 3 -0.005047 -0.004667 0.012421 0.000000 0.002922 0.000000
# 4 0.000000 0.000000 0.000000 0.032416 0.000000 0.000191
# 5 -0.001778 -0.000703 0.002922 0.000000 0.027410 0.000000
# 6 0.000000 0.000000 0.000000 0.000191 0.000000 0.039430
#
#
# Mechanical properties :
#
#
# Convention : Reuss Voigt Hill
#
# Bulk Modulus (GPa) = 60.74673 64.13658 62.44166
# Shear Modulus (GPa) = 29.86575 31.06112 30.46343
#
# Velocity S-wave (km/s) = 3.93182 4.00973 3.97096
# Velocity P-wave (km/s) = 7.21499 7.39160 7.30383
#
# Compressibility (1/GPa) = 0.01646179
#
# Stress axis : x y z
#
# Youngs Moduli (GPa) = 65.99438 83.38182 80.50856
#
# Poissons Ratio (x) = 0.15331 0.40631
# Poissons Ratio (y) = 0.12134 0.37574
# Poissons Ratio (z) = 0.33306 0.38915
#
# Static dielectric constant tensor:
#      x y z
#    x 3.457670 0.000000 -0.064590 
#    y 0.000000 3.636350 0.000000 
#    z -0.064590 0.000000 4.029580 
# 
# 
# High freq. dielectric constant tensor:
#      x y z
#    x 1.743640 0.000000 -0.006550 
#    y 0.000000 1.744740 0.000000 
#    z -0.006550 0.000000 1.773530 
# 
# From -- ./inp_files/276601.got.cif
#   From: 2010.06.25/outbox.cif.g09.slc.cpg/sg15_139_cif.got.tgz:276601.got - 2010.06.28 07:06:18.
