data_PCOD8143353
_publ_section_title
;
Structure prediction by ZEFSAII (Michael W. Deem and Ramdas Pophale) SiO2 
 PCOD8143353
Probable space group: C 2/C
;
_chemical_formula_sum "Si O2"
_cell_formula_units_Z 56
_cell_length_a 11.917996
_cell_length_b 7.961891
_cell_length_c 23.709626
_cell_angle_alpha 90.000000
_cell_angle_beta 74.736820
_cell_angle_gamma 90.000000
_cell_volume 2170.443606
_symmetry_space_group_name_H-M "C 2/C"
_symmetry_group_IT_number 15
_symmetry_cell_setting 'monoclinic'
loop_
_space_group_symop_operation_xyz
x,y,z
-x,y,1/2-z
-x,-y,-z
x,-y,1/2+z
1/2+x,1/2+y,z
1/2-x,1/2+y,1/2-z
1/2-x,1/2-y,-z
1/2+x,1/2-y,1/2+z
loop_
_atom_site_type_symbol
_atom_site_label
_atom_site_fract_x
_atom_site_fract_y
_atom_site_fract_z
Si Si1 0.157364 0.295229 0.275427
Si Si2 0.280133 0.356485 0.376553
Si Si3 0.599882 0.422180 0.449657
Si Si4 0.572983 0.056413 0.433880
Si Si5 0.876521 0.344550 0.698897
Si Si6 0.016706 0.991317 0.335981
Si Si7 0.685002 0.104525 0.041543
O O1 0.235785 0.306553 0.321263
O O2 0.112248 0.484092 0.263871
O O3 0.242256 0.219057 0.216504
O O4 0.053110 0.162019 0.298909
O O5 0.171843 0.413810 0.433183
O O6 0.377166 0.503659 0.360798
O O7 0.347817 0.197930 0.395160
O O8 0.500000 0.500000 0.500000
O O9 0.597870 0.226998 0.461882
O O10 0.583159 0.480224 0.387190
O O11 0.726455 0.459324 0.456423
O O12 0.587728 0.082964 0.365768
O O13 0.434997 0.017696 0.467712
O O14 0.953828 0.179689 0.704096
O O15 0.750000 0.250000 0.000000
#
# Coordination Sequence:
#
# PCOD8143353 Si02
#       7
#     8   8   8   8   8   8   8
#     4  11  22  40  70  97 136 179 226 272 340 398
#     4  11  24  43  66  97 132 176 217 281 333 398
#     4  11  21  42  67  93 130 175 217 278 337 391
#     4  10  24  42  62  96 133 163 228 272 326 410
#     4  10  21  40  65  97 137 176 220 279 327 403
#     4  11  22  43  67  97 141 175 228 278 336 405
#     4  12  22  42  68  92 129 172 219 276 336 397
#
# _framework density 25.801179000000001
#
# number of rings (size 3 to 8) (size 9 to 14) (size 15 to 20)
#    0.000    1.143    7.143    0.000    0.000    3.429 
#    0.000    1.429    6.286    0.000    0.000    0.000 
#    0.000    0.000    0.000    0.000    0.000    0.000 
#
# Total GULP energy -346887.340870 kJ/mol
# GULP energy per Si atom -12388.833602 kJ/mol
# Density = 2.574245 g / cm^3
# Si number density = 25.801179 Si / 1000 Ang^3
#
#
#
# Elastic Constant Matrix: (Units=GPa)
#
#
# Indices 1 2 3 4 5 6 
#
# 1 185.1636 40.5402 33.5551 0.0000 -28.0619 0.0000
# 2 40.5402 134.4979 21.3854 0.0000 -15.6801 0.0000
# 3 33.5551 21.3854 51.2525 0.0000 -33.7545 0.0000
# 4 0.0000 0.0000 0.0000 34.7570 0.0000 -11.4442
# 5 -28.0619 -15.6801 -33.7545 0.0000 46.5337 0.0000
# 6 0.0000 0.0000 0.0000 -11.4442 0.0000 40.8496
#
#
#
# Elastic Compliance Matrix: (Units=1/GPa)
#
#
# Indices 1 2 3 4 5 6 
#
# 1 0.006399 -0.001333 -0.002657 0.000000 0.001482 0.000000
# 2 -0.001333 0.008248 -0.002427 0.000000 0.000214 0.000000
# 3 -0.002657 -0.002427 0.039576 0.000000 0.026288 0.000000
# 4 0.000000 0.000000 0.000000 0.031695 0.000000 0.008879
# 5 0.001482 0.000214 0.026288 0.000000 0.041525 0.000000
# 6 0.000000 0.000000 0.000000 0.008879 0.000000 0.026968
#
#
# Mechanical properties :
#
#
# Convention : Reuss Voigt Hill
#
# Bulk Modulus (GPa) = 24.16139 62.43060 43.29600
# Shear Modulus (GPa) = 27.61809 42.79026 35.20417
#
# Velocity S-wave (km/s) = 3.27528 4.07684 3.69784
# Velocity P-wave (km/s) = 4.86703 6.81250 5.92023
#
# Compressibility (1/GPa) = 0.04138834
#
# Stress axis : x y z
#
# Youngs Moduli (GPa) = 156.28289 121.24255 25.26762
#
# Poissons Ratio (x) = 0.16167 0.06712
# Poissons Ratio (y) = 0.20840 0.06133
# Poissons Ratio (z) = 0.41517 0.29429
#
# Static dielectric constant tensor:
#      x y z
#    x 5.118500 0.000000 -0.332130 
#    y 0.000000 -14.071640 0.000000 
#    z -0.332130 0.000000 5.006720 
# 
# 
# High freq. dielectric constant tensor:
#      x y z
#    x 2.027780 0.000000 -0.015850 
#    y 0.000000 2.036320 0.000000 
#    z -0.015850 0.000000 2.051410 
# 
# From -- ./inp_files/309937.got.cif
#   From: 2010.06.25/outbox.cif.g09.slc.cpg/sg15_155_cif.got.tgz:309937.got - 2010.06.28 07:06:18.
