data_PCOD8143840
_publ_section_title
;
Structure prediction by ZEFSAII (Michael W. Deem and Ramdas Pophale) SiO2 
 PCOD8143840
Probable space group: C 2/C
;
_chemical_formula_sum "Si O2"
_cell_formula_units_Z 44
_cell_length_a 21.635756
_cell_length_b 19.076630
_cell_length_c 14.435915
_cell_angle_alpha 90.000000
_cell_angle_beta 160.289233
_cell_angle_gamma 90.000000
_cell_volume 2009.548807
_symmetry_space_group_name_H-M "C 2/C"
_symmetry_group_IT_number 15
_symmetry_cell_setting 'monoclinic'
loop_
_space_group_symop_operation_xyz
x,y,z
-x,y,1/2-z
-x,-y,-z
x,-y,1/2+z
1/2+x,1/2+y,z
1/2-x,1/2+y,1/2-z
1/2-x,1/2-y,-z
1/2+x,1/2-y,1/2+z
loop_
_atom_site_type_symbol
_atom_site_label
_atom_site_fract_x
_atom_site_fract_y
_atom_site_fract_z
Si Si1 0.214861 0.594972 0.063104
Si Si2 0.764183 0.503191 0.574946
Si Si3 0.433162 0.701897 0.481981
Si Si4 0.187093 0.320653 0.070887
Si Si5 0.179857 0.468576 0.140394
Si Si6 0.000000 0.886819 0.250000
O O1 0.320530 0.665752 0.239532
O O2 0.260849 0.537507 0.206464
O O3 0.293793 0.564404 0.077997
O O4 0.000000 0.611831 0.750000
O O5 0.745685 0.536000 0.650558
O O6 0.640089 0.434821 0.390300
O O7 0.962198 0.473798 0.829972
O O8 0.645635 0.710512 0.753515
O O9 0.344139 0.777972 0.377109
O O10 0.402949 0.660881 0.536137
O O11 0.241879 0.400145 0.172439
O O12 0.000000 0.315834 0.750000
#
# Coordination Sequence:
#
# PCOD8143840 Si02
#       6
#     8   8   8   8   8   4
#     4  10  22  45  67  97 132 173 220 279 326 395
#     4  10  22  36  68  97 131 169 221 277 331 387
#     4  12  27  42  69  97 135 175 224 271 337 394
#     4  12  26  44  66  97 136 176 222 279 330 395
#     4  10  21  41  65  96 130 173 223 272 333 389
#     4  12  22  38  66  98 132 170 216 278 328 398
#
# _framework density 21.895461999999998
#
# number of rings (size 3 to 8) (size 9 to 14) (size 15 to 20)
#    0.000    1.091    2.727    4.364    5.091    1.455 
#    0.000    3.636    0.000    0.000    0.000    0.000 
#    0.000    0.000    0.000    0.000    0.000    0.000 
#
# Total GULP energy -272894.265969 kJ/mol
# GULP energy per Si atom -12404.284817 kJ/mol
# Density = 2.184563 g / cm^3
# Si number density = 21.895462 Si / 1000 Ang^3
#
#
#
# Elastic Constant Matrix: (Units=GPa)
#
#
# Indices 1 2 3 4 5 6 
#
# 1 96.3475 16.8309 30.9993 0.0000 -5.5972 0.0000
# 2 16.8309 76.8400 25.2859 0.0000 -0.5329 0.0000
# 3 30.9993 25.2859 59.5128 0.0000 -8.0624 0.0000
# 4 0.0000 0.0000 0.0000 22.5298 0.0000 0.8917
# 5 -5.5972 -0.5329 -8.0624 0.0000 36.0625 0.0000
# 6 0.0000 0.0000 0.0000 0.8917 0.0000 30.7020
#
#
#
# Elastic Compliance Matrix: (Units=1/GPa)
#
#
# Indices 1 2 3 4 5 6 
#
# 1 0.012511 -0.000717 -0.006136 0.000000 0.000559 0.000000
# 2 -0.000717 0.015225 -0.006270 0.000000 -0.001288 0.000000
# 3 -0.006136 -0.006270 0.023225 0.000000 0.004147 0.000000
# 4 0.000000 0.000000 0.000000 0.044437 0.000000 -0.001291
# 5 0.000559 -0.001288 0.004147 0.000000 0.028725 0.000000
# 6 0.000000 0.000000 0.000000 -0.001291 0.000000 0.032609
#
#
# Mechanical properties :
#
#
# Convention : Reuss Voigt Hill
#
# Bulk Modulus (GPa) = 40.46145 42.10362 41.28254
# Shear Modulus (GPa) = 26.14822 28.49779 27.32301
#
# Velocity S-wave (km/s) = 3.45951 3.61160 3.53637
# Velocity P-wave (km/s) = 5.87172 6.05497 5.96405
#
# Compressibility (1/GPa) = 0.02471488
#
# Stress axis : x y z
#
# Youngs Moduli (GPa) = 79.92807 65.67933 43.05647
#
# Poissons Ratio (x) = 0.04711 0.26421
# Poissons Ratio (y) = 0.05733 0.26996
# Poissons Ratio (z) = 0.49047 0.41181
#
# Static dielectric constant tensor:
#      x y z
#    x 4.372660 0.000000 0.017940 
#    y 0.000000 3.957710 0.000000 
#    z 0.017940 0.000000 3.843670 
# 
# 
# High freq. dielectric constant tensor:
#      x y z
#    x 1.868870 0.000000 0.002230 
#    y 0.000000 1.851720 0.000000 
#    z 0.002230 0.000000 1.854770 
# 
# From -- ./inp_files/147002.got.cif
#   From: 2010.06.25/outbox.cif.g09.slc.cpg/sg15_74_cif.got.tgz:147002.got - 2010.06.28 07:06:18.
