data_PCOD8143513
_publ_section_title
;
Structure prediction by ZEFSAII (Michael W. Deem and Ramdas Pophale) SiO2 
 PCOD8143513
Probable space group: C 2/C
;
_chemical_formula_sum "Si O2"
_cell_formula_units_Z 48
_cell_length_a 10.793699
_cell_length_b 17.974319
_cell_length_c 11.296805
_cell_angle_alpha 90.000000
_cell_angle_beta 101.048964
_cell_angle_gamma 90.000000
_cell_volume 2151.060620
_symmetry_space_group_name_H-M "C 2/C"
_symmetry_group_IT_number 15
_symmetry_cell_setting 'monoclinic'
loop_
_space_group_symop_operation_xyz
x,y,z
-x,y,1/2-z
-x,-y,-z
x,-y,1/2+z
1/2+x,1/2+y,z
1/2-x,1/2+y,1/2-z
1/2-x,1/2-y,-z
1/2+x,1/2-y,1/2+z
loop_
_atom_site_type_symbol
_atom_site_label
_atom_site_fract_x
_atom_site_fract_y
_atom_site_fract_z
Si Si1 0.329313 0.572715 0.406988
Si Si2 0.752050 0.685779 0.645822
Si Si3 0.097335 0.230021 0.160864
Si Si4 0.460793 0.047010 0.109927
Si Si5 0.954530 0.068290 0.863692
Si Si6 0.579056 0.189520 0.029378
O O1 0.329192 0.653153 0.346763
O O2 0.189129 0.554072 0.423675
O O3 0.422173 0.563885 0.534328
O O4 0.383137 0.510241 0.326855
O O5 0.808440 0.701351 0.787295
O O6 0.646619 0.625196 0.604525
O O7 0.697137 0.767428 0.606675
O O8 0.867645 0.657325 0.584893
O O9 0.000000 0.215775 0.250000
O O10 0.033218 0.253305 0.025233
O O11 0.500000 0.016103 0.250000
O O12 0.529688 0.126756 0.109386
O O13 0.500000 0.000000 0.000000
O O14 0.000000 0.102415 0.750000
#
# Coordination Sequence:
#
# PCOD8143513 Si02
#       6
#     8   8   8   8   8   8
#     4  11  25  45  68 100 139 183 236 294 348 424
#     4  10  21  41  69  99 138 177 231 287 351 420
#     4  10  21  40  69 102 136 183 228 287 356 419
#     4  12  29  48  72 102 141 190 239 292 352 416
#     4  11  25  42  68 100 134 182 233 293 356 413
#     4  10  22  42  66  97 134 178 229 283 349 416
#
# _framework density 22.314572999999999
#
# number of rings (size 3 to 8) (size 9 to 14) (size 15 to 20)
#    0.000    1.333    1.667    2.500    4.667    4.667 
#    0.000    0.000    0.000    0.000    0.000    0.000 
#    0.000    0.000    0.000    0.000    0.000    0.000 
#
# Total GULP energy -297408.186175 kJ/mol
# GULP energy per Si atom -12392.007757 kJ/mol
# Density = 2.226378 g / cm^3
# Si number density = 22.314573 Si / 1000 Ang^3
#
#
#
# Elastic Constant Matrix: (Units=GPa)
#
#
# Indices 1 2 3 4 5 6 
#
# 1 136.1962 36.5183 36.1996 0.0000 11.2991 0.0000
# 2 36.5183 69.3662 27.6818 0.0000 -3.0541 0.0000
# 3 36.1996 27.6818 90.8209 0.0000 -4.6632 0.0000
# 4 0.0000 0.0000 0.0000 34.3271 0.0000 -0.3897
# 5 11.2991 -3.0541 -4.6632 0.0000 25.1217 0.0000
# 6 0.0000 0.0000 0.0000 -0.3897 0.0000 31.6714
#
#
#
# Elastic Compliance Matrix: (Units=1/GPa)
#
#
# Indices 1 2 3 4 5 6 
#
# 1 0.009672 -0.004190 -0.002855 0.000000 -0.005389 0.000000
# 2 -0.004190 0.018256 -0.003719 0.000000 0.003414 0.000000
# 3 -0.002855 -0.003719 0.013453 0.000000 0.003329 0.000000
# 4 0.000000 0.000000 0.000000 0.029136 0.000000 0.000358
# 5 -0.005389 0.003414 0.003329 0.000000 0.043263 0.000000
# 6 0.000000 0.000000 0.000000 0.000358 0.000000 0.031579
#
#
# Mechanical properties :
#
#
# Convention : Reuss Voigt Hill
#
# Bulk Modulus (GPa) = 50.36813 55.24251 52.80532
# Shear Modulus (GPa) = 28.81783 31.28961 30.05372
#
# Velocity S-wave (km/s) = 3.59755 3.74867 3.67389
# Velocity P-wave (km/s) = 6.31485 6.59899 6.45848
#
# Compressibility (1/GPa) = 0.01985382
#
# Stress axis : x y z
#
# Youngs Moduli (GPa) = 103.39576 54.77507 74.33273
#
# Poissons Ratio (x) = 0.22949 0.21219
# Poissons Ratio (y) = 0.43320 0.27646
# Poissons Ratio (z) = 0.29515 0.20372
#
# Static dielectric constant tensor:
#      x y z
#    x 4.120390 0.000000 0.079630 
#    y 0.000000 3.987170 0.000000 
#    z 0.079630 0.000000 3.954200 
# 
# 
# High freq. dielectric constant tensor:
#      x y z
#    x 1.892000 0.000000 0.012150 
#    y 0.000000 1.873930 0.000000 
#    z 0.012150 0.000000 1.872350 
# 
# From -- ./inp_files/87466.got.cif
#   From: 2010.06.25/outbox.cif.g09.slc.cpg/sg15_44_cif.got.tgz:87466.got - 2010.06.28 07:06:18.
