data_PCOD8143863
_publ_section_title
;
Structure prediction by ZEFSAII (Michael W. Deem and Ramdas Pophale) SiO2 
 PCOD8143863
Probable space group: C 2/C
;
_chemical_formula_sum "Si O2"
_cell_formula_units_Z 56
_cell_length_a 8.857565
_cell_length_b 19.605612
_cell_length_c 14.427003
_cell_angle_alpha 90.000000
_cell_angle_beta 91.796732
_cell_angle_gamma 90.000000
_cell_volume 2504.132475
_symmetry_space_group_name_H-M "C 2/C"
_symmetry_group_IT_number 15
_symmetry_cell_setting 'monoclinic'
loop_
_space_group_symop_operation_xyz
x,y,z
-x,y,1/2-z
-x,-y,-z
x,-y,1/2+z
1/2+x,1/2+y,z
1/2-x,1/2+y,1/2-z
1/2-x,1/2-y,-z
1/2+x,1/2-y,1/2+z
loop_
_atom_site_type_symbol
_atom_site_label
_atom_site_fract_x
_atom_site_fract_y
_atom_site_fract_z
Si Si1 0.253043 0.877553 0.854465
Si Si2 0.478430 0.640024 0.487807
Si Si3 0.100751 0.930523 0.164284
Si Si4 0.970279 0.489256 0.892806
Si Si5 0.731165 0.420846 0.656121
Si Si6 0.410918 0.219641 0.481628
Si Si7 0.430095 0.869398 0.158923
O O1 0.213900 0.871409 0.745147
O O2 0.105046 0.863912 0.910884
O O3 0.307218 0.955377 0.873930
O O4 0.389491 0.826339 0.888538
O O5 0.507804 0.586365 0.569784
O O6 0.320465 0.621192 0.435761
O O7 0.472559 0.717343 0.529281
O O8 0.252614 0.885153 0.165224
O O9 0.000000 0.909387 0.250000
O O10 0.131322 0.011045 0.165462
O O11 0.094615 0.439863 0.850463
O O12 0.970922 0.561729 0.842886
O O13 0.000000 0.500000 0.000000
O O14 0.250000 0.250000 0.500000
O O15 0.464742 0.173605 0.568270
O O16 0.500000 0.830227 0.250000
#
# Coordination Sequence:
#
# PCOD8143863 Si02
#       7
#     8   8   8   8   8   8   8
#     4  11  20  41  65  90 126 168 208 261 318 375
#     4  11  23  43  65  92 128 171 214 253 321 384
#     4  11  22  41  62  95 130 164 201 271 324 367
#     4  11  21  40  66  93 130 163 205 269 326 367
#     4  11  24  37  65 103 125 162 215 266 315 384
#     4  10  21  41  66  83 126 173 209 250 319 380
#     4  11  22  39  66  94 119 163 220 257 313 381
#
# _framework density 22.363033000000001
#
# number of rings (size 3 to 8) (size 9 to 14) (size 15 to 20)
#    0.000    1.143    4.286    4.714    0.000    4.571 
#    0.000    2.143    0.000    0.000    0.000    0.000 
#    0.000    0.000    0.000    0.000    0.000    0.000 
#
# Total GULP energy -347212.033709 kJ/mol
# GULP energy per Si atom -12400.429775 kJ/mol
# Density = 2.231213 g / cm^3
# Si number density = 22.363033 Si / 1000 Ang^3
#
#
#
# Elastic Constant Matrix: (Units=GPa)
#
#
# Indices 1 2 3 4 5 6 
#
# 1 18.3285 17.7492 6.9544 0.0000 13.8659 0.0000
# 2 17.7492 98.0533 33.9627 0.0000 14.2002 0.0000
# 3 6.9544 33.9627 149.8171 0.0000 29.6404 0.0000
# 4 0.0000 0.0000 0.0000 16.0203 0.0000 -7.5495
# 5 13.8659 14.2002 29.6404 0.0000 45.6405 0.0000
# 6 0.0000 0.0000 0.0000 -7.5495 0.0000 13.3935
#
#
#
# Elastic Compliance Matrix: (Units=1/GPa)
#
#
# Indices 1 2 3 4 5 6 
#
# 1 0.083785 -0.013021 0.003783 0.000000 -0.023860 0.000000
# 2 -0.013021 0.013266 -0.002718 0.000000 0.001594 0.000000
# 3 0.003783 -0.002718 0.008233 0.000000 -0.005651 0.000000
# 4 0.000000 0.000000 0.000000 0.084998 0.000000 0.047911
# 5 -0.023860 0.001594 -0.005651 0.000000 0.032333 0.000000
# 6 0.000000 0.000000 0.000000 0.047911 0.000000 0.101669
#
#
# Mechanical properties :
#
#
# Convention : Reuss Voigt Hill
#
# Bulk Modulus (GPa) = 12.28931 42.61461 27.45196
# Shear Modulus (GPa) = 13.32193 28.84637 21.08415
#
# Velocity S-wave (km/s) = 2.44337 3.59543 3.07386
# Velocity P-wave (km/s) = 3.66979 6.02772 4.99003
#
# Compressibility (1/GPa) = 0.08137150
#
# Stress axis : x y z
#
# Youngs Moduli (GPa) = 11.93535 75.37890 121.45732
#
# Poissons Ratio (x) = 0.98153 -0.45949
# Poissons Ratio (y) = 0.15541 0.33015
# Poissons Ratio (z) = -0.04515 0.20490
#
# Static dielectric constant tensor:
#      x y z
#    x 4.083140 0.000000 0.181620 
#    y 0.000000 5.170210 0.000000 
#    z 0.181620 0.000000 4.390370 
# 
# 
# High freq. dielectric constant tensor:
#      x y z
#    x 1.863140 0.000000 0.018140 
#    y 0.000000 1.872960 0.000000 
#    z 0.018140 0.000000 1.893360 
# 
# From -- ./inp_files/136443.got.cif
#   From: 2010.06.25/outbox.cif.g09.slc.cpg/sg15_69_cif.got.tgz:136443.got - 2010.06.28 07:06:18.
