data_PCOD8143766
_publ_section_title
;
Structure prediction by ZEFSAII (Michael W. Deem and Ramdas Pophale) SiO2 
 PCOD8143766
Probable space group: C 2/C
;
_chemical_formula_sum "Si O2"
_cell_formula_units_Z 48
_cell_length_a 27.859621
_cell_length_b 9.511944
_cell_length_c 14.486410
_cell_angle_alpha 90.000000
_cell_angle_beta 143.936466
_cell_angle_gamma 90.000000
_cell_volume 2259.883295
_symmetry_space_group_name_H-M "C 2/C"
_symmetry_group_IT_number 15
_symmetry_cell_setting 'monoclinic'
loop_
_space_group_symop_operation_xyz
x,y,z
-x,y,1/2-z
-x,-y,-z
x,-y,1/2+z
1/2+x,1/2+y,z
1/2-x,1/2+y,1/2-z
1/2-x,1/2-y,-z
1/2+x,1/2-y,1/2+z
loop_
_atom_site_type_symbol
_atom_site_label
_atom_site_fract_x
_atom_site_fract_y
_atom_site_fract_z
Si Si1 0.884652 0.147323 0.220141
Si Si2 0.569268 0.636904 0.487118
Si Si3 0.833078 0.343192 0.985453
Si Si4 0.848793 0.153589 0.367236
Si Si5 0.668567 0.158319 0.490043
Si Si6 0.151589 0.843676 0.296802
O O1 0.892520 0.196495 0.339136
O O2 0.973997 0.129384 0.314065
O O3 0.839048 0.997657 0.143307
O O4 0.830317 0.255303 0.076430
O O5 0.605823 0.768673 0.489806
O O6 0.616350 0.492049 0.535954
O O7 0.577227 0.661377 0.609352
O O8 0.746336 0.362127 0.802497
O O9 0.863057 0.499110 0.057489
O O10 0.863516 0.273125 0.465434
O O11 0.765468 0.184606 0.630916
O O12 0.628774 0.230627 0.338728
#
# Coordination Sequence:
#
# PCOD8143766 Si02
#       6
#     8   8   8   8   8   8
#     4  11  24  42  65  92 129 169 210 258 317 385
#     4  11  23  44  66  90 128 171 210 258 317 384
#     4  12  22  40  62 100 126 162 211 266 315 370
#     4  11  21  42  65  93 124 166 221 255 309 376
#     4  11  23  37  64  97 123 159 207 274 305 365
#     4  10  21  41  64  92 123 163 216 253 313 372
#
# _framework density 21.240034999999999
#
# number of rings (size 3 to 8) (size 9 to 14) (size 15 to 20)
#    0.000    1.000    5.000    4.000    0.000    1.333 
#    0.000   10.833    0.000    0.000    0.000    0.000 
#    0.000    0.000    0.000    0.000    0.000    0.000 
#
# Total GULP energy -297618.223450 kJ/mol
# GULP energy per Si atom -12400.759310 kJ/mol
# Density = 2.119169 g / cm^3
# Si number density = 21.240035 Si / 1000 Ang^3
#
#
#
# Elastic Constant Matrix: (Units=GPa)
#
#
# Indices 1 2 3 4 5 6 
#
# 1 96.9381 56.8241 7.7974 0.0000 -4.0096 0.0000
# 2 56.8241 157.1595 27.8908 0.0000 -27.5831 0.0000
# 3 7.7974 27.8908 40.6630 0.0000 2.4307 0.0000
# 4 0.0000 0.0000 0.0000 28.9874 0.0000 -8.1634
# 5 -4.0096 -27.5831 2.4307 0.0000 34.7415 0.0000
# 6 0.0000 0.0000 0.0000 -8.1634 0.0000 35.1320
#
#
#
# Elastic Compliance Matrix: (Units=1/GPa)
#
#
# Indices 1 2 3 4 5 6 
#
# 1 0.013371 -0.005628 0.001478 0.000000 -0.003029 0.000000
# 2 -0.005628 0.011195 -0.007122 0.000000 0.008737 0.000000
# 3 0.001478 -0.007122 0.029646 0.000000 -0.007558 0.000000
# 4 0.000000 0.000000 0.000000 0.036913 0.000000 0.008577
# 5 -0.003029 0.008737 -0.007558 0.000000 0.035900 0.000000
# 6 0.000000 0.000000 0.000000 0.008577 0.000000 0.030457
#
#
# Mechanical properties :
#
#
# Convention : Reuss Voigt Hill
#
# Bulk Modulus (GPa) = 31.57887 53.30946 42.44416
# Shear Modulus (GPa) = 26.23516 33.25542 29.74529
#
# Velocity S-wave (km/s) = 3.51832 3.96118 3.74630
# Velocity P-wave (km/s) = 5.60398 6.78781 6.22410
#
# Compressibility (1/GPa) = 0.03166675
#
# Stress axis : x y z
#
# Youngs Moduli (GPa) = 74.78868 89.32234 33.73157
#
# Poissons Ratio (x) = 0.50274 -0.04984
# Poissons Ratio (y) = 0.42094 0.24023
# Poissons Ratio (z) = -0.11051 0.63615
#
# Static dielectric constant tensor:
#      x y z
#    x 3.876410 0.000000 -0.162260 
#    y 0.000000 3.873430 0.000000 
#    z -0.162260 0.000000 3.729260 
# 
# 
# High freq. dielectric constant tensor:
#      x y z
#    x 1.838700 0.000000 -0.012980 
#    y 0.000000 1.828970 0.000000 
#    z -0.012980 0.000000 1.826090 
# 
# From -- ./inp_files/176970.got.cif
#   From: 2010.06.25/outbox.cif.g09.slc.cpg/sg15_89_cif.got.tgz:176970.got - 2010.06.28 07:06:18.
