data_PCOD8143488
_publ_section_title
;
Structure prediction by ZEFSAII (Michael W. Deem and Ramdas Pophale) SiO2 
 PCOD8143488
Probable space group: C 2/C
;
_chemical_formula_sum "Si O2"
_cell_formula_units_Z 36
_cell_length_a 9.468935
_cell_length_b 17.606821
_cell_length_c 19.298761
_cell_angle_alpha 90.000000
_cell_angle_beta 148.446286
_cell_angle_gamma 90.000000
_cell_volume 1683.682957
_symmetry_space_group_name_H-M "C 2/C"
_symmetry_group_IT_number 15
_symmetry_cell_setting 'monoclinic'
loop_
_space_group_symop_operation_xyz
x,y,z
-x,y,1/2-z
-x,-y,-z
x,-y,1/2+z
1/2+x,1/2+y,z
1/2-x,1/2+y,1/2-z
1/2-x,1/2-y,-z
1/2+x,1/2-y,1/2+z
loop_
_atom_site_type_symbol
_atom_site_label
_atom_site_fract_x
_atom_site_fract_y
_atom_site_fract_z
Si Si1 0.778971 0.098223 0.397537
Si Si2 0.500000 0.585237 0.750000
Si Si3 0.100104 0.999554 0.927696
Si Si4 0.221277 0.290875 0.395564
Si Si5 0.933092 0.354855 0.027153
O O1 0.500000 0.131993 0.250000
O O2 0.868958 0.035232 0.379382
O O3 0.998804 0.164302 0.495620
O O4 0.737932 0.060137 0.456441
O O5 0.455280 0.536647 0.801014
O O6 0.761579 0.636935 0.870863
O O7 0.302460 0.937274 0.980980
O O8 0.074001 0.306509 0.406006
O O9 0.278438 0.200589 0.408107
O O10 0.000000 0.321151 0.250000
#
# Coordination Sequence:
#
# PCOD8143488 Si02
#       5
#     8   4   8   8   8
#     4  10  21  40  68  94 120 165 218 256 302 381
#     4  12  22  38  62  96 124 158 210 266 302 378
#     4  10  22  39  62  93 130 163 201 263 323 366
#     4  10  22  43  63  84 125 171 204 253 317 377
#     4  10  23  39  59  91 125 163 203 258 319 373
#
# _framework density 21.381698
#
# number of rings (size 3 to 8) (size 9 to 14) (size 15 to 20)
#    0.000    1.778    0.000    3.333    3.111    6.222 
#    8.000    2.222    0.000    0.000    0.000    0.000 
#    0.000    0.000    0.000    0.000    0.000    0.000 
#
# Total GULP energy -223156.613509 kJ/mol
# GULP energy per Si atom -12397.589639 kJ/mol
# Density = 2.133303 g / cm^3
# Si number density = 21.381698 Si / 1000 Ang^3
#
#
#
# Elastic Constant Matrix: (Units=GPa)
#
#
# Indices 1 2 3 4 5 6 
#
# 1 66.0985 37.9854 39.5984 0.0004 0.5031 -0.0008
# 2 37.9854 91.2587 36.5586 -0.0014 -0.2719 0.0004
# 3 39.5984 36.5586 142.4574 -0.0061 1.0155 -0.0035
# 4 0.0004 -0.0014 -0.0061 30.4363 -0.0004 -2.3250
# 5 0.5031 -0.2719 1.0155 -0.0004 37.1456 0.0038
# 6 -0.0008 0.0004 -0.0035 -2.3250 0.0038 16.3973
#
#
#
# Elastic Compliance Matrix: (Units=1/GPa)
#
#
# Indices 1 2 3 4 5 6 
#
# 1 0.021914 -0.007448 -0.004178 -0.000001 -0.000237 0.000000
# 2 -0.007448 0.014746 -0.001716 0.000000 0.000256 -0.000001
# 3 -0.004178 -0.001716 0.008623 0.000002 -0.000192 0.000002
# 4 -0.000001 0.000000 0.000002 0.033215 0.000000 0.004710
# 5 -0.000237 0.000256 -0.000192 0.000000 0.026931 -0.000006
# 6 0.000000 -0.000001 0.000002 0.004710 -0.000006 0.061654
#
#
# Mechanical properties :
#
#
# Convention : Reuss Voigt Hill
#
# Bulk Modulus (GPa) = 53.76793 58.67770 56.22281
# Shear Modulus (GPa) = 25.00402 29.17399 27.08900
#
# Velocity S-wave (km/s) = 3.42338 3.69784 3.56325
# Velocity P-wave (km/s) = 6.38962 6.76273 6.57882
#
# Compressibility (1/GPa) = 0.01859845
#
# Stress axis : x y z
#
# Youngs Moduli (GPa) = 45.63222 67.81374 115.97250
#
# Poissons Ratio (x) = 0.50511 0.48456
# Poissons Ratio (y) = 0.33989 0.19898
# Poissons Ratio (z) = 0.19066 0.11635
#
# Static dielectric constant tensor:
#      x y z
#    x 3.780650 -0.000010 -0.150360 
#    y -0.000010 3.960770 -0.000010 
#    z -0.150360 -0.000010 3.834670 
# 
# 
# High freq. dielectric constant tensor:
#      x y z
#    x 1.835480 0.000000 -0.001570 
#    y 0.000000 1.835690 0.000000 
#    z -0.001570 0.000000 1.839610 
# 
# From -- ./inp_files/50548.got.cif
#   From: 2010.06.25/outbox.cif.g09.slc.cpg/sg15_26_cif.got.tgz:50548.got - 2010.06.28 07:06:18.
