data_PCOD8143655
_publ_section_title
;
Structure prediction by ZEFSAII (Michael W. Deem and Ramdas Pophale) SiO2 
 PCOD8143655
Probable space group: C 2/C
;
_chemical_formula_sum "Si O2"
_cell_formula_units_Z 40
_cell_length_a 11.964988
_cell_length_b 11.983540
_cell_length_c 14.268285
_cell_angle_alpha 90.000000
_cell_angle_beta 109.806664
_cell_angle_gamma 90.000000
_cell_volume 1924.799848
_symmetry_space_group_name_H-M "C 2/C"
_symmetry_group_IT_number 15
_symmetry_cell_setting 'monoclinic'
loop_
_space_group_symop_operation_xyz
x,y,z
-x,y,1/2-z
-x,-y,-z
x,-y,1/2+z
1/2+x,1/2+y,z
1/2-x,1/2+y,1/2-z
1/2-x,1/2-y,-z
1/2+x,1/2-y,1/2+z
loop_
_atom_site_type_symbol
_atom_site_label
_atom_site_fract_x
_atom_site_fract_y
_atom_site_fract_z
Si Si1 0.486374 0.346104 0.012591
Si Si2 0.638970 0.500997 0.659121
Si Si3 0.414842 0.104232 0.986844
Si Si4 0.129391 0.616765 0.316552
Si Si5 0.836018 0.131122 0.656649
O O1 0.614447 0.397124 0.078140
O O2 0.394940 0.378132 0.070966
O O3 0.441365 0.398179 0.901252
O O4 0.497001 0.214155 0.000456
O O5 0.775565 0.464186 0.704416
O O6 0.604309 0.543660 0.753577
O O7 0.305194 0.106185 0.884118
O O8 0.351170 0.103613 0.068261
O O9 0.500000 0.000000 0.000000
O O10 0.146358 0.746071 0.293206
O O11 0.000000 0.573835 0.250000
#
# Coordination Sequence:
#
# PCOD8143655 Si02
#       5
#     8   8   8   8   8
#     4  10  21  41  62  91 123 161 210 246 309 369
#     4  11  21  36  67  89 122 159 204 256 300 365
#     4  11  21  39  64  91 124 159 204 261 304 366
#     4  11  21  39  62  92 120 158 211 251 303 369
#     4  11  20  38  63  90 118 164 211 243 304 367
#
# _framework density 20.781382000000001
#
# number of rings (size 3 to 8) (size 9 to 14) (size 15 to 20)
#    0.000    1.200    4.000    5.400    0.000    0.000 
#    0.000    1.000   13.200    0.000    0.000    0.000 
#    0.000    0.000    0.000    0.000    0.000    0.000 
#
# Total GULP energy -247880.804802 kJ/mol
# GULP energy per Si atom -12394.040240 kJ/mol
# Density = 2.073408 g / cm^3
# Si number density = 20.781382 Si / 1000 Ang^3
#
#
#
# Elastic Constant Matrix: (Units=GPa)
#
#
# Indices 1 2 3 4 5 6 
#
# 1 80.8125 54.0596 27.6341 0.0000 24.3915 0.0000
# 2 54.0596 151.7227 46.1049 0.0000 -2.6473 0.0000
# 3 27.6341 46.1049 90.5500 0.0000 10.4062 0.0000
# 4 0.0000 0.0000 0.0000 32.3342 0.0000 2.6659
# 5 24.3915 -2.6473 10.4062 0.0000 36.5630 0.0000
# 6 0.0000 0.0000 0.0000 2.6659 0.0000 35.6369
#
#
#
# Elastic Compliance Matrix: (Units=1/GPa)
#
#
# Indices 1 2 3 4 5 6 
#
# 1 0.022824 -0.008078 -0.001071 0.000000 -0.015506 0.000000
# 2 -0.008078 0.010766 -0.003851 0.000000 0.007264 0.000000
# 3 -0.001071 -0.003851 0.013730 0.000000 -0.003472 0.000000
# 4 0.000000 0.000000 0.000000 0.031119 0.000000 -0.002328
# 5 -0.015506 0.007264 -0.003472 0.000000 0.039209 0.000000
# 6 0.000000 0.000000 0.000000 -0.002328 0.000000 0.028235
#
#
# Mechanical properties :
#
#
# Convention : Reuss Voigt Hill
#
# Bulk Modulus (GPa) = 46.90121 64.29803 55.59962
# Shear Modulus (GPa) = 27.93455 33.92594 30.93024
#
# Velocity S-wave (km/s) = 3.67033 4.04482 3.86212
# Velocity P-wave (km/s) = 6.37021 7.26784 6.83378
#
# Compressibility (1/GPa) = 0.02132141
#
# Stress axis : x y z
#
# Youngs Moduli (GPa) = 43.81324 92.88349 72.83076
#
# Poissons Ratio (x) = 0.75027 0.07798
# Poissons Ratio (y) = 0.35390 0.28051
# Poissons Ratio (z) = 0.04691 0.35774
#
# Static dielectric constant tensor:
#      x y z
#    x 3.719950 0.000000 0.322600 
#    y 0.000000 4.088590 0.000000 
#    z 0.322600 0.000000 3.890520 
# 
# 
# High freq. dielectric constant tensor:
#      x y z
#    x 1.786620 0.000000 0.029750 
#    y 0.000000 1.808370 0.000000 
#    z 0.029750 0.000000 1.825760 
# 
# From -- ./inp_files/142381.got.cif
#   From: 2010.06.25/outbox.cif.g09.slc.cpg/sg15_72_cif.got.tgz:142381.got - 2010.06.28 07:06:18.
