data_PCOD8143407
_publ_section_title
;
Structure prediction by ZEFSAII (Michael W. Deem and Ramdas Pophale) SiO2 
 PCOD8143407
Probable space group: C 2/C
;
_chemical_formula_sum "Si O2"
_cell_formula_units_Z 52
_cell_length_a 26.153089
_cell_length_b 12.232968
_cell_length_c 12.011271
_cell_angle_alpha 90.000000
_cell_angle_beta 140.035161
_cell_angle_gamma 90.000000
_cell_volume 2468.274604
_symmetry_space_group_name_H-M "C 2/C"
_symmetry_group_IT_number 15
_symmetry_cell_setting 'monoclinic'
loop_
_space_group_symop_operation_xyz
x,y,z
-x,y,1/2-z
-x,-y,-z
x,-y,1/2+z
1/2+x,1/2+y,z
1/2-x,1/2+y,1/2-z
1/2-x,1/2-y,-z
1/2+x,1/2-y,1/2+z
loop_
_atom_site_type_symbol
_atom_site_label
_atom_site_fract_x
_atom_site_fract_y
_atom_site_fract_z
Si Si1 0.427742 0.250309 0.212583
Si Si2 0.037569 0.887797 0.014211
Si Si3 0.222202 0.107955 0.070548
Si Si4 0.695406 0.607274 0.632606
Si Si5 0.164165 0.660504 0.040896
Si Si6 0.316289 0.933740 0.514445
Si Si7 0.500000 0.255857 0.750000
O O1 0.500000 0.267721 0.250000
O O2 0.453404 0.299487 0.373036
O O3 0.403200 0.121663 0.178138
O O4 0.348629 0.306751 0.031471
O O5 0.124145 0.905144 0.103499
O O6 0.980526 0.835177 0.823568
O O7 0.000000 0.000000 0.000000
O O8 0.294999 0.130685 0.274609
O O9 0.255501 0.114091 0.002468
O O10 0.185056 0.988859 0.026996
O O11 0.695459 0.718822 0.560013
O O12 0.780384 0.599098 0.835139
O O13 0.178031 0.566596 0.971204
O O14 0.070231 0.674227 0.901426
#
# Coordination Sequence:
#
# PCOD8143407 Si02
#       7
#     8   8   8   8   8   8   4
#     4  12  25  42  69 100 134 174 227 279 332 401
#     4  11  24  41  68  99 136 173 218 283 340 391
#     4  11  22  42  70  95 130 172 226 278 332 397
#     4  10  21  40  66  95 129 172 216 276 333 389
#     4  10  23  41  65  94 133 177 216 268 332 398
#     4  11  22  42  66  94 130 176 223 270 325 407
#     4  10  24  44  62  94 144 174 218 280 332 406
#
# _framework density 21.067347999999999
#
# number of rings (size 3 to 8) (size 9 to 14) (size 15 to 20)
#    0.000    1.231    3.077    3.231    6.462    0.615 
#    5.538    1.538    0.000    0.000    0.000    0.000 
#    0.000    0.000    0.000    0.000    0.000    0.000 
#
# Total GULP energy -322228.146836 kJ/mol
# GULP energy per Si atom -12393.390263 kJ/mol
# Density = 2.101940 g / cm^3
# Si number density = 21.067348 Si / 1000 Ang^3
#
#
#
# Elastic Constant Matrix: (Units=GPa)
#
#
# Indices 1 2 3 4 5 6 
#
# 1 85.6592 35.7192 36.0259 0.0000 9.0554 0.0000
# 2 35.7192 137.8587 41.4392 0.0000 7.1638 0.0000
# 3 36.0259 41.4392 100.9768 0.0000 4.1774 0.0000
# 4 0.0000 0.0000 0.0000 27.3382 0.0000 2.4544
# 5 9.0554 7.1638 4.1774 0.0000 23.8739 0.0000
# 6 0.0000 0.0000 0.0000 2.4544 0.0000 29.6250
#
#
#
# Elastic Compliance Matrix: (Units=1/GPa)
#
#
# Indices 1 2 3 4 5 6 
#
# 1 0.014857 -0.002384 -0.004148 0.000000 -0.004194 0.000000
# 2 -0.002384 0.008744 -0.002686 0.000000 -0.001249 0.000000
# 3 -0.004148 -0.002686 0.012477 0.000000 0.000196 0.000000
# 4 0.000000 0.000000 0.000000 0.036853 0.000000 -0.003053
# 5 -0.004194 -0.001249 0.000196 0.000000 0.043818 0.000000
# 6 0.000000 0.000000 0.000000 -0.003053 0.000000 0.034008
#
#
# Mechanical properties :
#
#
# Convention : Reuss Voigt Hill
#
# Bulk Modulus (GPa) = 56.68835 61.20702 58.94768
# Shear Modulus (GPa) = 28.55922 30.25477 29.40699
#
# Velocity S-wave (km/s) = 3.68586 3.79370 3.74017
# Velocity P-wave (km/s) = 6.71421 6.95023 6.83324
#
# Compressibility (1/GPa) = 0.01764031
#
# Stress axis : x y z
#
# Youngs Moduli (GPa) = 67.31060 114.36529 80.14446
#
# Poissons Ratio (x) = 0.27269 0.33247
# Poissons Ratio (y) = 0.16050 0.21527
# Poissons Ratio (z) = 0.27923 0.30718
#
# Static dielectric constant tensor:
#      x y z
#    x 3.609970 0.000000 0.094230 
#    y 0.000000 4.259110 0.000000 
#    z 0.094230 0.000000 3.926690 
# 
# 
# High freq. dielectric constant tensor:
#      x y z
#    x 1.799270 0.000000 0.005450 
#    y 0.000000 1.842390 0.000000 
#    z 0.005450 0.000000 1.834020 
# 
# From -- ./inp_files/126469.got.cif
#   From: 2010.06.25/outbox.cif.g09.slc.cpg/sg15_64_cif.got.tgz:126469.got - 2010.06.28 07:06:18.
