data_PCOD8143567
_publ_section_title
;
Structure prediction by ZEFSAII (Michael W. Deem and Ramdas Pophale) SiO2 
 PCOD8143567
Probable space group: C 2/C
;
_chemical_formula_sum "Si O2"
_cell_formula_units_Z 64
_cell_length_a 9.341392
_cell_length_b 28.991696
_cell_length_c 19.515591
_cell_angle_alpha 90.000000
_cell_angle_beta 145.283856
_cell_angle_gamma 90.000000
_cell_volume 3010.018470
_symmetry_space_group_name_H-M "C 2/C"
_symmetry_group_IT_number 15
_symmetry_cell_setting 'monoclinic'
loop_
_space_group_symop_operation_xyz
x,y,z
-x,y,1/2-z
-x,-y,-z
x,-y,1/2+z
1/2+x,1/2+y,z
1/2-x,1/2+y,1/2-z
1/2-x,1/2-y,-z
1/2+x,1/2-y,1/2+z
loop_
_atom_site_type_symbol
_atom_site_label
_atom_site_fract_x
_atom_site_fract_y
_atom_site_fract_z
Si Si1 0.583656 0.408888 0.206643
Si Si2 0.750570 0.192170 0.759750
Si Si3 0.227205 0.286940 0.794628
Si Si4 0.815375 0.127952 0.241369
Si Si5 0.687360 0.685011 0.560608
Si Si6 0.459011 0.029132 0.654149
Si Si7 0.354596 0.067346 0.066884
Si Si8 0.509031 0.588453 0.048522
O O1 0.500000 0.420556 0.250000
O O2 0.603898 0.353818 0.205310
O O3 0.852228 0.431952 0.298485
O O4 0.383790 0.431599 0.076889
O O5 0.854862 0.235638 0.758720
O O6 0.454178 0.188495 0.627624
O O7 0.798942 0.204358 0.857672
O O8 0.267844 0.319198 0.744439
O O9 0.000000 0.308326 0.750000
O O10 0.483243 0.285598 0.938902
O O11 0.551841 0.104957 0.116786
O O12 0.000000 0.127086 0.250000
O O13 0.935543 0.099140 0.350725
O O14 0.619775 0.631423 0.539759
O O15 0.500000 0.019189 0.750000
O O16 0.174181 0.045095 0.529011
O O17 0.490651 0.982480 0.622246
O O18 0.266779 0.077809 0.110061
#
# Coordination Sequence:
#
# PCOD8143567 Si02
#       8
#     8   8   8   8   8   8   8   8
#     4  12  28  45  68 106 141 179 229 287 349 404
#     4  11  22  44  69 100 136 181 226 282 339 404
#     4  11  25  44  67 102 136 181 232 280 337 410
#     4  11  27  45  67 101 141 182 226 286 352 404
#     4  10  21  40  72  97 134 177 229 281 336 402
#     4  12  24  44  73 103 131 182 235 280 342 413
#     4  12  26  45  73  99 136 182 233 283 339 414
#     4  11  21  45  71 100 136 178 233 284 332 412
#
# _framework density 21.262328
#
# number of rings (size 3 to 8) (size 9 to 14) (size 15 to 20)
#    0.000    0.750    3.750    3.750    5.250    1.500 
#    2.250    0.000    0.000    0.000    0.000    0.000 
#    0.000    0.000    0.000    0.000    0.000    0.000 
#
# Total GULP energy -396984.898577 kJ/mol
# GULP energy per Si atom -12405.778081 kJ/mol
# Density = 2.121393 g / cm^3
# Si number density = 21.262328 Si / 1000 Ang^3
#
#
#
# Elastic Constant Matrix: (Units=GPa)
#
#
# Indices 1 2 3 4 5 6 
#
# 1 133.6341 32.5626 31.9060 -0.0011 -0.4383 0.0015
# 2 32.5626 122.0096 34.0662 -0.0005 -3.7350 0.0012
# 3 31.9060 34.0662 73.5796 -0.0114 -0.5308 -0.0013
# 4 -0.0011 -0.0005 -0.0114 27.8903 -0.0031 0.9400
# 5 -0.4383 -3.7350 -0.5308 -0.0031 30.5389 0.0016
# 6 0.0015 0.0012 -0.0013 0.9400 0.0016 27.4175
#
#
#
# Elastic Compliance Matrix: (Units=1/GPa)
#
#
# Indices 1 2 3 4 5 6 
#
# 1 0.008561 -0.001437 -0.003048 -0.000001 -0.000106 -0.000001
# 2 -0.001437 0.009690 -0.003855 -0.000001 0.001097 -0.000001
# 3 -0.003048 -0.003855 0.016695 0.000007 -0.000225 0.000001
# 4 -0.000001 -0.000001 0.000007 0.035896 0.000004 -0.001231
# 5 -0.000106 0.001097 -0.000225 0.000004 0.032874 -0.000002
# 6 -0.000001 -0.000001 0.000001 -0.001231 -0.000002 0.036515
#
#
# Mechanical properties :
#
#
# Convention : Reuss Voigt Hill
#
# Bulk Modulus (GPa) = 54.74559 58.47698 56.61129
# Shear Modulus (GPa) = 30.67505 32.54858 31.61181
#
# Velocity S-wave (km/s) = 3.80240 3.91680 3.86003
# Velocity P-wave (km/s) = 6.71426 6.92946 6.82271
#
# Compressibility (1/GPa) = 0.01826631
#
# Stress axis : x y z
#
# Youngs Moduli (GPa) = 116.81497 103.20379 59.89666
#
# Poissons Ratio (x) = 0.14831 0.18254
# Poissons Ratio (y) = 0.16787 0.23091
# Poissons Ratio (z) = 0.35599 0.39786
#
# Static dielectric constant tensor:
#      x y z
#    x 3.761360 0.000000 0.093020 
#    y 0.000000 3.817370 0.000000 
#    z 0.093020 0.000000 3.865770 
# 
# 
# High freq. dielectric constant tensor:
#      x y z
#    x 1.829200 0.000000 0.006470 
#    y 0.000000 1.839770 0.000000 
#    z 0.006470 0.000000 1.841770 
# 
# From -- ./inp_files/194249.got.cif
#   From: 2010.06.25/outbox.cif.g09.slc.cpg/sg15_98_cif.got.tgz:194249.got - 2010.06.28 07:06:18.
