data_PCOD8143098
_publ_section_title
;
Structure prediction by ZEFSAII (Michael W. Deem and Ramdas Pophale) SiO2 
 PCOD8143098
Probable space group: C 2/C
;
_chemical_formula_sum "Si O2"
_cell_formula_units_Z 48
_cell_length_a 11.163021
_cell_length_b 12.332794
_cell_length_c 17.208007
_cell_angle_alpha 90.000000
_cell_angle_beta 60.249458
_cell_angle_gamma 90.000000
_cell_volume 2056.793227
_symmetry_space_group_name_H-M "C 2/C"
_symmetry_group_IT_number 15
_symmetry_cell_setting 'monoclinic'
loop_
_space_group_symop_operation_xyz
x,y,z
-x,y,1/2-z
-x,-y,-z
x,-y,1/2+z
1/2+x,1/2+y,z
1/2-x,1/2+y,1/2-z
1/2-x,1/2-y,-z
1/2+x,1/2-y,1/2+z
loop_
_atom_site_type_symbol
_atom_site_label
_atom_site_fract_x
_atom_site_fract_y
_atom_site_fract_z
Si Si1 0.605311 0.098954 0.281501
Si Si2 0.804449 0.081028 0.976408
Si Si3 0.188073 0.595073 0.850122
Si Si4 0.091287 0.837625 0.337700
Si Si5 0.824686 0.151149 0.519759
Si Si6 0.634625 0.326864 0.887124
O O1 0.500000 0.056921 0.250000
O O2 0.549180 0.214760 0.328871
O O3 0.764553 0.105781 0.201941
O O4 0.601553 0.009908 0.351596
O O5 0.702608 0.099671 0.938038
O O6 0.959973 0.087375 0.894580
O O7 0.755723 0.963678 0.023700
O O8 0.791166 0.168246 0.051197
O O9 0.331833 0.602762 0.757567
O O10 0.109931 0.707641 0.859151
O O11 0.185110 0.828159 0.384905
O O12 0.750000 0.250000 0.500000
O O13 0.981590 0.126677 0.441810
#
# Coordination Sequence:
#
# PCOD8143098 Si02
#       6
#     8   8   8   8   8   8
#     4  11  23  41  62  90 125 163 206 260 317 376
#     4  11  21  40  64  88 122 166 206 249 308 383
#     4  11  22  37  61  92 121 157 207 262 309 363
#     4  10  21  40  62  87 124 169 209 246 313 393
#     4  11  23  41  64  92 123 160 207 262 311 365
#     4  10  23  41  62  89 123 163 205 249 311 378
#
# _framework density 23.337301
#
# number of rings (size 3 to 8) (size 9 to 14) (size 15 to 20)
#    0.000    1.333    0.000    8.000    0.000    4.000 
#    0.000   10.833    0.000    0.000    0.000    0.000 
#    0.000    0.000    0.000    0.000    0.000    0.000 
#
# Total GULP energy -297457.018517 kJ/mol
# GULP energy per Si atom -12394.042438 kJ/mol
# Density = 2.328418 g / cm^3
# Si number density = 23.337301 Si / 1000 Ang^3
#
#
#
# Elastic Constant Matrix: (Units=GPa)
#
#
# Indices 1 2 3 4 5 6 
#
# 1 63.3849 23.6313 10.2290 0.0000 19.5805 0.0000
# 2 23.6313 128.7097 23.0923 0.0000 15.2116 0.0000
# 3 10.2290 23.0923 74.8493 0.0000 12.2402 0.0000
# 4 0.0000 0.0000 0.0000 38.1679 0.0000 15.0955
# 5 19.5805 15.2116 12.2402 0.0000 39.4139 0.0000
# 6 0.0000 0.0000 0.0000 15.0955 0.0000 25.3574
#
#
#
# Elastic Compliance Matrix: (Units=1/GPa)
#
#
# Indices 1 2 3 4 5 6 
#
# 1 0.019414 -0.002466 -0.000496 0.000000 -0.008539 0.000000
# 2 -0.002466 0.008781 -0.002126 0.000000 -0.001504 0.000000
# 3 -0.000496 -0.002126 0.014654 0.000000 -0.003484 0.000000
# 4 0.000000 0.000000 0.000000 0.034268 0.000000 -0.020400
# 5 -0.008539 -0.001504 -0.003484 0.000000 0.031276 0.000000
# 6 0.000000 0.000000 0.000000 -0.020400 0.000000 0.051581
#
#
# Mechanical properties :
#
#
# Convention : Reuss Voigt Hill
#
# Bulk Modulus (GPa) = 30.60718 42.31656 36.46187
# Shear Modulus (GPa) = 27.61795 34.58726 31.10261
#
# Velocity S-wave (km/s) = 3.44383 3.85393 3.65463
# Velocity P-wave (km/s) = 5.38116 6.16244 5.78500
#
# Compressibility (1/GPa) = 0.03267207
#
# Stress axis : x y z
#
# Youngs Moduli (GPa) = 51.50950 113.87668 68.24241
#
# Poissons Ratio (x) = 0.28085 0.03384
# Poissons Ratio (y) = 0.12704 0.14510
# Poissons Ratio (z) = 0.02554 0.24213
#
# Static dielectric constant tensor:
#      x y z
#    x 3.873190 0.000000 0.177960 
#    y 0.000000 4.152830 0.000000 
#    z 0.177960 0.000000 4.386880 
# 
# 
# High freq. dielectric constant tensor:
#      x y z
#    x 1.897420 0.000000 0.006780 
#    y 0.000000 1.934380 0.000000 
#    z 0.006780 0.000000 1.930080 
# 
# From -- ./inp_files/196488.got.cif
#   From: 2010.06.25/outbox.cif.g09.slc.cpg/sg15_99_cif.got.tgz:196488.got - 2010.06.28 07:06:18.
