data_PCOD8143396
_publ_section_title
;
Structure prediction by ZEFSAII (Michael W. Deem and Ramdas Pophale) SiO2 
 PCOD8143396
Probable space group: C 2/C
;
_chemical_formula_sum "Si O2"
_cell_formula_units_Z 64
_cell_length_a 14.837544
_cell_length_b 14.527698
_cell_length_c 11.800725
_cell_angle_alpha 90.000000
_cell_angle_beta 68.007311
_cell_angle_gamma 90.000000
_cell_volume 2358.607955
_symmetry_space_group_name_H-M "C 2/C"
_symmetry_group_IT_number 15
_symmetry_cell_setting 'monoclinic'
loop_
_space_group_symop_operation_xyz
x,y,z
-x,y,1/2-z
-x,-y,-z
x,-y,1/2+z
1/2+x,1/2+y,z
1/2-x,1/2+y,1/2-z
1/2-x,1/2-y,-z
1/2+x,1/2-y,1/2+z
loop_
_atom_site_type_symbol
_atom_site_label
_atom_site_fract_x
_atom_site_fract_y
_atom_site_fract_z
Si Si1 0.858835 0.534742 0.913934
Si Si2 0.375367 0.854171 0.790992
Si Si3 0.668528 0.145956 0.790118
Si Si4 0.010903 0.353003 0.982724
Si Si5 0.641164 0.534742 0.086067
Si Si6 0.989097 0.146998 0.517275
Si Si7 0.668528 0.645956 0.290118
Si Si8 0.875366 0.145829 0.790992
O O1 0.882625 0.426369 0.890552
O O2 0.879001 0.583001 0.784290
O O3 0.928008 0.571148 0.979617
O O4 0.750000 0.556084 0.999999
O O5 0.468944 0.861336 0.662677
O O6 0.278794 0.882636 0.766177
O O7 0.365519 0.750000 0.845090
O O8 0.602843 0.133529 0.933775
O O9 0.666697 0.250000 0.745461
O O10 0.778794 0.117364 0.766178
O O11 0.044469 0.250000 0.004307
O O12 0.571991 0.571148 0.020385
O O13 0.621000 0.583001 0.215710
O O14 0.617375 0.426369 0.109448
O O15 0.968944 0.138663 0.662676
O O16 0.102844 0.133530 0.433776
#
# Coordination Sequence:
#
# PCOD8143396 Si02
#       8
#     8   8   8   8   8   8   8   8
#     4  12  23  37  64  97 127 160 210 257 315 369
#     4  10  23  44  64  88 127 168 209 256 308 373
#     4  10  21  40  66  93 124 163 207 259 313 367
#     4  10  22  42  67  93 123 163 209 259 314 368
#     4  12  23  37  64  97 127 160 210 257 315 369
#     4  10  22  42  67  93 123 163 209 259 314 368
#     4  10  21  40  66  93 124 163 207 259 313 367
#     4  10  23  44  64  88 127 168 209 256 308 373
#
# _framework density 27.134651999999999
#
# number of rings (size 3 to 8) (size 9 to 14) (size 15 to 20)
#    0.000    1.500    2.500    2.250    0.000    4.500 
#    4.500    0.000    0.000    3.000    0.000    0.000 
#    0.000    0.000    0.000    0.000    0.000    0.000 
#
# Total GULP energy -397031.667809 kJ/mol
# GULP energy per Si atom -12407.239619 kJ/mol
# Density = 2.707289 g / cm^3
# Si number density = 27.134652 Si / 1000 Ang^3
#
#
#
# Elastic Constant Matrix: (Units=GPa)
#
#
# Indices 1 2 3 4 5 6 
#
# 1 53.4119 34.8432 19.5740 0.0000 -11.4272 0.0000
# 2 34.8432 132.8799 46.4436 0.0000 25.6010 0.0000
# 3 19.5740 46.4436 137.4443 0.0000 -0.0001 0.0000
# 4 0.0000 0.0000 0.0000 46.3243 0.0000 5.0144
# 5 -11.4272 25.6010 -0.0001 0.0000 52.7281 0.0000
# 6 0.0000 0.0000 0.0000 5.0144 0.0000 40.8884
#
#
#
# Elastic Compliance Matrix: (Units=1/GPa)
#
#
# Indices 1 2 3 4 5 6 
#
# 1 0.026841 -0.008654 -0.000898 0.000000 0.010019 0.000000
# 2 -0.008654 0.012336 -0.002936 0.000000 -0.007865 0.000000
# 3 -0.000898 -0.002936 0.008396 0.000000 0.001231 0.000000
# 4 0.000000 0.000000 0.000000 0.021877 0.000000 -0.002683
# 5 0.010019 -0.007865 0.001231 0.000000 0.024955 0.000000
# 6 0.000000 0.000000 0.000000 -0.002683 0.000000 0.024786
#
#
# Mechanical properties :
#
#
# Convention : Reuss Voigt Hill
#
# Bulk Modulus (GPa) = 44.25623 58.38419 51.32021
# Shear Modulus (GPa) = 32.95970 42.84652 37.90311
#
# Velocity S-wave (km/s) = 3.48900 3.97802 3.74150
# Velocity P-wave (km/s) = 5.70754 6.53167 6.13346
#
# Compressibility (1/GPa) = 0.02259569
#
# Stress axis : x y z
#
# Youngs Moduli (GPa) = 37.25688 81.06050 119.10845
#
# Poissons Ratio (x) = 0.70153 0.10697
# Poissons Ratio (y) = 0.32244 0.34971
# Poissons Ratio (z) = 0.03346 0.23800
#
# Static dielectric constant tensor:
#      x y z
#    x 4.818480 0.000000 -0.298620 
#    y 0.000000 5.143670 0.000000 
#    z -0.298620 0.000000 4.928980 
# 
# 
# High freq. dielectric constant tensor:
#      x y z
#    x 2.107310 0.000000 -0.011470 
#    y 0.000000 2.108260 0.000000 
#    z -0.011470 0.000000 2.101230 
# 
# From -- ./inp_files/162516.got.cif
#   From: 2010.06.25/outbox.cif.g09.slc.cpg/sg15_82_cif.got.tgz:162516.got - 2010.06.28 07:06:18.
