data_PCOD8143345
_publ_section_title
;
Structure prediction by ZEFSAII (Michael W. Deem and Ramdas Pophale) SiO2 
 PCOD8143345
Probable space group: C 2/C
;
_chemical_formula_sum "Si O2"
_cell_formula_units_Z 44
_cell_length_a 4.985517
_cell_length_b 17.854212
_cell_length_c 24.509642
_cell_angle_alpha 90.000000
_cell_angle_beta 108.572829
_cell_angle_gamma 90.000000
_cell_volume 2068.041940
_symmetry_space_group_name_H-M "C 2/C"
_symmetry_group_IT_number 15
_symmetry_cell_setting 'monoclinic'
loop_
_space_group_symop_operation_xyz
x,y,z
-x,y,1/2-z
-x,-y,-z
x,-y,1/2+z
1/2+x,1/2+y,z
1/2-x,1/2+y,1/2-z
1/2-x,1/2-y,-z
1/2+x,1/2-y,1/2+z
loop_
_atom_site_type_symbol
_atom_site_label
_atom_site_fract_x
_atom_site_fract_y
_atom_site_fract_z
Si Si1 0.624998 0.645831 0.602527
Si Si2 0.513752 0.432092 0.687482
Si Si3 0.180022 0.829329 0.520494
Si Si4 0.728840 0.683150 0.406306
Si Si5 0.000000 0.470614 0.250000
Si Si6 0.791720 0.424243 0.342883
O O1 0.431428 0.621888 0.538020
O O2 0.711628 0.732830 0.610117
O O3 0.457707 0.626992 0.647720
O O4 0.907132 0.597625 0.612943
O O5 0.500000 0.410387 0.750000
O O6 0.477260 0.356453 0.650749
O O7 0.810405 0.475906 0.698419
O O8 0.270556 0.488257 0.650127
O O9 0.250000 0.750000 0.500000
O O10 0.469479 0.860277 0.566663
O O11 0.928544 0.818472 0.546579
O O12 0.191595 0.417897 0.222834
#
# Coordination Sequence:
#
# PCOD8143345 Si02
#       6
#     8   8   8   8   4   8
#     4  11  21  40  67  98 125 165 212 265 308 385
#     4  10  24  44  67  89 128 173 212 261 324 384
#     4  10  21  40  65  95 133 169 201 252 333 384
#     4  11  23  41  69  97 126 168 212 263 315 377
#     4  10  22  46  68  86 128 186 212 254 342 392
#     4  11  22  41  67  89 127 169 213 254 322 378
#
# _framework density 21.276164999999999
#
# number of rings (size 3 to 8) (size 9 to 14) (size 15 to 20)
#    0.000    1.455    1.818    5.455    5.091    0.000 
#    1.636    5.455    0.000    0.000    0.000    0.000 
#    0.000    0.000    0.000    0.000    0.000    0.000 
#
# Total GULP energy -272583.861430 kJ/mol
# GULP energy per Si atom -12390.175520 kJ/mol
# Density = 2.122774 g / cm^3
# Si number density = 21.276165 Si / 1000 Ang^3
#
#
#
# Elastic Constant Matrix: (Units=GPa)
#
#
# Indices 1 2 3 4 5 6 
#
# 1 140.1097 36.7228 47.6289 0.0000 -4.7631 0.0000
# 2 36.7228 67.3002 68.3398 0.0000 -0.7229 0.0000
# 3 47.6289 68.3398 109.3800 0.0000 2.9137 0.0000
# 4 0.0000 0.0000 0.0000 31.6205 0.0000 11.0878
# 5 -4.7631 -0.7229 2.9137 0.0000 52.1667 0.0000
# 6 0.0000 0.0000 0.0000 11.0878 0.0000 26.0527
#
#
#
# Elastic Compliance Matrix: (Units=1/GPa)
#
#
# Indices 1 2 3 4 5 6 
#
# 1 0.008558 -0.002332 -0.002293 0.000000 0.000877 0.000000
# 2 -0.002332 0.041489 -0.024953 0.000000 0.001756 0.000000
# 3 -0.002293 -0.024953 0.025785 0.000000 -0.001995 0.000000
# 4 0.000000 0.000000 0.000000 0.037173 0.000000 -0.015820
# 5 0.000877 0.001756 -0.001995 0.000000 0.019385 0.000000
# 6 0.000000 0.000000 0.000000 -0.015820 0.000000 0.045117
#
#
# Mechanical properties :
#
#
# Convention : Reuss Voigt Hill
#
# Bulk Modulus (GPa) = 59.96954 69.13033 64.54993
# Shear Modulus (GPa) = 20.64240 32.90786 26.77513
#
# Velocity S-wave (km/s) = 3.11820 3.93708 3.55132
# Velocity P-wave (km/s) = 6.41963 7.29588 6.87174
#
# Compressibility (1/GPa) = 0.01667513
#
# Stress axis : x y z
#
# Youngs Moduli (GPa) = 116.85394 24.10288 38.78287
#
# Poissons Ratio (x) = 0.05621 0.08892
# Poissons Ratio (y) = 0.27250 0.96776
# Poissons Ratio (z) = 0.26792 0.60145
#
# Static dielectric constant tensor:
#      x y z
#    x 4.450910 0.000000 0.349280 
#    y 0.000000 3.485760 0.000000 
#    z 0.349280 0.000000 4.005510 
# 
# 
# High freq. dielectric constant tensor:
#      x y z
#    x 1.863390 0.000000 0.002350 
#    y 0.000000 1.794260 0.000000 
#    z 0.002350 0.000000 1.835330 
# 
# From -- ./inp_files/260798.got.cif
#   From: 2010.06.25/outbox.cif.g09.slc.cpg/sg15_131_cif.got.tgz:260798.got - 2010.06.28 07:06:18.
