data_PCOD8143660
_publ_section_title
;
Structure prediction by ZEFSAII (Michael W. Deem and Ramdas Pophale) SiO2 
 PCOD8143660
Probable space group: C 2/C
;
_chemical_formula_sum "Si O2"
_cell_formula_units_Z 64
_cell_length_a 22.305786
_cell_length_b 9.449196
_cell_length_c 29.199851
_cell_angle_alpha 90.000000
_cell_angle_beta 149.810122
_cell_angle_gamma 90.000000
_cell_volume 3094.898283
_symmetry_space_group_name_H-M "C 2/C"
_symmetry_group_IT_number 15
_symmetry_cell_setting 'monoclinic'
loop_
_space_group_symop_operation_xyz
x,y,z
-x,y,1/2-z
-x,-y,-z
x,-y,1/2+z
1/2+x,1/2+y,z
1/2-x,1/2+y,1/2-z
1/2-x,1/2-y,-z
1/2+x,1/2-y,1/2+z
loop_
_atom_site_type_symbol
_atom_site_label
_atom_site_fract_x
_atom_site_fract_y
_atom_site_fract_z
Si Si1 0.835500 0.279657 0.760580
Si Si2 0.768126 0.598097 0.729038
Si Si3 0.541414 0.340911 0.025872
Si Si4 0.413044 0.385818 0.231046
Si Si5 0.272621 0.018319 0.954699
Si Si6 0.474410 0.796938 0.082299
Si Si7 0.422809 0.269630 0.036738
Si Si8 0.100885 0.026073 0.419755
O O1 0.764499 0.426449 0.722514
O O2 0.781229 0.149451 0.754332
O O3 0.835188 0.233781 0.706590
O O4 0.973048 0.300531 0.864188
O O5 0.682172 0.664612 0.632865
O O6 0.902162 0.655120 0.812878
O O7 0.460722 0.255653 0.008945
O O8 0.500000 0.500000 0.000000
O O9 0.509097 0.271717 0.956434
O O10 0.500000 0.314463 0.250000
O O11 0.329696 0.502640 0.151062
O O12 0.487903 0.475531 0.316523
O O13 0.223926 0.986490 0.973125
O O14 0.388297 0.929065 0.019028
O O15 0.304508 0.183748 0.971160
O O16 0.412612 0.688590 0.075919
O O17 0.395046 0.432453 0.031413
#
# Coordination Sequence:
#
# PCOD8143660 Si02
#       8
#     8   8   8   8   8   8   8   8
#     4  10  22  41  64  92 125 166 207 259 324 370
#     4  11  25  41  65  96 132 167 207 268 317 382
#     4  11  24  42  64  95 124 170 214 250 326 383
#     4   9  22  40  66  91 124 168 214 256 312 382
#     4  11  23  40  64  97 122 164 221 262 314 378
#     4  12  25  41  66  95 131 166 209 269 319 378
#     4  10  21  41  62  92 124 161 213 262 314 382
#     4  10  22  43  66  86 129 174 206 260 323 377
#
# _framework density 20.679193000000001
#
# number of rings (size 3 to 8) (size 9 to 14) (size 15 to 20)
#    0.000    1.500    2.500    1.500    8.750    1.500 
#    0.000    0.000    0.000    0.000    0.000    0.000 
#    0.000    0.000    0.000    0.000    0.000    0.000 
#
# Total GULP energy -396748.776271 kJ/mol
# GULP energy per Si atom -12398.399258 kJ/mol
# Density = 2.063213 g / cm^3
# Si number density = 20.679193 Si / 1000 Ang^3
#
#
#
# Elastic Constant Matrix: (Units=GPa)
#
#
# Indices 1 2 3 4 5 6 
#
# 1 112.6429 43.7405 35.7026 0.0000 0.2697 0.0000
# 2 43.7405 91.1609 25.2857 0.0000 2.0253 -0.0001
# 3 35.7026 25.2857 73.7972 -0.0001 9.4543 0.0000
# 4 0.0000 0.0000 -0.0001 25.9576 0.0000 7.8479
# 5 0.2697 2.0253 9.4543 0.0000 28.6230 0.0000
# 6 0.0000 -0.0001 0.0000 7.8479 0.0000 38.4457
#
#
#
# Elastic Compliance Matrix: (Units=1/GPa)
#
#
# Indices 1 2 3 4 5 6 
#
# 1 0.012078 -0.004588 -0.004488 0.000000 0.001693 0.000000
# 2 -0.004588 0.013872 -0.002520 0.000000 -0.000106 0.000000
# 3 -0.004488 -0.002520 0.017289 0.000000 -0.005490 0.000000
# 4 0.000000 0.000000 0.000000 0.041058 0.000000 -0.008381
# 5 0.001693 -0.000106 -0.005490 0.000000 0.036742 0.000000
# 6 0.000000 0.000000 0.000000 -0.008381 0.000000 0.027722
#
#
# Mechanical properties :
#
#
# Convention : Reuss Voigt Hill
#
# Bulk Modulus (GPa) = 49.88317 54.11761 52.00039
# Shear Modulus (GPa) = 27.99019 30.13009 29.06014
#
# Velocity S-wave (km/s) = 3.68304 3.82124 3.75278
# Velocity P-wave (km/s) = 6.50086 6.75989 6.63164
#
# Compressibility (1/GPa) = 0.02004684
#
# Stress axis : x y z
#
# Youngs Moduli (GPa) = 82.79845 72.08643 57.84125
#
# Poissons Ratio (x) = 0.33071 0.25959
# Poissons Ratio (y) = 0.37986 0.14576
# Poissons Ratio (z) = 0.37160 0.18166
#
# Static dielectric constant tensor:
#      x y z
#    x 3.894130 0.000000 -0.037990 
#    y 0.000000 3.641330 0.000000 
#    z -0.037990 0.000000 3.963070 
# 
# 
# High freq. dielectric constant tensor:
#      x y z
#    x 1.811800 0.000000 0.005830 
#    y 0.000000 1.794820 0.000000 
#    z 0.005830 0.000000 1.817710 
# 
# From -- ./inp_files/318631.got.cif
#   From: 2010.06.25/outbox.cif.g09.slc.cpg/sg15_160_cif.got.tgz:318631.got - 2010.06.28 07:06:18.
