data_PCOD8143165
_publ_section_title
;
Structure prediction by ZEFSAII (Michael W. Deem and Ramdas Pophale) SiO2 
 PCOD8143165
Probable space group: C 2/C
;
_chemical_formula_sum "Si O2"
_cell_formula_units_Z 64
_cell_length_a 16.411591
_cell_length_b 12.156888
_cell_length_c 20.346636
_cell_angle_alpha 90.000000
_cell_angle_beta 131.469923
_cell_angle_gamma 90.000000
_cell_volume 3041.749544
_symmetry_space_group_name_H-M "C 2/C"
_symmetry_group_IT_number 15
_symmetry_cell_setting 'monoclinic'
loop_
_space_group_symop_operation_xyz
x,y,z
-x,y,1/2-z
-x,-y,-z
x,-y,1/2+z
1/2+x,1/2+y,z
1/2-x,1/2+y,1/2-z
1/2-x,1/2-y,-z
1/2+x,1/2-y,1/2+z
loop_
_atom_site_type_symbol
_atom_site_label
_atom_site_fract_x
_atom_site_fract_y
_atom_site_fract_z
Si Si1 0.204942 0.353041 0.218458
Si Si2 0.603633 0.634052 0.346861
Si Si3 0.601050 0.974709 0.927231
Si Si4 0.965797 0.281697 0.078142
Si Si5 0.305066 0.212865 0.380174
Si Si6 0.627531 0.180184 0.329092
Si Si7 0.786057 0.089630 0.620794
Si Si8 0.363173 0.080616 0.297711
O O1 0.290232 0.302227 0.315047
O O2 0.271220 0.392873 0.190372
O O3 0.160769 0.456735 0.235504
O O4 0.097594 0.279477 0.144275
O O5 0.500000 0.669745 0.250000
O O6 0.577644 0.673894 0.406701
O O7 0.705762 0.705761 0.377335
O O8 0.625226 0.503525 0.351325
O O9 0.656667 0.925429 0.890696
O O10 0.491705 0.904795 0.877224
O O11 0.580340 0.106031 0.912639
O O12 0.673120 0.948162 0.029012
O O13 0.917696 0.268877 0.979023
O O14 0.308027 0.100734 0.339188
O O15 0.500000 0.190906 0.250000
O O16 0.673508 0.292460 0.385653
O O17 0.680545 0.159069 0.284783
#
# Coordination Sequence:
#
# PCOD8143165 Si02
#       8
#     8   8   8   8   8   8   8   8
#     4  11  23  39  67  93 125 168 214 269 316 382
#     4  12  25  40  63  93 132 170 207 260 333 388
#     4  10  22  38  64  91 121 156 215 268 313 370
#     4  11  24  41  65  97 125 162 220 270 315 378
#     4  12  22  41  65  88 129 166 208 266 327 376
#     4  10  22  38  59  88 121 164 204 256 314 384
#     4  12  22  40  62  89 127 166 208 256 326 385
#     4  10  21  40  63  91 121 162 217 261 320 374
#
# _framework density 21.040523
#
# number of rings (size 3 to 8) (size 9 to 14) (size 15 to 20)
#    0.000    1.000    5.000    1.875    1.750    2.500 
#    0.000    0.000    0.000    1.500    0.000    0.000 
#    0.000    0.000    0.000    0.000    0.000    0.000 
#
# Total GULP energy -396628.942698 kJ/mol
# GULP energy per Si atom -12394.654459 kJ/mol
# Density = 2.099263 g / cm^3
# Si number density = 21.040523 Si / 1000 Ang^3
#
#
#
# Elastic Constant Matrix: (Units=GPa)
#
#
# Indices 1 2 3 4 5 6 
#
# 1 58.0762 32.3013 12.2929 0.0000 -15.3084 0.0000
# 2 32.3013 94.6828 50.2272 0.0000 -8.7468 0.0000
# 3 12.2929 50.2272 91.2358 0.0000 -6.9570 0.0000
# 4 0.0000 0.0000 0.0000 31.6174 0.0000 -5.9341
# 5 -15.3084 -8.7468 -6.9570 0.0000 29.4048 0.0000
# 6 0.0000 0.0000 0.0000 -5.9341 0.0000 24.2966
#
#
#
# Elastic Compliance Matrix: (Units=1/GPa)
#
#
# Indices 1 2 3 4 5 6 
#
# 1 0.024263 -0.008462 0.002200 0.000000 0.010635 0.000000
# 2 -0.008462 0.018058 -0.008888 0.000000 -0.001137 0.000000
# 3 0.002200 -0.008888 0.015727 0.000000 0.002223 0.000000
# 4 0.000000 0.000000 0.000000 0.033148 0.000000 0.008096
# 5 0.010635 -0.001137 0.002223 0.000000 0.039732 0.000000
# 6 0.000000 0.000000 0.000000 0.008096 0.000000 0.043135
#
#
# Mechanical properties :
#
#
# Convention : Reuss Voigt Hill
#
# Bulk Modulus (GPa) = 36.03822 48.18198 42.11010
# Shear Modulus (GPa) = 23.40693 27.00866 25.20780
#
# Velocity S-wave (km/s) = 3.33899 3.58669 3.46505
# Velocity P-wave (km/s) = 5.65953 6.33260 6.00550
#
# Compressibility (1/GPa) = 0.02774832
#
# Stress axis : x y z
#
# Youngs Moduli (GPa) = 41.21532 55.37604 63.58641
#
# Poissons Ratio (x) = 0.46860 -0.13992
# Poissons Ratio (y) = 0.34877 0.56516
# Poissons Ratio (z) = -0.09069 0.49218
#
# Static dielectric constant tensor:
#      x y z
#    x 3.738570 0.000000 -0.037750 
#    y 0.000000 3.906290 0.000000 
#    z -0.037750 0.000000 3.857550 
# 
# 
# High freq. dielectric constant tensor:
#      x y z
#    x 1.814480 0.000000 -0.003070 
#    y 0.000000 1.823390 0.000000 
#    z -0.003070 0.000000 1.825990 
# 
# From -- ./inp_files/248649.got.cif
#   From: 2010.06.25/outbox.cif.g09.slc.cpg/sg15_125_cif.got.tgz:248649.got - 2010.06.28 07:06:18.
