data_PCOD8143287
_publ_section_title
;
Structure prediction by ZEFSAII (Michael W. Deem and Ramdas Pophale) SiO2 
 PCOD8143287
Probable space group: C 2/C
;
_chemical_formula_sum "Si O2"
_cell_formula_units_Z 56
_cell_length_a 9.431686
_cell_length_b 11.347292
_cell_length_c 22.477406
_cell_angle_alpha 90.000000
_cell_angle_beta 77.964045
_cell_angle_gamma 90.000000
_cell_volume 2352.741052
_symmetry_space_group_name_H-M "C 2/C"
_symmetry_group_IT_number 15
_symmetry_cell_setting 'monoclinic'
loop_
_space_group_symop_operation_xyz
x,y,z
-x,y,1/2-z
-x,-y,-z
x,-y,1/2+z
1/2+x,1/2+y,z
1/2-x,1/2+y,1/2-z
1/2-x,1/2-y,-z
1/2+x,1/2-y,1/2+z
loop_
_atom_site_type_symbol
_atom_site_label
_atom_site_fract_x
_atom_site_fract_y
_atom_site_fract_z
Si Si1 0.313533 0.617366 0.997810
Si Si2 0.411483 0.841580 0.453494
Si Si3 0.388335 0.039376 0.068338
Si Si4 0.195259 0.760971 0.885703
Si Si5 0.623417 0.607984 0.930671
Si Si6 0.138388 0.984486 0.815606
Si Si7 0.191858 0.021000 0.679830
O O1 0.243141 0.717902 0.050562
O O2 0.363862 0.519931 0.040753
O O3 0.203490 0.564780 0.958250
O O4 0.464101 0.660956 0.954396
O O5 0.410803 0.844300 0.526523
O O6 0.522009 0.752263 0.412858
O O7 0.250636 0.690859 0.552759
O O8 0.456875 0.977020 0.431057
O O9 0.303595 0.068241 0.136623
O O10 0.277237 0.652987 0.847006
O O11 0.209547 0.868141 0.838388
O O12 0.657771 0.595342 0.857629
O O13 0.222856 0.014567 0.747398
O O14 0.966971 0.971793 0.819489
#
# Coordination Sequence:
#
# PCOD8143287 Si02
#       7
#     8   8   8   8   8   8   8
#     4   9  17  32  61  84 118 162 205 246 310 381
#     4   9  19  32  57  90 127 150 201 265 312 370
#     4   9  17  36  58  88 126 165 195 257 325 361
#     4  10  22  39  63  92 120 165 213 255 322 387
#     4   9  17  34  56  86 121 161 199 254 312 359
#     4  10  21  42  64  84 123 172 209 261 309 378
#     4  10  21  40  65  85 125 166 212 264 301 387
#
# _framework density 23.802025
#
# number of rings (size 3 to 8) (size 9 to 14) (size 15 to 20)
#    0.000    2.571    1.429    0.000    2.000    2.857 
#    5.143    2.143   40.857    0.000    0.000    0.000 
#    0.000    0.000    0.000    0.000    0.000    0.000 
#
# Total GULP energy -346874.280728 kJ/mol
# GULP energy per Si atom -12388.367169 kJ/mol
# Density = 2.374785 g / cm^3
# Si number density = 23.802025 Si / 1000 Ang^3
#
#
#
# Elastic Constant Matrix: (Units=GPa)
#
#
# Indices 1 2 3 4 5 6 
#
# 1 85.7117 16.1858 22.9902 0.0000 -8.2835 0.0000
# 2 16.1858 43.8354 33.6661 0.0000 -1.2838 0.0000
# 3 22.9902 33.6661 206.6950 0.0000 -14.8230 0.0000
# 4 0.0000 0.0000 0.0000 29.8311 0.0000 -6.1394
# 5 -8.2835 -1.2838 -14.8230 0.0000 38.1377 0.0000
# 6 0.0000 0.0000 0.0000 -6.1394 0.0000 29.5359
#
#
#
# Elastic Compliance Matrix: (Units=1/GPa)
#
#
# Indices 1 2 3 4 5 6 
#
# 1 0.012854 -0.004241 -0.000565 0.000000 0.002430 0.000000
# 2 -0.004241 0.027497 -0.004122 0.000000 -0.001598 0.000000
# 3 -0.000565 -0.004122 0.005713 0.000000 0.001959 0.000000
# 4 0.000000 0.000000 0.000000 0.035020 0.000000 0.007279
# 5 0.002430 -0.001598 0.001959 0.000000 0.027456 0.000000
# 6 0.000000 0.000000 0.000000 0.007279 0.000000 0.035370
#
#
# Mechanical properties :
#
#
# Convention : Reuss Voigt Hill
#
# Bulk Modulus (GPa) = 35.44982 53.54740 44.49861
# Shear Modulus (GPa) = 29.21090 37.06094 33.13592
#
# Velocity S-wave (km/s) = 3.50701 3.95023 3.73520
# Velocity P-wave (km/s) = 5.59685 6.58419 6.11050
#
# Compressibility (1/GPa) = 0.02820889
#
# Stress axis : x y z
#
# Youngs Moduli (GPa) = 77.79524 36.36718 175.05039
#
# Poissons Ratio (x) = 0.15425 0.09884
# Poissons Ratio (y) = 0.32997 0.72147
# Poissons Ratio (z) = 0.04393 0.14989
#
# Static dielectric constant tensor:
#      x y z
#    x 4.248130 0.000000 -0.079500 
#    y 0.000000 4.143130 0.000000 
#    z -0.079500 0.000000 4.657240 
# 
# 
# High freq. dielectric constant tensor:
#      x y z
#    x 1.943350 0.000000 -0.007880 
#    y 0.000000 1.942560 0.000000 
#    z -0.007880 0.000000 1.938890 
# 
# From -- ./inp_files/236948.got.cif
#   From: 2010.06.25/outbox.cif.g09.slc.cpg/sg15_119_cif.got.tgz:236948.got - 2010.06.28 07:06:18.
