data_PCOD8143935
_publ_section_title
;
Structure prediction by ZEFSAII (Michael W. Deem and Ramdas Pophale) SiO2 
 PCOD8143935
Probable space group: C 2/C
;
_chemical_formula_sum "Si O2"
_cell_formula_units_Z 48
_cell_length_a 24.618885
_cell_length_b 13.484546
_cell_length_c 8.737591
_cell_angle_alpha 90.000000
_cell_angle_beta 135.639275
_cell_angle_gamma 90.000000
_cell_volume 2028.062482
_symmetry_space_group_name_H-M "C 2/C"
_symmetry_group_IT_number 15
_symmetry_cell_setting 'monoclinic'
loop_
_space_group_symop_operation_xyz
x,y,z
-x,y,1/2-z
-x,-y,-z
x,-y,1/2+z
1/2+x,1/2+y,z
1/2-x,1/2+y,1/2-z
1/2-x,1/2-y,-z
1/2+x,1/2-y,1/2+z
loop_
_atom_site_type_symbol
_atom_site_label
_atom_site_fract_x
_atom_site_fract_y
_atom_site_fract_z
Si Si1 0.870107 0.778782 0.156628
Si Si2 0.911746 0.039671 0.553733
Si Si3 0.173419 0.899048 0.918850
Si Si4 0.296322 0.231243 0.306257
Si Si5 0.575622 0.918597 0.814232
Si Si6 0.825316 0.510678 0.254783
O O1 0.792000 0.744197 0.913573
O O2 0.901101 0.884294 0.171421
O O3 0.855172 0.783550 0.307253
O O4 0.935849 0.697009 0.249472
O O5 0.887687 0.091431 0.344601
O O6 0.000000 0.004859 0.750000
O O7 0.858543 0.946158 0.487855
O O8 0.187868 0.782208 0.993989
O O9 0.249834 0.961797 0.021917
O O10 0.307065 0.112234 0.312856
O O11 0.500000 0.961913 0.750000
O O12 0.601554 0.976456 0.713158
O O13 0.648959 0.928708 0.073087
#
# Coordination Sequence:
#
# PCOD8143935 Si02
#       6
#     8   8   8   8   8   8
#     4  10  21  41  67  91 134 173 221 277 335 390
#     4  12  26  43  66  99 137 177 224 278 341 400
#     4  12  24  43  70 100 135 180 228 279 333 403
#     4  10  22  41  68  99 129 171 227 281 325 397
#     4  11  23  41  64  95 135 177 217 276 338 395
#     4  11  23  41  67  99 133 176 226 276 330 400
#
# _framework density 23.667909000000002
#
# number of rings (size 3 to 8) (size 9 to 14) (size 15 to 20)
#    0.000    1.000    3.333    3.500    2.333    2.000 
#    0.000    4.167    0.000    0.000    0.000    0.000 
#    0.000    0.000    0.000    0.000    0.000    0.000 
#
# Total GULP energy -297356.964600 kJ/mol
# GULP energy per Si atom -12389.873525 kJ/mol
# Density = 2.361404 g / cm^3
# Si number density = 23.667909 Si / 1000 Ang^3
#
#
#
# Elastic Constant Matrix: (Units=GPa)
#
#
# Indices 1 2 3 4 5 6 
#
# 1 112.1146 34.2683 9.4637 0.0000 8.2203 0.0000
# 2 34.2683 43.7851 -8.9683 0.0000 7.3028 0.0000
# 3 9.4637 -8.9683 66.0967 0.0000 -0.5304 0.0000
# 4 0.0000 0.0000 0.0000 22.9107 0.0000 -22.8008
# 5 8.2203 7.3028 -0.5304 0.0000 21.4354 0.0000
# 6 0.0000 0.0000 0.0000 -22.8008 0.0000 -6.4551
#
#
#
# Elastic Compliance Matrix: (Units=1/GPa)
#
#
# Indices 1 2 3 4 5 6 
#
# 1 0.012374 -0.010100 -0.003153 0.000000 -0.001382 0.000000
# 2 -0.010100 0.033163 0.005887 0.000000 -0.007280 0.000000
# 3 -0.003153 0.005887 0.016377 0.000000 -0.000391 0.000000
# 4 0.000000 0.000000 0.000000 0.009667 0.000000 -0.034145
# 5 -0.001382 -0.007280 -0.000391 0.000000 0.049652 0.000000
# 6 0.000000 0.000000 0.000000 -0.034145 0.000000 -0.034309
#
#
# Mechanical properties :
#
#
# Convention : Reuss Voigt Hill
#
# Bulk Modulus (GPa) = 21.19412 32.39154 26.79283
# Shear Modulus (GPa) = 42.59588 20.06037 31.32813
#
# Velocity S-wave (km/s) = 4.24693 2.91448 3.64215
# Velocity P-wave (km/s) = 5.74654 5.00411 5.38813
#
# Compressibility (1/GPa) = 0.04718291
#
# Stress axis : x y z
#
# Youngs Moduli (GPa) = 80.81455 30.15368 61.06306
#
# Poissons Ratio (x) = 0.30455 0.19254
# Poissons Ratio (y) = 0.81621 -0.35950
# Poissons Ratio (z) = 0.25482 -0.17753
#
# Static dielectric constant tensor:
#      x y z
#    x 4.390270 0.000000 -0.057690 
#    y 0.000000 4.162000 0.000000 
#    z -0.057690 0.000000 3.840610 
# 
# 
# High freq. dielectric constant tensor:
#      x y z
#    x 1.950030 0.000000 -0.006910 
#    y 0.000000 1.938460 0.000000 
#    z -0.006910 0.000000 1.911500 
# 
# From -- ./inp_files/66478.got.cif
#   From: 2010.06.25/outbox.cif.g09.slc.cpg/sg15_34_cif.got.tgz:66478.got - 2010.06.28 07:06:18.
