data_PCOD8143892
_publ_section_title
;
Structure prediction by ZEFSAII (Michael W. Deem and Ramdas Pophale) SiO2 
 PCOD8143892
Probable space group: C 2/C
;
_chemical_formula_sum "Si O2"
_cell_formula_units_Z 40
_cell_length_a 10.679295
_cell_length_b 11.859149
_cell_length_c 27.156839
_cell_angle_alpha 90.000000
_cell_angle_beta 33.066095
_cell_angle_gamma 90.000000
_cell_volume 1876.525962
_symmetry_space_group_name_H-M "C 2/C"
_symmetry_group_IT_number 15
_symmetry_cell_setting 'monoclinic'
loop_
_space_group_symop_operation_xyz
x,y,z
-x,y,1/2-z
-x,-y,-z
x,-y,1/2+z
1/2+x,1/2+y,z
1/2-x,1/2+y,1/2-z
1/2-x,1/2-y,-z
1/2+x,1/2-y,1/2+z
loop_
_atom_site_type_symbol
_atom_site_label
_atom_site_fract_x
_atom_site_fract_y
_atom_site_fract_z
Si Si1 0.503927 0.674832 0.868503
Si Si2 0.254764 0.451635 0.928524
Si Si3 0.138458 0.852700 0.979166
Si Si4 0.750556 0.591615 0.961418
Si Si5 0.990289 0.744343 0.697408
O O1 0.450275 0.548005 0.867622
O O2 0.283507 0.741965 0.922470
O O3 0.718432 0.741696 0.774364
O O4 0.533196 0.672975 0.918464
O O5 0.366029 0.361765 0.853578
O O6 0.229858 0.379322 0.987292
O O7 0.000000 0.500000 0.000000
O O8 0.300007 0.957809 0.940377
O O9 0.005260 0.879614 0.972873
O O10 0.929068 0.654610 0.868911
O O11 0.000000 0.699260 0.750000
#
# Coordination Sequence:
#
# PCOD8143892 Si02
#       5
#     8   8   8   8   8
#     4  10  22  40  66  96 129 173 221 275 336 391
#     4  11  26  44  67  95 139 183 215 268 354 413
#     4   9  19  40  68  91 126 173 215 271 335 403
#     4  10  21  41  66  94 129 172 222 265 336 410
#     4  12  25  40  67 100 132 170 228 283 327 391
#
# _framework density 21.315985999999999
#
# number of rings (size 3 to 8) (size 9 to 14) (size 15 to 20)
#    0.000    1.600    2.000    1.800    8.400    0.000 
#    0.000    3.000    0.000    0.000    0.000    0.000 
#    0.000    0.000    0.000    0.000    0.000    0.000 
#
# Total GULP energy -247809.834978 kJ/mol
# GULP energy per Si atom -12390.491749 kJ/mol
# Density = 2.126747 g / cm^3
# Si number density = 21.315986 Si / 1000 Ang^3
#
#
#
# Elastic Constant Matrix: (Units=GPa)
#
#
# Indices 1 2 3 4 5 6 
#
# 1 91.1749 15.3444 35.5611 -0.0008 9.1689 -0.0009
# 2 15.3444 95.1647 61.8024 -0.0008 0.3920 0.0000
# 3 35.5611 61.8024 124.1209 -0.0078 -9.3372 -0.0004
# 4 -0.0008 -0.0008 -0.0078 42.9985 0.0006 -5.1271
# 5 9.1689 0.3920 -9.3372 0.0006 30.3666 0.0005
# 6 -0.0009 0.0000 -0.0004 -5.1271 0.0005 30.1317
#
#
#
# Elastic Compliance Matrix: (Units=1/GPa)
#
#
# Indices 1 2 3 4 5 6 
#
# 1 0.013165 0.000907 -0.004630 0.000000 -0.005411 0.000000
# 2 0.000907 0.015802 -0.008357 -0.000001 -0.003047 0.000000
# 3 -0.004630 -0.008357 0.013981 0.000002 0.005805 0.000000
# 4 0.000000 -0.000001 0.000002 0.023738 0.000000 0.004039
# 5 -0.005411 -0.003047 0.005805 0.000000 0.036389 -0.000001
# 6 0.000000 0.000000 0.000000 0.004039 -0.000001 0.033875
#
#
# Mechanical properties :
#
#
# Convention : Reuss Voigt Hill
#
# Bulk Modulus (GPa) = 53.22920 59.54181 56.38550
# Shear Modulus (GPa) = 29.87320 33.88287 31.87803
#
# Velocity S-wave (km/s) = 3.74765 3.99124 3.87136
# Velocity P-wave (km/s) = 6.61455 7.01667 6.81857
#
# Compressibility (1/GPa) = 0.01878668
#
# Stress axis : x y z
#
# Youngs Moduli (GPa) = 75.95631 63.28428 71.52523
#
# Poissons Ratio (x) = -0.05737 0.33119
# Poissons Ratio (y) = -0.06886 0.59774
# Poissons Ratio (z) = 0.35171 0.52887
#
# Static dielectric constant tensor:
#      x y z
#    x 3.778690 0.000000 -0.023090 
#    y 0.000000 3.956290 0.000000 
#    z -0.023090 0.000000 3.797900 
# 
# 
# High freq. dielectric constant tensor:
#      x y z
#    x 1.833990 0.000000 -0.004180 
#    y 0.000000 1.847620 0.000000 
#    z -0.004180 0.000000 1.821700 
# 
# From -- ./inp_files/141759.got.cif
#   From: 2010.06.25/outbox.cif.g09.slc.cpg/sg15_71_cif.got.tgz:141759.got - 2010.06.28 07:06:18.
