data_PCOD8143643
_publ_section_title
;
Structure prediction by ZEFSAII (Michael W. Deem and Ramdas Pophale) SiO2 
 PCOD8143643
Probable space group: C 2/C
;
_chemical_formula_sum "Si O2"
_cell_formula_units_Z 64
_cell_length_a 19.161710
_cell_length_b 22.653033
_cell_length_c 7.507046
_cell_angle_alpha 90.000000
_cell_angle_beta 59.767373
_cell_angle_gamma 90.000000
_cell_volume 2815.383220
_symmetry_space_group_name_H-M "C 2/C"
_symmetry_group_IT_number 15
_symmetry_cell_setting 'monoclinic'
loop_
_space_group_symop_operation_xyz
x,y,z
-x,y,1/2-z
-x,-y,-z
x,-y,1/2+z
1/2+x,1/2+y,z
1/2-x,1/2+y,1/2-z
1/2-x,1/2-y,-z
1/2+x,1/2-y,1/2+z
loop_
_atom_site_type_symbol
_atom_site_label
_atom_site_fract_x
_atom_site_fract_y
_atom_site_fract_z
Si Si1 0.333334 0.443589 0.246448
Si Si2 0.060243 0.310178 0.046061
Si Si3 0.410562 0.361125 0.429921
Si Si4 0.331793 0.916311 0.546189
Si Si5 0.149632 0.926622 0.675611
Si Si6 0.346024 0.041169 0.428695
Si Si7 0.655395 0.238780 0.092034
Si Si8 0.565384 0.142570 0.031224
O O1 0.350412 0.398127 0.382078
O O2 0.373023 0.506622 0.240012
O O3 0.237592 0.453914 0.355680
O O4 0.365438 0.418994 0.016232
O O5 0.000000 0.269579 0.250000
O O6 0.124167 0.354835 0.059401
O O7 0.109640 0.271420 0.840349
O O8 0.985007 0.352863 0.083968
O O9 0.500000 0.371489 0.250000
O O10 0.407377 0.382938 0.638770
O O11 0.385026 0.293495 0.454987
O O12 0.239837 0.907829 0.609692
O O13 0.368992 0.971785 0.388018
O O14 0.340439 0.928148 0.745051
O O15 0.412797 0.074655 0.460469
O O16 0.644416 0.183824 0.968445
O O17 0.750000 0.250000 0.000000
O O18 0.500000 0.169253 0.250000
#
# Coordination Sequence:
#
# PCOD8143643 Si02
#       8
#     8   8   8   8   8   8   8   8
#     4  11  22  42  66  96 138 178 221 277 330 402
#     4  11  25  42  63  96 137 168 215 284 346 390
#     4  12  25  43  71  98 129 174 220 281 347 405
#     4  11  21  37  63  95 134 183 225 270 320 401
#     4  11  22  43  66  97 137 178 225 270 332 402
#     4  11  20  36  63  94 132 180 231 266 323 392
#     4  11  23  49  74  89 123 178 231 271 337 411
#     4  10  21  41  62  87 130 176 206 271 341 389
#
# _framework density 22.732250000000001
#
# number of rings (size 3 to 8) (size 9 to 14) (size 15 to 20)
#    0.000    1.000    5.000    4.875    3.500    2.000 
#    4.500    0.625    0.000    0.000    0.000    0.000 
#    0.000    0.000    0.000    0.000    0.000    0.000 
#
# Total GULP energy -396492.793912 kJ/mol
# GULP energy per Si atom -12390.399810 kJ/mol
# Density = 2.268051 g / cm^3
# Si number density = 22.732250 Si / 1000 Ang^3
#
#
#
# Elastic Constant Matrix: (Units=GPa)
#
#
# Indices 1 2 3 4 5 6 
#
# 1 54.0836 -6.5345 -4.4683 0.0000 -10.2547 0.0000
# 2 -6.5345 71.8025 14.0564 0.0000 -10.4259 0.0000
# 3 -4.4683 14.0564 115.4714 0.0000 -5.8880 0.0000
# 4 0.0000 0.0000 0.0000 31.3198 0.0000 -0.4251
# 5 -10.2547 -10.4259 -5.8880 0.0000 28.3740 0.0000
# 6 0.0000 0.0000 0.0000 -0.4251 0.0000 11.5462
#
#
#
# Elastic Compliance Matrix: (Units=1/GPa)
#
#
# Indices 1 2 3 4 5 6 
#
# 1 0.020572 0.002964 0.000879 0.000000 0.008706 0.000000
# 2 0.002964 0.015412 -0.001433 0.000000 0.006437 0.000000
# 3 0.000879 -0.001433 0.008953 0.000000 0.001649 0.000000
# 4 0.000000 0.000000 0.000000 0.031945 0.000000 0.001176
# 5 0.008706 0.006437 0.001649 0.000000 0.041098 0.000000
# 6 0.000000 0.000000 0.000000 0.001176 0.000000 0.086652
#
#
# Mechanical properties :
#
#
# Convention : Reuss Voigt Hill
#
# Bulk Modulus (GPa) = 20.09778 27.49608 23.79693
# Shear Modulus (GPa) = 23.10581 30.13493 26.62037
#
# Velocity S-wave (km/s) = 3.19161 3.64489 3.42576
# Velocity P-wave (km/s) = 4.73731 5.46219 5.11262
#
# Compressibility (1/GPa) = 0.04975673
#
# Stress axis : x y z
#
# Youngs Moduli (GPa) = 48.61094 64.88408 111.69793
#
# Poissons Ratio (x) = -0.19233 -0.09820
# Poissons Ratio (y) = -0.14409 0.16008
# Poissons Ratio (z) = -0.04274 0.09299
#
# Static dielectric constant tensor:
#      x y z
#    x 4.262250 0.000000 0.298750 
#    y 0.000000 4.078740 0.000000 
#    z 0.298750 0.000000 4.661750 
# 
# 
# High freq. dielectric constant tensor:
#      x y z
#    x 1.893590 0.000000 0.002380 
#    y 0.000000 1.883120 0.000000 
#    z 0.002380 0.000000 1.904100 
# 
# From -- ./inp_files/57862.got.cif
#   From: 2010.06.25/outbox.cif.g09.slc.cpg/sg15_29_cif.got.tgz:57862.got - 2010.06.28 07:06:18.
