data_PCOD8143538
_publ_section_title
;
Structure prediction by ZEFSAII (Michael W. Deem and Ramdas Pophale) SiO2 
 PCOD8143538
Probable space group: C 2/C
;
_chemical_formula_sum "Si O2"
_cell_formula_units_Z 48
_cell_length_a 18.627819
_cell_length_b 8.950343
_cell_length_c 14.829275
_cell_angle_alpha 90.000000
_cell_angle_beta 113.196406
_cell_angle_gamma 90.000000
_cell_volume 2272.546334
_symmetry_space_group_name_H-M "C 2/C"
_symmetry_group_IT_number 15
_symmetry_cell_setting 'monoclinic'
loop_
_space_group_symop_operation_xyz
x,y,z
-x,y,1/2-z
-x,-y,-z
x,-y,1/2+z
1/2+x,1/2+y,z
1/2-x,1/2+y,1/2-z
1/2-x,1/2-y,-z
1/2+x,1/2-y,1/2+z
loop_
_atom_site_type_symbol
_atom_site_label
_atom_site_fract_x
_atom_site_fract_y
_atom_site_fract_z
Si Si1 0.663466 0.640864 0.119693
Si Si2 0.590219 0.674788 0.603620
Si Si3 0.427348 0.195214 0.075652
Si Si4 0.561449 0.847086 0.411380
Si Si5 0.339962 0.849335 0.713239
Si Si6 0.106929 0.668252 0.738945
O O1 0.606116 0.498926 0.092961
O O2 0.752923 0.604167 0.139606
O O3 0.667277 0.722419 0.219112
O O4 0.632979 0.755970 0.030474
O O5 0.505975 0.705766 0.607567
O O6 0.597863 0.759392 0.512634
O O7 0.657796 0.727243 0.706008
O O8 0.388679 0.218370 0.153978
O O9 0.445037 0.021491 0.068373
O O10 0.476312 0.785346 0.344216
O O11 0.615386 0.813188 0.351036
O O12 0.380832 0.994300 0.776025
#
# Coordination Sequence:
#
# PCOD8143538 Si02
#       6
#     8   8   8   8   8   8
#     4  12  25  40  62  98 138 161 202 280 334 369
#     4  12  23  40  66 100 126 166 218 266 324 378
#     4  11  22  42  66  92 121 174 222 260 304 394
#     4  10  21  40  70  89 113 168 221 264 295 388
#     4  11  24  43  64  91 131 176 213 254 324 395
#     4  10  21  42  65  90 121 164 220 253 316 377
#
# _framework density 21.121682
#
# number of rings (size 3 to 8) (size 9 to 14) (size 15 to 20)
#    0.000    1.000    3.333    4.000    0.000    1.333 
#    3.000    9.167    0.000    0.000    0.000    0.000 
#    0.000    0.000    0.000    0.000    0.000    0.000 
#
# Total GULP energy -297631.244589 kJ/mol
# GULP energy per Si atom -12401.301858 kJ/mol
# Density = 2.107361 g / cm^3
# Si number density = 21.121682 Si / 1000 Ang^3
#
#
#
# Elastic Constant Matrix: (Units=GPa)
#
#
# Indices 1 2 3 4 5 6 
#
# 1 80.9821 37.1502 49.2227 0.0000 1.1061 0.0000
# 2 37.1502 82.6508 57.6430 0.0000 -20.7364 0.0000
# 3 49.2227 57.6430 124.1697 0.0000 -12.0252 0.0000
# 4 0.0000 0.0000 0.0000 8.6519 0.0000 -5.9631
# 5 1.1061 -20.7364 -12.0252 0.0000 27.5327 0.0000
# 6 0.0000 0.0000 0.0000 -5.9631 0.0000 21.2198
#
#
#
# Elastic Compliance Matrix: (Units=1/GPa)
#
#
# Indices 1 2 3 4 5 6 
#
# 1 0.018678 -0.006997 -0.004948 0.000000 -0.008181 0.000000
# 2 -0.006997 0.023816 -0.006806 0.000000 0.015245 0.000000
# 3 -0.004948 -0.006806 0.013258 0.000000 0.000864 0.000000
# 4 0.000000 0.000000 0.000000 0.143346 0.000000 0.040283
# 5 -0.008181 0.015245 0.000864 0.000000 0.048509 0.000000
# 6 0.000000 0.000000 0.000000 0.040283 0.000000 0.058446
#
#
# Mechanical properties :
#
#
# Convention : Reuss Voigt Hill
#
# Bulk Modulus (GPa) = 54.79580 63.98160 59.38870
# Shear Modulus (GPa) = 14.30054 21.06664 17.68359
#
# Velocity S-wave (km/s) = 2.60485 3.16158 2.89662
# Velocity P-wave (km/s) = 5.91999 6.60947 6.27421
#
# Compressibility (1/GPa) = 0.01824958
#
# Stress axis : x y z
#
# Youngs Moduli (GPa) = 53.54017 41.98937 75.42554
#
# Poissons Ratio (x) = 0.29379 0.37322
# Poissons Ratio (y) = 0.37461 0.51333
# Poissons Ratio (z) = 0.26493 0.28577
#
# Static dielectric constant tensor:
#      x y z
#    x 3.797850 0.000000 -0.200520 
#    y 0.000000 3.641320 0.000000 
#    z -0.200520 0.000000 3.853180 
# 
# 
# High freq. dielectric constant tensor:
#      x y z
#    x 1.824210 0.000000 -0.008360 
#    y 0.000000 1.819560 0.000000 
#    z -0.008360 0.000000 1.839000 
# 
# From -- ./inp_files/166406.got.cif
#   From: 2010.06.25/outbox.cif.g09.slc.cpg/sg15_84_cif.got.tgz:166406.got - 2010.06.28 07:06:18.
