data_PCOD8143981
_publ_section_title
;
Structure prediction by ZEFSAII (Michael W. Deem and Ramdas Pophale) SiO2 
 PCOD8143981
Probable space group: C 2/C
;
_chemical_formula_sum "Si O2"
_cell_formula_units_Z 48
_cell_length_a 8.016481
_cell_length_b 23.258219
_cell_length_c 11.331520
_cell_angle_alpha 90.000000
_cell_angle_beta 88.675021
_cell_angle_gamma 90.000000
_cell_volume 2112.186473
_symmetry_space_group_name_H-M "C 2/C"
_symmetry_group_IT_number 15
_symmetry_cell_setting 'monoclinic'
loop_
_space_group_symop_operation_xyz
x,y,z
-x,y,1/2-z
-x,-y,-z
x,-y,1/2+z
1/2+x,1/2+y,z
1/2-x,1/2+y,1/2-z
1/2-x,1/2-y,-z
1/2+x,1/2-y,1/2+z
loop_
_atom_site_type_symbol
_atom_site_label
_atom_site_fract_x
_atom_site_fract_y
_atom_site_fract_z
Si Si1 0.291204 0.583375 0.596535
Si Si2 0.183663 0.541187 0.366084
Si Si3 0.500000 0.262962 0.750000
Si Si4 0.818555 0.747067 0.367663
Si Si5 0.894719 0.203344 0.504063
Si Si6 0.000000 0.356673 0.750000
Si Si7 0.500000 0.053816 0.750000
Si Si8 0.500000 0.489414 0.250000
O O1 0.226162 0.538316 0.502012
O O2 0.321025 0.641570 0.527076
O O3 0.457485 0.554321 0.644418
O O4 0.150466 0.593349 0.699753
O O5 0.058223 0.488170 0.353554
O O6 0.345658 0.530552 0.281932
O O7 0.105064 0.603089 0.335706
O O8 0.324422 0.228575 0.723161
O O9 0.518180 0.299186 0.627485
O O10 0.750000 0.750000 0.500000
O O11 0.871752 0.682942 0.326821
O O12 0.988327 0.784225 0.381718
O O13 0.750000 0.250000 0.500000
#
# Coordination Sequence:
#
# PCOD8143981 Si02
#       8
#     8   8   4   8   8   4   4   4
#     4  11  22  41  64  91 130 173 209 261 326 387
#     4  10  21  41  68  95 125 164 216 269 321 393
#     4  10  22  42  64  87 124 169 216 266 312 376
#     4  10  22  40  61  94 127 163 215 266 317 379
#     4  11  24  41  65  97 133 173 217 266 323 395
#     4  11  22  41  68  93 124 166 214 269 326 386
#     4   9  22  41  64  96 128 164 212 268 328 382
#     4  10  24  40  62  98 128 163 212 269 328 388
#
# _framework density 22.725266999999999
#
# number of rings (size 3 to 8) (size 9 to 14) (size 15 to 20)
#    0.000    1.667    0.000    4.000    0.000    6.667 
#    0.000   20.000    0.000    1.000    0.000    0.000 
#    0.000    0.000    0.000    0.000    0.000    0.000 
#
# Total GULP energy -297326.604699 kJ/mol
# GULP energy per Si atom -12388.608529 kJ/mol
# Density = 2.267354 g / cm^3
# Si number density = 22.725267 Si / 1000 Ang^3
#
#
#
# Elastic Constant Matrix: (Units=GPa)
#
#
# Indices 1 2 3 4 5 6 
#
# 1 137.1558 33.1769 43.0036 0.0000 30.1633 0.0000
# 2 33.1769 67.2430 41.0921 0.0000 0.9580 0.0000
# 3 43.0036 41.0921 116.4622 0.0000 33.0847 0.0000
# 4 0.0000 0.0000 0.0000 -0.1052 0.0000 -9.0271
# 5 30.1633 0.9580 33.0847 0.0000 55.2376 0.0000
# 6 0.0000 0.0000 0.0000 -9.0271 0.0000 15.9777
#
#
#
# Elastic Compliance Matrix: (Units=1/GPa)
#
#
# Indices 1 2 3 4 5 6 
#
# 1 0.009575 -0.004231 -0.000697 0.000000 -0.004738 0.000000
# 2 -0.004231 0.021774 -0.008037 0.000000 0.006746 0.000000
# 3 -0.000697 -0.008037 0.013896 0.000000 -0.007803 0.000000
# 4 0.000000 0.000000 0.000000 -0.192108 0.000000 -0.108538
# 5 -0.004738 0.006746 -0.007803 0.000000 0.025248 0.000000
# 6 0.000000 0.000000 0.000000 -0.108538 0.000000 0.001265
#
#
# Mechanical properties :
#
#
# Convention : Reuss Voigt Hill
#
# Bulk Modulus (GPa) = 51.77058 61.71181 56.74119
# Shear Modulus (GPa) = -56.82975 27.79457 -14.51759
#
# Velocity S-wave (km/s) = -5.00615 3.50103 -2.53025
# Velocity P-wave (km/s) = 3.25345 6.59981 4.06033
#
# Compressibility (1/GPa) = 0.01931599
#
# Stress axis : x y z
#
# Youngs Moduli (GPa) = 104.44121 45.92595 71.96140
#
# Poissons Ratio (x) = 0.19430 0.05014
# Poissons Ratio (y) = 0.44187 0.57836
# Poissons Ratio (z) = 0.07278 0.36911
#
# Static dielectric constant tensor:
#      x y z
#    x 5.034070 0.000000 0.334090 
#    y 0.000000 3.717730 0.000000 
#    z 0.334090 0.000000 4.347450 
# 
# 
# High freq. dielectric constant tensor:
#      x y z
#    x 1.921840 0.000000 0.011240 
#    y 0.000000 1.862200 0.000000 
#    z 0.011240 0.000000 1.912440 
# 
# From -- ./inp_files/79339.got.cif
#   From: 2010.06.25/outbox.cif.g09.slc.cpg/sg15_40_cif.got.tgz:79339.got - 2010.06.28 07:06:18.
