data_PCOD8143707
_publ_section_title
;
Structure prediction by ZEFSAII (Michael W. Deem and Ramdas Pophale) SiO2 
 PCOD8143707
Probable space group: C 2/C
;
_chemical_formula_sum "Si O2"
_cell_formula_units_Z 60
_cell_length_a 16.569070
_cell_length_b 22.475772
_cell_length_c 8.664946
_cell_angle_alpha 90.000000
_cell_angle_beta 62.961243
_cell_angle_gamma 90.000000
_cell_volume 2874.151689
_symmetry_space_group_name_H-M "C 2/C"
_symmetry_group_IT_number 15
_symmetry_cell_setting 'monoclinic'
loop_
_space_group_symop_operation_xyz
x,y,z
-x,y,1/2-z
-x,-y,-z
x,-y,1/2+z
1/2+x,1/2+y,z
1/2-x,1/2+y,1/2-z
1/2-x,1/2-y,-z
1/2+x,1/2-y,1/2+z
loop_
_atom_site_type_symbol
_atom_site_label
_atom_site_fract_x
_atom_site_fract_y
_atom_site_fract_z
Si Si1 0.412688 0.132146 0.038776
Si Si2 0.222596 0.342750 0.601545
Si Si3 0.000000 0.576055 0.250000
Si Si4 0.307910 0.928728 0.395695
Si Si5 0.232923 0.197345 0.894781
Si Si6 0.636797 0.246432 0.974251
Si Si7 0.184896 0.543622 0.962676
Si Si8 0.460872 0.738530 0.444437
O O1 0.312030 0.135214 0.202839
O O2 0.485653 0.115118 0.106525
O O3 0.401688 0.085760 0.906769
O O4 0.436724 0.193242 0.934562
O O5 0.317622 0.309662 0.530460
O O6 0.141593 0.296900 0.618624
O O7 0.237811 0.397492 0.471492
O O8 0.911083 0.537813 0.362720
O O9 0.245860 0.869317 0.449761
O O10 0.329876 0.952818 0.206606
O O11 0.261388 0.983670 0.531571
O O12 0.305728 0.208019 0.698218
O O13 0.250000 0.250000 0.000000
O O14 0.128601 0.201858 0.926738
O O15 0.535477 0.263472 0.014633
O O16 0.500000 0.712004 0.250000
#
# Coordination Sequence:
#
# PCOD8143707 Si02
#       8
#     8   8   4   8   8   8   8   8
#     4  11  22  37  60  88 130 169 202 261 310 383
#     4  10  21  41  63  91 135 166 209 261 316 382
#     4  10  24  38  58  96 132 162 222 252 310 396
#     4  12  25  42  65  85 128 172 216 261 322 386
#     4  12  22  42  62  97 131 165 216 268 324 376
#     4  11  21  39  64  96 129 172 206 264 320 387
#     4  11  24  42  60  94 122 179 213 261 324 379
#     4  12  23  35  64  99 127 169 213 264 325 381
#
# _framework density 20.875724999999999
#
# number of rings (size 3 to 8) (size 9 to 14) (size 15 to 20)
#    0.000    0.800    5.333    3.200    1.867    2.133 
#    0.000    0.000    0.000    0.800    0.000    0.000 
#    0.000    0.000    0.000    0.000    0.000    0.000 
#
# Total GULP energy -371824.499020 kJ/mol
# GULP energy per Si atom -12394.149967 kJ/mol
# Density = 2.082821 g / cm^3
# Si number density = 20.875725 Si / 1000 Ang^3
#
#
#
# Elastic Constant Matrix: (Units=GPa)
#
#
# Indices 1 2 3 4 5 6 
#
# 1 113.0490 53.0202 19.0639 0.0000 6.6777 0.0000
# 2 53.0202 142.6897 21.5153 0.0000 13.3155 0.0000
# 3 19.0639 21.5153 65.3278 0.0000 14.7770 0.0000
# 4 0.0000 0.0000 0.0000 27.8216 0.0000 7.6739
# 5 6.6777 13.3155 14.7770 0.0000 30.5071 0.0000
# 6 0.0000 0.0000 0.0000 7.6739 0.0000 25.3155
#
#
#
# Elastic Compliance Matrix: (Units=1/GPa)
#
#
# Indices 1 2 3 4 5 6 
#
# 1 0.010945 -0.003787 -0.001998 0.000000 0.000225 0.000000
# 2 -0.003787 0.008830 -0.001256 0.000000 -0.002417 0.000000
# 3 -0.001998 -0.001256 0.018060 0.000000 -0.007762 0.000000
# 4 0.000000 0.000000 0.000000 0.039223 0.000000 -0.011890
# 5 0.000225 -0.002417 -0.007762 0.000000 0.037545 0.000000
# 6 0.000000 0.000000 0.000000 -0.011890 0.000000 0.043106
#
#
# Mechanical properties :
#
#
# Convention : Reuss Voigt Hill
#
# Bulk Modulus (GPa) = 42.09884 56.47391 49.28638
# Shear Modulus (GPa) = 27.82282 31.89332 29.85807
#
# Velocity S-wave (km/s) = 3.65469 3.91291 3.78600
# Velocity P-wave (km/s) = 6.16597 6.89389 6.54006
#
# Compressibility (1/GPa) = 0.02375362
#
# Stress axis : x y z
#
# Youngs Moduli (GPa) = 91.36306 113.24679 55.37102
#
# Poissons Ratio (x) = 0.42884 0.11062
# Poissons Ratio (y) = 0.34597 0.06957
# Poissons Ratio (z) = 0.18252 0.14229
#
# Static dielectric constant tensor:
#      x y z
#    x 3.797640 0.000000 0.273770 
#    y 0.000000 3.903140 0.000000 
#    z 0.273770 0.000000 4.215090 
# 
# 
# High freq. dielectric constant tensor:
#      x y z
#    x 1.796570 0.000000 0.035500 
#    y 0.000000 1.812770 0.000000 
#    z 0.035500 0.000000 1.817830 
# 
# From -- ./inp_files/51526.got.cif
#   From: 2010.06.25/outbox.cif.g09.slc.cpg/sg15_26_cif.got.tgz:51526.got - 2010.06.28 07:06:18.
