data_PCOD8143232
_publ_section_title
;
Structure prediction by ZEFSAII (Michael W. Deem and Ramdas Pophale) SiO2 
 PCOD8143232
Probable space group: C 2/C
;
_chemical_formula_sum "Si O2"
_cell_formula_units_Z 52
_cell_length_a 11.713355
_cell_length_b 8.250334
_cell_length_c 26.469439
_cell_angle_alpha 90.000000
_cell_angle_beta 107.075740
_cell_angle_gamma 90.000000
_cell_volume 2445.220083
_symmetry_space_group_name_H-M "C 2/C"
_symmetry_group_IT_number 15
_symmetry_cell_setting 'monoclinic'
loop_
_space_group_symop_operation_xyz
x,y,z
-x,y,1/2-z
-x,-y,-z
x,-y,1/2+z
1/2+x,1/2+y,z
1/2-x,1/2+y,1/2-z
1/2-x,1/2-y,-z
1/2+x,1/2-y,1/2+z
loop_
_atom_site_type_symbol
_atom_site_label
_atom_site_fract_x
_atom_site_fract_y
_atom_site_fract_z
Si Si1 0.898717 0.063449 0.553162
Si Si2 0.981512 0.103921 0.830763
Si Si3 0.011230 0.748798 0.980719
Si Si4 0.775295 0.586394 0.727118
Si Si5 0.705703 0.565921 0.315578
Si Si6 0.000000 0.629966 0.250000
Si Si7 0.841946 0.474609 0.933654
O O1 0.914863 0.160509 0.503493
O O2 0.977414 0.147191 0.607309
O O3 0.760775 0.070292 0.549905
O O4 0.936861 0.875010 0.552897
O O5 0.848446 0.027756 0.815533
O O6 0.973342 0.266493 0.796488
O O7 0.073870 0.977785 0.818019
O O8 0.950942 0.601486 0.942186
O O9 0.118401 0.682049 0.029422
O O10 0.755337 0.574830 0.785139
O O11 0.805164 0.770409 0.717480
O O12 0.884125 0.476750 0.722268
O O13 0.798241 0.585938 0.373488
#
# Coordination Sequence:
#
# PCOD8143232 Si02
#       7
#     8   8   8   8   8   4   8
#     4  10  22  39  67  91 123 162 209 249 314 366
#     4  11  23  44  62  94 129 165 205 263 306 383
#     4  10  21  40  64  91 124 163 201 260 309 364
#     4  12  24  42  64  91 128 165 210 263 309 384
#     4  11  23  42  66  90 129 169 210 258 320 367
#     4  12  26  40  64  92 126 170 210 258 318 366
#     4  10  22  41  61  93 125 159 206 258 309 370
#
# _framework density 21.265979000000002
#
# number of rings (size 3 to 8) (size 9 to 14) (size 15 to 20)
#    0.000    1.231    3.077    1.846    2.154    3.692 
#    2.769    1.538    0.000    0.000    0.000    0.000 
#    0.000    0.000    0.000    0.000    0.000    0.000 
#
# Total GULP energy -322497.282127 kJ/mol
# GULP energy per Si atom -12403.741620 kJ/mol
# Density = 2.121758 g / cm^3
# Si number density = 21.265979 Si / 1000 Ang^3
#
#
#
# Elastic Constant Matrix: (Units=GPa)
#
#
# Indices 1 2 3 4 5 6 
#
# 1 94.0082 22.5032 26.5577 0.0000 24.1099 0.0000
# 2 22.5032 96.3087 43.5905 0.0000 10.8954 0.0000
# 3 26.5577 43.5905 73.6808 0.0000 4.4349 0.0000
# 4 0.0000 0.0000 0.0000 26.6176 0.0000 3.7671
# 5 24.1099 10.8954 4.4349 0.0000 27.3657 0.0000
# 6 0.0000 0.0000 0.0000 3.7671 0.0000 25.2669
#
#
#
# Elastic Compliance Matrix: (Units=1/GPa)
#
#
# Indices 1 2 3 4 5 6 
#
# 1 0.015213 0.000018 -0.004733 0.000000 -0.012643 0.000000
# 2 0.000018 0.014707 -0.008436 0.000000 -0.004504 0.000000
# 3 -0.004733 -0.008436 0.020011 0.000000 0.004286 0.000000
# 4 0.000000 0.000000 0.000000 0.038379 0.000000 -0.005722
# 5 -0.012643 -0.004504 0.004286 0.000000 0.048779 0.000000
# 6 0.000000 0.000000 0.000000 -0.005722 0.000000 0.040431
#
#
# Mechanical properties :
#
#
# Convention : Reuss Voigt Hill
#
# Bulk Modulus (GPa) = 42.32225 49.92229 46.12227
# Shear Modulus (GPa) = 23.61856 27.27313 25.44585
#
# Velocity S-wave (km/s) = 3.33622 3.58505 3.46287
# Velocity P-wave (km/s) = 5.89789 6.37675 6.14199
#
# Compressibility (1/GPa) = 0.02362823
#
# Stress axis : x y z
#
# Youngs Moduli (GPa) = 65.73500 67.99499 49.97254
#
# Poissons Ratio (x) = -0.00122 0.23651
# Poissons Ratio (y) = -0.00118 0.42158
# Poissons Ratio (z) = 0.31112 0.57362
#
# Static dielectric constant tensor:
#      x y z
#    x 3.995480 0.000000 0.052350 
#    y 0.000000 3.701000 0.000000 
#    z 0.052350 0.000000 3.821220 
# 
# 
# High freq. dielectric constant tensor:
#      x y z
#    x 1.847450 0.000000 0.005930 
#    y 0.000000 1.828010 0.000000 
#    z 0.005930 0.000000 1.831140 
# 
# From -- ./inp_files/291268.got.cif
#   From: 2010.06.25/outbox.cif.g09.slc.cpg/sg15_146_cif.got.tgz:291268.got - 2010.06.28 07:06:18.
