data_PCOD8143718
_publ_section_title
;
Structure prediction by ZEFSAII (Michael W. Deem and Ramdas Pophale) SiO2 
 PCOD8143718
Probable space group: C 2/C
;
_chemical_formula_sum "Si O2"
_cell_formula_units_Z 40
_cell_length_a 8.074049
_cell_length_b 13.562092
_cell_length_c 20.908759
_cell_angle_alpha 90.000000
_cell_angle_beta 130.174909
_cell_angle_gamma 90.000000
_cell_volume 1749.380851
_symmetry_space_group_name_H-M "C 2/C"
_symmetry_group_IT_number 15
_symmetry_cell_setting 'monoclinic'
loop_
_space_group_symop_operation_xyz
x,y,z
-x,y,1/2-z
-x,-y,-z
x,-y,1/2+z
1/2+x,1/2+y,z
1/2-x,1/2+y,1/2-z
1/2-x,1/2-y,-z
1/2+x,1/2-y,1/2+z
loop_
_atom_site_type_symbol
_atom_site_label
_atom_site_fract_x
_atom_site_fract_y
_atom_site_fract_z
Si Si1 0.958222 0.818181 0.620893
Si Si2 0.592293 0.846379 0.707892
Si Si3 0.184182 0.832311 0.417123
Si Si4 0.283826 0.483470 0.657372
Si Si5 0.948605 0.803979 0.474570
O O1 0.817762 0.910733 0.606936
O O2 0.020554 0.840802 0.562693
O O3 0.807839 0.720175 0.590783
O O4 0.165617 0.804140 0.718158
O O5 0.500000 0.893726 0.750000
O O6 0.446948 0.754525 0.651009
O O7 0.600629 0.935687 0.658175
O O8 0.408203 0.794149 0.504156
O O9 0.026008 0.875619 0.434958
O O10 0.271463 0.911209 0.387283
O O11 0.500000 0.501152 0.750000
#
# Coordination Sequence:
#
# PCOD8143718 Si02
#       5
#     8   8   8   8   8
#     4  10  21  41  63  93 135 169 213 275 328 390
#     4  11  21  42  70  88 133 183 218 274 332 383
#     4  11  22  41  68  95 124 176 224 259 336 406
#     4  10  23  40  65  97 126 168 228 275 315 397
#     4  10  22  39  64  99 130 173 209 270 348 388
#
# _framework density 22.865231999999999
#
# number of rings (size 3 to 8) (size 9 to 14) (size 15 to 20)
#    0.000    1.600    4.000    0.600    0.000    1.600 
#    0.000    8.000    0.000    0.000    0.000    0.000 
#    0.000    0.000    0.000    0.000    0.000    0.000 
#
# Total GULP energy -247771.086468 kJ/mol
# GULP energy per Si atom -12388.554323 kJ/mol
# Density = 2.281319 g / cm^3
# Si number density = 22.865232 Si / 1000 Ang^3
#
#
#
# Elastic Constant Matrix: (Units=GPa)
#
#
# Indices 1 2 3 4 5 6 
#
# 1 138.6404 29.1707 29.9677 0.0000 -35.2675 0.0000
# 2 29.1707 61.5895 19.8718 0.0000 -8.2926 0.0000
# 3 29.9677 19.8718 65.5899 0.0000 -6.6702 0.0000
# 4 0.0000 0.0000 0.0000 29.3057 0.0000 -12.6081
# 5 -35.2675 -8.2926 -6.6702 0.0000 54.1339 0.0000
# 6 0.0000 0.0000 0.0000 -12.6081 0.0000 28.7547
#
#
#
# Elastic Compliance Matrix: (Units=1/GPa)
#
#
# Indices 1 2 3 4 5 6 
#
# 1 0.009933 -0.002955 -0.003069 0.000000 0.005640 0.000000
# 2 -0.002955 0.019116 -0.004395 0.000000 0.000462 0.000000
# 3 -0.003069 -0.004395 0.017933 0.000000 -0.000463 0.000000
# 4 0.000000 0.000000 0.000000 0.042057 0.000000 0.018441
# 5 0.005640 0.000462 -0.000463 0.000000 0.022161 0.000000
# 6 0.000000 0.000000 0.000000 0.018441 0.000000 0.042863
#
#
# Mechanical properties :
#
#
# Convention : Reuss Voigt Hill
#
# Bulk Modulus (GPa) = 38.24929 47.09336 42.67132
# Shear Modulus (GPa) = 27.23095 34.89284 31.06189
#
# Velocity S-wave (km/s) = 3.45473 3.91067 3.68975
# Velocity P-wave (km/s) = 5.71647 6.40561 6.07083
#
# Compressibility (1/GPa) = 0.02614428
#
# Stress axis : x y z
#
# Youngs Moduli (GPa) = 100.67596 52.31195 55.76305
#
# Poissons Ratio (x) = 0.15457 0.17116
# Poissons Ratio (y) = 0.29747 0.24506
# Poissons Ratio (z) = 0.30902 0.22989
#
# Static dielectric constant tensor:
#      x y z
#    x 4.747100 0.000000 -0.224690 
#    y 0.000000 3.701880 0.000000 
#    z -0.224690 0.000000 4.269200 
# 
# 
# High freq. dielectric constant tensor:
#      x y z
#    x 1.924930 0.000000 -0.014330 
#    y 0.000000 1.845120 0.000000 
#    z -0.014330 0.000000 1.916570 
# 
# From -- ./inp_files/133298.got.cif
#   From: 2010.06.25/outbox.cif.g09.slc.cpg/sg15_67_cif.got.tgz:133298.got - 2010.06.28 07:06:18.
