data_PCOD8143390
_publ_section_title
;
Structure prediction by ZEFSAII (Michael W. Deem and Ramdas Pophale) SiO2 
 PCOD8143390
Probable space group: C 2/C
;
_chemical_formula_sum "Si O2"
_cell_formula_units_Z 60
_cell_length_a 21.777933
_cell_length_b 9.226011
_cell_length_c 17.772204
_cell_angle_alpha 90.000000
_cell_angle_beta 53.985760
_cell_angle_gamma 90.000000
_cell_volume 2888.358645
_symmetry_space_group_name_H-M "C 2/C"
_symmetry_group_IT_number 15
_symmetry_cell_setting 'monoclinic'
loop_
_space_group_symop_operation_xyz
x,y,z
-x,y,1/2-z
-x,-y,-z
x,-y,1/2+z
1/2+x,1/2+y,z
1/2-x,1/2+y,1/2-z
1/2-x,1/2-y,-z
1/2+x,1/2-y,1/2+z
loop_
_atom_site_type_symbol
_atom_site_label
_atom_site_fract_x
_atom_site_fract_y
_atom_site_fract_z
Si Si1 0.792700 0.338064 0.068908
Si Si2 0.319593 0.109912 0.132978
Si Si3 0.468364 0.102726 0.118786
Si Si4 0.500000 0.738719 0.750000
Si Si5 0.852123 0.115202 0.914826
Si Si6 0.674327 0.626416 0.331158
Si Si7 0.124294 0.887169 0.475611
Si Si8 0.024750 0.717305 0.929519
O O1 0.842250 0.468643 0.068021
O O2 0.713126 0.405099 0.099660
O O3 0.777497 0.213748 0.141384
O O4 0.839389 0.267862 0.966882
O O5 0.380984 0.124015 0.155420
O O6 0.234329 0.083890 0.224155
O O7 0.321440 0.248743 0.076687
O O8 0.478404 0.159913 0.195490
O O9 0.491963 0.933746 0.100590
O O10 0.521318 0.193973 0.022783
O O11 0.432164 0.628483 0.816190
O O12 0.849753 0.974713 0.969788
O O13 0.633208 0.486049 0.395078
O O14 0.607540 0.726670 0.345616
O O15 0.037688 0.836141 0.548936
#
# Coordination Sequence:
#
# PCOD8143390 Si02
#       8
#     8   8   8   4   8   8   8   8
#     4  10  21  42  63  84 128 173 206 252 318 388
#     4  11  22  38  67  93 126 163 220 264 305 378
#     4  10  22  40  65  96 123 171 216 258 321 382
#     4  12  24  40  68  92 126 166 218 268 310 390
#     4  10  24  42  62  90 127 171 210 258 325 383
#     4  11  20  37  63  96 124 159 213 267 306 372
#     4  10  23  37  62  94 130 165 205 261 328 373
#     4  10  21  40  66  92 128 168 210 265 319 380
#
# _framework density 20.773043000000001
#
# number of rings (size 3 to 8) (size 9 to 14) (size 15 to 20)
#    0.000    1.600    1.333    3.600    3.733    3.733 
#    0.000    2.000    0.000    0.000    0.000    0.000 
#    0.000    0.000    0.000    0.000    0.000    0.000 
#
# Total GULP energy -372064.697371 kJ/mol
# GULP energy per Si atom -12402.156579 kJ/mol
# Density = 2.072576 g / cm^3
# Si number density = 20.773043 Si / 1000 Ang^3
#
#
#
# Elastic Constant Matrix: (Units=GPa)
#
#
# Indices 1 2 3 4 5 6 
#
# 1 94.1148 31.3419 35.5823 0.0000 -7.8303 -0.0003
# 2 31.3419 108.1658 28.6713 -0.0003 4.5252 0.0005
# 3 35.5823 28.6713 78.3985 0.0000 -11.4262 0.0000
# 4 0.0000 -0.0003 0.0000 25.4890 0.0001 -6.9148
# 5 -7.8303 4.5252 -11.4262 0.0001 38.1582 -0.0001
# 6 -0.0003 0.0005 0.0000 -6.9148 -0.0001 29.5223
#
#
#
# Elastic Compliance Matrix: (Units=1/GPa)
#
#
# Indices 1 2 3 4 5 6 
#
# 1 0.013511 -0.002679 -0.004916 0.000000 0.001618 0.000000
# 2 -0.002679 0.010991 -0.003214 0.000000 -0.002816 0.000000
# 3 -0.004916 -0.003214 0.016804 0.000000 0.004404 0.000000
# 4 0.000000 0.000000 0.000000 0.041895 0.000000 0.009813
# 5 0.001618 -0.002816 0.004404 0.000000 0.028191 0.000000
# 6 0.000000 0.000000 0.000000 0.009813 0.000000 0.036171
#
#
# Mechanical properties :
#
#
# Convention : Reuss Voigt Hill
#
# Bulk Modulus (GPa) = 50.79582 52.43000 51.61291
# Shear Modulus (GPa) = 28.45030 30.97278 29.71154
#
# Velocity S-wave (km/s) = 3.70480 3.86555 3.78602
# Velocity P-wave (km/s) = 6.54267 6.72440 6.63415
#
# Compressibility (1/GPa) = 0.01968666
#
# Stress axis : x y z
#
# Youngs Moduli (GPa) = 74.01362 90.98236 59.50971
#
# Poissons Ratio (x) = 0.24378 0.29258
# Poissons Ratio (y) = 0.19831 0.19126
# Poissons Ratio (z) = 0.36388 0.29241
#
# Static dielectric constant tensor:
#      x y z
#    x 3.703610 0.000000 -0.105480 
#    y 0.000000 3.824660 0.000000 
#    z -0.105480 0.000000 3.658490 
# 
# 
# High freq. dielectric constant tensor:
#      x y z
#    x 1.810110 0.000000 -0.017110 
#    y 0.000000 1.821250 0.000000 
#    z -0.017110 0.000000 1.801170 
# 
# From -- ./inp_files/214264.got.cif
#   From: 2010.06.25/outbox.cif.g09.slc.cpg/sg15_108_cif.got.tgz:214264.got - 2010.06.28 07:06:18.
