data_PCOD8143472
_publ_section_title
;
Structure prediction by ZEFSAII (Michael W. Deem and Ramdas Pophale) SiO2 
 PCOD8143472
Probable space group: C 2/C
;
_chemical_formula_sum "Si O2"
_cell_formula_units_Z 48
_cell_length_a 16.333027
_cell_length_b 9.617715
_cell_length_c 27.988849
_cell_angle_alpha 90.000000
_cell_angle_beta 149.779403
_cell_angle_gamma 90.000000
_cell_volume 2212.977325
_symmetry_space_group_name_H-M "C 2/C"
_symmetry_group_IT_number 15
_symmetry_cell_setting 'monoclinic'
loop_
_space_group_symop_operation_xyz
x,y,z
-x,y,1/2-z
-x,-y,-z
x,-y,1/2+z
1/2+x,1/2+y,z
1/2-x,1/2+y,1/2-z
1/2-x,1/2-y,-z
1/2+x,1/2-y,1/2+z
loop_
_atom_site_type_symbol
_atom_site_label
_atom_site_fract_x
_atom_site_fract_y
_atom_site_fract_z
Si Si1 0.285348 0.914440 0.399947
Si Si2 0.342078 0.226753 0.756762
Si Si3 0.703915 0.155787 0.933246
Si Si4 0.165059 0.947434 0.239540
Si Si5 0.315422 0.601745 0.544049
Si Si6 0.394753 0.225869 0.443221
O O1 0.160419 0.894731 0.292528
O O2 0.203012 0.936407 0.409525
O O3 0.408378 0.780213 0.463165
O O4 0.361986 0.062507 0.426351
O O5 0.519351 0.190709 0.823576
O O6 0.317943 0.126709 0.790488
O O7 0.328549 0.387357 0.764418
O O8 0.199378 0.196216 0.646878
O O9 0.837309 0.190524 0.960580
O O10 0.750000 0.250000 0.000000
O O11 0.720476 0.998145 0.959526
O O12 0.006868 0.896936 0.131318
O O13 0.250000 0.750000 0.500000
#
# Coordination Sequence:
#
# PCOD8143472 Si02
#       6
#     8   8   8   8   8   8
#     4  10  21  40  69  92 132 172 221 270 338 403
#     4  11  24  41  67  97 135 172 225 277 335 407
#     4  12  22  42  68  93 130 175 227 271 336 404
#     4  11  24  42  67  97 131 176 224 274 338 406
#     4  12  26  43  65  99 136 174 224 283 338 404
#     4  10  21  40  67  99 126 173 223 274 329 406
#
# _framework density 21.690235000000001
#
# number of rings (size 3 to 8) (size 9 to 14) (size 15 to 20)
#    0.000    1.000    3.333    3.000    7.000    2.667 
#    3.000    3.333    0.000    0.000    0.000    0.000 
#    0.000    0.000    0.000    0.000    0.000    0.000 
#
# Total GULP energy -297452.578129 kJ/mol
# GULP energy per Si atom -12393.857422 kJ/mol
# Density = 2.164087 g / cm^3
# Si number density = 21.690235 Si / 1000 Ang^3
#
#
#
# Elastic Constant Matrix: (Units=GPa)
#
#
# Indices 1 2 3 4 5 6 
#
# 1 81.4693 16.1383 14.6496 0.0000 -2.6867 0.0000
# 2 16.1383 99.7432 44.2961 0.0000 -1.9976 0.0000
# 3 14.6496 44.2961 106.2722 -0.0001 -1.2082 -0.0001
# 4 0.0000 0.0000 -0.0001 31.3913 0.0000 -1.0520
# 5 -2.6867 -1.9976 -1.2082 0.0000 36.1317 0.0000
# 6 0.0000 0.0000 -0.0001 -1.0520 0.0000 34.2910
#
#
#
# Elastic Compliance Matrix: (Units=1/GPa)
#
#
# Indices 1 2 3 4 5 6 
#
# 1 0.012811 -0.001566 -0.001104 0.000000 0.000829 0.000000
# 2 -0.001566 0.012504 -0.004991 0.000000 0.000408 0.000000
# 3 -0.001104 -0.004991 0.011643 0.000000 0.000031 0.000000
# 4 0.000000 0.000000 0.000000 0.031889 0.000000 0.000978
# 5 0.000829 0.000408 0.000031 0.000000 0.027762 0.000000
# 6 0.000000 0.000000 0.000000 0.000978 0.000000 0.029192
#
#
# Mechanical properties :
#
#
# Convention : Reuss Voigt Hill
#
# Bulk Modulus (GPa) = 46.22110 48.62808 47.42459
# Shear Modulus (GPa) = 33.70774 34.52287 34.11531
#
# Velocity S-wave (km/s) = 3.94642 3.99385 3.97021
# Velocity P-wave (km/s) = 6.49011 6.61331 6.55200
#
# Compressibility (1/GPa) = 0.02163514
#
# Stress axis : x y z
#
# Youngs Moduli (GPa) = 78.06052 79.97477 85.89004
#
# Poissons Ratio (x) = 0.12523 0.09481
# Poissons Ratio (y) = 0.12224 0.42871
# Poissons Ratio (z) = 0.08616 0.39918
#
# Static dielectric constant tensor:
#      x y z
#    x 3.390180 0.000000 -0.313040 
#    y 0.000000 3.526640 0.000000 
#    z -0.313040 0.000000 3.343710 
# 
# 
# High freq. dielectric constant tensor:
#      x y z
#    x 1.851130 0.000000 -0.002190 
#    y 0.000000 1.836620 0.000000 
#    z -0.002190 0.000000 1.862890 
# 
# From -- ./inp_files/315775.got.cif
#   From: 2010.06.25/outbox.cif.g09.slc.cpg/sg15_158_cif.got.tgz:315775.got - 2010.06.28 07:06:18.
