data_PCOD8143381
_publ_section_title
;
Structure prediction by ZEFSAII (Michael W. Deem and Ramdas Pophale) SiO2 
 PCOD8143381
Probable space group: C 2/C
;
_chemical_formula_sum "Si O2"
_cell_formula_units_Z 60
_cell_length_a 27.087343
_cell_length_b 14.754948
_cell_length_c 21.146746
_cell_angle_alpha 90.000000
_cell_angle_beta 19.624902
_cell_angle_gamma 90.000000
_cell_volume 2838.619528
_symmetry_space_group_name_H-M "C 2/C"
_symmetry_group_IT_number 15
_symmetry_cell_setting 'monoclinic'
loop_
_space_group_symop_operation_xyz
x,y,z
-x,y,1/2-z
-x,-y,-z
x,-y,1/2+z
1/2+x,1/2+y,z
1/2-x,1/2+y,1/2-z
1/2-x,1/2-y,-z
1/2+x,1/2-y,1/2+z
loop_
_atom_site_type_symbol
_atom_site_label
_atom_site_fract_x
_atom_site_fract_y
_atom_site_fract_z
Si Si1 0.153917 0.307248 0.750738
Si Si2 0.157705 0.022592 0.619660
Si Si3 0.594249 0.001197 0.286006
Si Si4 0.995658 0.212959 0.824253
Si Si5 0.626437 0.034124 0.546999
Si Si6 0.000000 0.131192 0.250000
Si Si7 0.546982 0.805794 0.393978
Si Si8 0.650828 0.233766 0.481670
O O1 0.115131 0.412869 0.805067
O O2 0.327364 0.291125 0.549894
O O3 0.094216 0.267060 0.756131
O O4 0.070002 0.270161 0.913117
O O5 0.269990 0.006494 0.426526
O O6 0.063681 0.113813 0.728907
O O7 0.239251 0.026248 0.588966
O O8 0.054321 0.934104 0.741349
O O9 0.437332 0.010602 0.439517
O O10 0.584703 0.912426 0.341152
O O11 0.000000 0.263156 0.750000
O O12 0.500000 0.039023 0.750000
O O13 0.682840 0.135243 0.470183
O O14 0.124764 0.195976 0.070373
O O15 0.487663 0.768002 0.398609
O O16 0.697829 0.760440 0.234550
#
# Coordination Sequence:
#
# PCOD8143381 Si02
#       8
#     8   8   8   8   8   4   8   8
#     4  12  26  45  67  92 128 174 221 266 332 389
#     4  11  21  39  60  97 130 159 211 272 332 367
#     4  10  21  40  66  90 127 170 212 260 326 384
#     4  12  26  44  69  97 125 163 225 287 327 375
#     4   9  20  34  61  97 132 163 202 263 320 387
#     4  12  20  34  68  94 134 166 212 272 322 378
#     4  11  24  43  64  94 136 176 213 259 319 405
#     4  11  22  38  64  98 130 172 214 258 319 387
#
# _framework density 21.137034
#
# number of rings (size 3 to 8) (size 9 to 14) (size 15 to 20)
#    0.000    1.067    4.000    2.400    1.867    1.600 
#    0.000    0.000    0.000    3.200    0.000    0.000 
#    0.000    0.000    0.000    0.000    0.000    0.000 
#
# Total GULP energy -371828.496765 kJ/mol
# GULP energy per Si atom -12394.283226 kJ/mol
# Density = 2.108893 g / cm^3
# Si number density = 21.137034 Si / 1000 Ang^3
#
#
#
# Elastic Constant Matrix: (Units=GPa)
#
#
# Indices 1 2 3 4 5 6 
#
# 1 60.3738 14.4099 23.5633 0.0045 -8.8204 -0.0030
# 2 14.4099 59.9485 21.7125 0.0024 -7.8273 -0.0025
# 3 23.5633 21.7125 117.4274 0.0013 -3.2119 -0.0024
# 4 0.0045 0.0024 0.0013 20.9013 -0.0029 -4.4395
# 5 -8.8204 -7.8273 -3.2119 -0.0029 42.9633 0.0022
# 6 -0.0030 -0.0025 -0.0024 -4.4395 0.0022 21.6344
#
#
#
# Elastic Compliance Matrix: (Units=1/GPa)
#
#
# Indices 1 2 3 4 5 6 
#
# 1 0.018971 -0.003007 -0.003166 -0.000003 0.003110 0.000001
# 2 -0.003007 0.018754 -0.002793 -0.000001 0.002590 0.000001
# 3 -0.003166 -0.002793 0.009656 0.000000 -0.000437 0.000000
# 4 -0.000003 -0.000001 0.000000 0.050024 0.000002 0.010265
# 5 0.003110 0.002590 -0.000437 0.000002 0.024353 -0.000001
# 6 0.000001 0.000001 0.000000 0.010265 -0.000001 0.048329
#
#
# Mechanical properties :
#
#
# Convention : Reuss Voigt Hill
#
# Bulk Modulus (GPa) = 33.95834 39.68012 36.81923
# Shear Modulus (GPa) = 25.27340 28.97074 27.12207
#
# Velocity S-wave (km/s) = 3.46163 3.70620 3.58600
# Velocity P-wave (km/s) = 5.66373 6.09328 5.88243
#
# Compressibility (1/GPa) = 0.02944785
#
# Stress axis : x y z
#
# Youngs Moduli (GPa) = 52.71142 53.32255 103.56628
#
# Poissons Ratio (x) = 0.16037 0.32785
# Poissons Ratio (y) = 0.15853 0.28929
# Poissons Ratio (z) = 0.16687 0.14894
#
# Static dielectric constant tensor:
#      x y z
#    x 3.976240 0.000000 -0.270020 
#    y 0.000000 3.780610 0.000000 
#    z -0.270020 0.000000 3.865550 
# 
# 
# High freq. dielectric constant tensor:
#      x y z
#    x 1.824840 0.000000 -0.017860 
#    y 0.000000 1.828060 0.000000 
#    z -0.017860 0.000000 1.827740 
# 
# From -- ./inp_files/257841.got.cif
#   From: 2010.06.25/outbox.cif.g09.slc.cpg/sg15_129_cif.got.tgz:257841.got - 2010.06.28 07:06:18.
