data_PCOD8143617
_publ_section_title
;
Structure prediction by ZEFSAII (Michael W. Deem and Ramdas Pophale) SiO2 
 PCOD8143617
Probable space group: C 2/C
;
_chemical_formula_sum "Si O2"
_cell_formula_units_Z 64
_cell_length_a 20.485426
_cell_length_b 11.232779
_cell_length_c 26.906311
_cell_angle_alpha 90.000000
_cell_angle_beta 149.484319
_cell_angle_gamma 90.000000
_cell_volume 3143.814896
_symmetry_space_group_name_H-M "C 2/C"
_symmetry_group_IT_number 15
_symmetry_cell_setting 'monoclinic'
loop_
_space_group_symop_operation_xyz
x,y,z
-x,y,1/2-z
-x,-y,-z
x,-y,1/2+z
1/2+x,1/2+y,z
1/2-x,1/2+y,1/2-z
1/2-x,1/2-y,-z
1/2+x,1/2-y,1/2+z
loop_
_atom_site_type_symbol
_atom_site_label
_atom_site_fract_x
_atom_site_fract_y
_atom_site_fract_z
Si Si1 0.883471 0.452476 0.956651
Si Si2 0.173566 0.652865 0.284081
Si Si3 0.141636 0.319487 0.213787
Si Si4 0.210295 0.911279 0.276836
Si Si5 0.648170 0.981015 0.355680
Si Si6 0.161469 0.820611 0.072060
Si Si7 0.908498 0.084352 0.369354
Si Si8 0.056639 0.488838 0.897273
O O1 0.752003 0.484943 0.842127
O O2 0.888696 0.312161 0.971569
O O3 0.879208 0.518618 0.006835
O O4 0.000000 0.500000 0.000000
O O5 0.173370 0.795841 0.285002
O O6 0.187078 0.595964 0.347854
O O7 0.284619 0.594840 0.323325
O O8 0.036819 0.623756 0.169737
O O9 0.166471 0.377266 0.176086
O O10 0.275510 0.325292 0.332167
O O11 0.093383 0.185823 0.174276
O O12 0.030894 0.393122 0.168598
O O13 0.097838 0.961372 0.166699
O O14 0.500000 0.947950 0.250000
O O15 0.734404 0.865490 0.399883
O O16 0.665624 0.012317 0.425623
O O17 0.037809 0.908173 0.987333
#
# Coordination Sequence:
#
# PCOD8143617 Si02
#       8
#     8   8   8   8   8   8   8   8
#     4  12  22  39  65 100 130 165 204 261 341 380
#     4  10  21  41  61  90 128 175 208 259 322 383
#     4  11  20  38  60  96 127 162 205 266 321 373
#     4  11  22  37  62  92 134 158 204 273 324 377
#     4  10  22  42  67  87 125 178 219 255 309 381
#     4  12  23  38  71  98 127 166 216 270 323 385
#     4  11  21  38  62 100 131 153 211 278 329 368
#     4  11  21  43  66  89 127 173 217 254 315 395
#
# _framework density 20.357433
#
# number of rings (size 3 to 8) (size 9 to 14) (size 15 to 20)
#    0.000    1.000    7.500    0.750    1.750    2.500 
#    2.250    0.625    5.500    0.000    0.000    0.000 
#    0.000    0.000    0.000    0.000    0.000    0.000 
#
# Total GULP energy -396701.208229 kJ/mol
# GULP energy per Si atom -12396.912757 kJ/mol
# Density = 2.031110 g / cm^3
# Si number density = 20.357433 Si / 1000 Ang^3
#
#
#
# Elastic Constant Matrix: (Units=GPa)
#
#
# Indices 1 2 3 4 5 6 
#
# 1 112.8055 51.5326 32.9386 -0.0004 -11.3533 0.0002
# 2 51.5326 104.7670 17.4999 -0.0014 4.9732 -0.0009
# 3 32.9386 17.4999 72.9052 -0.0058 -9.8733 -0.0008
# 4 -0.0004 -0.0014 -0.0058 36.0197 -0.0013 -0.7791
# 5 -11.3533 4.9732 -9.8733 -0.0013 31.8218 0.0002
# 6 0.0002 -0.0009 -0.0008 -0.7791 0.0002 23.8785
#
#
#
# Elastic Compliance Matrix: (Units=1/GPa)
#
#
# Indices 1 2 3 4 5 6 
#
# 1 0.013226 -0.006063 -0.003918 -0.000001 0.004451 -0.000001
# 2 -0.006063 0.012901 -0.000964 0.000000 -0.004478 0.000001
# 3 -0.003918 -0.000964 0.016231 0.000003 0.003789 0.000001
# 4 -0.000001 0.000000 0.000003 0.027782 0.000002 0.000906
# 5 0.004451 -0.004478 0.003789 0.000002 0.034888 0.000000
# 6 -0.000001 0.000001 0.000001 0.000906 0.000000 0.041908
#
#
# Mechanical properties :
#
#
# Convention : Reuss Voigt Hill
#
# Bulk Modulus (GPa) = 48.85351 54.93556 51.89453
# Shear Modulus (GPa) = 28.46598 30.91111 29.68854
#
# Velocity S-wave (km/s) = 3.74345 3.90092 3.82300
# Velocity P-wave (km/s) = 6.53717 6.87994 6.71074
#
# Compressibility (1/GPa) = 0.02046936
#
# Stress axis : x y z
#
# Youngs Moduli (GPa) = 75.60716 77.51541 61.61075
#
# Poissons Ratio (x) = 0.46995 0.24137
# Poissons Ratio (y) = 0.45838 0.05939
# Poissons Ratio (z) = 0.29620 0.07473
#
# Static dielectric constant tensor:
#      x y z
#    x 3.772480 0.000000 -0.204550 
#    y 0.000000 3.746630 0.000000 
#    z -0.204550 0.000000 3.661700 
# 
# 
# High freq. dielectric constant tensor:
#      x y z
#    x 1.776800 0.000000 -0.019150 
#    y 0.000000 1.793430 0.000000 
#    z -0.019150 0.000000 1.791750 
# 
# From -- ./inp_files/300872.got.cif
#   From: 2010.06.25/outbox.cif.g09.slc.cpg/sg15_151_cif.got.tgz:300872.got - 2010.06.28 07:06:18.
