data_PCOD8143003
_publ_section_title
;
Structure prediction by ZEFSAII (Michael W. Deem and Ramdas Pophale) SiO2 
 PCOD8143003
Probable space group: C 2/C
;
_chemical_formula_sum "Si O2"
_cell_formula_units_Z 52
_cell_length_a 8.573085
_cell_length_b 25.346239
_cell_length_c 14.450142
_cell_angle_alpha 90.000000
_cell_angle_beta 52.711482
_cell_angle_gamma 90.000000
_cell_volume 2498.128436
_symmetry_space_group_name_H-M "C 2/C"
_symmetry_group_IT_number 15
_symmetry_cell_setting 'monoclinic'
loop_
_space_group_symop_operation_xyz
x,y,z
-x,y,1/2-z
-x,-y,-z
x,-y,1/2+z
1/2+x,1/2+y,z
1/2-x,1/2+y,1/2-z
1/2-x,1/2-y,-z
1/2+x,1/2-y,1/2+z
loop_
_atom_site_type_symbol
_atom_site_label
_atom_site_fract_x
_atom_site_fract_y
_atom_site_fract_z
Si Si1 0.000000 0.734643 0.250000
Si Si2 0.114357 0.539076 0.571961
Si Si3 0.714082 0.511191 0.175400
Si Si4 0.215845 0.439560 0.660292
Si Si5 0.000000 0.373114 0.250000
Si Si6 0.616341 0.332993 0.902164
Si Si7 0.309055 0.711169 0.651230
Si Si8 0.500000 0.702243 0.250000
O O1 0.184619 0.699450 0.154285
O O2 0.052314 0.773417 0.314499
O O3 0.244520 0.545295 0.432929
O O4 0.207423 0.490755 0.597275
O O5 0.887297 0.530954 0.625322
O O6 0.114195 0.591801 0.632670
O O7 0.500000 0.483068 0.250000
O O8 0.703542 0.548832 0.267075
O O9 0.351801 0.392876 0.571304
O O10 0.000000 0.415681 0.750000
O O11 0.165242 0.336057 0.236709
O O12 0.554330 0.334645 0.816914
O O13 0.440885 0.306568 0.019178
O O14 0.185718 0.761001 0.659147
#
# Coordination Sequence:
#
# PCOD8143003 Si02
#       8
#     4   8   8   8   4   8   8   4
#     4  10  22  45  60  92 128 151 200 264 310 374
#     4  10  22  44  59  86 135 164 193 267 309 352
#     4  10  22  38  63  88 122 161 213 247 302 365
#     4  10  21  40  58  93 124 157 212 244 310 370
#     4  11  22  43  60  84 128 171 202 253 308 358
#     4  11  21  39  67  91 121 163 198 265 307 359
#     4  10  23  40  62  92 120 163 211 244 311 375
#     4   9  22  40  62  88 128 156 208 255 310 370
#
# _framework density 20.815581999999999
#
# number of rings (size 3 to 8) (size 9 to 14) (size 15 to 20)
#    0.000    1.846    3.077    0.923    3.231    1.846 
#    9.692    1.538    0.000    0.000    0.000    0.000 
#    0.000    0.000    0.000    0.000    0.000    0.000 
#
# Total GULP energy -322308.784268 kJ/mol
# GULP energy per Si atom -12396.491703 kJ/mol
# Density = 2.076821 g / cm^3
# Si number density = 20.815582 Si / 1000 Ang^3
#
#
#
# Elastic Constant Matrix: (Units=GPa)
#
#
# Indices 1 2 3 4 5 6 
#
# 1 128.9759 51.4836 49.6154 0.0000 3.1688 0.0000
# 2 51.4836 85.4817 11.6018 0.0000 4.7964 0.0000
# 3 49.6154 11.6018 73.8243 0.0000 -2.6235 0.0000
# 4 0.0000 0.0000 0.0000 3.2321 0.0000 7.3770
# 5 3.1688 4.7964 -2.6235 0.0000 33.8982 0.0000
# 6 0.0000 0.0000 0.0000 7.3770 0.0000 -0.8620
#
#
#
# Elastic Compliance Matrix: (Units=1/GPa)
#
#
# Indices 1 2 3 4 5 6 
#
# 1 0.013761 -0.007129 -0.008160 0.000000 -0.000909 0.000000
# 2 -0.007129 0.015763 0.002265 0.000000 -0.001389 0.000000
# 3 -0.008160 0.002265 0.018741 0.000000 0.001893 0.000000
# 4 0.000000 0.000000 0.000000 0.015068 0.000000 0.128955
# 5 -0.000909 -0.001389 0.001893 0.000000 0.029928 0.000000
# 6 0.000000 0.000000 0.000000 0.128955 0.000000 -0.056500
#
#
# Mechanical properties :
#
#
# Convention : Reuss Voigt Hill
#
# Bulk Modulus (GPa) = 45.01341 57.07593 51.04467
# Shear Modulus (GPa) = 71.21043 18.95907 45.08475
#
# Velocity S-wave (km/s) = 5.85529 3.02124 4.65899
# Velocity P-wave (km/s) = 8.20880 6.29681 7.31554
#
# Compressibility (1/GPa) = 0.02221560
#
# Stress axis : x y z
#
# Youngs Moduli (GPa) = 72.67157 63.44112 53.35849
#
# Poissons Ratio (x) = 0.45228 0.43541
# Poissons Ratio (y) = 0.51809 -0.12085
# Poissons Ratio (z) = 0.59300 -0.14368
#
# Static dielectric constant tensor:
#      x y z
#    x 4.056180 0.000000 -0.117450 
#    y 0.000000 3.547830 0.000000 
#    z -0.117450 0.000000 3.769870 
# 
# 
# High freq. dielectric constant tensor:
#      x y z
#    x 1.831570 0.000000 -0.009440 
#    y 0.000000 1.800180 0.000000 
#    z -0.009440 0.000000 1.811640 
# 
# From -- ./inp_files/138478.got.cif
#   From: 2010.06.25/outbox.cif.g09.slc.cpg/sg15_70_cif.got.tgz:138478.got - 2010.06.28 07:06:18.
