data_PCOD8143842
_publ_section_title
;
Structure prediction by ZEFSAII (Michael W. Deem and Ramdas Pophale) SiO2 
 PCOD8143842
Probable space group: C 2/C
;
_chemical_formula_sum "Si O2"
_cell_formula_units_Z 56
_cell_length_a 24.082677
_cell_length_b 13.155381
_cell_length_c 9.654554
_cell_angle_alpha 90.000000
_cell_angle_beta 120.260499
_cell_angle_gamma 90.000000
_cell_volume 2641.952698
_symmetry_space_group_name_H-M "C 2/C"
_symmetry_group_IT_number 15
_symmetry_cell_setting 'monoclinic'
loop_
_space_group_symop_operation_xyz
x,y,z
-x,y,1/2-z
-x,-y,-z
x,-y,1/2+z
1/2+x,1/2+y,z
1/2-x,1/2+y,1/2-z
1/2-x,1/2-y,-z
1/2+x,1/2-y,1/2+z
loop_
_atom_site_type_symbol
_atom_site_label
_atom_site_fract_x
_atom_site_fract_y
_atom_site_fract_z
Si Si1 0.226078 0.583714 0.770772
Si Si2 0.249263 0.350843 0.584077
Si Si3 0.923797 0.898218 0.140618
Si Si4 0.628579 0.172991 0.457690
Si Si5 0.841029 0.623312 0.312661
Si Si6 0.148230 0.996794 0.190716
Si Si7 0.043907 0.520559 0.927310
O O1 0.185471 0.674476 0.645059
O O2 0.192335 0.481459 0.679776
O O3 0.299841 0.580722 0.810913
O O4 0.218140 0.575669 0.927680
O O5 0.250000 0.250000 0.500000
O O6 0.205363 0.305963 0.654771
O O7 0.317142 0.399516 0.714168
O O8 0.905941 0.781482 0.086530
O O9 0.000000 0.907508 0.250000
O O10 0.888279 0.936214 0.234527
O O11 0.903285 0.970664 0.988932
O O12 0.660805 0.153105 0.348745
O O13 0.577597 0.084134 0.423403
O O14 0.911495 0.614219 0.467576
O O15 0.000000 0.564244 0.750000
O O16 0.000000 0.500000 0.000000
#
# Coordination Sequence:
#
# PCOD8143842 Si02
#       7
#     8   8   8   8   8   8   8
#     4  10  21  41  65  96 133 163 217 279 352 395
#     4  11  23  40  63  96 129 158 218 285 342 398
#     4  12  27  46  69  94 138 182 239 272 327 416
#     4  11  24  40  66 104 131 177 228 279 339 410
#     4  10  22  37  61  90 132 171 212 272 343 401
#     4  11  24  46  69  93 128 185 220 285 347 385
#     4  11  21  38  63  90 135 178 218 269 339 408
#
# _framework density 21.196442999999999
#
# number of rings (size 3 to 8) (size 9 to 14) (size 15 to 20)
#    0.000    1.143    2.857    4.286    6.000    0.571 
#    0.000    0.000    0.000    0.000    0.000    0.000 
#    0.000    0.000    0.000    0.000    0.000    0.000 
#
# Total GULP energy -346879.551228 kJ/mol
# GULP energy per Si atom -12388.555401 kJ/mol
# Density = 2.114820 g / cm^3
# Si number density = 21.196443 Si / 1000 Ang^3
#
#
#
# Elastic Constant Matrix: (Units=GPa)
#
#
# Indices 1 2 3 4 5 6 
#
# 1 118.0267 10.4596 45.3268 0.0000 -5.7209 0.0000
# 2 10.4596 49.2424 7.0571 0.0000 7.1713 0.0000
# 3 45.3268 7.0571 141.2966 0.0000 5.4891 0.0000
# 4 0.0000 0.0000 0.0000 27.9768 0.0000 -4.0523
# 5 -5.7209 7.1713 5.4891 0.0000 50.7595 0.0000
# 6 0.0000 0.0000 0.0000 -4.0523 0.0000 26.8256
#
#
#
# Elastic Compliance Matrix: (Units=1/GPa)
#
#
# Indices 1 2 3 4 5 6 
#
# 1 0.009940 -0.001911 -0.003160 0.000000 0.001732 0.000000
# 2 -0.001911 0.021223 -0.000324 0.000000 -0.003179 0.000000
# 3 -0.003160 -0.000324 0.008154 0.000000 -0.001192 0.000000
# 4 0.000000 0.000000 0.000000 0.036543 0.000000 0.005520
# 5 0.001732 -0.003179 -0.001192 0.000000 0.020474 0.000000
# 6 0.000000 0.000000 0.000000 0.005520 0.000000 0.038112
#
#
# Mechanical properties :
#
#
# Convention : Reuss Voigt Hill
#
# Bulk Modulus (GPa) = 35.05462 48.25028 41.65245
# Shear Modulus (GPa) = 32.31156 37.49387 34.90271
#
# Velocity S-wave (km/s) = 3.90857 4.21036 4.06227
# Velocity P-wave (km/s) = 6.07809 6.81535 6.45725
#
# Compressibility (1/GPa) = 0.02852691
#
# Stress axis : x y z
#
# Youngs Moduli (GPa) = 100.60717 47.11911 122.64488
#
# Poissons Ratio (x) = 0.09002 0.38761
# Poissons Ratio (y) = 0.19222 0.03969
# Poissons Ratio (z) = 0.31796 0.01525
#
# Static dielectric constant tensor:
#      x y z
#    x 3.889130 0.000000 0.297160 
#    y 0.000000 3.678230 0.000000 
#    z 0.297160 0.000000 3.726570 
# 
# 
# High freq. dielectric constant tensor:
#      x y z
#    x 1.836960 0.000000 -0.010370 
#    y 0.000000 1.822040 0.000000 
#    z -0.010370 0.000000 1.853090 
# 
# From -- ./inp_files/61994.got.cif
#   From: 2010.06.25/outbox.cif.g09.slc.cpg/sg15_31_cif.got.tgz:61994.got - 2010.06.28 07:06:18.
