data_PCOD8143672
_publ_section_title
;
Structure prediction by ZEFSAII (Michael W. Deem and Ramdas Pophale) SiO2 
 PCOD8143672
Probable space group: C 2/C
;
_chemical_formula_sum "Si O2"
_cell_formula_units_Z 40
_cell_length_a 4.867614
_cell_length_b 29.776811
_cell_length_c 13.346063
_cell_angle_alpha 90.000000
_cell_angle_beta 108.077495
_cell_angle_gamma 90.000000
_cell_volume 1838.918637
_symmetry_space_group_name_H-M "C 2/C"
_symmetry_group_IT_number 15
_symmetry_cell_setting 'monoclinic'
loop_
_space_group_symop_operation_xyz
x,y,z
-x,y,1/2-z
-x,-y,-z
x,-y,1/2+z
1/2+x,1/2+y,z
1/2-x,1/2+y,1/2-z
1/2-x,1/2-y,-z
1/2+x,1/2-y,1/2+z
loop_
_atom_site_type_symbol
_atom_site_label
_atom_site_fract_x
_atom_site_fract_y
_atom_site_fract_z
Si Si1 0.182243 0.291998 0.180294
Si Si2 0.988545 0.194141 0.363479
Si Si3 0.114799 0.475129 0.373622
Si Si4 0.083913 0.343677 0.975781
Si Si5 0.206537 0.943210 0.492511
O O1 0.500000 0.276263 0.250000
O O2 0.996159 0.248166 0.127259
O O3 0.000000 0.315447 0.250000
O O4 0.232067 0.325994 0.094263
O O5 0.698383 0.179775 0.387903
O O6 0.000000 0.177848 0.250000
O O7 0.248748 0.169175 0.449689
O O8 0.364115 0.438783 0.430640
O O9 0.242323 0.525453 0.403868
O O10 0.000000 0.468020 0.250000
O O11 0.839493 0.468020 0.412075
O O12 0.139863 0.396177 0.970950
#
# Coordination Sequence:
#
# PCOD8143672 Si02
#       5
#     8   8   8   8   8
#     4  11  23  40  61  89 123 165 210 248 302 367
#     4  11  23  40  60  87 122 163 206 248 304 362
#     4  10  21  41  63  84 122 161 189 242 306 361
#     4  12  23  40  63  90 124 157 200 262 305 346
#     4  10  23  39  60  94 118 150 207 242 293 377
#
# _framework density 21.751912000000001
#
# number of rings (size 3 to 8) (size 9 to 14) (size 15 to 20)
#    0.000    1.200    0.000    7.200    0.000    4.000 
#    0.000    0.000    0.000    0.000    0.000    0.000 
#    0.000    0.000    0.000    0.000    0.000    0.000 
#
# Total GULP energy -248058.039443 kJ/mol
# GULP energy per Si atom -12402.901972 kJ/mol
# Density = 2.170240 g / cm^3
# Si number density = 21.751912 Si / 1000 Ang^3
#
#
#
# Elastic Constant Matrix: (Units=GPa)
#
#
# Indices 1 2 3 4 5 6 
#
# 1 89.2539 5.0586 11.1711 0.0000 -1.1477 0.0000
# 2 5.0586 77.5375 9.0461 0.0000 -0.0987 0.0000
# 3 11.1711 9.0461 74.4244 0.0000 -13.1605 0.0000
# 4 0.0000 0.0000 0.0000 15.5009 0.0000 -1.2841
# 5 -1.1477 -0.0987 -13.1605 0.0000 44.5773 0.0000
# 6 0.0000 0.0000 0.0000 -1.2841 0.0000 23.2734
#
#
#
# Elastic Compliance Matrix: (Units=1/GPa)
#
#
# Indices 1 2 3 4 5 6 
#
# 1 0.011444 -0.000550 -0.001687 0.000000 -0.000205 0.000000
# 2 -0.000550 0.013118 -0.001592 0.000000 -0.000455 0.000000
# 3 -0.001687 -0.001592 0.014639 0.000000 0.004275 0.000000
# 4 0.000000 0.000000 0.000000 0.064809 0.000000 0.003576
# 5 -0.000205 -0.000455 0.004275 0.000000 0.023689 0.000000
# 6 0.000000 0.000000 0.000000 0.003576 0.000000 0.043165
#
#
# Mechanical properties :
#
#
# Convention : Reuss Voigt Hill
#
# Bulk Modulus (GPa) = 31.70379 32.41862 32.06120
# Shear Modulus (GPa) = 26.44999 31.06632 28.75816
#
# Velocity S-wave (km/s) = 3.49088 3.78327 3.64001
# Velocity P-wave (km/s) = 5.55474 5.83269 5.69541
#
# Compressibility (1/GPa) = 0.03154197
#
# Stress axis : x y z
#
# Youngs Moduli (GPa) = 87.38445 76.23069 68.30989
#
# Poissons Ratio (x) = 0.04193 0.11524
# Poissons Ratio (y) = 0.04806 0.10878
# Poissons Ratio (z) = 0.14742 0.12139
#
# Static dielectric constant tensor:
#      x y z
#    x 4.083260 0.000000 -0.126170 
#    y 0.000000 3.652100 0.000000 
#    z -0.126170 0.000000 3.890290 
# 
# 
# High freq. dielectric constant tensor:
#      x y z
#    x 1.875060 0.000000 -0.007070 
#    y 0.000000 1.835440 0.000000 
#    z -0.007070 0.000000 1.852390 
# 
# From -- ./inp_files/73634.got.cif
#   From: 2010.06.25/outbox.cif.g09.slc.cpg/sg15_37_cif.got.tgz:73634.got - 2010.06.28 07:06:18.
