data_PCOD8143029
_publ_section_title
;
Structure prediction by ZEFSAII (Michael W. Deem and Ramdas Pophale) SiO2 
 PCOD8143029
Probable space group: C 2/C
;
_chemical_formula_sum "Si O2"
_cell_formula_units_Z 40
_cell_length_a 6.918628
_cell_length_b 23.362072
_cell_length_c 12.587871
_cell_angle_alpha 90.000000
_cell_angle_beta 74.855818
_cell_angle_gamma 90.000000
_cell_volume 1963.962038
_symmetry_space_group_name_H-M "C 2/C"
_symmetry_group_IT_number 15
_symmetry_cell_setting 'monoclinic'
loop_
_space_group_symop_operation_xyz
x,y,z
-x,y,1/2-z
-x,-y,-z
x,-y,1/2+z
1/2+x,1/2+y,z
1/2-x,1/2+y,1/2-z
1/2-x,1/2-y,-z
1/2+x,1/2-y,1/2+z
loop_
_atom_site_type_symbol
_atom_site_label
_atom_site_fract_x
_atom_site_fract_y
_atom_site_fract_z
Si Si1 0.473199 0.765928 0.502124
Si Si2 0.149035 0.181540 0.632103
Si Si3 0.062694 0.375753 0.861657
Si Si4 0.291326 0.567071 0.983236
Si Si5 0.089673 0.048275 0.129055
O O1 0.250000 0.750000 0.500000
O O2 0.621285 0.792831 0.388251
O O3 0.569878 0.708088 0.533153
O O4 0.462024 0.810486 0.600438
O O5 0.143103 0.113108 0.616114
O O6 0.000000 0.197670 0.750000
O O7 0.286601 0.396074 0.852942
O O8 0.000000 0.381776 0.750000
O O9 0.931535 0.418445 0.950661
O O10 0.282713 0.503505 0.937986
O O11 0.431419 0.570664 0.066398
O O12 0.000000 0.022377 0.250000
#
# Coordination Sequence:
#
# PCOD8143029 Si02
#       5
#     8   8   8   8   8
#     4  10  22  39  60  87 120 154 202 250 296 366
#     4  10  21  40  60  86 119 157 197 246 305 353
#     4  11  21  38  59  87 118 156 198 248 304 357
#     4  10  22  38  59  85 121 154 201 250 293 362
#     4  11  21  37  60  87 117 158 198 244 304 358
#
# _framework density 20.366993999999998
#
# number of rings (size 3 to 8) (size 9 to 14) (size 15 to 20)
#    0.000    1.600    2.000    3.000    0.000    0.800 
#    3.600    0.000    0.000    0.000    0.000    0.000 
#    0.000    0.000    0.000    0.000    0.000    0.000 
#
# Total GULP energy -247888.883584 kJ/mol
# GULP energy per Si atom -12394.444179 kJ/mol
# Density = 2.032064 g / cm^3
# Si number density = 20.366994 Si / 1000 Ang^3
#
#
#
# Elastic Constant Matrix: (Units=GPa)
#
#
# Indices 1 2 3 4 5 6 
#
# 1 101.5047 15.9374 26.4021 0.0000 -3.2397 0.0000
# 2 15.9374 61.4900 10.4752 0.0000 -2.8952 0.0000
# 3 26.4021 10.4752 96.6256 0.0000 -13.8627 0.0000
# 4 0.0000 0.0000 0.0000 18.2145 0.0000 -2.5960
# 5 -3.2397 -2.8952 -13.8627 0.0000 24.0329 0.0000
# 6 0.0000 0.0000 0.0000 -2.5960 0.0000 23.8651
#
#
#
# Elastic Compliance Matrix: (Units=1/GPa)
#
#
# Indices 1 2 3 4 5 6 
#
# 1 0.010938 -0.002379 -0.002791 0.000000 -0.000422 0.000000
# 2 -0.002379 0.017111 -0.001041 0.000000 0.001140 0.000000
# 3 -0.002791 -0.001041 0.012159 0.000000 0.006512 0.000000
# 4 0.000000 0.000000 0.000000 0.055766 0.000000 0.006066
# 5 -0.000422 0.001140 0.006512 0.000000 0.045446 0.000000
# 6 0.000000 0.000000 0.000000 0.006066 0.000000 0.042562
#
#
# Mechanical properties :
#
#
# Convention : Reuss Voigt Hill
#
# Bulk Modulus (GPa) = 35.99238 40.58330 38.28784
# Shear Modulus (GPa) = 24.31117 27.00955 25.66036
#
# Velocity S-wave (km/s) = 3.45868 3.64558 3.55336
# Velocity P-wave (km/s) = 5.80174 6.13918 5.97285
#
# Compressibility (1/GPa) = 0.02778366
#
# Stress axis : x y z
#
# Youngs Moduli (GPa) = 91.42516 58.44346 82.24312
#
# Poissons Ratio (x) = 0.13906 0.22957
# Poissons Ratio (y) = 0.21753 0.08564
# Poissons Ratio (z) = 0.25520 0.06086
#
# Static dielectric constant tensor:
#      x y z
#    x 3.637500 0.000000 -1.243680 
#    y 0.000000 3.671510 0.000000 
#    z -1.243680 0.000000 -6.745360 
# 
# 
# High freq. dielectric constant tensor:
#      x y z
#    x 1.797940 0.000000 -0.014940 
#    y 0.000000 1.806930 0.000000 
#    z -0.014940 0.000000 1.786630 
# 
# From -- ./inp_files/73038.got.cif
#   From: 2010.06.25/outbox.cif.g09.slc.cpg/sg15_37_cif.got.tgz:73038.got - 2010.06.28 07:06:18.
