data_PCOD8143837
_publ_section_title
;
Structure prediction by ZEFSAII (Michael W. Deem and Ramdas Pophale) SiO2 
 PCOD8143837
Probable space group: C 2/C
;
_chemical_formula_sum "Si O2"
_cell_formula_units_Z 40
_cell_length_a 22.691144
_cell_length_b 8.091045
_cell_length_c 9.727315
_cell_angle_alpha 90.000000
_cell_angle_beta 77.533842
_cell_angle_gamma 90.000000
_cell_volume 1743.782403
_symmetry_space_group_name_H-M "C 2/C"
_symmetry_group_IT_number 15
_symmetry_cell_setting 'monoclinic'
loop_
_space_group_symop_operation_xyz
x,y,z
-x,y,1/2-z
-x,-y,-z
x,-y,1/2+z
1/2+x,1/2+y,z
1/2-x,1/2+y,1/2-z
1/2-x,1/2-y,-z
1/2+x,1/2-y,1/2+z
loop_
_atom_site_type_symbol
_atom_site_label
_atom_site_fract_x
_atom_site_fract_y
_atom_site_fract_z
Si Si1 0.159898 0.404143 0.398940
Si Si2 0.961508 0.447388 0.146660
Si Si3 0.437831 0.566570 0.232806
Si Si4 0.733968 0.910748 0.090380
Si Si5 0.364685 0.458618 0.521791
O O1 0.106450 0.512733 0.353070
O O2 0.207892 0.367726 0.254021
O O3 0.187617 0.491957 0.517311
O O4 0.129970 0.239661 0.478411
O O5 0.953569 0.254112 0.186330
O O6 0.000000 0.532273 0.250000
O O7 0.000000 0.500000 0.000000
O O8 0.500000 0.477601 0.250000
O O9 0.385964 0.550736 0.373950
O O10 0.409687 0.470972 0.116683
O O11 0.794815 0.010232 0.087745
O O12 0.750000 0.750000 0.000000
#
# Coordination Sequence:
#
# PCOD8143837 Si02
#       5
#     8   8   8   8   8
#     4  11  24  42  64  97 131 174 218 266 326 388
#     4  10  21  41  65  95 132 169 211 265 323 384
#     4  10  22  42  66  95 128 172 218 266 322 386
#     4  12  24  42  67  97 132 172 219 273 326 385
#     4  11  23  43  66  94 132 173 217 266 322 389
#
# _framework density 22.938642999999999
#
# number of rings (size 3 to 8) (size 9 to 14) (size 15 to 20)
#    0.000    1.200    0.000    7.200    0.000    3.200 
#    0.000   16.000    0.000    0.000    0.000    0.000 
#    0.000    0.000    0.000    0.000    0.000    0.000 
#
# Total GULP energy -247770.440906 kJ/mol
# GULP energy per Si atom -12388.522045 kJ/mol
# Density = 2.288643 g / cm^3
# Si number density = 22.938643 Si / 1000 Ang^3
#
#
#
# Elastic Constant Matrix: (Units=GPa)
#
#
# Indices 1 2 3 4 5 6 
#
# 1 162.9576 26.6010 23.9933 0.0000 24.4801 0.0000
# 2 26.6010 59.1568 46.0068 0.0000 2.0878 0.0000
# 3 23.9933 46.0068 144.5366 0.0000 -7.2679 0.0000
# 4 0.0000 0.0000 0.0000 35.1599 0.0000 -12.1473
# 5 24.4801 2.0878 -7.2679 0.0000 59.0892 0.0000
# 6 0.0000 0.0000 0.0000 -12.1473 0.0000 7.6868
#
#
#
# Elastic Compliance Matrix: (Units=1/GPa)
#
#
# Indices 1 2 3 4 5 6 
#
# 1 0.007084 -0.002732 -0.000452 0.000000 -0.002894 0.000000
# 2 -0.002732 0.023687 -0.007115 0.000000 -0.000580 0.000000
# 3 -0.000452 -0.007115 0.009338 0.000000 0.001587 0.000000
# 4 0.000000 0.000000 0.000000 0.062642 0.000000 0.098991
# 5 -0.002894 -0.000580 0.001587 0.000000 0.018338 0.000000
# 6 0.000000 0.000000 0.000000 0.098991 0.000000 0.286528
#
#
# Mechanical properties :
#
#
# Convention : Reuss Voigt Hill
#
# Bulk Modulus (GPa) = 51.25350 62.20589 56.72969
# Shear Modulus (GPa) = 11.50170 38.39052 24.94611
#
# Velocity S-wave (km/s) = 2.24165 4.09543 3.30133
# Velocity P-wave (km/s) = 5.39372 7.03851 6.27028
#
# Compressibility (1/GPa) = 0.01951086
#
# Stress axis : x y z
#
# Youngs Moduli (GPa) = 141.16823 42.21770 107.08547
#
# Poissons Ratio (x) = 0.11533 0.04839
# Poissons Ratio (y) = 0.38564 0.76195
# Poissons Ratio (z) = 0.06379 0.30039
#
# Static dielectric constant tensor:
#      x y z
#    x 4.432180 0.000000 0.419390 
#    y 0.000000 7.645270 0.000000 
#    z 0.419390 0.000000 4.943540 
# 
# 
# High freq. dielectric constant tensor:
#      x y z
#    x 1.943970 0.000000 0.017050 
#    y 0.000000 1.871070 0.000000 
#    z 0.017050 0.000000 1.918170 
# 
# From -- ./inp_files/59944.got.cif
#   From: 2010.06.25/outbox.cif.g09.slc.cpg/sg15_30_cif.got.tgz:59944.got - 2010.06.28 07:06:18.
