data_PCOD8143360
_publ_section_title
;
Structure prediction by ZEFSAII (Michael W. Deem and Ramdas Pophale) SiO2 
 PCOD8143360
Probable space group: C 2/C
;
_chemical_formula_sum "Si O2"
_cell_formula_units_Z 56
_cell_length_a 11.061948
_cell_length_b 20.824923
_cell_length_c 11.691092
_cell_angle_alpha 90.000000
_cell_angle_beta 112.664244
_cell_angle_gamma 90.000000
_cell_volume 2485.236220
_symmetry_space_group_name_H-M "C 2/C"
_symmetry_group_IT_number 15
_symmetry_cell_setting 'monoclinic'
loop_
_space_group_symop_operation_xyz
x,y,z
-x,y,1/2-z
-x,-y,-z
x,-y,1/2+z
1/2+x,1/2+y,z
1/2-x,1/2+y,1/2-z
1/2-x,1/2-y,-z
1/2+x,1/2-y,1/2+z
loop_
_atom_site_type_symbol
_atom_site_label
_atom_site_fract_x
_atom_site_fract_y
_atom_site_fract_z
Si Si1 0.285601 0.678639 0.488430
Si Si2 0.286117 0.095915 0.843682
Si Si3 0.633105 0.005706 0.978243
Si Si4 0.500000 0.861443 0.250000
Si Si5 0.414592 0.676346 0.866891
Si Si6 0.720777 0.849212 0.481959
Si Si7 0.337425 0.182025 0.291988
Si Si8 0.000000 0.576518 0.250000
O O1 0.250000 0.750000 0.500000
O O2 0.186217 0.640203 0.534508
O O3 0.433490 0.659683 0.573899
O O4 0.263651 0.666036 0.346226
O O5 0.413637 0.095295 0.806781
O O6 0.157363 0.121332 0.732863
O O7 0.262984 0.026366 0.894308
O O8 0.611788 0.967543 0.850417
O O9 0.690271 0.074844 0.967677
O O10 0.500000 0.000000 0.000000
O O11 0.600505 0.818285 0.362437
O O12 0.356378 0.671640 0.973314
O O13 0.397186 0.746375 0.802066
O O14 0.733334 0.820723 0.611956
O O15 0.444234 0.124998 0.327263
#
# Coordination Sequence:
#
# PCOD8143360 Si02
#       8
#     8   8   8   4   8   8   8   4
#     4  12  25  45  69  99 139 182 239 300 352 435
#     4  11  23  43  67 103 137 182 233 291 367 426
#     4  12  23  40  71 106 147 180 240 301 360 443
#     4  10  21  40  66 100 146 170 227 296 354 426
#     4  11  27  44  70 100 142 185 240 294 371 434
#     4  11  25  43  67 106 142 187 232 294 373 428
#     4  12  24  42  70 102 137 185 238 299 353 436
#     4  12  23  38  70 110 140 180 245 308 362 414
#
# _framework density 22.533069000000001
#
# number of rings (size 3 to 8) (size 9 to 14) (size 15 to 20)
#    0.000    0.571    5.714    2.143    4.000    0.571 
#    0.000    0.714    3.143    0.000    0.000    0.000 
#    0.000    0.000    0.000    0.000    0.000    0.000 
#
# Total GULP energy -346936.063458 kJ/mol
# GULP energy per Si atom -12390.573695 kJ/mol
# Density = 2.248178 g / cm^3
# Si number density = 22.533069 Si / 1000 Ang^3
#
#
#
# Elastic Constant Matrix: (Units=GPa)
#
#
# Indices 1 2 3 4 5 6 
#
# 1 101.9805 25.3561 45.2715 0.0000 -11.7776 0.0000
# 2 25.3561 90.1188 23.1523 0.0000 6.0814 0.0000
# 3 45.2715 23.1523 150.2787 0.0000 -13.3851 0.0000
# 4 0.0000 0.0000 0.0000 35.1934 0.0000 -3.2339
# 5 -11.7776 6.0814 -13.3851 0.0000 39.5868 0.0000
# 6 0.0000 0.0000 0.0000 -3.2339 0.0000 22.3448
#
#
#
# Elastic Compliance Matrix: (Units=1/GPa)
#
#
# Indices 1 2 3 4 5 6 
#
# 1 0.012187 -0.002877 -0.002955 0.000000 0.003069 0.000000
# 2 -0.002877 0.012468 -0.001341 0.000000 -0.003225 0.000000
# 3 -0.002955 -0.001341 0.007930 0.000000 0.002008 0.000000
# 4 0.000000 0.000000 0.000000 0.028797 0.000000 0.004168
# 5 0.003069 -0.003225 0.002008 0.000000 0.027348 0.000000
# 6 0.000000 0.000000 0.000000 0.004168 0.000000 0.045356
#
#
# Mechanical properties :
#
#
# Convention : Reuss Voigt Hill
#
# Bulk Modulus (GPa) = 54.82788 58.88197 56.85492
# Shear Modulus (GPa) = 32.35963 35.99824 34.17893
#
# Velocity S-wave (km/s) = 3.79370 4.00130 3.89888
# Velocity P-wave (km/s) = 6.60110 6.89459 6.74944
#
# Compressibility (1/GPa) = 0.01823890
#
# Stress axis : x y z
#
# Youngs Moduli (GPa) = 82.05290 80.20412 126.10368
#
# Poissons Ratio (x) = 0.23075 0.37262
# Poissons Ratio (y) = 0.23607 0.16916
# Poissons Ratio (z) = 0.24245 0.10759
#
# Static dielectric constant tensor:
#      x y z
#    x -6.267790 0.000000 -11.550890 
#    y 0.000000 4.141380 0.000000 
#    z -11.550890 0.000000 -8.026900 
# 
# 
# High freq. dielectric constant tensor:
#      x y z
#    x 1.861450 0.000000 -0.021410 
#    y 0.000000 1.879550 0.000000 
#    z -0.021410 0.000000 1.917090 
# 
# From -- ./inp_files/89695.got.cif
#   From: 2010.06.25/outbox.cif.g09.slc.cpg/sg15_45_cif.got.tgz:89695.got - 2010.06.28 07:06:18.
