data_PCOD8143734
_publ_section_title
;
Structure prediction by ZEFSAII (Michael W. Deem and Ramdas Pophale) SiO2 
 PCOD8143734
Probable space group: C 2/C
;
_chemical_formula_sum "Si O2"
_cell_formula_units_Z 40
_cell_length_a 23.207250
_cell_length_b 11.216668
_cell_length_c 8.657339
_cell_angle_alpha 90.000000
_cell_angle_beta 121.669608
_cell_angle_gamma 90.000000
_cell_volume 1917.994314
_symmetry_space_group_name_H-M "C 2/C"
_symmetry_group_IT_number 15
_symmetry_cell_setting 'monoclinic'
loop_
_space_group_symop_operation_xyz
x,y,z
-x,y,1/2-z
-x,-y,-z
x,-y,1/2+z
1/2+x,1/2+y,z
1/2-x,1/2+y,1/2-z
1/2-x,1/2-y,-z
1/2+x,1/2-y,1/2+z
loop_
_atom_site_type_symbol
_atom_site_label
_atom_site_fract_x
_atom_site_fract_y
_atom_site_fract_z
Si Si1 0.894926 0.220542 0.272920
Si Si2 0.656617 0.528928 0.796579
Si Si3 0.783782 0.147347 0.318628
Si Si4 0.864342 0.738464 0.389274
Si Si5 0.011421 0.629252 0.084448
O O1 0.832885 0.246352 0.305786
O O2 0.964374 0.271554 0.437834
O O3 0.899136 0.076191 0.252072
O O4 0.880190 0.286658 0.090636
O O5 0.722197 0.464823 0.808909
O O6 0.624643 0.622291 0.631164
O O7 0.678354 0.600572 0.976949
O O8 0.712412 0.203284 0.259305
O O9 0.911298 0.660690 0.344253
O O10 0.000000 0.629607 0.250000
O O11 0.000000 0.500000 0.000000
#
# Coordination Sequence:
#
# PCOD8143734 Si02
#       5
#     8   8   8   8   8
#     4  10  22  45  66  97 138 174 223 280 330 403
#     4  10  21  41  64 100 134 176 230 272 341 386
#     4  10  22  39  67 101 135 173 227 280 335 396
#     4  12  23  41  71  98 134 182 225 281 336 399
#     4  12  28  47  67  99 135 180 226 273 342 406
#
# _framework density 20.855119999999999
#
# number of rings (size 3 to 8) (size 9 to 14) (size 15 to 20)
#    1.200    0.000    2.000    4.200    0.000    5.600 
#    0.000    0.000    0.000    0.000    0.000    0.000 
#    0.000    0.000    0.000    0.000    0.000    0.000 
#
# Total GULP energy -247858.849050 kJ/mol
# GULP energy per Si atom -12392.942452 kJ/mol
# Density = 2.080765 g / cm^3
# Si number density = 20.855120 Si / 1000 Ang^3
#
#
#
# Elastic Constant Matrix: (Units=GPa)
#
#
# Indices 1 2 3 4 5 6 
#
# 1 127.9637 36.2233 38.1654 0.0000 -6.1345 0.0000
# 2 36.2233 98.7481 32.2644 0.0000 0.5292 0.0000
# 3 38.1654 32.2644 116.4397 0.0000 -19.0197 0.0000
# 4 0.0000 0.0000 0.0000 27.3048 0.0000 -0.2414
# 5 -6.1345 0.5292 -19.0197 0.0000 33.6127 0.0000
# 6 0.0000 0.0000 0.0000 -0.2414 0.0000 25.5578
#
#
#
# Elastic Compliance Matrix: (Units=1/GPa)
#
#
# Indices 1 2 3 4 5 6 
#
# 1 0.009255 -0.002674 -0.002214 0.000000 0.000478 0.000000
# 2 -0.002674 0.012046 -0.002834 0.000000 -0.002281 0.000000
# 3 -0.002214 -0.002834 0.011063 0.000000 0.005900 0.000000
# 4 0.000000 0.000000 0.000000 0.036627 0.000000 0.000346
# 5 0.000478 -0.002281 0.005900 0.000000 0.033213 0.000000
# 6 0.000000 0.000000 0.000000 0.000346 0.000000 0.039130
#
#
# Mechanical properties :
#
#
# Convention : Reuss Voigt Hill
#
# Bulk Modulus (GPa) = 59.10500 61.82863 60.46681
# Shear Modulus (GPa) = 30.78475 33.06162 31.92319
#
# Velocity S-wave (km/s) = 3.84620 3.98590 3.91668
# Velocity P-wave (km/s) = 6.93734 7.13403 7.03637
#
# Compressibility (1/GPa) = 0.01691904
#
# Stress axis : x y z
#
# Youngs Moduli (GPa) = 108.04905 83.01618 90.39105
#
# Poissons Ratio (x) = 0.22199 0.20017
# Poissons Ratio (y) = 0.28892 0.25616
# Poissons Ratio (z) = 0.23927 0.23526
#
# Static dielectric constant tensor:
#      x y z
#    x 3.860850 0.000000 -0.311510 
#    y 0.000000 3.714200 0.000000 
#    z -0.311510 0.000000 3.623200 
# 
# 
# High freq. dielectric constant tensor:
#      x y z
#    x 1.813820 0.000000 -0.025190 
#    y 0.000000 1.812900 0.000000 
#    z -0.025190 0.000000 1.818620 
# 
# From -- ./inp_files/65272.got.cif
#   From: 2010.06.25/outbox.cif.g09.slc.cpg/sg15_33_cif.got.tgz:65272.got - 2010.06.28 07:06:18.
