data_PCOD8143458
_publ_section_title
;
Structure prediction by ZEFSAII (Michael W. Deem and Ramdas Pophale) SiO2 
 PCOD8143458
Probable space group: C 2/C
;
_chemical_formula_sum "Si O2"
_cell_formula_units_Z 52
_cell_length_a 11.999990
_cell_length_b 29.112960
_cell_length_c 8.043491
_cell_angle_alpha 90.000000
_cell_angle_beta 60.524914
_cell_angle_gamma 90.000000
_cell_volume 2446.331981
_symmetry_space_group_name_H-M "C 2/C"
_symmetry_group_IT_number 15
_symmetry_cell_setting 'monoclinic'
loop_
_space_group_symop_operation_xyz
x,y,z
-x,y,1/2-z
-x,-y,-z
x,-y,1/2+z
1/2+x,1/2+y,z
1/2-x,1/2+y,1/2-z
1/2-x,1/2-y,-z
1/2+x,1/2-y,1/2+z
loop_
_atom_site_type_symbol
_atom_site_label
_atom_site_fract_x
_atom_site_fract_y
_atom_site_fract_z
Si Si1 0.330866 0.563185 0.201721
Si Si2 0.500000 0.062933 0.750000
Si Si3 0.396377 0.797882 0.470701
Si Si4 0.229302 0.033534 0.890709
Si Si5 0.066095 0.893041 0.376718
Si Si6 0.885199 0.805846 0.961662
Si Si7 0.577890 0.884789 0.858970
O O1 0.323280 0.552437 0.399442
O O2 0.327750 0.516248 0.099910
O O3 0.220612 0.597483 0.220856
O O4 0.465233 0.587878 0.082667
O O5 0.382761 0.029722 0.787910
O O6 0.525836 0.093112 0.567872
O O7 0.500000 0.806680 0.250000
O O8 0.253197 0.810986 0.520195
O O9 0.402258 0.745056 0.525348
O O10 0.426666 0.829896 0.607181
O O11 0.185620 0.071156 0.784460
O O12 0.112320 0.842280 0.391187
O O13 0.000000 0.890218 0.250000
O O14 0.000000 0.816345 0.750000
O O15 0.500000 0.897200 0.750000
#
# Coordination Sequence:
#
# PCOD8143458 Si02
#       7
#     8   4   8   8   8   8   8
#     4  11  25  42  64  93 128 171 219 270 332 391
#     4  10  24  42  64  92 130 172 218 268 342 376
#     4  10  21  40  67  96 129 175 218 272 335 398
#     4  11  24  42  66  89 129 170 217 275 324 399
#     4  12  25  40  64  94 133 171 219 272 326 395
#     4  10  21  41  67  93 130 174 219 267 336 394
#     4  11  24  38  66  93 133 168 219 272 323 402
#
# _framework density 21.256315000000001
#
# number of rings (size 3 to 8) (size 9 to 14) (size 15 to 20)
#    0.000    1.231    0.769    5.538    5.385    1.846 
#    0.000    0.000    0.000    7.385    0.000    0.000 
#    0.000    0.000    0.000    0.000    0.000    0.000 
#
# Total GULP energy -322399.306788 kJ/mol
# GULP energy per Si atom -12399.973338 kJ/mol
# Density = 2.120793 g / cm^3
# Si number density = 21.256315 Si / 1000 Ang^3
#
#
#
# Elastic Constant Matrix: (Units=GPa)
#
#
# Indices 1 2 3 4 5 6 
#
# 1 109.4642 39.9339 35.5851 0.0000 -3.3113 0.0000
# 2 39.9339 123.5462 11.0038 0.0000 8.2088 0.0000
# 3 35.5851 11.0038 49.6604 0.0000 -8.0855 0.0000
# 4 0.0000 0.0000 0.0000 -156.9489 0.0000 58.7818
# 5 -3.3113 8.2088 -8.0855 0.0000 38.5505 0.0000
# 6 0.0000 0.0000 0.0000 58.7818 0.0000 16.5136
#
#
#
# Elastic Compliance Matrix: (Units=1/GPa)
#
#
# Indices 1 2 3 4 5 6 
#
# 1 0.013248 -0.003511 -0.008705 0.000000 0.000060 0.000000
# 2 -0.003511 0.009375 0.000067 0.000000 -0.002284 0.000000
# 3 -0.008705 0.000067 0.027164 0.000000 0.004935 0.000000
# 4 0.000000 0.000000 0.000000 -0.002731 0.000000 0.009721
# 5 0.000060 -0.002284 0.004935 0.000000 0.027467 0.000000
# 6 0.000000 0.000000 0.000000 0.009721 0.000000 0.025954
#
#
# Mechanical properties :
#
#
# Convention : Reuss Voigt Hill
#
# Bulk Modulus (GPa) = 39.23555 50.63516 44.93536
# Shear Modulus (GPa) = 37.51740 -7.30042 15.10849
#
# Velocity S-wave (km/s) = 4.20575 -1.85524 2.66893
# Velocity P-wave (km/s) = 6.48713 4.39132 5.53925
#
# Compressibility (1/GPa) = 0.02548709
#
# Stress axis : x y z
#
# Youngs Moduli (GPa) = 75.48313 106.66969 36.81392
#
# Poissons Ratio (x) = 0.37449 0.32048
# Poissons Ratio (y) = 0.26500 -0.00245
# Poissons Ratio (z) = 0.65712 -0.00710
#
# Static dielectric constant tensor:
#      x y z
#    x 4.083790 0.000000 -0.243470 
#    y 0.000000 4.577000 0.000000 
#    z -0.243470 0.000000 3.758660 
# 
# 
# High freq. dielectric constant tensor:
#      x y z
#    x 1.846790 0.000000 -0.013710 
#    y 0.000000 1.845560 0.000000 
#    z -0.013710 0.000000 1.822460 
# 
# From -- ./inp_files/34117.got.cif
#   From: 2010.06.25/outbox.cif.g09.slc.cpg/sg15_18_cif.got.tgz:34117.got - 2010.06.28 07:06:18.
