data_PCOD8143920
_publ_section_title
;
Structure prediction by ZEFSAII (Michael W. Deem and Ramdas Pophale) SiO2 
 PCOD8143920
Probable space group: C 2/C
;
_chemical_formula_sum "Si O2"
_cell_formula_units_Z 44
_cell_length_a 5.505511
_cell_length_b 20.181406
_cell_length_c 16.828340
_cell_angle_alpha 90.000000
_cell_angle_beta 111.589591
_cell_angle_gamma 90.000000
_cell_volume 1738.601783
_symmetry_space_group_name_H-M "C 2/C"
_symmetry_group_IT_number 15
_symmetry_cell_setting 'monoclinic'
loop_
_space_group_symop_operation_xyz
x,y,z
-x,y,1/2-z
-x,-y,-z
x,-y,1/2+z
1/2+x,1/2+y,z
1/2-x,1/2+y,1/2-z
1/2-x,1/2-y,-z
1/2+x,1/2-y,1/2+z
loop_
_atom_site_type_symbol
_atom_site_label
_atom_site_fract_x
_atom_site_fract_y
_atom_site_fract_z
Si Si1 0.180405 0.943760 0.952484
Si Si2 0.813415 0.116717 0.299022
Si Si3 0.461118 0.175482 0.028286
Si Si4 0.188893 0.250183 0.126901
Si Si5 0.500000 0.643231 0.750000
Si Si6 0.542034 0.417660 0.415699
O O1 0.885782 0.929775 0.883276
O O2 0.249447 0.019938 0.936294
O O3 0.356884 0.887355 0.933351
O O4 0.184165 0.937521 0.048823
O O5 0.500000 0.112391 0.250000
O O6 0.916567 0.191327 0.330765
O O7 0.000000 0.091533 0.250000
O O8 0.533504 0.223989 0.962245
O O9 0.179169 0.148223 0.965071
O O10 0.432392 0.217653 0.105748
O O11 0.263507 0.310088 0.194201
O O12 0.583760 0.596684 0.685844
#
# Coordination Sequence:
#
# PCOD8143920 Si02
#       6
#     8   8   8   8   4   8
#     4  11  24  42  70  99 136 190 242 291 359 434
#     4  12  26  44  69 107 144 184 237 298 359 427
#     4  10  21  43  69  99 136 188 236 294 359 432
#     4  10  21  41  67 100 137 182 237 293 357 435
#     4  10  22  42  66  94 148 176 234 302 362 422
#     4  10  23  44  66  99 140 184 242 289 363 430
#
# _framework density 25.307690999999998
#
# number of rings (size 3 to 8) (size 9 to 14) (size 15 to 20)
#    0.000    1.455    2.727    1.636    1.273    2.182 
#    0.000    2.727    0.000    0.000    0.000    0.000 
#    0.000    0.000    0.000    0.000    0.000    0.000 
#
# Total GULP energy -272547.063503 kJ/mol
# GULP energy per Si atom -12388.502887 kJ/mol
# Density = 2.525009 g / cm^3
# Si number density = 25.307691 Si / 1000 Ang^3
#
#
#
# Elastic Constant Matrix: (Units=GPa)
#
#
# Indices 1 2 3 4 5 6 
#
# 1 57.3432 20.0753 22.1887 0.0000 -13.5877 0.0000
# 2 20.0753 108.9227 45.7340 0.0000 -2.7827 0.0000
# 3 22.1887 45.7340 144.3358 0.0000 -27.3590 0.0000
# 4 0.0000 0.0000 0.0000 54.9178 0.0000 -2.6515
# 5 -13.5877 -2.7827 -27.3590 0.0000 17.2265 0.0000
# 6 0.0000 0.0000 0.0000 -2.6515 0.0000 30.0174
#
#
#
# Elastic Compliance Matrix: (Units=1/GPa)
#
#
# Indices 1 2 3 4 5 6 
#
# 1 0.023134 -0.004455 0.001685 0.000000 0.020203 0.000000
# 2 -0.004455 0.011780 -0.004797 0.000000 -0.009230 0.000000
# 3 0.001685 -0.004797 0.011867 0.000000 0.019401 0.000000
# 4 0.000000 0.000000 0.000000 0.018287 0.000000 0.001615
# 5 0.020203 -0.009230 0.019401 0.000000 0.103307 0.000000
# 6 0.000000 0.000000 0.000000 0.001615 0.000000 0.033457
#
#
# Mechanical properties :
#
#
# Convention : Reuss Voigt Hill
#
# Bulk Modulus (GPa) = 31.59978 54.06640 42.83309
# Shear Modulus (GPa) = 21.97647 35.27258 28.62453
#
# Velocity S-wave (km/s) = 2.95001 3.73735 3.36677
# Velocity P-wave (km/s) = 4.91088 6.32722 5.66350
#
# Compressibility (1/GPa) = 0.03164579
#
# Stress axis : x y z
#
# Youngs Moduli (GPa) = 43.22669 84.88637 84.26839
#
# Poissons Ratio (x) = 0.37817 -0.14198
# Poissons Ratio (y) = 0.19258 0.40428
# Poissons Ratio (z) = -0.07283 0.40724
#
# Static dielectric constant tensor:
#      x y z
#    x 3.833740 0.000000 -0.006880 
#    y 0.000000 4.921400 0.000000 
#    z -0.006880 0.000000 4.991910 
# 
# 
# High freq. dielectric constant tensor:
#      x y z
#    x 1.952110 0.000000 -0.004350 
#    y 0.000000 2.030900 0.000000 
#    z -0.004350 0.000000 2.026430 
# 
# From -- ./inp_files/184942.got.cif
#   From: 2010.06.25/outbox.cif.g09.slc.cpg/sg15_93_cif.got.tgz:184942.got - 2010.06.28 07:06:18.
