data_PCOD8143217
_publ_section_title
;
Structure prediction by ZEFSAII (Michael W. Deem and Ramdas Pophale) SiO2 
 PCOD8143217
Probable space group: C 2/C
;
_chemical_formula_sum "Si O2"
_cell_formula_units_Z 52
_cell_length_a 10.510241
_cell_length_b 13.687924
_cell_length_c 30.151066
_cell_angle_alpha 90.000000
_cell_angle_beta 140.376787
_cell_angle_gamma 90.000000
_cell_volume 2766.265985
_symmetry_space_group_name_H-M "C 2/C"
_symmetry_group_IT_number 15
_symmetry_cell_setting 'monoclinic'
loop_
_space_group_symop_operation_xyz
x,y,z
-x,y,1/2-z
-x,-y,-z
x,-y,1/2+z
1/2+x,1/2+y,z
1/2-x,1/2+y,1/2-z
1/2-x,1/2-y,-z
1/2+x,1/2-y,1/2+z
loop_
_atom_site_type_symbol
_atom_site_label
_atom_site_fract_x
_atom_site_fract_y
_atom_site_fract_z
Si Si1 0.992712 0.499208 0.551080
Si Si2 0.393650 0.613562 0.350694
Si Si3 0.793139 0.653522 0.634059
Si Si4 0.925054 0.302017 0.074005
Si Si5 0.133193 0.874653 0.827236
Si Si6 0.500000 0.002238 0.750000
Si Si7 0.939976 0.973873 0.033743
O O1 0.161051 0.432892 0.618487
O O2 0.000000 0.500000 0.500000
O O3 0.024809 0.612162 0.572563
O O4 0.791968 0.454264 0.518875
O O5 0.396623 0.729039 0.363121
O O6 0.521571 0.593520 0.341529
O O7 0.501523 0.566085 0.421223
O O8 0.175782 0.570979 0.283150
O O9 0.823048 0.651723 0.589679
O O10 0.826957 0.758836 0.664779
O O11 0.565295 0.621212 0.582941
O O12 0.943348 0.572217 0.693990
O O13 0.750000 0.250000 0.000000
O O14 0.000000 0.906750 0.750000
O O15 0.000000 0.000000 0.000000
#
# Coordination Sequence:
#
# PCOD8143217 Si02
#       7
#     8   8   8   8   8   4   8
#     4  12  23  40  65  95 130 166 212 268 319 374
#     4  10  22  40  62  89 124 165 217 257 313 388
#     4  10  21  40  64  89 124 169 210 258 318 376
#     4  11  20  40  64  89 124 167 205 258 325 370
#     4  11  24  41  59  92 135 173 203 262 336 380
#     4  10  22  40  64  86 118 164 220 262 300 376
#     4  11  20  38  67  95 116 163 218 264 306 377
#
# _framework density 18.797903000000002
#
# number of rings (size 3 to 8) (size 9 to 14) (size 15 to 20)
#    0.000    1.231    5.385    0.923    2.154    0.615 
#    1.385    1.538    0.000    0.000    0.000    0.000 
#    0.000    0.000    0.000    0.000    0.000    0.000 
#
# Total GULP energy -322368.692836 kJ/mol
# GULP energy per Si atom -12398.795878 kJ/mol
# Density = 1.875512 g / cm^3
# Si number density = 18.797903 Si / 1000 Ang^3
#
#
#
# Elastic Constant Matrix: (Units=GPa)
#
#
# Indices 1 2 3 4 5 6 
#
# 1 130.5366 57.4396 71.1062 0.0000 1.2253 0.0000
# 2 57.4396 118.4610 62.6161 0.0000 15.2698 0.0000
# 3 71.1062 62.6161 136.4391 0.0000 10.9789 0.0000
# 4 0.0000 0.0000 0.0000 33.0222 0.0000 1.3115
# 5 1.2253 15.2698 10.9789 0.0000 41.2646 0.0000
# 6 0.0000 0.0000 0.0000 1.3115 0.0000 32.9426
#
#
#
# Elastic Compliance Matrix: (Units=1/GPa)
#
#
# Indices 1 2 3 4 5 6 
#
# 1 0.011730 -0.003493 -0.004686 0.000000 0.002191 0.000000
# 2 -0.003493 0.012517 -0.003638 0.000000 -0.003560 0.000000
# 3 -0.004686 -0.003638 0.011569 0.000000 -0.001593 0.000000
# 4 0.000000 0.000000 0.000000 0.030331 0.000000 -0.001208
# 5 0.002191 -0.003560 -0.001593 0.000000 0.025910 0.000000
# 6 0.000000 0.000000 0.000000 -0.001208 0.000000 0.030404
#
#
# Mechanical properties :
#
#
# Convention : Reuss Voigt Hill
#
# Bulk Modulus (GPa) = 82.08674 85.30673 83.69674
# Shear Modulus (GPa) = 33.29889 34.39752 33.84820
#
# Velocity S-wave (km/s) = 4.21338 4.28233 4.24800
# Velocity P-wave (km/s) = 8.21176 8.36245 8.28745
#
# Compressibility (1/GPa) = 0.01218224
#
# Stress axis : x y z
#
# Youngs Moduli (GPa) = 85.25229 79.89194 86.43642
#
# Poissons Ratio (x) = 0.27905 0.40508
# Poissons Ratio (y) = 0.29778 0.31442
# Poissons Ratio (z) = 0.39953 0.29061
#
# Static dielectric constant tensor:
#      x y z
#    x 3.453700 0.000000 -0.025630 
#    y 0.000000 3.630250 0.000000 
#    z -0.025630 0.000000 3.666240 
# 
# 
# High freq. dielectric constant tensor:
#      x y z
#    x 1.728880 0.000000 -0.011150 
#    y 0.000000 1.736890 0.000000 
#    z -0.011150 0.000000 1.738660 
# 
# From -- ./inp_files/231155.got.cif
#   From: 2010.06.25/outbox.cif.g09.slc.cpg/sg15_116_cif.got.tgz:231155.got - 2010.06.28 07:06:18.
