data_PCOD8143836
_publ_section_title
;
Structure prediction by ZEFSAII (Michael W. Deem and Ramdas Pophale) SiO2 
 PCOD8143836
Probable space group: C 2/C
;
_chemical_formula_sum "Si O2"
_cell_formula_units_Z 48
_cell_length_a 12.397433
_cell_length_b 14.194547
_cell_length_c 24.495219
_cell_angle_alpha 90.000000
_cell_angle_beta 33.347986
_cell_angle_gamma 90.000000
_cell_volume 2369.617485
_symmetry_space_group_name_H-M "C 2/C"
_symmetry_group_IT_number 15
_symmetry_cell_setting 'monoclinic'
loop_
_space_group_symop_operation_xyz
x,y,z
-x,y,1/2-z
-x,-y,-z
x,-y,1/2+z
1/2+x,1/2+y,z
1/2-x,1/2+y,1/2-z
1/2-x,1/2-y,-z
1/2+x,1/2-y,1/2+z
loop_
_atom_site_type_symbol
_atom_site_label
_atom_site_fract_x
_atom_site_fract_y
_atom_site_fract_z
Si Si1 0.303571 0.524817 0.459595
Si Si2 0.901599 0.559987 0.151296
Si Si3 0.217669 0.163433 0.133466
Si Si4 0.165246 0.699827 0.224775
Si Si5 0.909583 0.907380 0.228276
Si Si6 0.884836 0.801781 0.987668
O O1 0.260678 0.592433 0.426399
O O2 0.466183 0.450855 0.373159
O O3 0.369722 0.586456 0.483907
O O4 0.129260 0.461282 0.555726
O O5 0.865038 0.629815 0.117027
O O6 0.827308 0.612536 0.236978
O O7 0.798499 0.459499 0.185802
O O8 0.000000 0.166995 0.250000
O O9 0.291327 0.267778 0.084656
O O10 0.106117 0.797329 0.279050
O O11 0.382987 0.721506 0.109773
O O12 0.000000 0.675143 0.250000
O O13 0.000000 0.925397 0.250000
O O14 0.750000 0.750000 0.000000
#
# Coordination Sequence:
#
# PCOD8143836 Si02
#       6
#     8   8   8   8   8   8
#     4  11  21  37  65  94 129 164 216 266 322 383
#     4  12  22  40  66  96 126 172 216 269 323 388
#     4  11  20  37  68 102 129 159 221 274 320 380
#     4  11  26  44  64  95 138 171 211 273 334 383
#     4  11  21  39  65  95 127 163 215 272 322 380
#     4  10  21  41  65  95 130 171 211 266 325 383
#
# _framework density 20.256433999999999
#
# number of rings (size 3 to 8) (size 9 to 14) (size 15 to 20)
#    0.000    1.000    5.000    3.500    4.667    0.667 
#    0.000    3.333    0.000    0.000    0.000    0.000 
#    0.000    0.000    0.000    0.000    0.000    0.000 
#
# Total GULP energy -297475.028651 kJ/mol
# GULP energy per Si atom -12394.792860 kJ/mol
# Density = 2.021033 g / cm^3
# Si number density = 20.256434 Si / 1000 Ang^3
#
#
#
# Elastic Constant Matrix: (Units=GPa)
#
#
# Indices 1 2 3 4 5 6 
#
# 1 58.5202 31.6698 10.0564 0.0009 -9.5665 0.0002
# 2 31.6698 92.4892 30.8363 0.0007 6.6568 0.0005
# 3 10.0564 30.8363 97.3668 0.0022 -5.5728 0.0045
# 4 0.0009 0.0007 0.0022 41.5320 0.0007 9.6394
# 5 -9.5665 6.6568 -5.5728 0.0007 31.2731 0.0010
# 6 0.0002 0.0005 0.0045 9.6394 0.0010 51.8198
#
#
#
# Elastic Compliance Matrix: (Units=1/GPa)
#
#
# Indices 1 2 3 4 5 6 
#
# 1 0.023269 -0.008948 0.000957 -0.000001 0.009193 0.000000
# 2 -0.008948 0.015874 -0.004499 0.000000 -0.006918 0.000000
# 3 0.000957 -0.004499 0.011788 0.000000 0.003351 -0.000001
# 4 -0.000001 0.000000 0.000000 0.025164 -0.000001 -0.004681
# 5 0.009193 -0.006918 0.003351 -0.000001 0.036858 -0.000001
# 6 0.000000 0.000000 -0.000001 -0.004681 -0.000001 0.020168
#
#
# Mechanical properties :
#
#
# Convention : Reuss Voigt Hill
#
# Bulk Modulus (GPa) = 38.53533 43.72238 41.12885
# Shear Modulus (GPa) = 29.98426 36.64589 33.31507
#
# Velocity S-wave (km/s) = 3.85155 4.25796 4.05985
# Velocity P-wave (km/s) = 6.23252 6.76794 6.50574
#
# Compressibility (1/GPa) = 0.02595022
#
# Stress axis : x y z
#
# Youngs Moduli (GPa) = 42.97514 62.99564 84.83001
#
# Poissons Ratio (x) = 0.56372 -0.08117
# Poissons Ratio (y) = 0.38456 0.38166
# Poissons Ratio (z) = -0.04112 0.28342
#
# Static dielectric constant tensor:
#      x y z
#    x 3.657090 0.000000 0.002130 
#    y 0.000000 3.902820 0.000000 
#    z 0.002130 0.000000 3.774560 
# 
# 
# High freq. dielectric constant tensor:
#      x y z
#    x 1.769280 0.000000 -0.010050 
#    y 0.000000 1.793360 0.000000 
#    z -0.010050 0.000000 1.802430 
# 
# From -- ./inp_files/96202.got.cif
#   From: 2010.06.25/outbox.cif.g09.slc.cpg/sg15_49_cif.got.tgz:96202.got - 2010.06.28 07:06:18.
