data_PCOD8143811
_publ_section_title
;
Structure prediction by ZEFSAII (Michael W. Deem and Ramdas Pophale) SiO2 
 PCOD8143811
Probable space group: C 2/C
;
_chemical_formula_sum "Si O2"
_cell_formula_units_Z 32
_cell_length_a 26.030865
_cell_length_b 9.431089
_cell_length_c 10.045622
_cell_angle_alpha 90.000000
_cell_angle_beta 34.012588
_cell_angle_gamma 90.000000
_cell_volume 1379.527469
_symmetry_space_group_name_H-M "C 2/C"
_symmetry_group_IT_number 15
_symmetry_cell_setting 'monoclinic'
loop_
_space_group_symop_operation_xyz
x,y,z
-x,y,1/2-z
-x,-y,-z
x,-y,1/2+z
1/2+x,1/2+y,z
1/2-x,1/2+y,1/2-z
1/2-x,1/2-y,-z
1/2+x,1/2-y,1/2+z
loop_
_atom_site_type_symbol
_atom_site_label
_atom_site_fract_x
_atom_site_fract_y
_atom_site_fract_z
Si Si1 0.202929 0.478492 0.380316
Si Si2 0.987530 0.840482 0.067846
Si Si3 0.352124 0.692664 0.103451
Si Si4 0.656477 0.161010 0.233574
O O1 0.297916 0.544308 0.229572
O O2 0.215433 0.327159 0.276887
O O3 0.157938 0.588063 0.374039
O O4 0.142712 0.453250 0.643106
O O5 0.920893 0.826264 0.335306
O O6 0.936040 0.755977 0.060395
O O7 0.088749 0.780616 0.888877
O O8 0.000000 0.000000 0.000000
O O9 0.750000 0.250000 0.000000
#
# Coordination Sequence:
#
# PCOD8143811 Si02
#       4
#     8   8   8   8
#     4  11  22  42  69  97 135 177 226 274 342 390
#     4  10  21  41  65  89 133 176 225 274 333 398
#     4  10  23  39  65  96 130 173 225 276 331 404
#     4  11  22  43  66 100 138 173 224 282 328 405
#
# _framework density 23.196349000000001
#
# number of rings (size 3 to 8) (size 9 to 14) (size 15 to 20)
#    0.000    1.500    5.000    1.500    0.000    2.000 
#    0.000    0.000    0.000    0.000    0.000    0.000 
#    0.000    0.000    0.000    0.000    0.000    0.000 
#
# Total GULP energy -198225.645947 kJ/mol
# GULP energy per Si atom -12389.102872 kJ/mol
# Density = 2.314355 g / cm^3
# Si number density = 23.196349 Si / 1000 Ang^3
#
#
#
# Elastic Constant Matrix: (Units=GPa)
#
#
# Indices 1 2 3 4 5 6 
#
# 1 159.1057 73.1039 45.1281 0.0000 -23.2338 0.0000
# 2 73.1039 133.3682 47.1928 0.0000 -29.4001 0.0000
# 3 45.1281 47.1928 35.6122 0.0000 -23.6046 0.0000
# 4 0.0000 0.0000 0.0000 42.8881 0.0000 -3.2431
# 5 -23.2338 -29.4001 -23.6046 0.0000 41.5356 0.0000
# 6 0.0000 0.0000 0.0000 -3.2431 0.0000 52.2755
#
#
#
# Elastic Compliance Matrix: (Units=1/GPa)
#
#
# Indices 1 2 3 4 5 6 
#
# 1 0.010217 -0.001852 -0.012151 0.000000 -0.002501 0.000000
# 2 -0.001852 0.014482 -0.017224 0.000000 -0.000574 0.000000
# 3 -0.012151 -0.017224 0.086179 0.000000 0.029987 0.000000
# 4 0.000000 0.000000 0.000000 0.023426 0.000000 0.001453
# 5 -0.002501 -0.000574 0.029987 0.000000 0.039312 0.000000
# 6 0.000000 0.000000 0.000000 0.001453 0.000000 0.019220
#
#
# Mechanical properties :
#
#
# Convention : Reuss Voigt Hill
#
# Bulk Modulus (GPa) = 20.65100 73.21507 46.93304
# Shear Modulus (GPa) = 18.42090 38.18393 28.30242
#
# Velocity S-wave (km/s) = 2.82109 4.06164 3.49682
# Velocity P-wave (km/s) = 4.41966 7.32309 6.04818
#
# Compressibility (1/GPa) = 0.04842380
#
# Stress axis : x y z
#
# Youngs Moduli (GPa) = 97.87317 69.05311 11.60379
#
# Poissons Ratio (x) = 0.12791 0.14099
# Poissons Ratio (y) = 0.18129 0.19987
# Poissons Ratio (z) = 1.18921 1.18938
#
# Static dielectric constant tensor:
#      x y z
#    x 5.288180 0.000000 -0.453210 
#    y 0.000000 4.221810 0.000000 
#    z -0.453210 0.000000 3.995680 
# 
# 
# High freq. dielectric constant tensor:
#      x y z
#    x 1.946150 0.000000 -0.010940 
#    y 0.000000 1.923310 0.000000 
#    z -0.010940 0.000000 1.867270 
# 
# From -- ./inp_files/93244.got.cif
#   From: 2010.06.25/outbox.cif.g09.slc.cpg/sg15_47_cif.got.tgz:93244.got - 2010.06.28 07:06:18.
