data_PCOD8143601
_publ_section_title
;
Structure prediction by ZEFSAII (Michael W. Deem and Ramdas Pophale) SiO2 
 PCOD8143601
Probable space group: C 2/C
;
_chemical_formula_sum "Si O2"
_cell_formula_units_Z 40
_cell_length_a 12.522978
_cell_length_b 5.121291
_cell_length_c 33.902164
_cell_angle_alpha 90.000000
_cell_angle_beta 116.499323
_cell_angle_gamma 90.000000
_cell_volume 1945.844960
_symmetry_space_group_name_H-M "C 2/C"
_symmetry_group_IT_number 15
_symmetry_cell_setting 'monoclinic'
loop_
_space_group_symop_operation_xyz
x,y,z
-x,y,1/2-z
-x,-y,-z
x,-y,1/2+z
1/2+x,1/2+y,z
1/2-x,1/2+y,1/2-z
1/2-x,1/2-y,-z
1/2+x,1/2-y,1/2+z
loop_
_atom_site_type_symbol
_atom_site_label
_atom_site_fract_x
_atom_site_fract_y
_atom_site_fract_z
Si Si1 0.893825 0.802022 0.975007
Si Si2 0.623697 0.891953 0.948560
Si Si3 0.636774 0.373206 0.694074
Si Si4 0.016886 0.137446 0.092779
Si Si5 0.400778 0.873666 0.765051
O O1 0.764127 0.916885 0.964290
O O2 0.898637 0.753158 0.928925
O O3 0.906314 0.561188 0.008982
O O4 0.000000 0.000000 0.000000
O O5 0.567280 0.610830 0.928935
O O6 0.568946 0.118199 0.912397
O O7 0.602383 0.423926 0.643312
O O8 0.576884 0.592475 0.711798
O O9 0.778287 0.393586 0.720876
O O10 0.591589 0.089780 0.699575
O O11 0.500000 0.936975 0.750000
#
# Coordination Sequence:
#
# PCOD8143601 Si02
#       5
#     8   8   8   8   8
#     4   9  21  39  59  82 115 156 191 231 281 331
#     4  10  22  38  58  83 116 154 192 228 279 336
#     4  10  22  37  59  88 113 144 192 232 277 343
#     4  11  22  37  57  87 117 145 189 240 278 327
#     4  10  21  41  61  81 114 152 183 229 288 340
#
# _framework density 20.556622999999998
#
# number of rings (size 3 to 8) (size 9 to 14) (size 15 to 20)
#    0.000    2.000    0.000    2.400    0.000   13.600 
#    0.000    0.000    0.000    0.000    0.000    0.000 
#    0.000    0.000    0.000    0.000    0.000    0.000 
#
# Total GULP energy -247842.959561 kJ/mol
# GULP energy per Si atom -12392.147978 kJ/mol
# Density = 2.050983 g / cm^3
# Si number density = 20.556623 Si / 1000 Ang^3
#
#
#
# Elastic Constant Matrix: (Units=GPa)
#
#
# Indices 1 2 3 4 5 6 
#
# 1 106.5391 28.2507 50.5145 0.0000 -7.8457 0.0000
# 2 28.2507 101.0215 22.4518 0.0001 11.0150 0.0000
# 3 50.5145 22.4518 137.9146 0.0000 2.2512 0.0000
# 4 0.0000 0.0001 0.0000 22.1654 0.0000 7.7576
# 5 -7.8457 11.0150 2.2512 0.0000 14.2280 0.0000
# 6 0.0000 0.0000 0.0000 7.7576 0.0000 11.3907
#
#
#
# Elastic Compliance Matrix: (Units=1/GPa)
#
#
# Indices 1 2 3 4 5 6 
#
# 1 0.013358 -0.003965 -0.004429 0.000000 0.011136 0.000000
# 2 -0.003965 0.012366 -0.000370 0.000000 -0.011702 0.000000
# 3 -0.004429 -0.000370 0.008992 0.000000 -0.003579 0.000000
# 4 0.000000 0.000000 0.000000 0.059234 0.000000 -0.040341
# 5 0.011136 -0.011702 -0.003579 0.000000 0.086050 0.000000
# 6 0.000000 0.000000 0.000000 -0.040341 0.000000 0.115265
#
#
# Mechanical properties :
#
#
# Convention : Reuss Voigt Hill
#
# Bulk Modulus (GPa) = 58.18233 60.87881 59.53057
# Shear Modulus (GPa) = 15.69756 25.84071 20.76913
#
# Velocity S-wave (km/s) = 2.76637 3.54934 3.18203
# Velocity P-wave (km/s) = 6.21037 6.81737 6.52094
#
# Compressibility (1/GPa) = 0.01718735
#
# Stress axis : x y z
#
# Youngs Moduli (GPa) = 74.86307 80.86765 111.21479
#
# Poissons Ratio (x) = 0.32068 0.49255
# Poissons Ratio (y) = 0.29687 0.04111
# Poissons Ratio (z) = 0.33155 0.02989
#
# Static dielectric constant tensor:
#      x y z
#    x 3.840720 0.000000 -0.157190 
#    y 0.000000 3.692600 0.000000 
#    z -0.157190 0.000000 3.888220 
# 
# 
# High freq. dielectric constant tensor:
#      x y z
#    x 1.808610 0.000000 0.001360 
#    y 0.000000 1.805650 0.000000 
#    z 0.001360 0.000000 1.803170 
# 
# From -- ./inp_files/290519.got.cif
#   From: 2010.06.25/outbox.cif.g09.slc.cpg/sg15_146_cif.got.tgz:290519.got - 2010.06.28 07:06:18.
