data_PCOD8143463
_publ_section_title
;
Structure prediction by ZEFSAII (Michael W. Deem and Ramdas Pophale) SiO2 
 PCOD8143463
Probable space group: C 2/C
;
_chemical_formula_sum "Si O2"
_cell_formula_units_Z 28
_cell_length_a 7.361311
_cell_length_b 15.781010
_cell_length_c 13.889570
_cell_angle_alpha 90.000000
_cell_angle_beta 49.778466
_cell_angle_gamma 90.000000
_cell_volume 1232.021168
_symmetry_space_group_name_H-M "C 2/C"
_symmetry_group_IT_number 15
_symmetry_cell_setting 'monoclinic'
loop_
_space_group_symop_operation_xyz
x,y,z
-x,y,1/2-z
-x,-y,-z
x,-y,1/2+z
1/2+x,1/2+y,z
1/2-x,1/2+y,1/2-z
1/2-x,1/2-y,-z
1/2+x,1/2-y,1/2+z
loop_
_atom_site_type_symbol
_atom_site_label
_atom_site_fract_x
_atom_site_fract_y
_atom_site_fract_z
Si Si1 0.802375 0.903027 0.680032
Si Si2 0.000000 0.446117 0.250000
Si Si3 0.308164 0.848710 0.491959
Si Si4 0.397057 0.165883 0.431934
O O1 0.775960 0.894330 0.571762
O O2 0.647898 0.828293 0.785788
O O3 0.076490 0.895826 0.615725
O O4 0.691143 0.995117 0.742489
O O5 0.864850 0.385518 0.369101
O O6 0.250000 0.750000 0.500000
O O7 0.528401 0.867905 0.488041
O O8 0.250000 0.250000 0.500000
#
# Coordination Sequence:
#
# PCOD8143463 Si02
#       4
#     8   4   8   8
#     4  10  24  44  64  96 143 170 226 280 332 406
#     4  10  26  44  66 100 140 180 222 286 340 400
#     4  12  24  40  72  98 132 179 230 275 339 400
#     4  10  21  40  67  97 131 174 221 278 334 391
#
# _framework density 22.726882
#
# number of rings (size 3 to 8) (size 9 to 14) (size 15 to 20)
#    0.000    1.714    2.857    1.714    4.000    4.571 
#    0.000    5.714    0.000    0.000    0.000    0.000 
#    0.000    0.000    0.000    0.000    0.000    0.000 
#
# Total GULP energy -173439.598358 kJ/mol
# GULP energy per Si atom -12388.542740 kJ/mol
# Density = 2.267515 g / cm^3
# Si number density = 22.726882 Si / 1000 Ang^3
#
#
#
# Elastic Constant Matrix: (Units=GPa)
#
#
# Indices 1 2 3 4 5 6 
#
# 1 93.0688 18.6143 19.7536 0.0000 -12.9737 0.0000
# 2 18.6143 113.9636 61.0611 0.0000 -11.6821 0.0000
# 3 19.7536 61.0611 127.5115 0.0000 -13.3916 0.0000
# 4 0.0000 0.0000 0.0000 47.8134 0.0000 -2.0815
# 5 -12.9737 -11.6821 -13.3916 0.0000 34.5660 0.0000
# 6 0.0000 0.0000 0.0000 -2.0815 0.0000 26.9835
#
#
#
# Elastic Compliance Matrix: (Units=1/GPa)
#
#
# Indices 1 2 3 4 5 6 
#
# 1 0.011659 -0.001032 -0.000927 0.000000 0.003668 0.000000
# 2 -0.001032 0.012012 -0.005428 0.000000 0.001570 0.000000
# 3 -0.000927 -0.005428 0.010795 0.000000 0.002000 0.000000
# 4 0.000000 0.000000 0.000000 0.020985 0.000000 0.001619
# 5 0.003668 0.001570 0.002000 0.000000 0.031612 0.000000
# 6 0.000000 0.000000 0.000000 0.001619 0.000000 0.037185
#
#
# Mechanical properties :
#
#
# Convention : Reuss Voigt Hill
#
# Bulk Modulus (GPa) = 50.77633 59.26685 55.02159
# Shear Modulus (GPa) = 34.34404 37.54691 35.94548
#
# Velocity S-wave (km/s) = 3.89159 4.06900 3.98128
# Velocity P-wave (km/s) = 6.52557 6.94336 6.73770
#
# Compressibility (1/GPa) = 0.01969422
#
# Stress axis : x y z
#
# Youngs Moduli (GPa) = 85.76938 83.24851 92.63409
#
# Poissons Ratio (x) = 0.08589 0.08586
# Poissons Ratio (y) = 0.08849 0.50278
# Poissons Ratio (z) = 0.07950 0.45184
#
# Static dielectric constant tensor:
#      x y z
#    x 4.416500 0.000000 0.043900 
#    y 0.000000 3.932670 0.000000 
#    z 0.043900 0.000000 4.134950 
# 
# 
# High freq. dielectric constant tensor:
#      x y z
#    x 1.907930 0.000000 -0.000740 
#    y 0.000000 1.868880 0.000000 
#    z -0.000740 0.000000 1.896580 
# 
# From -- ./inp_files/75449.got.cif
#   From: 2010.06.25/outbox.cif.g09.slc.cpg/sg15_38_cif.got.tgz:75449.got - 2010.06.28 07:06:18.
