data_PCOD8143581
_publ_section_title
;
Structure prediction by ZEFSAII (Michael W. Deem and Ramdas Pophale) SiO2 
 PCOD8143581
Probable space group: C 2/C
;
_chemical_formula_sum "Si O2"
_cell_formula_units_Z 56
_cell_length_a 14.544227
_cell_length_b 26.675280
_cell_length_c 14.082931
_cell_angle_alpha 90.000000
_cell_angle_beta 150.075863
_cell_angle_gamma 90.000000
_cell_volume 2725.619187
_symmetry_space_group_name_H-M "C 2/C"
_symmetry_group_IT_number 15
_symmetry_cell_setting 'monoclinic'
loop_
_space_group_symop_operation_xyz
x,y,z
-x,y,1/2-z
-x,-y,-z
x,-y,1/2+z
1/2+x,1/2+y,z
1/2-x,1/2+y,1/2-z
1/2-x,1/2-y,-z
1/2+x,1/2-y,1/2+z
loop_
_atom_site_type_symbol
_atom_site_label
_atom_site_fract_x
_atom_site_fract_y
_atom_site_fract_z
Si Si1 0.743443 0.410707 0.331148
Si Si2 0.517005 0.599605 0.454326
Si Si3 0.789794 0.813594 0.466042
Si Si4 0.367493 0.868022 0.840123
Si Si5 0.589436 0.209250 0.968689
Si Si6 0.702386 0.089894 0.412391
Si Si7 0.010539 0.995015 0.365746
O O1 0.602722 0.383258 0.132760
O O2 0.717203 0.389004 0.415500
O O3 0.687167 0.469696 0.285214
O O4 0.951275 0.402160 0.480934
O O5 0.610608 0.633353 0.457234
O O6 0.298076 0.605043 0.252950
O O7 0.561951 0.540862 0.480222
O O8 0.595493 0.813953 0.238866
O O9 0.761454 0.805497 0.553742
O O10 0.918578 0.769715 0.536008
O O11 0.320865 0.864998 0.685519
O O12 0.387505 0.812705 0.904110
O O13 0.500000 0.065891 0.250000
O O14 0.832655 0.047609 0.483205
O O15 0.000000 0.016457 0.250000
#
# Coordination Sequence:
#
# PCOD8143581 Si02
#       7
#     8   8   8   8   8   8   8
#     4  10  21  41  58  84 123 160 207 254 303 366
#     4  12  23  37  61  90 122 163 206 255 303 372
#     4  10  22  40  62  89 130 163 196 257 315 370
#     4  11  22  36  65  92 112 162 212 250 304 371
#     4  10  21  41  62  91 124 163 206 250 314 376
#     4   9  20  40  60  85 118 165 203 253 310 358
#     4  10  22  40  57  85 129 166 206 255 308 362
#
# _framework density 20.545788999999999
#
# number of rings (size 3 to 8) (size 9 to 14) (size 15 to 20)
#    0.000    1.714    2.857    1.286    2.000    1.714 
#    7.714    0.000    0.000    0.857    3.714    0.000 
#    0.000    0.000    0.000    0.000    0.000    0.000 
#
# Total GULP energy -347012.489987 kJ/mol
# GULP energy per Si atom -12393.303214 kJ/mol
# Density = 2.049903 g / cm^3
# Si number density = 20.545789 Si / 1000 Ang^3
#
#
#
# Elastic Constant Matrix: (Units=GPa)
#
#
# Indices 1 2 3 4 5 6 
#
# 1 83.5158 49.6840 46.1976 0.0001 1.8038 0.0001
# 2 49.6840 94.5112 33.0684 0.0000 0.3246 0.0000
# 3 46.1976 33.0684 87.6404 0.0002 2.1094 0.0003
# 4 0.0001 0.0000 0.0002 26.7504 0.0002 -1.3157
# 5 1.8038 0.3246 2.1094 0.0002 45.4932 0.0001
# 6 0.0001 0.0000 0.0003 -1.3157 0.0001 30.3549
#
#
#
# Elastic Compliance Matrix: (Units=1/GPa)
#
#
# Indices 1 2 3 4 5 6 
#
# 1 0.021521 -0.008464 -0.008141 0.000000 -0.000415 0.000000
# 2 -0.008464 0.015519 -0.001401 0.000000 0.000290 0.000000
# 3 -0.008141 -0.001401 0.016240 0.000000 -0.000420 0.000000
# 4 0.000000 0.000000 0.000000 0.037462 0.000000 0.001624
# 5 -0.000415 0.000290 -0.000420 0.000000 0.022015 0.000000
# 6 0.000000 0.000000 0.000000 0.001624 0.000000 0.033014
#
#
# Mechanical properties :
#
#
# Convention : Reuss Voigt Hill
#
# Bulk Modulus (GPa) = 57.90663 58.17417 58.04040
# Shear Modulus (GPa) = 26.66094 29.63420 28.14757
#
# Velocity S-wave (km/s) = 3.60618 3.80195 3.70536
# Velocity P-wave (km/s) = 6.75165 6.90282 6.82765
#
# Compressibility (1/GPa) = 0.01726918
#
# Stress axis : x y z
#
# Youngs Moduli (GPa) = 46.46626 64.43560 61.57505
#
# Poissons Ratio (x) = 0.54536 0.50127
# Poissons Ratio (y) = 0.39328 0.08629
# Poissons Ratio (z) = 0.37827 0.09029
#
# Static dielectric constant tensor:
#      x y z
#    x 3.985180 0.000000 -0.020100 
#    y 0.000000 3.340640 0.000000 
#    z -0.020100 0.000000 3.962520 
# 
# 
# High freq. dielectric constant tensor:
#      x y z
#    x 1.809640 0.000000 -0.000230 
#    y 0.000000 1.754700 0.000000 
#    z -0.000230 0.000000 1.822680 
# 
# From -- ./inp_files/157239.got.cif
#   From: 2010.06.25/outbox.cif.g09.slc.cpg/sg15_79_cif.got.tgz:157239.got - 2010.06.28 07:06:18.
