data_PCOD8143642
_publ_section_title
;
Structure prediction by ZEFSAII (Michael W. Deem and Ramdas Pophale) SiO2 
 PCOD8143642
Probable space group: C 2/C
;
_chemical_formula_sum "Si O2"
_cell_formula_units_Z 48
_cell_length_a 13.220411
_cell_length_b 20.652884
_cell_length_c 12.723741
_cell_angle_alpha 90.000000
_cell_angle_beta 44.116151
_cell_angle_gamma 90.000000
_cell_volume 2418.363613
_symmetry_space_group_name_H-M "C 2/C"
_symmetry_group_IT_number 15
_symmetry_cell_setting 'monoclinic'
loop_
_space_group_symop_operation_xyz
x,y,z
-x,y,1/2-z
-x,-y,-z
x,-y,1/2+z
1/2+x,1/2+y,z
1/2-x,1/2+y,1/2-z
1/2-x,1/2-y,-z
1/2+x,1/2-y,1/2+z
loop_
_atom_site_type_symbol
_atom_site_label
_atom_site_fract_x
_atom_site_fract_y
_atom_site_fract_z
Si Si1 0.796122 0.617649 0.209763
Si Si2 0.807762 0.207942 0.552542
Si Si3 0.668906 0.959532 0.622455
Si Si4 0.580619 0.166146 0.085844
Si Si5 0.663763 0.420686 0.592632
Si Si6 0.374316 0.254456 0.625964
O O1 0.774761 0.555693 0.301743
O O2 0.762957 0.599998 0.115453
O O3 0.691679 0.674503 0.326882
O O4 0.962977 0.639237 0.090526
O O5 0.750000 0.250000 0.500000
O O6 0.833204 0.134240 0.498736
O O7 0.691075 0.209791 0.733084
O O8 0.954039 0.240341 0.485467
O O9 0.500000 0.981906 0.750000
O O10 0.684563 0.893325 0.542286
O O11 0.773234 0.013507 0.499748
O O12 0.500000 0.194077 0.250000
O O13 0.663567 0.222348 0.959662
O O14 0.500000 0.433259 0.750000
#
# Coordination Sequence:
#
# PCOD8143642 Si02
#       6
#     8   8   8   8   8   8
#     4  10  21  41  62  87 128 161 209 261 313 365
#     4  12  23  38  62  96 126 163 206 254 322 372
#     4   9  24  43  62  88 119 171 217 252 308 374
#     4   9  21  42  66  93 123 164 215 258 306 376
#     4  12  23  41  62  92 132 162 206 266 312 375
#     4  12  21  40  65  94 127 166 202 264 320 370
#
# _framework density 19.848132
#
# number of rings (size 3 to 8) (size 9 to 14) (size 15 to 20)
#    0.000    1.667    5.000    0.500    0.000   10.000 
#    3.000    0.000    0.000    0.000    0.000    0.000 
#    0.000    0.000    0.000    0.000    0.000    0.000 
#
# Total GULP energy -297579.267388 kJ/mol
# GULP energy per Si atom -12399.136141 kJ/mol
# Density = 1.980296 g / cm^3
# Si number density = 19.848132 Si / 1000 Ang^3
#
#
#
# Elastic Constant Matrix: (Units=GPa)
#
#
# Indices 1 2 3 4 5 6 
#
# 1 60.5519 10.2684 20.4395 -0.0038 13.1652 0.0020
# 2 10.2684 96.6840 51.8594 -0.0018 22.8746 0.0009
# 3 20.4395 51.8594 93.8312 -0.0069 33.8460 0.0039
# 4 -0.0038 -0.0018 -0.0069 45.8046 0.0046 10.9483
# 5 13.1652 22.8746 33.8460 0.0046 23.7851 -0.0026
# 6 0.0020 0.0009 0.0039 10.9483 -0.0026 23.0172
#
#
#
# Elastic Compliance Matrix: (Units=1/GPa)
#
#
# Indices 1 2 3 4 5 6 
#
# 1 0.018848 0.000882 -0.001077 0.000003 -0.009749 -0.000004
# 2 0.000882 0.015074 -0.006406 0.000000 -0.005869 0.000000
# 3 -0.001077 -0.006406 0.024646 0.000009 -0.028314 -0.000011
# 4 0.000003 0.000000 0.000009 0.024632 -0.000021 -0.011717
# 5 -0.009749 -0.005869 -0.028314 -0.000021 0.093373 0.000026
# 6 -0.000004 0.000000 -0.000011 -0.011717 0.000026 0.049019
#
#
# Mechanical properties :
#
#
# Convention : Reuss Voigt Hill
#
# Bulk Modulus (GPa) = 22.04293 46.24464 34.14378
# Shear Modulus (GPa) = 19.69147 29.75469 24.72308
#
# Velocity S-wave (km/s) = 3.15319 3.87604 3.53315
# Velocity P-wave (km/s) = 4.93829 6.58646 5.82100
#
# Compressibility (1/GPa) = 0.04536602
#
# Stress axis : x y z
#
# Youngs Moduli (GPa) = 53.05542 66.33878 40.57481
#
# Poissons Ratio (x) = -0.05853 0.04370
# Poissons Ratio (y) = -0.04681 0.25994
# Poissons Ratio (z) = 0.05714 0.42500
#
# Static dielectric constant tensor:
#      x y z
#    x 3.860670 0.000000 0.269150 
#    y 0.000000 3.620490 0.000000 
#    z 0.269150 0.000000 3.613850 
# 
# 
# High freq. dielectric constant tensor:
#      x y z
#    x 1.787180 0.000000 0.008250 
#    y 0.000000 1.769340 0.000000 
#    z 0.008250 0.000000 1.766220 
# 
# From -- ./inp_files/89393.got.cif
#   From: 2010.06.25/outbox.cif.g09.slc.cpg/sg15_45_cif.got.tgz:89393.got - 2010.06.28 07:06:18.
