data_PCOD8143731
_publ_section_title
;
Structure prediction by ZEFSAII (Michael W. Deem and Ramdas Pophale) SiO2 
 PCOD8143731
Probable space group: C 2/C
;
_chemical_formula_sum "Si O2"
_cell_formula_units_Z 40
_cell_length_a 11.952034
_cell_length_b 7.329248
_cell_length_c 19.336046
_cell_angle_alpha 90.000000
_cell_angle_beta 88.751745
_cell_angle_gamma 90.000000
_cell_volume 1693.424479
_symmetry_space_group_name_H-M "C 2/C"
_symmetry_group_IT_number 15
_symmetry_cell_setting 'monoclinic'
loop_
_space_group_symop_operation_xyz
x,y,z
-x,y,1/2-z
-x,-y,-z
x,-y,1/2+z
1/2+x,1/2+y,z
1/2-x,1/2+y,1/2-z
1/2-x,1/2-y,-z
1/2+x,1/2-y,1/2+z
loop_
_atom_site_type_symbol
_atom_site_label
_atom_site_fract_x
_atom_site_fract_y
_atom_site_fract_z
Si Si1 0.015285 0.237088 0.172176
Si Si2 0.752440 0.432255 0.319388
Si Si3 0.718735 0.854634 0.333785
Si Si4 0.936589 0.092786 0.583788
Si Si5 0.163178 0.116076 0.536384
O O1 0.131935 0.340112 0.161014
O O2 0.000000 0.154421 0.250000
O O3 0.914905 0.384589 0.163641
O O4 0.000629 0.083640 0.114695
O O5 0.747833 0.640510 0.344692
O O6 0.728798 0.429928 0.237809
O O7 0.649402 0.323695 0.358547
O O8 0.776717 0.964438 0.395517
O O9 0.864842 0.045408 0.516509
O O10 0.044206 0.215885 0.559910
O O11 0.250000 0.250000 0.500000
#
# Coordination Sequence:
#
# PCOD8143731 Si02
#       5
#     8   8   8   8   8
#     4   9  19  38  63  88 125 156 200 260 310 358
#     4  10  21  41  63  99 121 162 215 254 312 373
#     4  10  22  40  67  90 130 163 204 264 310 367
#     4  10  23  40  65  88 122 170 209 251 314 373
#     4  11  21  42  64  87 129 169 203 256 317 368
#
# _framework density 23.620777
#
# number of rings (size 3 to 8) (size 9 to 14) (size 15 to 20)
#    0.000    2.000    4.000    0.000    8.400    0.000 
#   10.800    8.000    0.000    0.000    0.000    0.000 
#    0.000    0.000    0.000    0.000    0.000    0.000 
#
# Total GULP energy -247811.389046 kJ/mol
# GULP energy per Si atom -12390.569452 kJ/mol
# Density = 2.356701 g / cm^3
# Si number density = 23.620777 Si / 1000 Ang^3
#
#
#
# Elastic Constant Matrix: (Units=GPa)
#
#
# Indices 1 2 3 4 5 6 
#
# 1 200.5684 -3.1904 97.1731 0.0000 -18.5870 0.0000
# 2 -3.1904 -17.5724 8.7464 0.0000 14.6819 0.0000
# 3 97.1731 8.7464 170.3086 0.0000 9.1746 0.0000
# 4 0.0000 0.0000 0.0000 19.7138 0.0000 -2.8918
# 5 -18.5870 14.6819 9.1746 0.0000 54.3064 0.0000
# 6 0.0000 0.0000 0.0000 -2.8918 0.0000 36.5349
#
#
#
# Elastic Compliance Matrix: (Units=1/GPa)
#
#
# Indices 1 2 3 4 5 6 
#
# 1 0.007422 -0.000644 -0.004388 0.000000 0.003456 0.000000
# 2 -0.000644 -0.045870 0.002086 0.000000 0.011828 0.000000
# 3 -0.004388 0.002086 0.008456 0.000000 -0.003494 0.000000
# 4 0.000000 0.000000 0.000000 0.051322 0.000000 0.004062
# 5 0.003456 0.011828 -0.003494 0.000000 0.016989 0.000000
# 6 0.000000 0.000000 0.000000 0.004062 0.000000 0.027693
#
#
# Mechanical properties :
#
#
# Convention : Reuss Voigt Hill
#
# Bulk Modulus (GPa) = -27.86806 62.08474 17.10834
# Shear Modulus (GPa) = 83.41383 38.81604 61.11494
#
# Velocity S-wave (km/s) = 5.94898 4.05816 5.09211
# Velocity P-wave (km/s) = 5.94672 6.94977 6.46772
#
# Compressibility (1/GPa) = -0.03588337
#
# Stress axis : x y z
#
# Youngs Moduli (GPa) = 134.74276 -21.80087 118.25602
#
# Poissons Ratio (x) = -0.01404 0.51886
# Poissons Ratio (y) = 0.08680 -0.24669
# Poissons Ratio (z) = 0.59120 0.04548
#
# Static dielectric constant tensor:
#      x y z
#    x 4.903460 0.000000 -0.113310 
#    y 0.000000 3.472130 0.000000 
#    z -0.113310 0.000000 4.815370 
# 
# 
# High freq. dielectric constant tensor:
#      x y z
#    x 1.968980 0.000000 -0.005260 
#    y 0.000000 1.860380 0.000000 
#    z -0.005260 0.000000 1.961390 
# 
# From -- ./inp_files/235703.got.cif
#   From: 2010.06.25/outbox.cif.g09.slc.cpg/sg15_118_cif.got.tgz:235703.got - 2010.06.28 07:06:18.
