data_PCOD8143825
_publ_section_title
;
Structure prediction by ZEFSAII (Michael W. Deem and Ramdas Pophale) SiO2 
 PCOD8143825
Probable space group: C 2/C
;
_chemical_formula_sum "Si O2"
_cell_formula_units_Z 44
_cell_length_a 18.669040
_cell_length_b 8.008636
_cell_length_c 12.810619
_cell_angle_alpha 90.000000
_cell_angle_beta 113.424001
_cell_angle_gamma 90.000000
_cell_volume 1757.512682
_symmetry_space_group_name_H-M "C 2/C"
_symmetry_group_IT_number 15
_symmetry_cell_setting 'monoclinic'
loop_
_space_group_symop_operation_xyz
x,y,z
-x,y,1/2-z
-x,-y,-z
x,-y,1/2+z
1/2+x,1/2+y,z
1/2-x,1/2+y,1/2-z
1/2-x,1/2-y,-z
1/2+x,1/2-y,1/2+z
loop_
_atom_site_type_symbol
_atom_site_label
_atom_site_fract_x
_atom_site_fract_y
_atom_site_fract_z
Si Si1 0.780525 0.708708 0.662088
Si Si2 0.000000 0.525389 0.750000
Si Si3 0.020336 0.290696 0.473334
Si Si4 0.353298 0.570361 0.037949
Si Si5 0.608294 0.208649 0.426834
Si Si6 0.336330 0.000315 0.377853
O O1 0.723562 0.569656 0.579386
O O2 0.842841 0.781310 0.616138
O O3 0.728350 0.859754 0.675529
O O4 0.832552 0.628465 0.781179
O O5 0.013038 0.639424 0.655890
O O6 0.926028 0.399308 0.688990
O O7 0.069733 0.121657 0.482237
O O8 0.075525 0.428541 0.561804
O O9 0.952088 0.249662 0.514282
O O10 0.362536 0.388910 0.097244
O O11 0.678265 0.101702 0.521766
#
# Coordination Sequence:
#
# PCOD8143825 Si02
#       6
#     8   4   8   8   8   8
#     4  10  22  42  65  95 129 177 217 265 326 373
#     4  10  22  40  62  96 130 174 210 256 330 380
#     4  10  23  41  68  96 133 171 213 270 329 386
#     4  10  23  42  65  96 130 169 223 268 317 394
#     4  11  23  43  64 100 129 172 217 270 329 381
#     4  10  21  41  65  93 128 173 216 269 318 388
#
# _framework density 25.03538
#
# number of rings (size 3 to 8) (size 9 to 14) (size 15 to 20)
#    0.000    1.818    0.000    3.818    5.091    1.455 
#   13.091    0.000    0.000    0.000    0.000    0.000 
#    0.000    0.000    0.000    0.000    0.000    0.000 
#
# Total GULP energy -272764.419553 kJ/mol
# GULP energy per Si atom -12398.382707 kJ/mol
# Density = 2.497840 g / cm^3
# Si number density = 25.035380 Si / 1000 Ang^3
#
#
#
# Elastic Constant Matrix: (Units=GPa)
#
#
# Indices 1 2 3 4 5 6 
#
# 1 69.0568 6.3542 13.7904 0.0000 3.8025 0.0000
# 2 6.3542 110.6561 36.5707 0.0000 21.0450 0.0000
# 3 13.7904 36.5707 145.0163 0.0000 28.8938 0.0000
# 4 0.0000 0.0000 0.0000 40.1111 0.0000 6.3028
# 5 3.8025 21.0450 28.8938 0.0000 24.0422 0.0000
# 6 0.0000 0.0000 0.0000 6.3028 0.0000 11.8253
#
#
#
# Elastic Compliance Matrix: (Units=1/GPa)
#
#
# Indices 1 2 3 4 5 6 
#
# 1 0.014785 -0.000338 -0.001201 0.000000 -0.000598 0.000000
# 2 -0.000338 0.010987 -0.001095 0.000000 -0.008247 0.000000
# 3 -0.001201 -0.001095 0.009279 0.000000 -0.010003 0.000000
# 4 0.000000 0.000000 0.000000 0.027210 0.000000 -0.014502
# 5 -0.000598 -0.008247 -0.010003 0.000000 0.060929 0.000000
# 6 0.000000 0.000000 0.000000 -0.014502 0.000000 0.092294
#
#
# Mechanical properties :
#
#
# Convention : Reuss Voigt Hill
#
# Bulk Modulus (GPa) = 33.57811 48.68443 41.13127
# Shear Modulus (GPa) = 21.67502 33.06332 27.36917
#
# Velocity S-wave (km/s) = 2.94560 3.63804 3.30997
# Velocity P-wave (km/s) = 5.00101 6.09389 5.57430
#
# Compressibility (1/GPa) = 0.02978131
#
# Stress axis : x y z
#
# Youngs Moduli (GPa) = 67.63690 91.01710 107.76677
#
# Poissons Ratio (x) = 0.03077 0.12948
# Poissons Ratio (y) = 0.02287 0.11804
# Poissons Ratio (z) = 0.08126 0.09969
#
# Static dielectric constant tensor:
#      x y z
#    x 4.317030 0.000000 0.151190 
#    y 0.000000 4.523510 0.000000 
#    z 0.151190 0.000000 4.450320 
# 
# 
# High freq. dielectric constant tensor:
#      x y z
#    x 1.995780 0.000000 0.010630 
#    y 0.000000 2.001600 0.000000 
#    z 0.010630 0.000000 1.993560 
# 
# From -- ./inp_files/110153.got.cif
#   From: 2010.06.25/outbox.cif.g09.slc.cpg/sg15_56_cif.got.tgz:110153.got - 2010.06.28 07:06:18.
