data_PCOD8143363
_publ_section_title
;
Structure prediction by ZEFSAII (Michael W. Deem and Ramdas Pophale) SiO2 
 PCOD8143363
Probable space group: C 2/C
;
_chemical_formula_sum "Si O2"
_cell_formula_units_Z 60
_cell_length_a 18.790169
_cell_length_b 29.282997
_cell_length_c 12.559760
_cell_angle_alpha 90.000000
_cell_angle_beta 26.362588
_cell_angle_gamma 90.000000
_cell_volume 3068.736774
_symmetry_space_group_name_H-M "C 2/C"
_symmetry_group_IT_number 15
_symmetry_cell_setting 'monoclinic'
loop_
_space_group_symop_operation_xyz
x,y,z
-x,y,1/2-z
-x,-y,-z
x,-y,1/2+z
1/2+x,1/2+y,z
1/2-x,1/2+y,1/2-z
1/2-x,1/2-y,-z
1/2+x,1/2-y,1/2+z
loop_
_atom_site_type_symbol
_atom_site_label
_atom_site_fract_x
_atom_site_fract_y
_atom_site_fract_z
Si Si1 0.400866 0.115075 0.492209
Si Si2 0.061564 0.548468 0.442039
Si Si3 0.707632 0.356087 0.607591
Si Si4 0.656311 0.193194 0.777686
Si Si5 0.409929 0.522319 0.975984
Si Si6 0.500000 0.079643 0.750000
Si Si7 0.629991 0.220527 0.485485
Si Si8 0.935914 0.926552 0.033938
O O1 0.500000 0.115670 0.250000
O O2 0.488044 0.087943 0.469260
O O3 0.377655 0.165596 0.569269
O O4 0.228698 0.093292 0.699988
O O5 0.015532 0.549333 0.626555
O O6 0.000000 0.500000 0.500000
O O7 0.248106 0.549342 0.175030
O O8 0.733244 0.334795 0.455270
O O9 0.844198 0.391285 0.445904
O O10 0.737526 0.317256 0.657237
O O11 0.540301 0.384099 0.845033
O O12 0.763148 0.234998 0.676615
O O13 0.479725 0.206660 0.968691
O O14 0.500000 0.535743 0.750000
O O15 0.482891 0.546366 0.980278
O O16 0.398824 0.466741 0.997849
O O17 0.500000 0.230576 0.750000
#
# Coordination Sequence:
#
# PCOD8143363 Si02
#       8
#     8   8   8   8   8   4   8   8
#     4  12  27  46  66  94 131 180 227 267 326 399
#     4  12  25  42  66  91 131 184 219 277 326 391
#     4  11  20  40  68  98 133 163 215 272 336 387
#     4  11  24  41  68 101 129 171 208 273 328 403
#     4  11  25  43  61  91 129 171 225 273 323 380
#     4  12  22  42  66  96 132 176 222 266 334 390
#     4  10  21  40  66 103 135 163 204 271 341 396
#     4  11  26  41  64  96 129 170 221 279 319 386
#
# _framework density 19.552019000000001
#
# number of rings (size 3 to 8) (size 9 to 14) (size 15 to 20)
#    0.000    0.800    6.000    2.400    8.400    0.000 
#    0.000    0.667    0.000    0.000    0.000    0.000 
#    0.000    0.000    0.000    0.000    0.000    0.000 
#
# Total GULP energy -371736.655726 kJ/mol
# GULP energy per Si atom -12391.221858 kJ/mol
# Density = 1.950752 g / cm^3
# Si number density = 19.552019 Si / 1000 Ang^3
#
#
#
# Elastic Constant Matrix: (Units=GPa)
#
#
# Indices 1 2 3 4 5 6 
#
# 1 67.1800 39.4502 34.9298 -0.0028 10.1952 0.0012
# 2 39.4502 122.2710 52.1483 0.0005 3.4120 0.0030
# 3 34.9298 52.1483 128.9549 -0.0186 -0.5145 -0.0099
# 4 -0.0028 0.0005 -0.0186 42.0537 0.0051 -7.1559
# 5 10.1952 3.4120 -0.5145 0.0051 39.5490 0.0004
# 6 0.0012 0.0030 -0.0099 -7.1559 0.0004 41.3351
#
#
#
# Elastic Compliance Matrix: (Units=1/GPa)
#
#
# Indices 1 2 3 4 5 6 
#
# 1 0.020356 -0.004921 -0.003543 0.000000 -0.004869 -0.000001
# 2 -0.004921 0.011105 -0.003157 -0.000002 0.000269 -0.000002
# 3 -0.003543 -0.003157 0.009996 0.000005 0.001316 0.000004
# 4 0.000000 -0.000002 0.000005 0.024501 -0.000003 0.004242
# 5 -0.004869 0.000269 0.001316 -0.000003 0.026534 0.000000
# 6 -0.000001 -0.000002 0.000004 0.004242 0.000000 0.024927
#
#
# Mechanical properties :
#
#
# Convention : Reuss Voigt Hill
#
# Bulk Modulus (GPa) = 54.89771 63.49583 59.19677
# Shear Modulus (GPa) = 34.07539 37.37941 35.72740
#
# Velocity S-wave (km/s) = 4.17922 4.37715 4.27933
# Velocity P-wave (km/s) = 7.17123 7.62179 7.39994
#
# Compressibility (1/GPa) = 0.01821569
#
# Stress axis : x y z
#
# Youngs Moduli (GPa) = 49.12483 90.04877 100.03705
#
# Poissons Ratio (x) = 0.44311 0.35447
# Poissons Ratio (y) = 0.24173 0.31580
# Poissons Ratio (z) = 0.17407 0.28427
#
# Static dielectric constant tensor:
#      x y z
#    x 3.829940 -0.000100 -0.033570 
#    y -0.000100 3.760670 0.000000 
#    z -0.033570 0.000000 3.607880 
# 
# 
# High freq. dielectric constant tensor:
#      x y z
#    x 1.767070 0.000000 -0.020140 
#    y 0.000000 1.772900 0.000000 
#    z -0.020140 0.000000 1.754870 
# 
# From -- ./inp_files/108405.got.cif
#   From: 2010.06.25/outbox.cif.g09.slc.cpg/sg15_55_cif.got.tgz:108405.got - 2010.06.28 07:06:18.
