data_PCOD8143094
_publ_section_title
;
Structure prediction by ZEFSAII (Michael W. Deem and Ramdas Pophale) SiO2 
 PCOD8143094
Probable space group: C 2/C
;
_chemical_formula_sum "Si O2"
_cell_formula_units_Z 52
_cell_length_a 10.754746
_cell_length_b 8.949167
_cell_length_c 24.951975
_cell_angle_alpha 90.000000
_cell_angle_beta 88.006509
_cell_angle_gamma 90.000000
_cell_volume 2400.074795
_symmetry_space_group_name_H-M "C 2/C"
_symmetry_group_IT_number 15
_symmetry_cell_setting 'monoclinic'
loop_
_space_group_symop_operation_xyz
x,y,z
-x,y,1/2-z
-x,-y,-z
x,-y,1/2+z
1/2+x,1/2+y,z
1/2-x,1/2+y,1/2-z
1/2-x,1/2-y,-z
1/2+x,1/2-y,1/2+z
loop_
_atom_site_type_symbol
_atom_site_label
_atom_site_fract_x
_atom_site_fract_y
_atom_site_fract_z
Si Si1 0.638851 0.642004 0.486204
Si Si2 0.365709 0.674629 0.468731
Si Si3 0.418072 0.319936 0.848733
Si Si4 0.814711 0.138667 0.134324
Si Si5 0.715016 0.086999 0.720762
Si Si6 0.621851 0.655812 0.680995
Si Si7 0.000000 0.627603 0.250000
O O1 0.750000 0.750000 0.500000
O O2 0.502112 0.722710 0.490508
O O3 0.642551 0.504157 0.526834
O O4 0.662055 0.579335 0.425960
O O5 0.250000 0.750000 0.500000
O O6 0.355265 0.719612 0.406523
O O7 0.562886 0.274944 0.846272
O O8 0.352760 0.232978 0.801813
O O9 0.419249 0.497536 0.839849
O O10 0.707046 0.263547 0.135426
O O11 0.783442 0.997581 0.171578
O O12 0.810548 0.146399 0.762676
O O13 0.620899 0.976385 0.752436
O O14 0.506374 0.767395 0.696222
#
# Coordination Sequence:
#
# PCOD8143094 Si02
#       7
#     8   8   8   8   8   8   4
#     4  10  21  40  62  87 119 156 201 252 303 359
#     4  10  22  40  62  90 121 155 199 251 305 359
#     4  11  22  38  61  85 115 155 196 239 294 355
#     4  10  22  38  58  83 115 154 194 242 297 351
#     4  11  22  37  56  82 116 150 190 236 285 344
#     4  11  22  37  57  84 115 152 195 235 285 345
#     4  10  22  36  52  78 112 146 184 230 276 330
#
# _framework density 21.665991000000002
#
# number of rings (size 3 to 8) (size 9 to 14) (size 15 to 20)
#    0.000    1.538    0.000    5.538    0.000    2.462 
#    0.000    7.692    0.000    0.000    0.000    0.000 
#    0.000    0.000    0.000    0.000    0.000    0.000 
#
# Total GULP energy -322374.582981 kJ/mol
# GULP energy per Si atom -12399.022422 kJ/mol
# Density = 2.161668 g / cm^3
# Si number density = 21.665991 Si / 1000 Ang^3
#
#
#
# Elastic Constant Matrix: (Units=GPa)
#
#
# Indices 1 2 3 4 5 6 
#
# 1 108.4395 28.8279 39.0354 0.0000 -19.6153 0.0000
# 2 28.8279 78.3538 16.0838 0.0000 -11.2009 0.0000
# 3 39.0354 16.0838 59.7982 0.0000 -14.3483 0.0000
# 4 0.0000 0.0000 0.0000 35.6844 0.0000 -1.0116
# 5 -19.6153 -11.2009 -14.3483 0.0000 39.1050 0.0000
# 6 0.0000 0.0000 0.0000 -1.0116 0.0000 28.8448
#
#
#
# Elastic Compliance Matrix: (Units=1/GPa)
#
#
# Indices 1 2 3 4 5 6 
#
# 1 0.013092 -0.002928 -0.007000 0.000000 0.003160 0.000000
# 2 -0.002928 0.014445 -0.001462 0.000000 0.002132 0.000000
# 3 -0.007000 -0.001462 0.022745 0.000000 0.004415 0.000000
# 4 0.000000 0.000000 0.000000 0.028051 0.000000 0.000984
# 5 0.003160 0.002132 0.004415 0.000000 0.029388 0.000000
# 6 0.000000 0.000000 0.000000 0.000984 0.000000 0.034703
#
#
# Mechanical properties :
#
#
# Convention : Reuss Voigt Hill
#
# Bulk Modulus (GPa) = 36.36272 46.05397 41.20834
# Shear Modulus (GPa) = 28.67434 31.56979 30.12207
#
# Velocity S-wave (km/s) = 3.64190 3.82136 3.73271
# Velocity P-wave (km/s) = 5.87404 6.38536 6.13503
#
# Compressibility (1/GPa) = 0.02750069
#
# Stress axis : x y z
#
# Youngs Moduli (GPa) = 76.38487 69.22879 43.96494
#
# Poissons Ratio (x) = 0.20270 0.30777
# Poissons Ratio (y) = 0.22366 0.06429
# Poissons Ratio (z) = 0.53472 0.10123
#
# Static dielectric constant tensor:
#      x y z
#    x 4.115890 0.000000 -0.225710 
#    y 0.000000 3.778450 0.000000 
#    z -0.225710 0.000000 3.938970 
# 
# 
# High freq. dielectric constant tensor:
#      x y z
#    x 1.861300 0.000000 -0.021230 
#    y 0.000000 1.845740 0.000000 
#    z -0.021230 0.000000 1.852090 
# 
# From -- ./inp_files/291156.got.cif
#   From: 2010.06.25/outbox.cif.g09.slc.cpg/sg15_146_cif.got.tgz:291156.got - 2010.06.28 07:06:18.
