data_PCOD8143196
_publ_section_title
;
Structure prediction by ZEFSAII (Michael W. Deem and Ramdas Pophale) SiO2 
 PCOD8143196
Probable space group: C 2/C
;
_chemical_formula_sum "Si O2"
_cell_formula_units_Z 56
_cell_length_a 14.534346
_cell_length_b 13.932716
_cell_length_c 20.444869
_cell_angle_alpha 90.000000
_cell_angle_beta 139.299365
_cell_angle_gamma 90.000000
_cell_volume 2699.817105
_symmetry_space_group_name_H-M "C 2/C"
_symmetry_group_IT_number 15
_symmetry_cell_setting 'monoclinic'
loop_
_space_group_symop_operation_xyz
x,y,z
-x,y,1/2-z
-x,-y,-z
x,-y,1/2+z
1/2+x,1/2+y,z
1/2-x,1/2+y,1/2-z
1/2-x,1/2-y,-z
1/2+x,1/2-y,1/2+z
loop_
_atom_site_type_symbol
_atom_site_label
_atom_site_fract_x
_atom_site_fract_y
_atom_site_fract_z
Si Si1 0.682444 0.299304 0.185366
Si Si2 0.557651 0.082647 0.982848
Si Si3 0.722400 0.599716 0.220483
Si Si4 0.915062 0.556568 0.771496
Si Si5 0.573241 0.278336 0.539445
Si Si6 0.151420 0.967243 0.816564
Si Si7 0.847490 0.180565 0.681374
O O1 0.701390 0.184407 0.197530
O O2 0.809145 0.352253 0.215535
O O3 0.677897 0.337124 0.256009
O O4 0.533153 0.322527 0.070500
O O5 0.525304 0.057509 0.890574
O O6 0.486954 0.183440 0.959786
O O7 0.725883 0.093524 0.082376
O O8 0.500000 0.000000 0.000000
O O9 0.828390 0.542916 0.229993
O O10 0.596738 0.642425 0.108501
O O11 0.665914 0.527451 0.245417
O O12 0.000000 0.558800 0.750000
O O13 0.724243 0.250147 0.587244
O O14 0.000000 0.919020 0.750000
O O15 0.157983 0.073986 0.852005
O O16 0.000000 0.229037 0.750000
#
# Coordination Sequence:
#
# PCOD8143196 Si02
#       7
#     8   8   8   8   8   8   8
#     4  11  22  43  67  94 138 179 222 285 338 406
#     4  12  19  44  72  91 128 187 234 266 338 410
#     4  11  22  43  65  95 138 176 225 279 341 397
#     4  12  26  45  69 103 142 181 224 289 347 405
#     4  11  22  38  69  96 131 183 218 276 349 405
#     4  11  22  39  69  95 124 174 235 278 320 403
#     4  10  21  40  63  96 130 168 231 283 328 405
#
# _framework density 20.742146000000002
#
# number of rings (size 3 to 8) (size 9 to 14) (size 15 to 20)
#    0.000    0.857    8.571    0.000    0.000    5.143 
#    5.143    1.429    0.000    0.000    0.000    0.000 
#    0.000    0.000    0.000    0.000    0.000    0.000 
#
# Total GULP energy -347153.923663 kJ/mol
# GULP energy per Si atom -12398.354417 kJ/mol
# Density = 2.069494 g / cm^3
# Si number density = 20.742146 Si / 1000 Ang^3
#
#
#
# Elastic Constant Matrix: (Units=GPa)
#
#
# Indices 1 2 3 4 5 6 
#
# 1 137.4013 31.7859 47.9968 0.0000 19.8910 0.0000
# 2 31.7859 83.9151 19.4209 0.0000 10.1229 0.0000
# 3 47.9968 19.4209 135.5384 0.0000 24.6007 0.0000
# 4 0.0000 0.0000 0.0000 32.8781 0.0000 5.9611
# 5 19.8910 10.1229 24.6007 0.0000 34.1064 0.0000
# 6 0.0000 0.0000 0.0000 5.9611 0.0000 24.7636
#
#
#
# Elastic Compliance Matrix: (Units=1/GPa)
#
#
# Indices 1 2 3 4 5 6 
#
# 1 0.009101 -0.002561 -0.002336 0.000000 -0.002862 0.000000
# 2 -0.002561 0.013274 -0.000634 0.000000 -0.001989 0.000000
# 3 -0.002336 -0.000634 0.009222 0.000000 -0.005101 0.000000
# 4 0.000000 0.000000 0.000000 0.031803 0.000000 -0.007656
# 5 -0.002862 -0.001989 -0.005101 0.000000 0.035259 0.000000
# 6 0.000000 0.000000 0.000000 -0.007656 0.000000 0.042225
#
#
# Mechanical properties :
#
#
# Convention : Reuss Voigt Hill
#
# Bulk Modulus (GPa) = 48.70117 61.69577 55.19847
# Shear Modulus (GPa) = 31.48786 35.52637 33.50712
#
# Velocity S-wave (km/s) = 3.90046 4.14304 4.02358
# Velocity P-wave (km/s) = 6.61930 7.25914 6.94659
#
# Compressibility (1/GPa) = 0.02053339
#
# Stress axis : x y z
#
# Youngs Moduli (GPa) = 109.87860 75.33746 108.43621
#
# Poissons Ratio (x) = 0.19296 0.25334
# Poissons Ratio (y) = 0.28143 0.06875
# Poissons Ratio (z) = 0.25671 0.04776
#
# Static dielectric constant tensor:
#      x y z
#    x 3.659830 0.000000 0.310150 
#    y 0.000000 3.747710 0.000000 
#    z 0.310150 0.000000 4.123320 
# 
# 
# High freq. dielectric constant tensor:
#      x y z
#    x 1.791940 0.000000 0.011530 
#    y 0.000000 1.811820 0.000000 
#    z 0.011530 0.000000 1.820260 
# 
# From -- ./inp_files/244565.got.cif
#   From: 2010.06.25/outbox.cif.g09.slc.cpg/sg15_123_cif.got.tgz:244565.got - 2010.06.28 07:06:18.
