data_PCOD8143621
_publ_section_title
;
Structure prediction by ZEFSAII (Michael W. Deem and Ramdas Pophale) SiO2 
 PCOD8143621
Probable space group: C 2/C
;
_chemical_formula_sum "Si O2"
_cell_formula_units_Z 48
_cell_length_a 12.204140
_cell_length_b 13.521780
_cell_length_c 22.209918
_cell_angle_alpha 90.000000
_cell_angle_beta 40.214854
_cell_angle_gamma 90.000000
_cell_volume 2366.404478
_symmetry_space_group_name_H-M "C 2/C"
_symmetry_group_IT_number 15
_symmetry_cell_setting 'monoclinic'
loop_
_space_group_symop_operation_xyz
x,y,z
-x,y,1/2-z
-x,-y,-z
x,-y,1/2+z
1/2+x,1/2+y,z
1/2-x,1/2+y,1/2-z
1/2-x,1/2-y,-z
1/2+x,1/2-y,1/2+z
loop_
_atom_site_type_symbol
_atom_site_label
_atom_site_fract_x
_atom_site_fract_y
_atom_site_fract_z
Si Si1 0.252136 0.113455 0.260875
Si Si2 0.145434 0.880952 0.588333
Si Si3 0.650054 0.327253 0.234951
Si Si4 0.716040 0.090655 0.709814
Si Si5 0.840897 0.342484 0.392930
Si Si6 0.670776 0.993876 0.891484
O O1 0.313308 0.213329 0.266860
O O2 0.333687 0.086828 0.161230
O O3 0.051276 0.115891 0.342372
O O4 0.308788 0.026892 0.282098
O O5 0.201268 0.772746 0.586045
O O6 0.258329 0.904994 0.481987
O O7 0.180619 0.960714 0.625532
O O8 0.500000 0.335925 0.250000
O O9 0.628097 0.377711 0.310707
O O10 0.800800 0.393807 0.143388
O O11 0.757737 0.123523 0.625327
O O12 0.542739 0.142022 0.805678
O O13 0.500000 0.000000 0.000000
#
# Coordination Sequence:
#
# PCOD8143621 Si02
#       6
#     8   8   8   8   8   8
#     4  11  23  39  66  91 130 169 215 264 331 384
#     4  11  21  39  66  97 121 170 211 274 317 389
#     4  11  23  42  62  95 132 171 216 263 330 397
#     4  10  21  41  61  92 122 169 208 268 320 380
#     4  10  22  37  69  94 126 153 229 267 317 380
#     4  11  24  42  69  97 132 171 222 270 328 393
#
# _framework density 20.283937999999999
#
# number of rings (size 3 to 8) (size 9 to 14) (size 15 to 20)
#    0.000    1.333    1.667    5.500    7.000    0.667 
#    0.000    0.833    0.000    0.000    0.000    0.000 
#    0.000    0.000    0.000    0.000    0.000    0.000 
#
# Total GULP energy -297393.522259 kJ/mol
# GULP energy per Si atom -12391.396761 kJ/mol
# Density = 2.023777 g / cm^3
# Si number density = 20.283938 Si / 1000 Ang^3
#
#
#
# Elastic Constant Matrix: (Units=GPa)
#
#
# Indices 1 2 3 4 5 6 
#
# 1 127.6552 46.0697 31.3775 0.0000 27.6279 0.0000
# 2 46.0697 129.9538 39.6023 0.0000 22.2604 0.0000
# 3 31.3775 39.6023 99.8055 -0.0001 25.4772 0.0001
# 4 0.0000 0.0000 -0.0001 28.6447 0.0000 2.7540
# 5 27.6279 22.2604 25.4772 0.0000 32.1163 0.0000
# 6 0.0000 0.0000 0.0001 2.7540 0.0000 18.4609
#
#
#
# Elastic Compliance Matrix: (Units=1/GPa)
#
#
# Indices 1 2 3 4 5 6 
#
# 1 0.010276 -0.002303 -0.000586 0.000000 -0.006778 0.000000
# 2 -0.002303 0.009735 -0.002410 0.000000 -0.002854 0.000000
# 3 -0.000586 -0.002410 0.013298 0.000000 -0.008374 0.000000
# 4 0.000000 0.000000 0.000000 0.035419 0.000000 -0.005284
# 5 -0.006778 -0.002854 -0.008374 0.000000 0.045589 0.000000
# 6 0.000000 0.000000 0.000000 -0.005284 0.000000 0.054957
#
#
# Mechanical properties :
#
#
# Convention : Reuss Voigt Hill
#
# Bulk Modulus (GPa) = 44.03486 65.72373 54.87930
# Shear Modulus (GPa) = 26.67493 31.86870 29.27182
#
# Velocity S-wave (km/s) = 3.63033 3.96805 3.80294
# Velocity P-wave (km/s) = 6.27127 7.31205 6.81157
#
# Compressibility (1/GPa) = 0.02270928
#
# Stress axis : x y z
#
# Youngs Moduli (GPa) = 97.31493 102.72322 75.20068
#
# Poissons Ratio (x) = 0.23658 0.04410
# Poissons Ratio (y) = 0.22413 0.18124
# Poissons Ratio (z) = 0.05707 0.24757
#
# Static dielectric constant tensor:
#      x y z
#    x 3.964870 0.000000 0.309290 
#    y 0.000000 4.222640 0.000000 
#    z 0.309290 0.000000 3.603220 
# 
# 
# High freq. dielectric constant tensor:
#      x y z
#    x 1.803040 0.000000 0.019360 
#    y 0.000000 1.802240 0.000000 
#    z 0.019360 0.000000 1.775460 
# 
# From -- ./inp_files/143806.got.cif
#   From: 2010.06.25/outbox.cif.g09.slc.cpg/sg15_72_cif.got.tgz:143806.got - 2010.06.28 07:06:18.
