data_PCOD8143298
_publ_section_title
;
Structure prediction by ZEFSAII (Michael W. Deem and Ramdas Pophale) SiO2 
 PCOD8143298
Probable space group: C 2/C
;
_chemical_formula_sum "Si O2"
_cell_formula_units_Z 52
_cell_length_a 17.996027
_cell_length_b 15.686826
_cell_length_c 21.443591
_cell_angle_alpha 90.000000
_cell_angle_beta 26.940931
_cell_angle_gamma 90.000000
_cell_volume 2742.686345
_symmetry_space_group_name_H-M "C 2/C"
_symmetry_group_IT_number 15
_symmetry_cell_setting 'monoclinic'
loop_
_space_group_symop_operation_xyz
x,y,z
-x,y,1/2-z
-x,-y,-z
x,-y,1/2+z
1/2+x,1/2+y,z
1/2-x,1/2+y,1/2-z
1/2-x,1/2-y,-z
1/2+x,1/2-y,1/2+z
loop_
_atom_site_type_symbol
_atom_site_label
_atom_site_fract_x
_atom_site_fract_y
_atom_site_fract_z
Si Si1 0.085048 0.484095 0.086350
Si Si2 0.231753 0.762415 0.939710
Si Si3 0.280895 0.562221 0.626762
Si Si4 0.994685 0.092200 0.925949
Si Si5 0.841504 0.081675 0.823064
Si Si6 0.324486 0.173965 0.905054
Si Si7 0.500000 0.115375 0.250000
O O1 0.167619 0.401521 0.052152
O O2 0.896196 0.462745 0.211539
O O3 0.098862 0.558610 0.127101
O O4 0.200579 0.512060 0.942977
O O5 0.248928 0.672478 0.892886
O O6 0.374780 0.823773 0.807014
O O7 0.250000 0.750000 0.000000
O O8 0.065161 0.811815 0.045867
O O9 0.395206 0.598453 0.595156
O O10 0.348352 0.475234 0.545719
O O11 0.275677 0.638516 0.579803
O O12 0.102296 0.058234 0.788127
O O13 0.000000 0.079938 0.750000
O O14 0.500000 0.205281 0.750000
O O15 0.250000 0.250000 0.000000
#
# Coordination Sequence:
#
# PCOD8143298 Si02
#       7
#     8   8   8   8   8   8   4
#     4  11  21  38  66  88 122 163 211 259 312 367
#     4  12  20  34  59  94 126 161 201 257 301 373
#     4  10  22  43  64  85 122 171 202 255 324 373
#     4  11  23  40  61  90 128 162 211 248 313 383
#     4  12  23  35  61  98 128 159 211 261 306 376
#     4  10  21  40  65  89 112 157 213 263 304 359
#     4  12  16  34  60  86 120 158 208 238 308 370
#
# _framework density 18.959513999999999
#
# number of rings (size 3 to 8) (size 9 to 14) (size 15 to 20)
#    0.000    0.923    7.692    0.923    0.000    2.462 
#    5.538    0.000    0.000    0.000    0.000    0.000 
#    0.000    0.000    0.000    0.000    0.000    0.000 
#
# Total GULP energy -322308.039756 kJ/mol
# GULP energy per Si atom -12396.463068 kJ/mol
# Density = 1.891636 g / cm^3
# Si number density = 18.959514 Si / 1000 Ang^3
#
#
#
# Elastic Constant Matrix: (Units=GPa)
#
#
# Indices 1 2 3 4 5 6 
#
# 1 106.8282 53.5292 51.4314 -0.0106 -2.9044 0.0005
# 2 53.5292 110.5546 63.1835 -0.0027 1.8484 -0.0024
# 3 51.4314 63.1835 118.4030 0.0360 4.3292 -0.0100
# 4 -0.0106 -0.0027 0.0360 42.0648 -0.0054 3.4767
# 5 -2.9044 1.8484 4.3292 -0.0054 23.2833 0.0046
# 6 0.0005 -0.0024 -0.0100 3.4767 0.0046 22.5072
#
#
#
# Elastic Compliance Matrix: (Units=1/GPa)
#
#
# Indices 1 2 3 4 5 6 
#
# 1 0.013386 -0.004528 -0.003496 0.000007 0.002679 -0.000004
# 2 -0.004528 0.014548 -0.005773 0.000005 -0.000646 -0.000002
# 3 -0.003496 -0.005773 0.013133 -0.000013 -0.002420 0.000008
# 4 0.000007 0.000005 -0.000013 0.024080 0.000009 -0.003720
# 5 0.002679 -0.000646 -0.002420 0.000009 0.043785 -0.000012
# 6 -0.000004 -0.000002 0.000008 -0.003720 -0.000012 0.045005
#
#
# Mechanical properties :
#
#
# Convention : Reuss Voigt Hill
#
# Bulk Modulus (GPa) = 74.22106 74.67491 74.44799
# Shear Modulus (GPa) = 26.87871 28.74717 27.81294
#
# Velocity S-wave (km/s) = 3.76931 3.89812 3.83425
# Velocity P-wave (km/s) = 7.62730 7.72868 7.67815
#
# Compressibility (1/GPa) = 0.01347326
#
# Stress axis : x y z
#
# Youngs Moduli (GPa) = 74.70672 68.73995 76.14233
#
# Poissons Ratio (x) = 0.31125 0.26621
# Poissons Ratio (y) = 0.33826 0.43954
# Poissons Ratio (z) = 0.26119 0.39681
#
# Static dielectric constant tensor:
#      x y z
#    x 3.273750 -0.000040 -0.060910 
#    y -0.000040 3.812870 -0.000100 
#    z -0.060910 -0.000100 3.678910 
# 
# 
# High freq. dielectric constant tensor:
#      x y z
#    x 1.711890 0.000000 -0.004560 
#    y 0.000000 1.739530 0.000010 
#    z -0.004560 0.000010 1.749900 
# 
# From -- ./inp_files/249100.got.cif
#   From: 2010.06.25/outbox.cif.g09.slc.cpg/sg15_125_cif.got.tgz:249100.got - 2010.06.28 07:06:18.
