data_PCOD8143708
_publ_section_title
;
Structure prediction by ZEFSAII (Michael W. Deem and Ramdas Pophale) SiO2 
 PCOD8143708
Probable space group: C 2/C
;
_chemical_formula_sum "Si O2"
_cell_formula_units_Z 52
_cell_length_a 28.637799
_cell_length_b 8.740215
_cell_length_c 11.624349
_cell_angle_alpha 90.000000
_cell_angle_beta 121.579384
_cell_angle_gamma 90.000000
_cell_volume 2478.716577
_symmetry_space_group_name_H-M "C 2/C"
_symmetry_group_IT_number 15
_symmetry_cell_setting 'monoclinic'
loop_
_space_group_symop_operation_xyz
x,y,z
-x,y,1/2-z
-x,-y,-z
x,-y,1/2+z
1/2+x,1/2+y,z
1/2-x,1/2+y,1/2-z
1/2-x,1/2-y,-z
1/2+x,1/2-y,1/2+z
loop_
_atom_site_type_symbol
_atom_site_label
_atom_site_fract_x
_atom_site_fract_y
_atom_site_fract_z
Si Si1 0.676408 0.247159 0.695924
Si Si2 0.921229 0.307509 0.043121
Si Si3 0.218506 0.066099 0.673402
Si Si4 0.860419 0.206666 0.753204
Si Si5 0.635857 0.394476 0.865678
Si Si6 0.616008 0.895284 0.917567
Si Si7 0.000000 0.485916 0.750000
O O1 0.717312 0.102824 0.755304
O O2 0.712259 0.393090 0.706656
O O3 0.647239 0.271757 0.780108
O O4 0.628897 0.216191 0.541251
O O5 0.915242 0.163170 0.122223
O O6 0.874537 0.429613 0.029257
O O7 0.980263 0.394101 0.123577
O O8 0.910688 0.256483 0.899717
O O9 0.192940 0.175854 0.738927
O O10 0.189849 0.091124 0.513966
O O11 0.847484 0.342722 0.644964
O O12 0.880132 0.057216 0.709102
O O13 0.552331 0.878539 0.790864
#
# Coordination Sequence:
#
# PCOD8143708 Si02
#       7
#     8   8   8   8   8   8   4
#     4  11  23  38  62  92 125 173 203 261 305 373
#     4   9  22  40  65  91 121 159 212 256 308 369
#     4  10  23  39  60  94 129 163 216 243 314 375
#     4  10  21  41  63  92 127 165 199 263 303 383
#     4  10  21  42  61  87 136 163 204 254 317 365
#     4  10  22  41  64  90 125 160 213 255 316 359
#     4   8  22  42  64  94 120 152 220 264 304 386
#
# _framework density 20.978598999999999
#
# number of rings (size 3 to 8) (size 9 to 14) (size 15 to 20)
#    0.923    1.231    1.538    0.462    6.462    1.231 
#    2.769    1.538    0.000    0.000    0.000    0.000 
#    0.000    0.000    0.000    0.000    0.000    0.000 
#
# Total GULP energy -322124.136549 kJ/mol
# GULP energy per Si atom -12389.389867 kJ/mol
# Density = 2.093085 g / cm^3
# Si number density = 20.978599 Si / 1000 Ang^3
#
#
#
# Elastic Constant Matrix: (Units=GPa)
#
#
# Indices 1 2 3 4 5 6 
#
# 1 39.6666 23.2128 46.0036 0.0000 -0.6012 0.0000
# 2 23.2128 75.2614 42.1664 0.0000 -5.0733 0.0000
# 3 46.0036 42.1664 136.8395 0.0000 -16.8104 0.0000
# 4 0.0000 0.0000 0.0000 43.7938 0.0000 4.3867
# 5 -0.6012 -5.0733 -16.8104 0.0000 38.1161 0.0000
# 6 0.0000 0.0000 0.0000 4.3867 0.0000 26.0012
#
#
#
# Elastic Compliance Matrix: (Units=1/GPa)
#
#
# Indices 1 2 3 4 5 6 
#
# 1 0.045073 -0.006531 -0.013914 0.000000 -0.006295 0.000000
# 2 -0.006531 0.017006 -0.002939 0.000000 0.000865 0.000000
# 3 -0.013914 -0.002939 0.013550 0.000000 0.005365 0.000000
# 4 0.000000 0.000000 0.000000 0.023227 0.000000 -0.003919
# 5 -0.006295 0.000865 0.005365 0.000000 0.028618 0.000000
# 6 0.000000 0.000000 0.000000 -0.003919 0.000000 0.039121
#
#
# Mechanical properties :
#
#
# Convention : Reuss Voigt Hill
#
# Bulk Modulus (GPa) = 34.64650 52.72591 43.68620
# Shear Modulus (GPa) = 22.42331 30.94118 26.68224
#
# Velocity S-wave (km/s) = 3.27290 3.84460 3.57021
# Velocity P-wave (km/s) = 5.55279 6.70042 6.15342
#
# Compressibility (1/GPa) = 0.02886295
#
# Stress axis : x y z
#
# Youngs Moduli (GPa) = 22.18610 58.80299 73.79994
#
# Poissons Ratio (x) = 0.38403 1.02685
# Poissons Ratio (y) = 0.14489 0.21686
# Poissons Ratio (z) = 0.30870 0.17280
#
# Static dielectric constant tensor:
#      x y z
#    x 3.303280 0.000000 -0.147630 
#    y 0.000000 3.839770 0.000000 
#    z -0.147630 0.000000 3.848290 
# 
# 
# High freq. dielectric constant tensor:
#      x y z
#    x 1.777340 0.000000 -0.015790 
#    y 0.000000 1.828330 0.000000 
#    z -0.015790 0.000000 1.832090 
# 
# From -- ./inp_files/125662.got.cif
#   From: 2010.06.25/outbox.cif.g09.slc.cpg/sg15_63_cif.got.tgz:125662.got - 2010.06.28 07:06:18.
