data_PCOD8143465
_publ_section_title
;
Structure prediction by ZEFSAII (Michael W. Deem and Ramdas Pophale) SiO2 
 PCOD8143465
Probable space group: C 2/C
;
_chemical_formula_sum "Si O2"
_cell_formula_units_Z 52
_cell_length_a 21.358979
_cell_length_b 11.301173
_cell_length_c 13.394975
_cell_angle_alpha 90.000000
_cell_angle_beta 50.079370
_cell_angle_gamma 90.000000
_cell_volume 2479.727684
_symmetry_space_group_name_H-M "C 2/C"
_symmetry_group_IT_number 15
_symmetry_cell_setting 'monoclinic'
loop_
_space_group_symop_operation_xyz
x,y,z
-x,y,1/2-z
-x,-y,-z
x,-y,1/2+z
1/2+x,1/2+y,z
1/2-x,1/2+y,1/2-z
1/2-x,1/2-y,-z
1/2+x,1/2-y,1/2+z
loop_
_atom_site_type_symbol
_atom_site_label
_atom_site_fract_x
_atom_site_fract_y
_atom_site_fract_z
Si Si1 0.141133 0.430484 0.210736
Si Si2 0.374076 0.563394 0.144323
Si Si3 0.295929 0.788927 0.165572
Si Si4 0.545162 0.352254 0.528821
Si Si5 0.000000 0.290453 0.250000
Si Si6 0.211636 0.481090 0.932035
Si Si7 0.130376 0.657518 0.348097
O O1 0.189252 0.352882 0.242770
O O2 0.115180 0.558658 0.280043
O O3 0.057448 0.368974 0.262349
O O4 0.204534 0.449179 0.055296
O O5 0.355650 0.676552 0.093543
O O6 0.457619 0.585044 0.117451
O O7 0.302370 0.544957 0.298084
O O8 0.383788 0.449159 0.063153
O O9 0.311746 0.881219 0.060241
O O10 0.204855 0.742866 0.245552
O O11 0.557653 0.294427 0.624484
O O12 0.552584 0.245255 0.439491
O O13 0.146043 0.403753 0.938952
#
# Coordination Sequence:
#
# PCOD8143465 Si02
#       7
#     8   8   8   8   4   8   8
#     4  11  24  40  69 100 128 170 225 268 327 392
#     4  10  22  40  64  90 128 177 208 263 331 382
#     4  10  21  42  62  98 129 171 212 269 331 375
#     4  11  22  42  62  92 133 171 215 262 324 393
#     4  12  24  42  66 100 128 176 218 268 326 392
#     4  10  21  40  67  98 126 168 221 271 322 385
#     4  10  22  40  66  94 131 172 212 275 322 384
#
# _framework density 20.970046
#
# number of rings (size 3 to 8) (size 9 to 14) (size 15 to 20)
#    0.000    1.538    4.615    0.000    0.000    6.154 
#    0.000    1.538    0.000    0.000    0.000    0.000 
#    0.000    0.000    0.000    0.000    0.000    0.000 
#
# Total GULP energy -322306.984219 kJ/mol
# GULP energy per Si atom -12396.422470 kJ/mol
# Density = 2.092232 g / cm^3
# Si number density = 20.970046 Si / 1000 Ang^3
#
#
#
# Elastic Constant Matrix: (Units=GPa)
#
#
# Indices 1 2 3 4 5 6 
#
# 1 63.5438 32.0768 29.0506 0.0000 2.0534 0.0000
# 2 32.0768 155.8352 62.1381 0.0000 -2.1951 0.0000
# 3 29.0506 62.1381 104.0914 0.0000 0.5118 0.0000
# 4 0.0000 0.0000 0.0000 25.1281 0.0000 -3.9863
# 5 2.0534 -2.1951 0.5118 0.0000 21.4377 0.0000
# 6 0.0000 0.0000 0.0000 -3.9863 0.0000 33.5440
#
#
#
# Elastic Compliance Matrix: (Units=1/GPa)
#
#
# Indices 1 2 3 4 5 6 
#
# 1 0.018735 -0.002366 -0.003807 0.000000 -0.001946 0.000000
# 2 -0.002366 0.008741 -0.004564 0.000000 0.001231 0.000000
# 3 -0.003807 -0.004564 0.013396 0.000000 -0.000423 0.000000
# 4 0.000000 0.000000 0.000000 0.040561 0.000000 0.004820
# 5 -0.001946 0.001231 -0.000423 0.000000 0.046969 0.000000
# 6 0.000000 0.000000 0.000000 0.004820 0.000000 0.030384
#
#
# Mechanical properties :
#
#
# Convention : Reuss Voigt Hill
#
# Bulk Modulus (GPa) = 51.54952 63.33346 57.44149
# Shear Modulus (GPa) = 26.77730 29.36895 28.07313
#
# Velocity S-wave (km/s) = 3.57729 3.74641 3.66283
# Velocity P-wave (km/s) = 6.45744 6.99868 6.73350
#
# Compressibility (1/GPa) = 0.01939882
#
# Stress axis : x y z
#
# Youngs Moduli (GPa) = 53.37700 114.40144 74.64986
#
# Poissons Ratio (x) = 0.27065 0.28417
# Poissons Ratio (y) = 0.12628 0.34069
# Poissons Ratio (z) = 0.20319 0.52211
#
# Static dielectric constant tensor:
#      x y z
#    x 3.502860 0.000000 -0.114190 
#    y 0.000000 4.354870 0.000000 
#    z -0.114190 0.000000 3.715310 
# 
# 
# High freq. dielectric constant tensor:
#      x y z
#    x 1.798320 0.000000 -0.016560 
#    y 0.000000 1.850450 0.000000 
#    z -0.016560 0.000000 1.808200 
# 
# From -- ./inp_files/111500.got.cif
#   From: 2010.06.25/outbox.cif.g09.slc.cpg/sg15_56_cif.got.tgz:111500.got - 2010.06.28 07:06:18.
