data_PCOD8143569
_publ_section_title
;
Structure prediction by ZEFSAII (Michael W. Deem and Ramdas Pophale) SiO2 
 PCOD8143569
Probable space group: C 2/C
;
_chemical_formula_sum "Si O2"
_cell_formula_units_Z 56
_cell_length_a 11.340491
_cell_length_b 23.480781
_cell_length_c 10.244435
_cell_angle_alpha 90.000000
_cell_angle_beta 72.268688
_cell_angle_gamma 90.000000
_cell_volume 2598.335319
_symmetry_space_group_name_H-M "C 2/C"
_symmetry_group_IT_number 15
_symmetry_cell_setting 'monoclinic'
loop_
_space_group_symop_operation_xyz
x,y,z
-x,y,1/2-z
-x,-y,-z
x,-y,1/2+z
1/2+x,1/2+y,z
1/2-x,1/2+y,1/2-z
1/2-x,1/2-y,-z
1/2+x,1/2-y,1/2+z
loop_
_atom_site_type_symbol
_atom_site_label
_atom_site_fract_x
_atom_site_fract_y
_atom_site_fract_z
Si Si1 0.557764 0.141189 0.364395
Si Si2 0.306389 0.178613 0.557786
Si Si3 0.000000 0.546359 0.750000
Si Si4 0.717337 0.707719 0.309815
Si Si5 0.850895 0.472570 0.537910
Si Si6 0.763791 0.424655 0.229848
Si Si7 0.000000 0.863246 0.750000
Si Si8 0.594972 0.549920 0.999426
O O1 0.500000 0.116520 0.250000
O O2 0.451760 0.172033 0.482440
O O3 0.656428 0.190799 0.303722
O O4 0.624036 0.090554 0.418187
O O5 0.294160 0.223625 0.681566
O O6 0.222073 0.191991 0.461192
O O7 0.249009 0.118283 0.616798
O O8 0.036634 0.509203 0.603184
O O9 0.116945 0.590411 0.719400
O O10 0.605759 0.677410 0.271520
O O11 0.818828 0.513972 0.668266
O O12 0.722445 0.477085 0.503530
O O13 0.631716 0.422844 0.347123
O O14 0.044302 0.903589 0.617296
O O15 0.500000 0.500000 0.000000
#
# Coordination Sequence:
#
# PCOD8143569 Si02
#       8
#     8   8   4   8   8   8   4   8
#     4  10  21  40  72  98 135 176 226 289 344 413
#     4  10  23  45  68 100 133 173 234 287 345 402
#     4  10  22  35  60  98 134 159 212 278 334 406
#     4  10  24  44  69  97 132 183 231 284 341 412
#     4  11  22  41  64 100 135 172 226 274 357 415
#     4  11  24  39  65  95 132 174 218 284 343 411
#     4  12  24  47  68  98 136 187 234 278 350 424
#     4  11  26  43  64  96 138 180 225 280 339 426
#
# _framework density 21.552261000000001
#
# number of rings (size 3 to 8) (size 9 to 14) (size 15 to 20)
#    0.000    1.429    2.857    1.286    3.000    4.000 
#    0.000    2.857    0.000    0.000    0.000    0.000 
#    0.000    0.000    0.000    0.000    0.000    0.000 
#
# Total GULP energy -346925.280241 kJ/mol
# GULP energy per Si atom -12390.188580 kJ/mol
# Density = 2.150321 g / cm^3
# Si number density = 21.552261 Si / 1000 Ang^3
#
#
#
# Elastic Constant Matrix: (Units=GPa)
#
#
# Indices 1 2 3 4 5 6 
#
# 1 112.6808 39.6002 42.5471 0.0000 -9.9689 0.0000
# 2 39.6002 95.4222 48.0213 0.0000 -1.3366 0.0000
# 3 42.5471 48.0213 136.3778 0.0000 -19.6247 0.0000
# 4 0.0000 0.0000 0.0000 42.0531 0.0000 3.2623
# 5 -9.9689 -1.3366 -19.6247 0.0000 30.7742 0.0000
# 6 0.0000 0.0000 0.0000 3.2623 0.0000 30.1523
#
#
#
# Elastic Compliance Matrix: (Units=1/GPa)
#
#
# Indices 1 2 3 4 5 6 
#
# 1 0.011043 -0.003622 -0.001847 0.000000 0.002242 0.000000
# 2 -0.003622 0.014108 -0.004314 0.000000 -0.003312 0.000000
# 3 -0.001847 -0.004314 0.010256 0.000000 0.005754 0.000000
# 4 0.000000 0.000000 0.000000 0.023981 0.000000 -0.002595
# 5 0.002242 -0.003312 0.005754 0.000000 0.036747 0.000000
# 6 0.000000 0.000000 0.000000 -0.002595 0.000000 0.033446
#
#
# Mechanical properties :
#
#
# Convention : Reuss Voigt Hill
#
# Bulk Modulus (GPa) = 63.13044 67.20200 65.16622
# Shear Modulus (GPa) = 32.37772 34.88338 33.63055
#
# Velocity S-wave (km/s) = 3.88014 4.02748 3.95450
# Velocity P-wave (km/s) = 7.03060 7.27160 7.15212
#
# Compressibility (1/GPa) = 0.01584022
#
# Stress axis : x y z
#
# Youngs Moduli (GPa) = 90.55189 70.88411 97.50331
#
# Poissons Ratio (x) = 0.25674 0.18012
# Poissons Ratio (y) = 0.32797 0.42064
# Poissons Ratio (z) = 0.16728 0.30580
#
# Static dielectric constant tensor:
#      x y z
#    x 4.155760 0.000000 0.061600 
#    y 0.000000 3.761340 0.000000 
#    z 0.061600 0.000000 4.378920 
# 
# 
# High freq. dielectric constant tensor:
#      x y z
#    x 1.864920 0.000000 -0.001260 
#    y 0.000000 1.823520 0.000000 
#    z -0.001260 0.000000 1.859930 
# 
# From -- ./inp_files/89609.got.cif
#   From: 2010.06.25/outbox.cif.g09.slc.cpg/sg15_45_cif.got.tgz:89609.got - 2010.06.28 07:06:18.
