data_PCOD8143585
_publ_section_title
;
Structure prediction by ZEFSAII (Michael W. Deem and Ramdas Pophale) SiO2 
 PCOD8143585
Probable space group: C 2/C
;
_chemical_formula_sum "Si O2"
_cell_formula_units_Z 56
_cell_length_a 12.652203
_cell_length_b 13.610107
_cell_length_c 18.315612
_cell_angle_alpha 90.000000
_cell_angle_beta 108.053461
_cell_angle_gamma 90.000000
_cell_volume 2998.634794
_symmetry_space_group_name_H-M "C 2/C"
_symmetry_group_IT_number 15
_symmetry_cell_setting 'monoclinic'
loop_
_space_group_symop_operation_xyz
x,y,z
-x,y,1/2-z
-x,-y,-z
x,-y,1/2+z
1/2+x,1/2+y,z
1/2-x,1/2+y,1/2-z
1/2-x,1/2-y,-z
1/2+x,1/2-y,1/2+z
loop_
_atom_site_type_symbol
_atom_site_label
_atom_site_fract_x
_atom_site_fract_y
_atom_site_fract_z
Si Si1 0.042697 0.994236 0.928642
Si Si2 0.611072 0.047067 0.807264
Si Si3 0.606614 0.981199 0.474435
Si Si4 0.721172 0.336169 0.939250
Si Si5 0.324750 0.586478 0.341715
Si Si6 0.215241 0.860372 0.506020
Si Si7 0.126874 0.233239 0.271426
O O1 0.112519 0.894151 0.941371
O O2 0.934981 0.982970 0.852153
O O3 0.121611 0.090954 0.931020
O O4 0.000000 0.000000 0.000000
O O5 0.500000 0.997427 0.750000
O O6 0.590182 0.064946 0.889596
O O7 0.630922 0.148883 0.767854
O O8 0.715075 0.978886 0.810441
O O9 0.674553 0.907914 0.539923
O O10 0.500000 0.000000 0.500000
O O11 0.669454 0.082955 0.476699
O O12 0.703287 0.296202 0.855107
O O13 0.750000 0.250000 0.000000
O O14 0.333822 0.632560 0.423598
O O15 0.319536 0.679159 0.286560
O O16 0.250000 0.750000 0.500000
O O17 0.000000 0.196492 0.250000
#
# Coordination Sequence:
#
# PCOD8143585 Si02
#       7
#     8   8   8   8   8   8   8
#     4   9  19  36  61  83 115 152 192 248 298 350
#     4  10  23  41  59  86 124 156 199 244 305 356
#     4  10  22  38  58  90 117 156 195 246 296 355
#     4  11  21  37  60  89 118 147 209 249 291 359
#     4  10  21  41  59  85 120 159 198 244 305 360
#     4   9  20  38  59  87 119 154 194 244 299 360
#     4  11  22  39  61  89 117 158 197 253 299 357
#
# _framework density 18.675165
#
# number of rings (size 3 to 8) (size 9 to 14) (size 15 to 20)
#    0.000    2.000    2.857    0.857    2.000    4.571 
#    2.571    0.000    0.000    0.000    0.000    0.000 
#    0.000    0.000    0.000    0.000    0.000    0.000 
#
# Total GULP energy -346956.534232 kJ/mol
# GULP energy per Si atom -12391.304794 kJ/mol
# Density = 1.863266 g / cm^3
# Si number density = 18.675165 Si / 1000 Ang^3
#
#
#
# Elastic Constant Matrix: (Units=GPa)
#
#
# Indices 1 2 3 4 5 6 
#
# 1 123.8333 53.6335 49.6649 0.0000 12.0736 0.0000
# 2 53.6335 117.5283 44.4221 0.0000 8.0155 0.0000
# 3 49.6649 44.4221 93.4752 0.0000 16.1973 0.0000
# 4 0.0000 0.0000 0.0000 30.4495 0.0000 -2.9726
# 5 12.0736 8.0155 16.1973 0.0000 36.2359 0.0000
# 6 0.0000 0.0000 0.0000 -2.9726 0.0000 25.8017
#
#
#
# Elastic Compliance Matrix: (Units=1/GPa)
#
#
# Indices 1 2 3 4 5 6 
#
# 1 0.011396 -0.003546 -0.004171 0.000000 -0.001148 0.000000
# 2 -0.003546 0.011475 -0.003614 0.000000 0.000259 0.000000
# 3 -0.004171 -0.003614 0.015449 0.000000 -0.004716 0.000000
# 4 0.000000 0.000000 0.000000 0.033215 0.000000 0.003827
# 5 -0.001148 0.000259 -0.004716 0.000000 0.030031 0.000000
# 6 0.000000 0.000000 0.000000 0.003827 0.000000 0.039198
#
#
# Mechanical properties :
#
#
# Convention : Reuss Voigt Hill
#
# Bulk Modulus (GPa) = 63.86355 70.03088 66.94721
# Shear Modulus (GPa) = 29.64827 30.97182 30.31004
#
# Velocity S-wave (km/s) = 3.98876 4.07682 4.03303
# Velocity P-wave (km/s) = 7.44882 7.72927 7.59034
#
# Compressibility (1/GPa) = 0.01565838
#
# Stress axis : x y z
#
# Youngs Moduli (GPa) = 87.75219 87.14549 64.72967
#
# Poissons Ratio (x) = 0.30899 0.26997
# Poissons Ratio (y) = 0.31114 0.23395
# Poissons Ratio (z) = 0.36599 0.31496
#
# Static dielectric constant tensor:
#      x y z
#    x 3.631100 0.000000 0.402130 
#    y 0.000000 3.509730 0.000000 
#    z 0.402130 0.000000 3.997320 
# 
# 
# High freq. dielectric constant tensor:
#      x y z
#    x 1.731390 0.000000 0.015870 
#    y 0.000000 1.722400 0.000000 
#    z 0.015870 0.000000 1.718260 
# 
# From -- ./inp_files/197949.got.cif
#   From: 2010.06.25/outbox.cif.g09.slc.cpg/sg15_99_cif.got.tgz:197949.got - 2010.06.28 07:06:18.
