data_PCOD8143763
_publ_section_title
;
Structure prediction by ZEFSAII (Michael W. Deem and Ramdas Pophale) SiO2 
 PCOD8143763
Probable space group: C 2/C
;
_chemical_formula_sum "Si O2"
_cell_formula_units_Z 56
_cell_length_a 26.243415
_cell_length_b 8.697750
_cell_length_c 13.864449
_cell_angle_alpha 90.000000
_cell_angle_beta 117.782012
_cell_angle_gamma 90.000000
_cell_volume 2799.879483
_symmetry_space_group_name_H-M "C 2/C"
_symmetry_group_IT_number 15
_symmetry_cell_setting 'monoclinic'
loop_
_space_group_symop_operation_xyz
x,y,z
-x,y,1/2-z
-x,-y,-z
x,-y,1/2+z
1/2+x,1/2+y,z
1/2-x,1/2+y,1/2-z
1/2-x,1/2-y,-z
1/2+x,1/2-y,1/2+z
loop_
_atom_site_type_symbol
_atom_site_label
_atom_site_fract_x
_atom_site_fract_y
_atom_site_fract_z
Si Si1 0.937616 0.750309 0.166293
Si Si2 0.364574 0.819637 0.034645
Si Si3 0.117629 0.492375 0.263324
Si Si4 0.160875 0.001768 0.937674
Si Si5 0.258766 0.641849 0.146852
Si Si6 0.437604 0.957432 0.480968
Si Si7 0.257678 0.992494 0.662479
O O1 0.926615 0.620124 0.236913
O O2 0.000000 0.820176 0.250000
O O3 0.888849 0.879220 0.132364
O O4 0.936432 0.681749 0.056698
O O5 0.366164 0.636106 0.021923
O O6 0.380804 0.855248 0.158831
O O7 0.301757 0.893756 0.959011
O O8 0.410939 0.888878 0.002868
O O9 0.098853 0.414170 0.146197
O O10 0.179478 0.576848 0.305532
O O11 0.188578 0.926561 0.867297
O O12 0.211703 0.077740 0.046324
O O13 0.264456 0.824031 0.162595
O O14 0.262923 0.556760 0.251286
O O15 0.500000 0.000000 0.500000
#
# Coordination Sequence:
#
# PCOD8143763 Si02
#       7
#     8   8   8   8   8   8   8
#     4  11  26  44  63  93 125 168 216 258 309 368
#     4  10  21  41  64  91 125 168 201 258 321 376
#     4  11  21  41  67  90 125 162 211 259 307 369
#     4  11  24  42  61  93 136 161 200 262 324 377
#     4  11  22  39  61  96 135 159 203 257 317 380
#     4  11  23  43  67  88 120 166 219 261 299 367
#     4  11  23  38  65  97 125 166 208 251 321 380
#
# _framework density 20.000862000000001
#
# number of rings (size 3 to 8) (size 9 to 14) (size 15 to 20)
#    0.000    1.143    5.714    0.857    4.000    0.571 
#    2.571    0.714    0.000    0.000    0.000    0.000 
#    0.000    0.000    0.000    0.000    0.000    0.000 
#
# Total GULP energy -347204.161541 kJ/mol
# GULP energy per Si atom -12400.148626 kJ/mol
# Density = 1.995534 g / cm^3
# Si number density = 20.000862 Si / 1000 Ang^3
#
#
#
# Elastic Constant Matrix: (Units=GPa)
#
#
# Indices 1 2 3 4 5 6 
#
# 1 120.4257 36.2141 40.5883 0.0000 6.6648 0.0000
# 2 36.2141 48.4508 23.3284 0.0000 5.4351 0.0000
# 3 40.5883 23.3284 131.9115 0.0000 1.0380 0.0000
# 4 0.0000 0.0000 0.0000 23.2100 0.0000 -1.3528
# 5 6.6648 5.4351 1.0380 0.0000 40.5672 0.0000
# 6 0.0000 0.0000 0.0000 -1.3528 0.0000 29.8084
#
#
#
# Elastic Compliance Matrix: (Units=1/GPa)
#
#
# Indices 1 2 3 4 5 6 
#
# 1 0.011273 -0.007288 -0.002173 0.000000 -0.000820 0.000000
# 2 -0.007288 0.027623 -0.002624 0.000000 -0.002436 0.000000
# 3 -0.002173 -0.002624 0.008710 0.000000 0.000486 0.000000
# 4 0.000000 0.000000 0.000000 0.043199 0.000000 0.001960
# 5 -0.000820 -0.002436 0.000486 0.000000 0.025099 0.000000
# 6 0.000000 0.000000 0.000000 0.001960 0.000000 0.033637
#
#
# Mechanical properties :
#
#
# Convention : Reuss Voigt Hill
#
# Bulk Modulus (GPa) = 42.66793 55.67218 49.17005
# Shear Modulus (GPa) = 27.54475 32.09428 29.81951
#
# Velocity S-wave (km/s) = 3.71506 4.01015 3.86542
# Velocity P-wave (km/s) = 6.30727 7.02403 6.67528
#
# Compressibility (1/GPa) = 0.02343680
#
# Stress axis : x y z
#
# Youngs Moduli (GPa) = 88.70497 36.20156 114.81382
#
# Poissons Ratio (x) = 0.26382 0.24954
# Poissons Ratio (y) = 0.64645 0.30122
# Poissons Ratio (z) = 0.19280 0.09498
#
# Static dielectric constant tensor:
#      x y z
#    x 3.823050 0.000000 -0.007390 
#    y 0.000000 3.383900 0.000000 
#    z -0.007390 0.000000 3.880110 
# 
# 
# High freq. dielectric constant tensor:
#      x y z
#    x 1.792770 0.000000 -0.003620 
#    y 0.000000 1.753780 0.000000 
#    z -0.003620 0.000000 1.793620 
# 
# From -- ./inp_files/172475.got.cif
#   From: 2010.06.25/outbox.cif.g09.slc.cpg/sg15_87_cif.got.tgz:172475.got - 2010.06.28 07:06:18.
