data_PCOD8143562
_publ_section_title
;
Structure prediction by ZEFSAII (Michael W. Deem and Ramdas Pophale) SiO2 
 PCOD8143562
Probable space group: C 2/C
;
_chemical_formula_sum "Si O2"
_cell_formula_units_Z 56
_cell_length_a 17.669656
_cell_length_b 8.254014
_cell_length_c 18.416611
_cell_angle_alpha 90.000000
_cell_angle_beta 71.472401
_cell_angle_gamma 90.000000
_cell_volume 2546.768926
_symmetry_space_group_name_H-M "C 2/C"
_symmetry_group_IT_number 15
_symmetry_cell_setting 'monoclinic'
loop_
_space_group_symop_operation_xyz
x,y,z
-x,y,1/2-z
-x,-y,-z
x,-y,1/2+z
1/2+x,1/2+y,z
1/2-x,1/2+y,1/2-z
1/2-x,1/2-y,-z
1/2+x,1/2-y,1/2+z
loop_
_atom_site_type_symbol
_atom_site_label
_atom_site_fract_x
_atom_site_fract_y
_atom_site_fract_z
Si Si1 0.733789 0.307394 0.086338
Si Si2 0.789716 0.351092 0.550974
Si Si3 0.000092 0.081183 0.163068
Si Si4 0.089982 0.409124 0.097801
Si Si5 0.721061 0.133390 0.679046
Si Si6 0.944137 0.740115 0.337762
Si Si7 0.672501 0.349276 0.820741
O O1 0.731535 0.501013 0.088724
O O2 0.651502 0.242747 0.147229
O O3 0.808532 0.245532 0.110948
O O4 0.750000 0.250000 0.000000
O O5 0.750000 0.250000 0.500000
O O6 0.875498 0.411619 0.495208
O O7 0.793421 0.238459 0.621294
O O8 0.914566 0.073572 0.150808
O O9 0.000000 0.087540 0.250000
O O10 0.043383 0.241725 0.121116
O O11 0.039090 0.909847 0.125317
O O12 0.160900 0.423986 0.134874
O O13 0.036773 0.573427 0.123358
O O14 0.671117 0.232880 0.752201
O O15 0.761077 0.986998 0.710073
O O16 0.000000 0.733109 0.250000
#
# Coordination Sequence:
#
# PCOD8143562 Si02
#       7
#     8   8   8   8   8   8   8
#     4  12  23  47  72 104 139 186 243 296 352 424
#     4  10  21  40  71  99 136 184 237 292 351 421
#     4  11  25  44  66 103 151 184 230 300 367 421
#     4  11  21  46  72  98 141 194 230 295 359 430
#     4  11  23  41  67 105 137 176 249 289 355 419
#     4  11  24  40  73 106 140 188 240 287 367 427
#     4  12  26  42  72 107 140 187 236 301 350 432
#
# _framework density 21.988645000000002
#
# number of rings (size 3 to 8) (size 9 to 14) (size 15 to 20)
#    0.000    0.857    4.286    3.857    6.000    0.000 
#    2.571    3.571    0.000    0.000    0.000    0.000 
#    0.000    0.000    0.000    0.000    0.000    0.000 
#
# Total GULP energy -347019.557142 kJ/mol
# GULP energy per Si atom -12393.555612 kJ/mol
# Density = 2.193860 g / cm^3
# Si number density = 21.988645 Si / 1000 Ang^3
#
#
#
# Elastic Constant Matrix: (Units=GPa)
#
#
# Indices 1 2 3 4 5 6 
#
# 1 98.1762 23.8158 19.3332 0.0000 -1.2526 0.0000
# 2 23.8158 168.1796 22.5328 0.0000 -7.5016 0.0000
# 3 19.3332 22.5328 89.1196 0.0000 -8.2504 0.0000
# 4 0.0000 0.0000 0.0000 31.3883 0.0000 -12.0078
# 5 -1.2526 -7.5016 -8.2504 0.0000 30.9327 0.0000
# 6 0.0000 0.0000 0.0000 -12.0078 0.0000 32.2544
#
#
#
# Elastic Compliance Matrix: (Units=1/GPa)
#
#
# Indices 1 2 3 4 5 6 
#
# 1 0.010901 -0.001284 -0.002080 0.000000 -0.000425 0.000000
# 2 -0.001284 0.006343 -0.001218 0.000000 0.001161 0.000000
# 3 -0.002080 -0.001218 0.012247 0.000000 0.002887 0.000000
# 4 0.000000 0.000000 0.000000 0.037150 0.000000 0.013830
# 5 -0.000425 0.001161 0.002887 0.000000 0.033363 0.000000
# 6 0.000000 0.000000 0.000000 0.013830 0.000000 0.036152
#
#
# Mechanical properties :
#
#
# Convention : Reuss Voigt Hill
#
# Bulk Modulus (GPa) = 49.19114 54.09322 51.64218
# Shear Modulus (GPa) = 32.87420 38.23465 35.55442
#
# Velocity S-wave (km/s) = 3.87079 4.17446 4.02549
# Velocity P-wave (km/s) = 6.51130 6.92017 6.71885
#
# Compressibility (1/GPa) = 0.02032886
#
# Stress axis : x y z
#
# Youngs Moduli (GPa) = 91.73176 157.65902 81.65167
#
# Poissons Ratio (x) = 0.20244 0.16980
# Poissons Ratio (y) = 0.11779 0.09942
# Poissons Ratio (z) = 0.19076 0.19197
#
# Static dielectric constant tensor:
#      x y z
#    x 3.757860 0.000000 -0.271800 
#    y 0.000000 4.565720 0.000000 
#    z -0.271800 0.000000 4.160540 
# 
# 
# High freq. dielectric constant tensor:
#      x y z
#    x 1.834150 0.000000 -0.016550 
#    y 0.000000 1.901230 0.000000 
#    z -0.016550 0.000000 1.854150 
# 
# From -- ./inp_files/209530.got.cif
#   From: 2010.06.25/outbox.cif.g09.slc.cpg/sg15_105_cif.got.tgz:209530.got - 2010.06.28 07:06:18.
