data_PCOD8143798
_publ_section_title
;
Structure prediction by ZEFSAII (Michael W. Deem and Ramdas Pophale) SiO2 
 PCOD8143798
Probable space group: C 2/C
;
_chemical_formula_sum "Si O2"
_cell_formula_units_Z 60
_cell_length_a 21.656841
_cell_length_b 15.089432
_cell_length_c 9.236270
_cell_angle_alpha 90.000000
_cell_angle_beta 83.911005
_cell_angle_gamma 90.000000
_cell_volume 3001.287085
_symmetry_space_group_name_H-M "C 2/C"
_symmetry_group_IT_number 15
_symmetry_cell_setting 'monoclinic'
loop_
_space_group_symop_operation_xyz
x,y,z
-x,y,1/2-z
-x,-y,-z
x,-y,1/2+z
1/2+x,1/2+y,z
1/2-x,1/2+y,1/2-z
1/2-x,1/2-y,-z
1/2+x,1/2-y,1/2+z
loop_
_atom_site_type_symbol
_atom_site_label
_atom_site_fract_x
_atom_site_fract_y
_atom_site_fract_z
Si Si1 0.500000 0.767929 0.750000
Si Si2 0.457014 0.491400 0.142439
Si Si3 0.892140 0.835877 0.739615
Si Si4 0.401849 0.674375 0.567503
Si Si5 0.199258 0.236659 0.717232
Si Si6 0.781536 0.416361 0.090458
Si Si7 0.259800 0.581256 0.210848
Si Si8 0.109078 0.301512 0.513828
O O1 0.459006 0.714064 0.644662
O O2 0.548092 0.822472 0.630960
O O3 0.500000 0.442375 0.250000
O O4 0.441647 0.589561 0.194422
O O5 0.399223 0.430555 0.107904
O O6 0.500000 0.500000 0.000000
O O7 0.827049 0.888250 0.747457
O O8 0.904234 0.752422 0.630887
O O9 0.906769 0.801973 0.897621
O O10 0.334366 0.706265 0.629716
O O11 0.258022 0.175061 0.669267
O O12 0.215475 0.336585 0.750009
O O13 0.153672 0.234296 0.590510
O O14 0.771283 0.498039 0.200059
O O15 0.740789 0.440472 0.959805
O O16 0.854165 0.394065 0.033139
#
# Coordination Sequence:
#
# PCOD8143798 Si02
#       8
#     4   8   8   8   8   8   8   8
#     4  10  22  40  64  86 114 174 208 252 308 370
#     4  12  24  37  52  83 127 164 204 247 299 373
#     4  12  24  36  57  92 124 165 200 260 303 379
#     4  11  24  37  60  87 125 164 210 248 312 372
#     4  10  21  43  62  90 126 169 207 254 315 384
#     4  11  22  42  63  91 126 172 207 261 314 376
#     4  11  24  39  64  93 128 166 208 255 320 371
#     4  10  21  41  65  84 125 164 214 254 318 365
#
# _framework density 19.991422
#
# number of rings (size 3 to 8) (size 9 to 14) (size 15 to 20)
#    0.000    1.067    4.667    2.400    5.600    1.600 
#    0.000    0.000    0.000    7.200    0.000    0.000 
#    0.000    0.000    0.000    0.000    0.000    0.000 
#
# Total GULP energy -371659.467139 kJ/mol
# GULP energy per Si atom -12388.648905 kJ/mol
# Density = 1.994592 g / cm^3
# Si number density = 19.991422 Si / 1000 Ang^3
#
#
#
# Elastic Constant Matrix: (Units=GPa)
#
#
# Indices 1 2 3 4 5 6 
#
# 1 81.5051 23.7277 48.6078 0.0000 -12.6711 0.0000
# 2 23.7277 83.9207 49.3052 0.0000 -7.8579 0.0000
# 3 48.6078 49.3052 147.5374 0.0000 -6.4135 0.0000
# 4 0.0000 0.0000 0.0000 41.4551 0.0000 0.7246
# 5 -12.6711 -7.8579 -6.4135 0.0000 36.9627 0.0000
# 6 0.0000 0.0000 0.0000 0.7246 0.0000 32.7453
#
#
#
# Elastic Compliance Matrix: (Units=1/GPa)
#
#
# Indices 1 2 3 4 5 6 
#
# 1 0.016145 -0.001416 -0.004653 0.000000 0.004426 0.000000
# 2 -0.001416 0.015150 -0.004511 0.000000 0.001952 0.000000
# 3 -0.004653 -0.004511 0.009781 0.000000 -0.000857 0.000000
# 4 0.000000 0.000000 0.000000 0.024132 0.000000 -0.000534
# 5 0.004426 0.001952 -0.000857 0.000000 0.028838 0.000000
# 6 0.000000 0.000000 0.000000 -0.000534 0.000000 0.030551
#
#
# Mechanical properties :
#
#
# Convention : Reuss Voigt Hill
#
# Bulk Modulus (GPa) = 50.21643 61.80496 56.01069
# Shear Modulus (GPa) = 32.80918 34.98745 33.89832
#
# Velocity S-wave (km/s) = 4.05552 4.18799 4.12229
# Velocity P-wave (km/s) = 6.86318 7.37350 7.12291
#
# Compressibility (1/GPa) = 0.01991380
#
# Stress axis : x y z
#
# Youngs Moduli (GPa) = 61.93974 66.00739 102.23470
#
# Poissons Ratio (x) = 0.09349 0.47573
# Poissons Ratio (y) = 0.08773 0.46122
# Poissons Ratio (z) = 0.28823 0.29778
#
# Static dielectric constant tensor:
#      x y z
#    x 3.873270 0.000000 -0.027100 
#    y 0.000000 3.281120 0.000000 
#    z -0.027100 0.000000 3.889750 
# 
# 
# High freq. dielectric constant tensor:
#      x y z
#    x 1.779010 0.000000 -0.005760 
#    y 0.000000 1.751650 0.000000 
#    z -0.005760 0.000000 1.799200 
# 
# From -- ./inp_files/61536.got.cif
#   From: 2010.06.25/outbox.cif.g09.slc.cpg/sg15_31_cif.got.tgz:61536.got - 2010.06.28 07:06:18.
