data_PCOD8143307
_publ_section_title
;
Structure prediction by ZEFSAII (Michael W. Deem and Ramdas Pophale) SiO2 
 PCOD8143307
Probable space group: C 2/C
;
_chemical_formula_sum "Si O2"
_cell_formula_units_Z 64
_cell_length_a 15.412487
_cell_length_b 11.560929
_cell_length_c 18.389697
_cell_angle_alpha 90.000000
_cell_angle_beta 77.336513
_cell_angle_gamma 90.000000
_cell_volume 3197.017122
_symmetry_space_group_name_H-M "C 2/C"
_symmetry_group_IT_number 15
_symmetry_cell_setting 'monoclinic'
loop_
_space_group_symop_operation_xyz
x,y,z
-x,y,1/2-z
-x,-y,-z
x,-y,1/2+z
1/2+x,1/2+y,z
1/2-x,1/2+y,1/2-z
1/2-x,1/2-y,-z
1/2+x,1/2-y,1/2+z
loop_
_atom_site_type_symbol
_atom_site_label
_atom_site_fract_x
_atom_site_fract_y
_atom_site_fract_z
Si Si1 0.709483 0.341502 0.662207
Si Si2 0.278579 0.440219 0.991187
Si Si3 0.418817 0.053537 0.937050
Si Si4 0.173631 0.182014 0.473024
Si Si5 0.645515 0.665224 0.889535
Si Si6 0.980258 0.753505 0.832473
Si Si7 0.352837 0.590225 0.171666
Si Si8 0.493430 0.175603 0.450862
O O1 0.746856 0.418588 0.588629
O O2 0.772405 0.231352 0.663323
O O3 0.615309 0.310734 0.645472
O O4 0.700254 0.404314 0.742067
O O5 0.187198 0.441337 0.054570
O O6 0.333254 0.559581 0.984610
O O7 0.337865 0.346283 0.025483
O O8 0.480343 0.137668 0.878728
O O9 0.443169 0.920647 0.911719
O O10 0.441265 0.094744 0.014017
O O11 0.250000 0.250000 0.500000
O O12 0.198681 0.158569 0.383483
O O13 0.079798 0.248875 0.492585
O O14 0.634835 0.543057 0.851747
O O15 0.554839 0.737138 0.893372
O O16 0.000000 0.704959 0.750000
O O17 0.050560 0.851486 0.841374
#
# Coordination Sequence:
#
# PCOD8143307 Si02
#       8
#     8   8   8   8   8   8   8   8
#     4  11  22  41  65  93 123 166 208 260 315 370
#     4  11  22  37  68  91 123 162 210 260 308 370
#     4  11  20  40  63  94 122 157 214 255 307 378
#     4  11  23  40  61  91 127 166 206 258 314 371
#     4  11  23  41  63  97 124 160 211 263 309 372
#     4  10  21  40  65  90 125 166 208 260 314 375
#     4  10  25  41  63  92 129 166 209 253 321 381
#     4  11  23  37  64  90 125 157 205 263 307 365
#
# _framework density 20.018660000000001
#
# number of rings (size 3 to 8) (size 9 to 14) (size 15 to 20)
#    0.000    1.250    5.000    1.125    1.750    2.000 
#    4.500    0.000    2.750    0.000    0.000    0.000 
#    0.000    0.000    0.000    0.000    0.000    0.000 
#
# Total GULP energy -396521.508225 kJ/mol
# GULP energy per Si atom -12391.297132 kJ/mol
# Density = 1.997310 g / cm^3
# Si number density = 20.018660 Si / 1000 Ang^3
#
#
#
# Elastic Constant Matrix: (Units=GPa)
#
#
# Indices 1 2 3 4 5 6 
#
# 1 78.6123 40.6396 32.6622 0.0000 -11.2106 0.0000
# 2 40.6396 131.6643 60.5706 0.0000 -5.2525 0.0000
# 3 32.6622 60.5706 116.3500 0.0000 5.3242 0.0000
# 4 0.0000 0.0000 0.0000 25.9127 0.0000 2.6096
# 5 -11.2106 -5.2525 5.3242 0.0000 21.7881 0.0000
# 6 0.0000 0.0000 0.0000 2.6096 0.0000 -42.1652
#
#
#
# Elastic Compliance Matrix: (Units=1/GPa)
#
#
# Indices 1 2 3 4 5 6 
#
# 1 0.017161 -0.003339 -0.003485 0.000000 0.008876 0.000000
# 2 -0.003339 0.010944 -0.004856 0.000000 0.002107 0.000000
# 3 -0.003485 -0.004856 0.012375 0.000000 -0.005988 0.000000
# 4 0.000000 0.000000 0.000000 0.038352 0.000000 0.002374
# 5 0.008876 0.002107 -0.005988 0.000000 0.052435 0.000000
# 6 0.000000 0.000000 0.000000 0.002374 0.000000 -0.023569
#
#
# Mechanical properties :
#
#
# Convention : Reuss Voigt Hill
#
# Bulk Modulus (GPa) = 58.41692 66.04126 62.22909
# Shear Modulus (GPa) = 36.55897 13.95741 25.25819
#
# Velocity S-wave (km/s) = 4.27809 2.64336 3.55594
# Velocity P-wave (km/s) = 7.32444 6.50983 6.92912
#
# Compressibility (1/GPa) = 0.01711833
#
# Stress axis : x y z
#
# Youngs Moduli (GPa) = 58.27210 91.37488 80.80666
#
# Poissons Ratio (x) = 0.30514 0.28162
# Poissons Ratio (y) = 0.19460 0.39241
# Poissons Ratio (z) = 0.20309 0.44374
#
# Static dielectric constant tensor:
#      x y z
#    x 4.154700 0.000000 -0.272940 
#    y 0.000000 3.833180 0.000000 
#    z -0.272940 0.000000 3.762560 
# 
# 
# High freq. dielectric constant tensor:
#      x y z
#    x 1.787270 0.000000 -0.003200 
#    y 0.000000 1.789850 0.000000 
#    z -0.003200 0.000000 1.759470 
# 
# From -- ./inp_files/243700.got.cif
#   From: 2010.06.25/outbox.cif.g09.slc.cpg/sg15_122_cif.got.tgz:243700.got - 2010.06.28 07:06:18.
