data_PCOD8143699
_publ_section_title
;
Structure prediction by ZEFSAII (Michael W. Deem and Ramdas Pophale) SiO2 
 PCOD8143699
Probable space group: C 2/C
;
_chemical_formula_sum "Si O2"
_cell_formula_units_Z 40
_cell_length_a 7.553515
_cell_length_b 14.982805
_cell_length_c 21.640917
_cell_angle_alpha 90.000000
_cell_angle_beta 57.982664
_cell_angle_gamma 90.000000
_cell_volume 2076.616153
_symmetry_space_group_name_H-M "C 2/C"
_symmetry_group_IT_number 15
_symmetry_cell_setting 'monoclinic'
loop_
_space_group_symop_operation_xyz
x,y,z
-x,y,1/2-z
-x,-y,-z
x,-y,1/2+z
1/2+x,1/2+y,z
1/2-x,1/2+y,1/2-z
1/2-x,1/2-y,-z
1/2+x,1/2-y,1/2+z
loop_
_atom_site_type_symbol
_atom_site_label
_atom_site_fract_x
_atom_site_fract_y
_atom_site_fract_z
Si Si1 0.410597 0.841794 0.201480
Si Si2 0.461852 0.539852 0.408035
Si Si3 0.234050 0.570673 0.570371
Si Si4 0.733022 0.852376 0.730008
Si Si5 0.811426 0.490263 0.657853
O O1 0.500000 0.873590 0.250000
O O2 0.611718 0.840396 0.117249
O O3 0.289068 0.750085 0.230375
O O4 0.253313 0.920586 0.208282
O O5 0.329221 0.590079 0.485603
O O6 0.583365 0.456265 0.415582
O O7 0.619494 0.610967 0.350620
O O8 0.306770 0.503530 0.384854
O O9 0.062108 0.489854 0.599002
O O10 0.500000 0.863277 0.750000
O O11 0.761551 0.903665 0.789882
#
# Coordination Sequence:
#
# PCOD8143699 Si02
#       5
#     8   8   8   8   8
#     4  10  22  39  59  90 123 156 202 254 291 360
#     4  11  20  39  68  88 120 165 192 251 312 353
#     4   9  22  39  63  91 123 153 206 245 303 365
#     4  12  23  39  60  90 123 161 208 247 297 362
#     4  10  21  41  63  91 120 159 201 248 301 363
#
# _framework density 19.262107
#
# number of rings (size 3 to 8) (size 9 to 14) (size 15 to 20)
#    1.200    0.400    2.000    4.200    0.000    4.000 
#    0.000    0.000    0.000    4.800    0.000    0.000 
#    0.000    0.000    0.000    0.000    0.000    0.000 
#
# Total GULP energy -247871.828329 kJ/mol
# GULP energy per Si atom -12393.591416 kJ/mol
# Density = 1.921827 g / cm^3
# Si number density = 19.262107 Si / 1000 Ang^3
#
#
#
# Elastic Constant Matrix: (Units=GPa)
#
#
# Indices 1 2 3 4 5 6 
#
# 1 130.2929 35.5007 54.9902 -0.0006 23.7890 0.0006
# 2 35.5007 81.3329 34.0430 -0.0003 11.3479 0.0008
# 3 54.9902 34.0430 124.8980 -0.0004 2.5087 0.0008
# 4 -0.0006 -0.0003 -0.0004 20.3021 0.0004 -10.3084
# 5 23.7890 11.3479 2.5087 0.0004 38.8816 -0.0007
# 6 0.0006 0.0008 0.0008 -10.3084 -0.0007 14.0540
#
#
#
# Elastic Compliance Matrix: (Units=1/GPa)
#
#
# Indices 1 2 3 4 5 6 
#
# 1 0.011126 -0.002299 -0.004154 0.000000 -0.005868 0.000000
# 2 -0.002299 0.014941 -0.003005 0.000000 -0.002760 -0.000001
# 3 -0.004154 -0.003005 0.010600 0.000000 0.002735 0.000000
# 4 0.000000 0.000000 0.000000 0.078487 0.000000 0.057569
# 5 -0.005868 -0.002760 0.002735 0.000000 0.029939 0.000002
# 6 0.000000 -0.000001 0.000000 0.057569 0.000002 0.113381
#
#
# Mechanical properties :
#
#
# Convention : Reuss Voigt Hill
#
# Bulk Modulus (GPa) = 56.33390 65.06575 60.69982
# Shear Modulus (GPa) = 17.64873 28.78018 23.21446
#
# Velocity S-wave (km/s) = 3.03023 3.86960 3.47535
# Velocity P-wave (km/s) = 6.44612 7.33604 6.90543
#
# Compressibility (1/GPa) = 0.01775130
#
# Stress axis : x y z
#
# Youngs Moduli (GPa) = 89.87878 66.92789 94.34280
#
# Poissons Ratio (x) = 0.15386 0.39191
# Poissons Ratio (y) = 0.20662 0.28350
# Poissons Ratio (z) = 0.37337 0.20112
#
# Static dielectric constant tensor:
#      x y z
#    x 3.619560 0.000000 -0.029740 
#    y 0.000000 3.116620 0.000000 
#    z -0.029740 0.000000 3.649850 
# 
# 
# High freq. dielectric constant tensor:
#      x y z
#    x 1.765530 0.000000 0.000560 
#    y 0.000000 1.714040 0.000000 
#    z 0.000560 0.000000 1.759130 
# 
# From -- ./inp_files/230957.got.cif
#   From: 2010.06.25/outbox.cif.g09.slc.cpg/sg15_116_cif.got.tgz:230957.got - 2010.06.28 07:06:18.
