data_PCOD8143167
_publ_section_title
;
Structure prediction by ZEFSAII (Michael W. Deem and Ramdas Pophale) SiO2 
 PCOD8143167
Probable space group: C 2/C
;
_chemical_formula_sum "Si O2"
_cell_formula_units_Z 48
_cell_length_a 7.928206
_cell_length_b 28.503086
_cell_length_c 14.786695
_cell_angle_alpha 90.000000
_cell_angle_beta 42.807634
_cell_angle_gamma 90.000000
_cell_volume 2270.661251
_symmetry_space_group_name_H-M "C 2/C"
_symmetry_group_IT_number 15
_symmetry_cell_setting 'monoclinic'
loop_
_space_group_symop_operation_xyz
x,y,z
-x,y,1/2-z
-x,-y,-z
x,-y,1/2+z
1/2+x,1/2+y,z
1/2-x,1/2+y,1/2-z
1/2-x,1/2-y,-z
1/2+x,1/2-y,1/2+z
loop_
_atom_site_type_symbol
_atom_site_label
_atom_site_fract_x
_atom_site_fract_y
_atom_site_fract_z
Si Si1 0.867798 0.680819 0.510538
Si Si2 0.988850 0.044445 0.617515
Si Si3 0.134668 0.415466 0.407083
Si Si4 0.918334 0.937951 0.938993
Si Si5 0.714986 0.722894 0.396349
Si Si6 0.345983 0.347851 0.724708
O O1 0.797211 0.639678 0.608181
O O2 0.670725 0.700381 0.514227
O O3 0.927187 0.726691 0.548309
O O4 0.065113 0.658097 0.364691
O O5 0.266232 0.059608 0.539804
O O6 0.783187 0.065543 0.763612
O O7 0.914576 0.064195 0.548901
O O8 0.979418 0.988472 0.629253
O O9 0.845133 0.425492 0.503818
O O10 0.115219 0.900991 0.823237
O O11 0.572430 0.688062 0.385359
O O12 0.000000 0.729608 0.250000
O O13 0.500000 0.333276 0.750000
#
# Coordination Sequence:
#
# PCOD8143167 Si02
#       6
#     8   8   8   8   8   8
#     4  10  21  40  63  91 123 164 210 262 316 378
#     4  10  25  40  65  94 126 171 213 258 326 368
#     4  11  22  40  66  95 125 164 214 262 319 377
#     4  11  23  44  62  91 132 166 213 266 309 391
#     4   9  21  40  64  90 125 164 212 264 317 385
#     4  11  22  39  62  91 124 164 208 257 325 373
#
# _framework density 21.139216999999999
#
# number of rings (size 3 to 8) (size 9 to 14) (size 15 to 20)
#    0.000    1.667    1.667    2.000    4.667    2.000 
#    3.000    5.000    0.000    0.000    0.000    0.000 
#    0.000    0.000    0.000    0.000    0.000    0.000 
#
# Total GULP energy -297370.970012 kJ/mol
# GULP energy per Si atom -12390.457084 kJ/mol
# Density = 2.109110 g / cm^3
# Si number density = 21.139217 Si / 1000 Ang^3
#
#
#
# Elastic Constant Matrix: (Units=GPa)
#
#
# Indices 1 2 3 4 5 6 
#
# 1 88.0205 72.6201 25.3375 0.0000 20.4573 0.0000
# 2 72.6201 180.2885 65.2333 0.0000 12.9081 0.0000
# 3 25.3375 65.2333 77.6772 0.0000 6.1382 0.0000
# 4 0.0000 0.0000 0.0000 43.4835 0.0000 3.5658
# 5 20.4573 12.9081 6.1382 0.0000 26.9190 0.0000
# 6 0.0000 0.0000 0.0000 3.5658 0.0000 24.8840
#
#
#
# Elastic Compliance Matrix: (Units=1/GPa)
#
#
# Indices 1 2 3 4 5 6 
#
# 1 0.020099 -0.007491 0.000670 0.000000 -0.011835 0.000000
# 2 -0.007491 0.010907 -0.006876 0.000000 0.002031 0.000000
# 3 0.000670 -0.006876 0.018544 0.000000 -0.001440 0.000000
# 4 0.000000 0.000000 0.000000 0.023271 0.000000 -0.003335
# 5 -0.011835 0.002031 -0.001440 0.000000 0.045497 0.000000
# 6 0.000000 0.000000 0.000000 -0.003335 0.000000 0.040664
#
#
# Mechanical properties :
#
#
# Convention : Reuss Voigt Hill
#
# Bulk Modulus (GPa) = 45.13665 74.70755 59.92210
# Shear Modulus (GPa) = 25.80486 31.24364 28.52425
#
# Velocity S-wave (km/s) = 3.49766 3.84864 3.67734
# Velocity P-wave (km/s) = 6.14084 7.42744 6.81457
#
# Compressibility (1/GPa) = 0.02215495
#
# Stress axis : x y z
#
# Youngs Moduli (GPa) = 49.75335 91.68664 53.92608
#
# Poissons Ratio (x) = 0.68682 -0.03613
# Poissons Ratio (y) = 0.37270 0.37082
# Poissons Ratio (z) = -0.03334 0.63048
#
# Static dielectric constant tensor:
#      x y z
#    x 3.506800 0.000000 0.722330 
#    y 0.000000 4.167650 0.000000 
#    z 0.722330 0.000000 3.308920 
# 
# 
# High freq. dielectric constant tensor:
#      x y z
#    x 1.824510 0.000000 0.025130 
#    y 0.000000 1.849540 0.000000 
#    z 0.025130 0.000000 1.817510 
# 
# From -- ./inp_files/80218.got.cif
#   From: 2010.06.25/outbox.cif.g09.slc.cpg/sg15_41_cif.got.tgz:80218.got - 2010.06.28 07:06:18.
