data_PCOD8143802
_publ_section_title
;
Structure prediction by ZEFSAII (Michael W. Deem and Ramdas Pophale) SiO2 
 PCOD8143802
Probable space group: C 2/C
;
_chemical_formula_sum "Si O2"
_cell_formula_units_Z 52
_cell_length_a 25.330440
_cell_length_b 8.790998
_cell_length_c 12.284841
_cell_angle_alpha 90.000000
_cell_angle_beta 113.415092
_cell_angle_gamma 90.000000
_cell_volume 2510.310923
_symmetry_space_group_name_H-M "C 2/C"
_symmetry_group_IT_number 15
_symmetry_cell_setting 'monoclinic'
loop_
_space_group_symop_operation_xyz
x,y,z
-x,y,1/2-z
-x,-y,-z
x,-y,1/2+z
1/2+x,1/2+y,z
1/2-x,1/2+y,1/2-z
1/2-x,1/2-y,-z
1/2+x,1/2-y,1/2+z
loop_
_atom_site_type_symbol
_atom_site_label
_atom_site_fract_x
_atom_site_fract_y
_atom_site_fract_z
Si Si1 0.840749 0.521135 0.034998
Si Si2 0.942107 0.952423 0.014222
Si Si3 0.410263 0.105512 0.285351
Si Si4 0.265656 0.147350 0.613013
Si Si5 0.854230 0.786209 0.419960
Si Si6 0.867538 0.690035 0.852534
Si Si7 0.500000 0.286818 0.250000
O O1 0.894311 0.584344 0.146136
O O2 0.787217 0.512864 0.077661
O O3 0.854084 0.350784 0.005888
O O4 0.830634 0.634960 0.927083
O O5 0.954699 0.890325 0.146118
O O6 0.906497 0.835223 0.909339
O O7 0.902888 0.099343 0.000361
O O8 0.000000 0.000000 0.000000
O O9 0.367489 0.222231 0.310874
O O10 0.472419 0.184142 0.324292
O O11 0.410959 0.944662 0.349438
O O12 0.250000 0.250000 0.500000
O O13 0.208056 0.128771 0.638125
O O14 0.318504 0.223603 0.722935
#
# Coordination Sequence:
#
# PCOD8143802 Si02
#       7
#     8   8   8   8   8   8   4
#     4   9  19  40  64  92 120 169 222 263 316 385
#     4  12  26  42  62  98 137 171 211 266 342 389
#     4  10  21  41  65  87 121 168 227 263 304 388
#     4   9  20  40  65  95 128 167 215 272 327 385
#     4  10  22  41  64  93 136 165 211 279 331 384
#     4  10  22  40  68  94 126 170 223 267 325 395
#     4  12  24  42  64  88 126 174 220 266 318 392
#
# _framework density 20.714566000000001
#
# number of rings (size 3 to 8) (size 9 to 14) (size 15 to 20)
#    0.000    1.846    3.077    0.000    0.000   10.462 
#    2.769    1.538    0.000    0.000    0.000    0.000 
#    0.000    0.000    0.000    0.000    0.000    0.000 
#
# Total GULP energy -322193.761666 kJ/mol
# GULP energy per Si atom -12392.067756 kJ/mol
# Density = 2.066742 g / cm^3
# Si number density = 20.714566 Si / 1000 Ang^3
#
#
#
# Elastic Constant Matrix: (Units=GPa)
#
#
# Indices 1 2 3 4 5 6 
#
# 1 139.4209 53.0529 33.1814 0.0000 2.3368 0.0000
# 2 53.0529 88.6757 39.1675 0.0000 6.7808 0.0000
# 3 33.1814 39.1675 121.2810 0.0000 5.5114 0.0000
# 4 0.0000 0.0000 0.0000 31.1920 0.0000 2.8444
# 5 2.3368 6.7808 5.5114 0.0000 31.8557 0.0000
# 6 0.0000 0.0000 0.0000 2.8444 0.0000 24.5788
#
#
#
# Elastic Compliance Matrix: (Units=1/GPa)
#
#
# Indices 1 2 3 4 5 6 
#
# 1 0.009377 -0.005260 -0.000893 0.000000 0.000586 0.000000
# 2 -0.005260 0.016243 -0.003696 0.000000 -0.002432 0.000000
# 3 -0.000893 -0.003696 0.009721 0.000000 -0.000830 0.000000
# 4 0.000000 0.000000 0.000000 0.032401 0.000000 -0.003750
# 5 0.000586 -0.002432 -0.000830 0.000000 0.032010 0.000000
# 6 0.000000 0.000000 0.000000 -0.003750 0.000000 0.041119
#
#
# Mechanical properties :
#
#
# Convention : Reuss Voigt Hill
#
# Bulk Modulus (GPa) = 63.93185 66.68682 65.30934
# Shear Modulus (GPa) = 30.15976 32.45704 31.30840
#
# Velocity S-wave (km/s) = 3.81986 3.96267 3.89192
# Velocity P-wave (km/s) = 7.09826 7.29384 7.19671
#
# Compressibility (1/GPa) = 0.01564166
#
# Stress axis : x y z
#
# Youngs Moduli (GPa) = 106.64418 61.56651 102.87047
#
# Poissons Ratio (x) = 0.32386 0.09189
# Poissons Ratio (y) = 0.56098 0.38019
# Poissons Ratio (z) = 0.09526 0.22754
#
# Static dielectric constant tensor:
#      x y z
#    x 4.412880 0.000000 -0.048420 
#    y 0.000000 3.887020 0.000000 
#    z -0.048420 0.000000 3.731150 
# 
# 
# High freq. dielectric constant tensor:
#      x y z
#    x 1.814740 0.000000 -0.011630 
#    y 0.000000 1.799660 0.000000 
#    z -0.011630 0.000000 1.814120 
# 
# From -- ./inp_files/122050.got.cif
#   From: 2010.06.25/outbox.cif.g09.slc.cpg/sg15_62_cif.got.tgz:122050.got - 2010.06.28 07:06:18.
