data_PCOD8143751
_publ_section_title
;
Structure prediction by ZEFSAII (Michael W. Deem and Ramdas Pophale) SiO2 
 PCOD8143751
Probable space group: C 2/C
;
_chemical_formula_sum "Si O2"
_cell_formula_units_Z 48
_cell_length_a 8.635585
_cell_length_b 8.829180
_cell_length_c 28.118742
_cell_angle_alpha 90.000000
_cell_angle_beta 95.593779
_cell_angle_gamma 90.000000
_cell_volume 2133.707905
_symmetry_space_group_name_H-M "C 2/C"
_symmetry_group_IT_number 15
_symmetry_cell_setting 'monoclinic'
loop_
_space_group_symop_operation_xyz
x,y,z
-x,y,1/2-z
-x,-y,-z
x,-y,1/2+z
1/2+x,1/2+y,z
1/2-x,1/2+y,1/2-z
1/2-x,1/2-y,-z
1/2+x,1/2-y,1/2+z
loop_
_atom_site_type_symbol
_atom_site_label
_atom_site_fract_x
_atom_site_fract_y
_atom_site_fract_z
Si Si1 0.194885 0.539676 0.812094
Si Si2 0.385891 0.668790 0.899557
Si Si3 0.324833 0.475927 0.979353
Si Si4 0.173290 0.135913 0.265360
Si Si5 0.128675 0.482864 0.646659
Si Si6 0.248368 0.161643 0.931026
O O1 0.334435 0.565951 0.853281
O O2 0.176396 0.687102 0.778147
O O3 0.229925 0.394662 0.780045
O O4 0.039160 0.498661 0.835285
O O5 0.285168 0.617973 0.943465
O O6 0.351292 0.842161 0.888185
O O7 0.567606 0.647974 0.913339
O O8 0.304591 0.327125 0.946687
O O9 0.500000 0.500000 0.000000
O O10 0.218480 0.454949 0.023508
O O11 0.241152 0.030725 0.309036
O O12 0.000000 0.079253 0.250000
O O13 0.155387 0.626199 0.613607
#
# Coordination Sequence:
#
# PCOD8143751 Si02
#       6
#     8   8   8   8   8   8
#     4  11  25  42  62  92 124 158 205 254 307 368
#     4  10  22  40  63  91 125 164 206 254 307 366
#     4   9  20  39  63  91 124 166 209 253 307 365
#     4  11  24  42  63  88 121 161 201 249 306 367
#     4  11  24  40  63  94 124 159 205 256 306 364
#     4  10  21  41  64  89 126 164 206 257 307 367
#
# _framework density 22.49605
#
# number of rings (size 3 to 8) (size 9 to 14) (size 15 to 20)
#    0.000    1.667    0.000    3.500    0.000   14.000 
#    0.000   11.667    0.000    0.000    0.000    0.000 
#    0.000    0.000    0.000    0.000    0.000    0.000 
#
# Total GULP energy -297479.997338 kJ/mol
# GULP energy per Si atom -12394.999889 kJ/mol
# Density = 2.244485 g / cm^3
# Si number density = 22.496050 Si / 1000 Ang^3
#
#
#
# Elastic Constant Matrix: (Units=GPa)
#
#
# Indices 1 2 3 4 5 6 
#
# 1 109.8489 41.8068 62.9493 0.0000 4.0365 0.0000
# 2 41.8068 67.1104 47.3895 0.0000 13.9697 0.0000
# 3 62.9493 47.3895 123.8269 0.0000 13.6812 0.0000
# 4 0.0000 0.0000 0.0000 60.5144 0.0000 -2.7470
# 5 4.0365 13.9697 13.6812 0.0000 33.2119 0.0000
# 6 0.0000 0.0000 0.0000 -2.7470 0.0000 29.2281
#
#
#
# Elastic Compliance Matrix: (Units=1/GPa)
#
#
# Indices 1 2 3 4 5 6 
#
# 1 0.014242 -0.005664 -0.005390 0.000000 0.002872 0.000000
# 2 -0.005664 0.023727 -0.005421 0.000000 -0.007058 0.000000
# 3 -0.005390 -0.005421 0.013165 0.000000 -0.002488 0.000000
# 4 0.000000 0.000000 0.000000 0.016596 0.000000 0.001560
# 5 0.002872 -0.007058 -0.002488 0.000000 0.033754 0.000000
# 6 0.000000 0.000000 0.000000 0.001560 0.000000 0.034360
#
#
# Mechanical properties :
#
#
# Convention : Reuss Voigt Hill
#
# Bulk Modulus (GPa) = 54.99272 67.23080 61.11176
# Shear Modulus (GPa) = 28.59493 34.50024 31.54759
#
# Velocity S-wave (km/s) = 3.56913 3.92039 3.74887
# Velocity P-wave (km/s) = 6.44077 7.10233 6.77962
#
# Compressibility (1/GPa) = 0.01818423
#
# Stress axis : x y z
#
# Youngs Moduli (GPa) = 70.21380 42.14677 75.95668
#
# Poissons Ratio (x) = 0.23872 0.40940
# Poissons Ratio (y) = 0.39769 0.41177
# Poissons Ratio (z) = 0.37844 0.22848
#
# Static dielectric constant tensor:
#      x y z
#    x 3.856500 0.000000 0.172230 
#    y 0.000000 4.151700 0.000000 
#    z 0.172230 0.000000 4.762620 
# 
# 
# High freq. dielectric constant tensor:
#      x y z
#    x 1.873430 0.000000 0.013300 
#    y 0.000000 1.878290 0.000000 
#    z 0.013300 0.000000 1.919180 
# 
# From -- ./inp_files/306672.got.cif
#   From: 2010.06.25/outbox.cif.g09.slc.cpg/sg15_154_cif.got.tgz:306672.got - 2010.06.28 07:06:18.
