data_PCOD8143999
_publ_section_title
;
Structure prediction by ZEFSAII (Michael W. Deem and Ramdas Pophale) SiO2 
 PCOD8143999
Probable space group: C 2/C
;
_chemical_formula_sum "Si O2"
_cell_formula_units_Z 64
_cell_length_a 22.630538
_cell_length_b 19.249827
_cell_length_c 16.702374
_cell_angle_alpha 90.000000
_cell_angle_beta 23.234965
_cell_angle_gamma 90.000000
_cell_volume 2870.449696
_symmetry_space_group_name_H-M "C 2/C"
_symmetry_group_IT_number 15
_symmetry_cell_setting 'monoclinic'
loop_
_space_group_symop_operation_xyz
x,y,z
-x,y,1/2-z
-x,-y,-z
x,-y,1/2+z
1/2+x,1/2+y,z
1/2-x,1/2+y,1/2-z
1/2-x,1/2-y,-z
1/2+x,1/2-y,1/2+z
loop_
_atom_site_type_symbol
_atom_site_label
_atom_site_fract_x
_atom_site_fract_y
_atom_site_fract_z
Si Si1 0.344198 0.579514 0.726629
Si Si2 0.163245 0.921733 0.763386
Si Si3 0.678160 0.791865 0.193168
Si Si4 0.668569 0.205158 0.892387
Si Si5 0.163930 0.079273 0.073090
Si Si6 0.663949 0.577860 0.574349
Si Si7 0.902112 0.318850 0.441505
Si Si8 0.324119 0.789117 0.833950
O O1 0.313974 0.500653 0.736007
O O2 0.507920 0.605813 0.493970
O O3 0.216216 0.625353 0.845685
O O4 0.331240 0.587001 0.837030
O O5 0.164116 0.913741 0.667465
O O6 0.302816 0.873559 0.616849
O O7 0.682553 0.778182 0.282172
O O8 0.510726 0.777823 0.368215
O O9 0.720156 0.869942 0.114958
O O10 0.799918 0.734122 0.014451
O O11 0.776546 0.255104 0.809181
O O12 0.499831 0.216669 0.130349
O O13 0.000000 0.100730 0.250000
O O14 0.204572 0.000478 0.996778
O O15 0.500000 0.598868 0.750000
O O16 0.780353 0.629656 0.387600
O O17 0.000000 0.357180 0.250000
O O18 0.250000 0.750000 0.000000
#
# Coordination Sequence:
#
# PCOD8143999 Si02
#       8
#     8   8   8   8   8   8   8   8
#     4  10  23  43  71 102 139 180 231 286 346 414
#     4  10  23  44  70 103 138 182 229 285 347 409
#     4  12  27  44  67 103 140 181 231 287 348 412
#     4  12  27  45  68 103 136 183 227 290 352 415
#     4  10  21  41  69 100 139 183 229 279 343 421
#     4  10  22  41  69 102 136 185 232 285 348 414
#     4  12  26  44  68 100 138 185 232 282 341 412
#     4  12  25  44  70 102 141 181 234 289 350 416
#
# _framework density 22.296157999999998
#
# number of rings (size 3 to 8) (size 9 to 14) (size 15 to 20)
#    0.000    1.000    2.500    3.375    5.250    3.000 
#    0.000    1.250    0.000    0.000    0.000    0.000 
#    0.000    0.000    0.000    0.000    0.000    0.000 
#
# Total GULP energy -396873.015167 kJ/mol
# GULP energy per Si atom -12402.281724 kJ/mol
# Density = 2.224541 g / cm^3
# Si number density = 22.296158 Si / 1000 Ang^3
#
#
#
# Elastic Constant Matrix: (Units=GPa)
#
#
# Indices 1 2 3 4 5 6 
#
# 1 69.5774 14.7408 29.6813 -0.0159 -19.3684 -0.0005
# 2 14.7408 110.2396 60.1833 -0.0383 -11.9851 0.0042
# 3 29.6813 60.1833 130.1723 -0.0358 -16.8997 0.0048
# 4 -0.0159 -0.0383 -0.0358 48.3838 0.0190 -2.8256
# 5 -19.3684 -11.9851 -16.8997 0.0190 42.1695 -0.0003
# 6 -0.0005 0.0042 0.0048 -2.8256 -0.0003 31.3191
#
#
#
# Elastic Compliance Matrix: (Units=1/GPa)
#
#
# Indices 1 2 3 4 5 6 
#
# 1 0.017611 0.000129 -0.003186 0.000001 0.006848 0.000001
# 2 0.000129 0.012199 -0.005498 0.000005 0.001323 0.000000
# 3 -0.003186 -0.005498 0.011137 0.000002 0.001437 -0.000001
# 4 0.000001 0.000005 0.000002 0.020778 -0.000007 0.001875
# 5 0.006848 0.001323 0.001437 -0.000007 0.027811 -0.000001
# 6 0.000001 0.000000 -0.000001 0.001875 -0.000001 0.032098
#
#
# Mechanical properties :
#
#
# Convention : Reuss Voigt Hill
#
# Bulk Modulus (GPa) = 41.95089 57.68888 49.81988
# Shear Modulus (GPa) = 34.08557 38.06673 36.07615
#
# Velocity S-wave (km/s) = 3.91418 4.13646 4.02685
# Velocity P-wave (km/s) = 6.26769 6.98168 6.63429
#
# Compressibility (1/GPa) = 0.02383740
#
# Stress axis : x y z
#
# Youngs Moduli (GPa) = 56.78361 81.97297 89.79066
#
# Poissons Ratio (x) = -0.01058 0.28608
# Poissons Ratio (y) = -0.00733 0.49365
# Poissons Ratio (z) = 0.18092 0.45067
#
# Static dielectric constant tensor:
#      x y z
#    x 4.065960 0.000010 -0.122100 
#    y 0.000010 4.323000 0.000010 
#    z -0.122100 0.000010 4.199310 
# 
# 
# High freq. dielectric constant tensor:
#      x y z
#    x 1.883570 0.000000 -0.000790 
#    y 0.000000 1.883730 0.000000 
#    z -0.000790 0.000000 1.879520 
# 
# From -- ./inp_files/220229.got.cif
#   From: 2010.06.25/outbox.cif.g09.slc.cpg/sg15_111_cif.got.tgz:220229.got - 2010.06.28 07:06:18.
