data_PCOD8143575
_publ_section_title
;
Structure prediction by ZEFSAII (Michael W. Deem and Ramdas Pophale) SiO2 
 PCOD8143575
Probable space group: C 2/C
;
_chemical_formula_sum "Si O2"
_cell_formula_units_Z 48
_cell_length_a 9.385798
_cell_length_b 26.634114
_cell_length_c 16.514395
_cell_angle_alpha 90.000000
_cell_angle_beta 147.141585
_cell_angle_gamma 90.000000
_cell_volume 2239.875256
_symmetry_space_group_name_H-M "C 2/C"
_symmetry_group_IT_number 15
_symmetry_cell_setting 'monoclinic'
loop_
_space_group_symop_operation_xyz
x,y,z
-x,y,1/2-z
-x,-y,-z
x,-y,1/2+z
1/2+x,1/2+y,z
1/2-x,1/2+y,1/2-z
1/2-x,1/2-y,-z
1/2+x,1/2-y,1/2+z
loop_
_atom_site_type_symbol
_atom_site_label
_atom_site_fract_x
_atom_site_fract_y
_atom_site_fract_z
Si Si1 0.724725 0.947274 0.419865
Si Si2 0.873896 0.692280 0.903085
Si Si3 0.260633 0.940756 0.579959
Si Si4 0.706964 0.306504 0.635551
Si Si5 0.406462 0.654769 0.584011
Si Si6 0.880042 0.863575 0.608572
O O1 0.500000 0.929867 0.250000
O O2 0.723651 0.910492 0.496059
O O3 0.006850 0.943935 0.514360
O O4 0.670473 0.004389 0.423798
O O5 0.814926 0.749009 0.847887
O O6 0.683056 0.654475 0.763130
O O7 0.812922 0.685491 0.969582
O O8 0.174793 0.681092 0.027258
O O9 0.500000 0.921425 0.750000
O O10 0.203240 0.901788 0.480176
O O11 0.534856 0.317977 0.473473
O O12 0.609599 0.342285 0.661059
O O13 0.000000 0.321551 0.750000
O O14 0.000000 0.882607 0.750000
#
# Coordination Sequence:
#
# PCOD8143575 Si02
#       6
#     8   8   8   8   8   8
#     4  10  22  44  67  99 134 174 226 277 335 403
#     4  11  26  42  63  99 135 171 223 285 339 387
#     4  10  21  40  74  96 124 177 229 272 330 410
#     4  12  24  44  68  91 130 182 225 272 331 408
#     4  11  22  42  70  93 128 177 227 274 329 410
#     4  12  27  42  66 101 138 173 221 285 336 394
#
# _framework density 21.429765
#
# number of rings (size 3 to 8) (size 9 to 14) (size 15 to 20)
#    0.000    1.000    3.333    3.500    4.667    0.000 
#    3.000    0.833    0.000    0.000    0.000    0.000 
#    0.000    0.000    0.000    0.000    0.000    0.000 
#
# Total GULP energy -297661.337182 kJ/mol
# GULP energy per Si atom -12402.555716 kJ/mol
# Density = 2.138099 g / cm^3
# Si number density = 21.429765 Si / 1000 Ang^3
#
#
#
# Elastic Constant Matrix: (Units=GPa)
#
#
# Indices 1 2 3 4 5 6 
#
# 1 86.3176 24.2606 45.4227 0.0001 -4.3422 0.0000
# 2 24.2606 138.0749 55.3266 0.0000 -18.6451 0.0000
# 3 45.4227 55.3266 132.3097 0.0002 -7.1072 -0.0001
# 4 0.0001 0.0000 0.0002 32.7116 0.0001 -0.5349
# 5 -4.3422 -18.6451 -7.1072 0.0001 42.6963 -0.0001
# 6 0.0000 0.0000 -0.0001 -0.5349 -0.0001 27.2065
#
#
#
# Elastic Compliance Matrix: (Units=1/GPa)
#
#
# Indices 1 2 3 4 5 6 
#
# 1 0.014195 -0.000593 -0.004603 0.000000 0.000418 0.000000
# 2 -0.000593 0.009188 -0.003457 0.000000 0.003376 0.000000
# 3 -0.004603 -0.003457 0.010572 0.000000 -0.000218 0.000000
# 4 0.000000 0.000000 0.000000 0.030580 0.000000 0.000601
# 5 0.000418 0.003376 -0.000218 0.000000 0.024902 0.000000
# 6 0.000000 0.000000 0.000000 0.000601 0.000000 0.036768
#
#
# Mechanical properties :
#
#
# Convention : Reuss Voigt Hill
#
# Bulk Modulus (GPa) = 60.06377 67.41355 63.73866
# Shear Modulus (GPa) = 33.54354 35.96903 34.75628
#
# Velocity S-wave (km/s) = 3.96065 4.10135 4.03161
# Velocity P-wave (km/s) = 7.00034 7.34536 7.17492
#
# Compressibility (1/GPa) = 0.01664897
#
# Stress axis : x y z
#
# Youngs Moduli (GPa) = 70.44748 108.83954 94.58976
#
# Poissons Ratio (x) = 0.06458 0.43536
# Poissons Ratio (y) = 0.04180 0.32699
# Poissons Ratio (z) = 0.32424 0.37625
#
# Static dielectric constant tensor:
#      x y z
#    x 3.777690 0.000000 -0.051950 
#    y 0.000000 4.162330 0.000000 
#    z -0.051950 0.000000 3.894720 
# 
# 
# High freq. dielectric constant tensor:
#      x y z
#    x 1.827370 0.000000 0.008590 
#    y 0.000000 1.847710 0.000000 
#    z 0.008590 0.000000 1.849060 
# 
# From -- ./inp_files/139041.got.cif
#   From: 2010.06.25/outbox.cif.g09.slc.cpg/sg15_70_cif.got.tgz:139041.got - 2010.06.28 07:06:18.
