data_PCOD8143509
_publ_section_title
;
Structure prediction by ZEFSAII (Michael W. Deem and Ramdas Pophale) SiO2 
 PCOD8143509
Probable space group: C 2/C
;
_chemical_formula_sum "Si O2"
_cell_formula_units_Z 52
_cell_length_a 7.166695
_cell_length_b 17.239949
_cell_length_c 25.207455
_cell_angle_alpha 90.000000
_cell_angle_beta 126.049298
_cell_angle_gamma 90.000000
_cell_volume 2518.081657
_symmetry_space_group_name_H-M "C 2/C"
_symmetry_group_IT_number 15
_symmetry_cell_setting 'monoclinic'
loop_
_space_group_symop_operation_xyz
x,y,z
-x,y,1/2-z
-x,-y,-z
x,-y,1/2+z
1/2+x,1/2+y,z
1/2-x,1/2+y,1/2-z
1/2-x,1/2-y,-z
1/2+x,1/2-y,1/2+z
loop_
_atom_site_type_symbol
_atom_site_label
_atom_site_fract_x
_atom_site_fract_y
_atom_site_fract_z
Si Si1 0.927334 0.417645 0.129482
Si Si2 0.089526 0.290037 0.088860
Si Si3 0.509010 0.098503 0.386460
Si Si4 0.000000 0.663262 0.750000
Si Si5 0.560420 0.230722 0.198483
Si Si6 0.263728 0.166476 0.444986
Si Si7 0.486239 0.410642 0.504976
O O1 0.974583 0.508208 0.125981
O O2 0.964122 0.396554 0.196314
O O3 0.104700 0.372594 0.120980
O O4 0.671277 0.384172 0.071161
O O5 0.351770 0.263437 0.128156
O O6 0.931267 0.232025 0.098729
O O7 0.982244 0.293762 0.011555
O O8 0.413719 0.142602 0.318333
O O9 0.332428 0.120020 0.403816
O O10 0.761974 0.128379 0.448610
O O11 0.215820 0.718496 0.775257
O O12 0.500000 0.230235 0.250000
O O13 0.153392 0.102400 0.464462
O O14 0.500000 0.500000 0.500000
#
# Coordination Sequence:
#
# PCOD8143509 Si02
#       7
#     8   8   8   4   8   8   8
#     4  10  23  43  63  99 134 170 221 266 335 399
#     4  10  21  43  67  95 134 167 217 271 324 402
#     4  11  24  41  70  98 129 174 216 278 342 382
#     4  12  26  46  66  90 132 186 224 274 322 398
#     4  12  26  45  66  91 132 178 229 269 323 397
#     4  10  21  40  69 101 133 165 214 273 338 399
#     4   9  20  39  63  99 132 164 212 275 331 389
#
# _framework density 20.650639999999999
#
# number of rings (size 3 to 8) (size 9 to 14) (size 15 to 20)
#    0.000    1.538    3.077    0.923    3.231    6.154 
#    2.769    1.538    0.000    0.000    0.000    0.000 
#    0.000    0.000    0.000    0.000    0.000    0.000 
#
# Total GULP energy -322192.722255 kJ/mol
# GULP energy per Si atom -12392.027779 kJ/mol
# Density = 2.060364 g / cm^3
# Si number density = 20.650640 Si / 1000 Ang^3
#
#
#
# Elastic Constant Matrix: (Units=GPa)
#
#
# Indices 1 2 3 4 5 6 
#
# 1 110.8961 60.1776 56.4534 0.0000 8.6460 0.0000
# 2 60.1776 120.7358 59.2453 0.0000 -3.6437 0.0000
# 3 56.4534 59.2453 97.3967 -0.0001 2.3750 -0.0001
# 4 0.0000 0.0000 -0.0001 33.1540 0.0000 -1.9818
# 5 8.6460 -3.6437 2.3750 0.0000 21.0443 0.0000
# 6 0.0000 0.0000 -0.0001 -1.9818 0.0000 29.3500
#
#
#
# Elastic Compliance Matrix: (Units=1/GPa)
#
#
# Indices 1 2 3 4 5 6 
#
# 1 0.015031 -0.004971 -0.005532 0.000000 -0.006412 0.000000
# 2 -0.004971 0.013625 -0.005529 0.000000 0.005025 0.000000
# 3 -0.005532 -0.005529 0.016852 0.000000 -0.000586 0.000000
# 4 0.000000 0.000000 0.000000 0.030284 0.000000 0.002045
# 5 -0.006412 0.005025 -0.000586 0.000000 0.051089 0.000000
# 6 0.000000 0.000000 0.000000 0.002045 0.000000 0.034210
#
#
# Mechanical properties :
#
#
# Convention : Reuss Voigt Hill
#
# Bulk Modulus (GPa) = 74.38838 75.64236 75.01537
# Shear Modulus (GPa) = 25.29894 26.91981 26.10937
#
# Velocity S-wave (km/s) = 3.50393 3.61443 3.55961
# Velocity P-wave (km/s) = 7.24365 7.35717 7.30063
#
# Compressibility (1/GPa) = 0.01344296
#
# Stress axis : x y z
#
# Youngs Moduli (GPa) = 66.52938 73.39489 59.34081
#
# Poissons Ratio (x) = 0.36481 0.32830
# Poissons Ratio (y) = 0.33068 0.32812
# Poissons Ratio (z) = 0.36807 0.40583
#
# Static dielectric constant tensor:
#      x y z
#    x 3.802190 0.000000 0.409410 
#    y 0.000000 3.724310 0.000000 
#    z 0.409410 0.000000 4.226710 
# 
# 
# High freq. dielectric constant tensor:
#      x y z
#    x 1.798200 0.000000 0.005790 
#    y 0.000000 1.816290 0.000000 
#    z 0.005790 0.000000 1.810840 
# 
# From -- ./inp_files/286155.got.cif
#   From: 2010.06.25/outbox.cif.g09.slc.cpg/sg15_144_cif.got.tgz:286155.got - 2010.06.28 07:06:18.
