data_PCOD8143800
_publ_section_title
;
Structure prediction by ZEFSAII (Michael W. Deem and Ramdas Pophale) SiO2 
 PCOD8143800
Probable space group: C 2/C
;
_chemical_formula_sum "Si O2"
_cell_formula_units_Z 48
_cell_length_a 31.297893
_cell_length_b 15.620674
_cell_length_c 15.764578
_cell_angle_alpha 90.000000
_cell_angle_beta 161.490938
_cell_angle_gamma 90.000000
_cell_volume 2446.689738
_symmetry_space_group_name_H-M "C 2/C"
_symmetry_group_IT_number 15
_symmetry_cell_setting 'monoclinic'
loop_
_space_group_symop_operation_xyz
x,y,z
-x,y,1/2-z
-x,-y,-z
x,-y,1/2+z
1/2+x,1/2+y,z
1/2-x,1/2+y,1/2-z
1/2-x,1/2-y,-z
1/2+x,1/2-y,1/2+z
loop_
_atom_site_type_symbol
_atom_site_label
_atom_site_fract_x
_atom_site_fract_y
_atom_site_fract_z
Si Si1 0.846209 0.729610 0.460954
Si Si2 0.389735 0.140712 0.968358
Si Si3 0.965270 0.234495 0.879445
Si Si4 0.229783 0.163355 0.411119
Si Si5 0.790213 0.332609 0.679923
Si Si6 0.853443 0.482490 0.258900
O O1 0.745876 0.810467 0.257180
O O2 0.813858 0.672808 0.482610
O O3 0.827460 0.663552 0.348457
O O4 0.000000 0.763809 0.750000
O O5 0.352348 0.050019 0.854868
O O6 0.500000 0.129317 0.250000
O O7 0.450229 0.189450 0.002057
O O8 0.897985 0.270012 0.838133
O O9 0.857836 0.205710 0.608114
O O10 0.068371 0.156211 0.092217
O O11 0.250000 0.250000 0.500000
O O12 0.275403 0.080243 0.548122
O O13 0.780883 0.426080 0.621351
O O14 0.000000 0.500000 0.500000
#
# Coordination Sequence:
#
# PCOD8143800 Si02
#       6
#     8   8   8   8   8   8
#     4  11  22  37  66  93 120 166 217 253 311 386
#     4  11  22  41  67  89 124 168 211 254 315 381
#     4  10  21  41  65  86 126 176 203 249 323 385
#     4  11  21  39  65  90 124 171 205 256 321 378
#     4  11  23  39  63  95 127 159 215 264 305 380
#     4  12  23  39  63  95 127 158 210 269 312 364
#
# _framework density 19.618344
#
# number of rings (size 3 to 8) (size 9 to 14) (size 15 to 20)
#    0.000    1.000    6.667    2.000    0.000    2.667 
#    0.000    0.000   11.000    0.000    0.000    0.000 
#    0.000    0.000    0.000    0.000    0.000    0.000 
#
# Total GULP energy -297542.139228 kJ/mol
# GULP energy per Si atom -12397.589135 kJ/mol
# Density = 1.957369 g / cm^3
# Si number density = 19.618344 Si / 1000 Ang^3
#
#
#
# Elastic Constant Matrix: (Units=GPa)
#
#
# Indices 1 2 3 4 5 6 
#
# 1 98.8102 23.0525 56.9348 0.0000 -10.9696 0.0000
# 2 23.0525 74.0229 35.8261 0.0000 1.2303 0.0000
# 3 56.9348 35.8261 133.1636 0.0000 7.0479 0.0000
# 4 0.0000 0.0000 0.0000 28.0681 0.0000 -5.8786
# 5 -10.9696 1.2303 7.0479 0.0000 36.2798 0.0000
# 6 0.0000 0.0000 0.0000 -5.8786 0.0000 30.3868
#
#
#
# Elastic Compliance Matrix: (Units=1/GPa)
#
#
# Indices 1 2 3 4 5 6 
#
# 1 0.014673 -0.001704 -0.006116 0.000000 0.005682 0.000000
# 2 -0.001704 0.015733 -0.003484 0.000000 -0.000372 0.000000
# 3 -0.006116 -0.003484 0.011269 0.000000 -0.003920 0.000000
# 4 0.000000 0.000000 0.000000 0.037132 0.000000 0.007184
# 5 0.005682 -0.000372 -0.003920 0.000000 0.030056 0.000000
# 6 0.000000 0.000000 0.000000 0.007184 0.000000 0.034299
#
#
# Mechanical properties :
#
#
# Convention : Reuss Voigt Hill
#
# Bulk Modulus (GPa) = 52.44841 59.73595 56.09218
# Shear Modulus (GPa) = 29.04863 31.62581 30.33722
#
# Velocity S-wave (km/s) = 3.85214 4.01939 3.93666
# Velocity P-wave (km/s) = 6.82479 7.21497 7.02259
#
# Compressibility (1/GPa) = 0.01906636
#
# Stress axis : x y z
#
# Youngs Moduli (GPa) = 68.15388 63.56234 88.73662
#
# Poissons Ratio (x) = 0.10831 0.54269
# Poissons Ratio (y) = 0.11613 0.30920
# Poissons Ratio (z) = 0.41681 0.22148
#
# Static dielectric constant tensor:
#      x y z
#    x 3.660620 0.000000 -0.040840 
#    y 0.000000 4.924500 0.000000 
#    z -0.040840 0.000000 4.393140 
# 
# 
# High freq. dielectric constant tensor:
#      x y z
#    x 1.771740 0.000000 -0.004080 
#    y 0.000000 1.740330 0.000000 
#    z -0.004080 0.000000 1.782860 
# 
# From -- ./inp_files/182524.got.cif
#   From: 2010.06.25/outbox.cif.g09.slc.cpg/sg15_92_cif.got.tgz:182524.got - 2010.06.28 07:06:18.
