data_PCOD8143915
_publ_section_title
;
Structure prediction by ZEFSAII (Michael W. Deem and Ramdas Pophale) SiO2 
 PCOD8143915
Probable space group: C 2/C
;
_chemical_formula_sum "Si O2"
_cell_formula_units_Z 48
_cell_length_a 17.506106
_cell_length_b 20.178162
_cell_length_c 7.830371
_cell_angle_alpha 90.000000
_cell_angle_beta 52.060478
_cell_angle_gamma 90.000000
_cell_volume 2181.440669
_symmetry_space_group_name_H-M "C 2/C"
_symmetry_group_IT_number 15
_symmetry_cell_setting 'monoclinic'
loop_
_space_group_symop_operation_xyz
x,y,z
-x,y,1/2-z
-x,-y,-z
x,-y,1/2+z
1/2+x,1/2+y,z
1/2-x,1/2+y,1/2-z
1/2-x,1/2-y,-z
1/2+x,1/2-y,1/2+z
loop_
_atom_site_type_symbol
_atom_site_label
_atom_site_fract_x
_atom_site_fract_y
_atom_site_fract_z
Si Si1 0.736864 0.523620 0.957191
Si Si2 0.500000 0.845650 0.250000
Si Si3 0.627658 0.420743 0.303924
Si Si4 0.697849 0.307496 0.974143
Si Si5 0.000000 0.869504 0.750000
Si Si6 0.139103 0.236907 0.203353
Si Si7 0.833671 0.412551 0.639130
O O1 0.711918 0.568703 0.828774
O O2 0.821985 0.471996 0.790301
O O3 0.640374 0.482755 0.154869
O O4 0.776684 0.571968 0.044178
O O5 0.576333 0.802134 0.251113
O O6 0.445593 0.895193 0.455028
O O7 0.526286 0.415673 0.548745
O O8 0.636108 0.352155 0.189272
O O9 0.629342 0.278806 0.918379
O O10 0.786083 0.346620 0.772791
O O11 0.750000 0.250000 0.000000
O O12 0.905232 0.825132 0.840926
O O13 0.250000 0.250000 0.000000
#
# Coordination Sequence:
#
# PCOD8143915 Si02
#       7
#     8   4   8   8   4   8   8
#     4   9  21  43  69  89 138 181 210 285 333 379
#     4  11  24  38  72 102 124 178 227 260 334 410
#     4  10  22  40  65 100 129 174 229 267 340 397
#     4  11  23  39  68  96 135 178 215 276 345 395
#     4  11  24  40  70 100 124 176 227 268 332 408
#     4  11  23  43  65  95 141 171 211 278 344 395
#     4  10  21  41  66  99 128 175 228 266 333 396
#
# _framework density 22.003806999999998
#
# number of rings (size 3 to 8) (size 9 to 14) (size 15 to 20)
#    0.000    1.667    1.667    2.000    4.667    2.000 
#    0.000    0.000    0.000    0.000    0.000    0.000 
#    0.000    0.000    0.000    0.000    0.000    0.000 
#
# Total GULP energy -297509.456015 kJ/mol
# GULP energy per Si atom -12396.227334 kJ/mol
# Density = 2.195373 g / cm^3
# Si number density = 22.003807 Si / 1000 Ang^3
#
#
#
# Elastic Constant Matrix: (Units=GPa)
#
#
# Indices 1 2 3 4 5 6 
#
# 1 85.1379 38.9947 42.2034 0.0000 5.7025 0.0000
# 2 38.9947 90.1675 59.4842 0.0000 0.8585 0.0000
# 3 42.2034 59.4842 164.5041 0.0000 -4.2263 0.0000
# 4 0.0000 0.0000 0.0000 33.9250 0.0000 -1.2376
# 5 5.7025 0.8585 -4.2263 0.0000 44.4964 0.0000
# 6 0.0000 0.0000 0.0000 -1.2376 0.0000 10.8584
#
#
#
# Elastic Compliance Matrix: (Units=1/GPa)
#
#
# Indices 1 2 3 4 5 6 
#
# 1 0.015313 -0.005222 -0.002093 0.000000 -0.002061 0.000000
# 2 -0.005222 0.016373 -0.004583 0.000000 -0.000082 0.000000
# 3 -0.002093 -0.004583 0.008302 0.000000 0.001145 0.000000
# 4 0.000000 0.000000 0.000000 0.029600 0.000000 0.003374
# 5 -0.002061 -0.000082 0.001145 0.000000 0.022848 0.000000
# 6 0.000000 0.000000 0.000000 0.003374 0.000000 0.092479
#
#
# Mechanical properties :
#
#
# Convention : Reuss Voigt Hill
#
# Bulk Modulus (GPa) = 61.75717 69.01935 65.38826
# Shear Modulus (GPa) = 23.35261 31.13111 27.24186
#
# Velocity S-wave (km/s) = 3.26129 3.76547 3.52241
# Velocity P-wave (km/s) = 6.50453 7.09508 6.80621
#
# Compressibility (1/GPa) = 0.01619245
#
# Stress axis : x y z
#
# Youngs Moduli (GPa) = 65.30394 61.07663 120.44615
#
# Poissons Ratio (x) = 0.31893 0.25213
# Poissons Ratio (y) = 0.34101 0.55198
# Poissons Ratio (z) = 0.13670 0.27990
#
# Static dielectric constant tensor:
#      x y z
#    x 3.756780 0.000000 0.284240 
#    y 0.000000 4.256100 0.000000 
#    z 0.284240 0.000000 4.395110 
# 
# 
# High freq. dielectric constant tensor:
#      x y z
#    x 1.841260 0.000000 0.017330 
#    y 0.000000 1.878290 0.000000 
#    z 0.017330 0.000000 1.877330 
# 
# From -- ./inp_files/50081.got.cif
#   From: 2010.06.25/outbox.cif.g09.slc.cpg/sg15_26_cif.got.tgz:50081.got - 2010.06.28 07:06:18.
