data_PCOD8143709
_publ_section_title
;
Structure prediction by ZEFSAII (Michael W. Deem and Ramdas Pophale) SiO2 
 PCOD8143709
Probable space group: C 2/C
;
_chemical_formula_sum "Si O2"
_cell_formula_units_Z 56
_cell_length_a 23.340818
_cell_length_b 11.303333
_cell_length_c 27.588809
_cell_angle_alpha 90.000000
_cell_angle_beta 157.419769
_cell_angle_gamma 90.000000
_cell_volume 2794.862764
_symmetry_space_group_name_H-M "C 2/C"
_symmetry_group_IT_number 15
_symmetry_cell_setting 'monoclinic'
loop_
_space_group_symop_operation_xyz
x,y,z
-x,y,1/2-z
-x,-y,-z
x,-y,1/2+z
1/2+x,1/2+y,z
1/2-x,1/2+y,1/2-z
1/2-x,1/2-y,-z
1/2+x,1/2-y,1/2+z
loop_
_atom_site_type_symbol
_atom_site_label
_atom_site_fract_x
_atom_site_fract_y
_atom_site_fract_z
Si Si1 0.126666 0.911826 0.024291
Si Si2 0.920032 0.886246 0.324697
Si Si3 0.464732 0.828930 0.082116
Si Si4 0.203564 0.215981 0.679346
Si Si5 0.652177 0.040145 0.095466
Si Si6 0.541162 0.980312 0.228457
Si Si7 0.571225 0.759249 0.858441
O O1 0.112071 0.857812 0.067110
O O2 0.281384 0.979976 0.138247
O O3 0.107078 0.801864 0.971908
O O4 0.000763 0.006578 0.914953
O O5 0.882233 0.791109 0.336666
O O6 0.014055 0.830866 0.354581
O O7 0.765652 0.931722 0.181822
O O8 0.628554 0.832362 0.185672
O O9 0.467406 0.878708 0.138323
O O10 0.364076 0.916965 0.972232
O O11 0.217894 0.353463 0.678558
O O12 0.500000 0.000000 0.000000
O O13 0.500000 0.943800 0.250000
O O14 0.479019 0.109223 0.165990
O O15 0.500000 0.727261 0.750000
O O16 0.750000 0.750000 0.000000
#
# Coordination Sequence:
#
# PCOD8143709 Si02
#       7
#     8   8   8   8   8   8   8
#     4  10  22  42  63  97 134 164 215 270 321 397
#     4  12  23  39  70  94 128 179 216 259 345 392
#     4  10  21  41  63  92 134 159 210 270 315 378
#     4  10  22  39  62  95 133 166 204 266 322 401
#     4  11  23  36  59  96 131 164 212 262 318 394
#     4  10  23  44  69  89 126 175 216 271 331 382
#     4  11  27  48  67  97 134 172 233 286 329 398
#
# _framework density 20.036763000000001
#
# number of rings (size 3 to 8) (size 9 to 14) (size 15 to 20)
#    0.000    1.429    2.857    2.143    4.000    1.714 
#    0.000    0.714    0.000    0.000    0.000    0.000 
#    0.000    0.000    0.000    0.000    0.000    0.000 
#
# Total GULP energy -347222.676159 kJ/mol
# GULP energy per Si atom -12400.809863 kJ/mol
# Density = 1.999116 g / cm^3
# Si number density = 20.036763 Si / 1000 Ang^3
#
#
#
# Elastic Constant Matrix: (Units=GPa)
#
#
# Indices 1 2 3 4 5 6 
#
# 1 110.3009 45.5661 40.3904 0.0000 -0.0536 -0.0002
# 2 45.5661 82.4948 42.5658 0.0010 1.0164 0.0021
# 3 40.3904 42.5658 114.0457 0.0042 4.1974 0.0080
# 4 0.0000 0.0010 0.0042 40.5075 0.0034 3.5451
# 5 -0.0536 1.0164 4.1974 0.0034 30.0744 0.0051
# 6 -0.0002 0.0021 0.0080 3.5451 0.0051 24.3925
#
#
#
# Elastic Compliance Matrix: (Units=1/GPa)
#
#
# Indices 1 2 3 4 5 6 
#
# 1 0.012198 -0.005579 -0.002257 0.000000 0.000525 0.000001
# 2 -0.005579 0.017568 -0.004582 0.000000 0.000036 0.000000
# 3 -0.002257 -0.004582 0.011331 -0.000001 -0.001431 -0.000003
# 4 0.000000 0.000000 -0.000001 0.025005 -0.000002 -0.003634
# 5 0.000525 0.000036 -0.001431 -0.000002 0.033450 -0.000006
# 6 0.000001 0.000000 -0.000003 -0.003634 -0.000006 0.041524
#
#
# Mechanical properties :
#
#
# Convention : Reuss Voigt Hill
#
# Bulk Modulus (GPa) = 61.50408 62.65400 62.07904
# Shear Modulus (GPa) = 29.18314 30.88283 30.03298
#
# Velocity S-wave (km/s) = 3.82053 3.93021 3.87576
# Velocity P-wave (km/s) = 7.08690 7.20644 7.14692
#
# Compressibility (1/GPa) = 0.01625908
#
# Stress axis : x y z
#
# Youngs Moduli (GPa) = 81.98293 56.92288 88.25683
#
# Poissons Ratio (x) = 0.31759 0.19918
# Poissons Ratio (y) = 0.45741 0.40441
# Poissons Ratio (z) = 0.18502 0.26083
#
# Static dielectric constant tensor:
#      x y z
#    x 3.452510 -0.000010 -0.138200 
#    y -0.000010 3.690800 -0.000020 
#    z -0.138200 -0.000020 3.819450 
# 
# 
# High freq. dielectric constant tensor:
#      x y z
#    x 1.769300 0.000000 -0.005240 
#    y 0.000000 1.787450 0.000000 
#    z -0.005240 0.000000 1.800470 
# 
# From -- ./inp_files/111119.got.cif
#   From: 2010.06.25/outbox.cif.g09.slc.cpg/sg15_56_cif.got.tgz:111119.got - 2010.06.28 07:06:18.
