data_PCOD8143767
_publ_section_title
;
Structure prediction by ZEFSAII (Michael W. Deem and Ramdas Pophale) SiO2 
 PCOD8143767
Probable space group: C 2/C
;
_chemical_formula_sum "Si O2"
_cell_formula_units_Z 52
_cell_length_a 17.692465
_cell_length_b 8.613897
_cell_length_c 18.702487
_cell_angle_alpha 90.000000
_cell_angle_beta 70.381365
_cell_angle_gamma 90.000000
_cell_volume 2684.815508
_symmetry_space_group_name_H-M "C 2/C"
_symmetry_group_IT_number 15
_symmetry_cell_setting 'monoclinic'
loop_
_space_group_symop_operation_xyz
x,y,z
-x,y,1/2-z
-x,-y,-z
x,-y,1/2+z
1/2+x,1/2+y,z
1/2-x,1/2+y,1/2-z
1/2-x,1/2-y,-z
1/2+x,1/2-y,1/2+z
loop_
_atom_site_type_symbol
_atom_site_label
_atom_site_fract_x
_atom_site_fract_y
_atom_site_fract_z
Si Si1 0.736186 0.899279 0.827271
Si Si2 0.104265 0.389236 0.436242
Si Si3 0.542993 0.017903 0.600943
Si Si4 0.736664 0.673942 0.427879
Si Si5 0.334412 0.695463 0.774436
Si Si6 0.708270 0.833835 0.077948
Si Si7 0.000000 0.691002 0.250000
O O1 0.692815 0.815781 0.776495
O O2 0.787714 0.773407 0.853686
O O3 0.669322 0.975570 0.900086
O O4 0.797220 0.025322 0.774290
O O5 0.065773 0.409181 0.526667
O O6 0.151036 0.224850 0.421221
O O7 0.036848 0.385978 0.395797
O O8 0.614665 0.137406 0.593024
O O9 0.527736 0.917599 0.676053
O O10 0.750000 0.750000 0.500000
O O11 0.809653 0.738831 0.358815
O O12 0.740365 0.489438 0.427311
O O13 0.430713 0.693384 0.744468
O O14 0.750000 0.750000 0.000000
#
# Coordination Sequence:
#
# PCOD8143767 Si02
#       7
#     8   8   8   8   8   8   4
#     4  11  23  41  63  93 127 165 215 261 312 384
#     4  10  21  41  64  92 127 167 214 259 319 374
#     4  11  22  38  66  95 129 169 208 260 327 381
#     4  11  20  39  64  93 122 168 212 260 304 375
#     4  11  23  40  63  92 125 164 210 262 319 375
#     4  12  22  39  64  95 126 170 216 257 313 381
#     4  12  22  40  64  96 126 168 210 264 328 382
#
# _framework density 19.368183999999999
#
# number of rings (size 3 to 8) (size 9 to 14) (size 15 to 20)
#    0.000    0.923    6.154    1.846    0.000    0.000 
#    0.000    6.154    0.000    0.000    0.000    0.000 
#    0.000    0.000    0.000    0.000    0.000    0.000 
#
# Total GULP energy -322422.586970 kJ/mol
# GULP energy per Si atom -12400.868730 kJ/mol
# Density = 1.932410 g / cm^3
# Si number density = 19.368184 Si / 1000 Ang^3
#
#
#
# Elastic Constant Matrix: (Units=GPa)
#
#
# Indices 1 2 3 4 5 6 
#
# 1 173.2010 64.2865 28.6876 0.0000 5.5347 0.0000
# 2 64.2865 121.6695 22.6863 0.0000 5.2112 0.0000
# 3 28.6876 22.6863 79.8615 0.0000 5.4175 0.0000
# 4 0.0000 0.0000 0.0000 30.5187 0.0000 2.0169
# 5 5.5347 5.2112 5.4175 0.0000 27.3888 0.0000
# 6 0.0000 0.0000 0.0000 2.0169 0.0000 34.9791
#
#
#
# Elastic Compliance Matrix: (Units=1/GPa)
#
#
# Indices 1 2 3 4 5 6 
#
# 1 0.007384 -0.003582 -0.001602 0.000000 -0.000494 0.000000
# 2 -0.003582 0.010454 -0.001619 0.000000 -0.000945 0.000000
# 3 -0.001602 -0.001619 0.013698 0.000000 -0.002078 0.000000
# 4 0.000000 0.000000 0.000000 0.032892 0.000000 -0.001897
# 5 -0.000494 -0.000945 -0.002078 0.000000 0.037202 0.000000
# 6 0.000000 0.000000 0.000000 -0.001897 0.000000 0.028698
#
#
# Mechanical properties :
#
#
# Convention : Reuss Voigt Hill
#
# Bulk Modulus (GPa) = 55.76815 67.33920 61.55367
# Shear Modulus (GPa) = 33.35354 35.84876 34.60115
#
# Velocity S-wave (km/s) = 4.15430 4.30689 4.23128
# Velocity P-wave (km/s) = 7.20188 7.71854 7.46468
#
# Compressibility (1/GPa) = 0.01793138
#
# Stress axis : x y z
#
# Youngs Moduli (GPa) = 135.42575 95.65884 73.00442
#
# Poissons Ratio (x) = 0.34263 0.11692
# Poissons Ratio (y) = 0.48506 0.11819
# Poissons Ratio (z) = 0.21689 0.15486
#
# Static dielectric constant tensor:
#      x y z
#    x 3.963290 0.000000 -0.001410 
#    y 0.000000 3.516940 0.000000 
#    z -0.001410 0.000000 3.639580 
# 
# 
# High freq. dielectric constant tensor:
#      x y z
#    x 1.764310 0.000000 0.005000 
#    y 0.000000 1.737950 0.000000 
#    z 0.005000 0.000000 1.770070 
# 
# From -- ./inp_files/209035.got.cif
#   From: 2010.06.25/outbox.cif.g09.slc.cpg/sg15_105_cif.got.tgz:209035.got - 2010.06.28 07:06:18.
