data_PCOD8143889
_publ_section_title
;
Structure prediction by ZEFSAII (Michael W. Deem and Ramdas Pophale) SiO2 
 PCOD8143889
Probable space group: C 2/C
;
_chemical_formula_sum "Si O2"
_cell_formula_units_Z 64
_cell_length_a 15.218960
_cell_length_b 11.991212
_cell_length_c 26.604127
_cell_angle_alpha 90.000000
_cell_angle_beta 40.776855
_cell_angle_gamma 90.000000
_cell_volume 3170.929353
_symmetry_space_group_name_H-M "C 2/C"
_symmetry_group_IT_number 15
_symmetry_cell_setting 'monoclinic'
loop_
_space_group_symop_operation_xyz
x,y,z
-x,y,1/2-z
-x,-y,-z
x,-y,1/2+z
1/2+x,1/2+y,z
1/2-x,1/2+y,1/2-z
1/2-x,1/2-y,-z
1/2+x,1/2-y,1/2+z
loop_
_atom_site_type_symbol
_atom_site_label
_atom_site_fract_x
_atom_site_fract_y
_atom_site_fract_z
Si Si1 0.759656 0.773440 0.677330
Si Si2 0.880607 0.566052 0.337517
Si Si3 0.554001 0.184417 0.345959
Si Si4 0.849265 0.066825 0.826361
Si Si5 0.397465 0.913869 0.568866
Si Si6 0.844354 0.152061 0.938734
Si Si7 0.069561 0.723817 0.537396
Si Si8 0.238677 0.572822 0.531289
O O1 0.727449 0.860654 0.646604
O O2 0.699841 0.816491 0.756367
O O3 0.687805 0.655125 0.700397
O O4 0.916515 0.753284 0.615364
O O5 0.812200 0.455296 0.390328
O O6 0.000000 0.525093 0.250000
O O7 0.940268 0.636745 0.357760
O O8 0.559074 0.109342 0.393199
O O9 0.498708 0.308786 0.383193
O O10 0.826736 0.133752 0.887296
O O11 0.000000 0.024422 0.750000
O O12 0.754383 0.958987 0.865933
O O13 0.406301 0.801801 0.531908
O O14 0.500000 0.000000 0.500000
O O15 0.750000 0.250000 0.000000
O O16 0.812471 0.036408 0.979067
O O17 0.114852 0.615331 0.550239
O O18 0.151670 0.831682 0.516467
#
# Coordination Sequence:
#
# PCOD8143889 Si02
#       8
#     8   8   8   8   8   8   8   8
#     4  11  22  42  64  95 135 167 215 281 332 392
#     4  10  21  41  66  93 128 170 214 266 327 389
#     4  11  23  40  65 100 129 164 218 272 333 384
#     4  12  22  40  67  96 132 169 221 282 332 388
#     4  12  24  42  68  99 127 175 228 273 326 401
#     4  12  21  38  71  97 119 168 222 266 320 390
#     4  11  26  44  64  91 138 174 216 274 332 396
#     4  11  24  45  64  93 130 179 217 265 336 393
#
# _framework density 20.183357000000001
#
# number of rings (size 3 to 8) (size 9 to 14) (size 15 to 20)
#    0.000    0.750    6.250    1.875    1.750    1.500 
#    2.250    0.000    0.000    0.000    0.000    0.000 
#    0.000    0.000    0.000    0.000    0.000    0.000 
#
# Total GULP energy -396775.824160 kJ/mol
# GULP energy per Si atom -12399.244505 kJ/mol
# Density = 2.013742 g / cm^3
# Si number density = 20.183357 Si / 1000 Ang^3
#
#
#
# Elastic Constant Matrix: (Units=GPa)
#
#
# Indices 1 2 3 4 5 6 
#
# 1 109.9005 47.0844 74.3052 0.0000 -0.5372 0.0000
# 2 47.0844 102.7400 59.2007 0.0000 1.4733 0.0000
# 3 74.3052 59.2007 135.2992 0.0000 7.3487 0.0000
# 4 0.0000 0.0000 0.0000 20.3107 0.0000 2.0561
# 5 -0.5372 1.4733 7.3487 0.0000 35.2508 0.0000
# 6 0.0000 0.0000 0.0000 2.0561 0.0000 28.1493
#
#
#
# Elastic Compliance Matrix: (Units=1/GPa)
#
#
# Indices 1 2 3 4 5 6 
#
# 1 0.015195 -0.002840 -0.007203 0.000000 0.001852 0.000000
# 2 -0.002840 0.013560 -0.004390 0.000000 0.000305 0.000000
# 3 -0.007203 -0.004390 0.013416 0.000000 -0.002723 0.000000
# 4 0.000000 0.000000 0.000000 0.049602 0.000000 -0.003623
# 5 0.001852 0.000305 -0.002723 0.000000 0.028951 0.000000
# 6 0.000000 0.000000 0.000000 -0.003623 0.000000 0.035789
#
#
# Mechanical properties :
#
#
# Convention : Reuss Voigt Hill
#
# Bulk Modulus (GPa) = 75.16107 78.79114 76.97610
# Shear Modulus (GPa) = 26.34159 27.89881 27.12020
#
# Velocity S-wave (km/s) = 3.61656 3.72192 3.66962
# Velocity P-wave (km/s) = 7.39995 7.58898 7.49506
#
# Compressibility (1/GPa) = 0.01330476
#
# Stress axis : x y z
#
# Youngs Moduli (GPa) = 65.81211 73.74579 74.53941
#
# Poissons Ratio (x) = 0.20941 0.53690
# Poissons Ratio (y) = 0.18688 0.32725
# Poissons Ratio (z) = 0.47404 0.32377
#
# Static dielectric constant tensor:
#      x y z
#    x 3.788920 0.000000 0.153040 
#    y 0.000000 3.851470 0.000000 
#    z 0.153040 0.000000 4.057180 
# 
# 
# High freq. dielectric constant tensor:
#      x y z
#    x 1.779240 0.000000 0.004520 
#    y 0.000000 1.780300 0.000000 
#    z 0.004520 0.000000 1.806190 
# 
# From -- ./inp_files/296135.got.cif
#   From: 2010.06.25/outbox.cif.g09.slc.cpg/sg15_149_cif.got.tgz:296135.got - 2010.06.28 07:06:18.
