data_PCOD8143801
_publ_section_title
;
Structure prediction by ZEFSAII (Michael W. Deem and Ramdas Pophale) SiO2 
 PCOD8143801
Probable space group: C 2/C
;
_chemical_formula_sum "Si O2"
_cell_formula_units_Z 44
_cell_length_a 18.075973
_cell_length_b 15.316753
_cell_length_c 8.577304
_cell_angle_alpha 90.000000
_cell_angle_beta 79.209059
_cell_angle_gamma 90.000000
_cell_volume 2332.763955
_symmetry_space_group_name_H-M "C 2/C"
_symmetry_group_IT_number 15
_symmetry_cell_setting 'monoclinic'
loop_
_space_group_symop_operation_xyz
x,y,z
-x,y,1/2-z
-x,-y,-z
x,-y,1/2+z
1/2+x,1/2+y,z
1/2-x,1/2+y,1/2-z
1/2-x,1/2-y,-z
1/2+x,1/2-y,1/2+z
loop_
_atom_site_type_symbol
_atom_site_label
_atom_site_fract_x
_atom_site_fract_y
_atom_site_fract_z
Si Si1 0.910561 0.888222 0.282015
Si Si2 0.726356 0.071296 0.309910
Si Si3 0.676416 0.784690 0.610035
Si Si4 0.602853 0.064123 0.971540
Si Si5 0.000000 0.477338 0.250000
Si Si6 0.829994 0.024602 0.531303
O O1 0.881659 0.791315 0.326748
O O2 0.881227 0.916976 0.123511
O O3 0.000000 0.888052 0.250000
O O4 0.881915 0.953406 0.426481
O O5 0.694796 0.164028 0.263370
O O6 0.789487 0.086174 0.418549
O O7 0.659140 0.012478 0.400992
O O8 0.763181 0.023490 0.148051
O O9 0.750000 0.750000 0.500000
O O10 0.643512 0.845503 0.487156
O O11 0.540806 0.082512 0.862460
O O12 0.562458 0.038425 0.147571
#
# Coordination Sequence:
#
# PCOD8143801 Si02
#       6
#     8   8   8   8   4   8
#     4  11  24  40  64  89 124 164 202 262 310 369
#     4  11  19  39  66  91 120 164 204 253 303 367
#     4  12  23  39  63  95 125 153 210 262 302 355
#     4  11  21  38  62  90 128 165 200 246 311 378
#     4  10  22  36  62  92 122 174 196 238 312 390
#     4  10  21  41  65  87 117 165 212 247 312 364
#
# _framework density 18.861744999999999
#
# number of rings (size 3 to 8) (size 9 to 14) (size 15 to 20)
#    0.000    1.091    5.455    1.636    1.273    0.727 
#    0.000    1.818    2.000    0.000    0.000    0.000 
#    0.000    0.000    0.000    0.000    0.000    0.000 
#
# Total GULP energy -272827.459819 kJ/mol
# GULP energy per Si atom -12401.248174 kJ/mol
# Density = 1.881882 g / cm^3
# Si number density = 18.861745 Si / 1000 Ang^3
#
#
#
# Elastic Constant Matrix: (Units=GPa)
#
#
# Indices 1 2 3 4 5 6 
#
# 1 114.5252 59.6299 52.8582 0.0000 -10.9394 0.0000
# 2 59.6299 114.9835 51.3666 0.0000 0.7442 0.0000
# 3 52.8582 51.3666 112.5200 0.0000 -2.7797 0.0000
# 4 0.0000 0.0000 0.0000 41.6487 0.0000 -8.2151
# 5 -10.9394 0.7442 -2.7797 0.0000 44.0804 0.0000
# 6 0.0000 0.0000 0.0000 -8.2151 0.0000 57.6420
#
#
#
# Elastic Compliance Matrix: (Units=1/GPa)
#
#
# Indices 1 2 3 4 5 6 
#
# 1 0.013613 -0.005350 -0.003873 0.000000 0.003224 0.000000
# 2 -0.005350 0.013039 -0.003483 0.000000 -0.001768 0.000000
# 3 -0.003873 -0.003483 0.012293 0.000000 -0.000127 0.000000
# 4 0.000000 0.000000 0.000000 0.024705 0.000000 0.003521
# 5 0.003224 -0.001768 -0.000127 0.000000 0.023508 0.000000
# 6 0.000000 0.000000 0.000000 0.003521 0.000000 0.017850
#
#
# Mechanical properties :
#
#
# Convention : Reuss Voigt Hill
#
# Bulk Modulus (GPa) = 73.89023 74.41536 74.15279
# Shear Modulus (GPa) = 37.05608 40.55247 38.80428
#
# Velocity S-wave (km/s) = 4.43721 4.64182 4.54067
# Velocity P-wave (km/s) = 8.09391 8.26241 8.17860
#
# Compressibility (1/GPa) = 0.01353359
#
# Stress axis : x y z
#
# Youngs Moduli (GPa) = 73.45966 76.69421 81.34516
#
# Poissons Ratio (x) = 0.41034 0.31503
# Poissons Ratio (y) = 0.39304 0.28329
# Poissons Ratio (z) = 0.28449 0.26709
#
# Static dielectric constant tensor:
#      x y z
#    x 3.660280 0.000000 0.096030 
#    y 0.000000 3.269450 0.000000 
#    z 0.096030 0.000000 3.757100 
# 
# 
# High freq. dielectric constant tensor:
#      x y z
#    x 1.754340 0.000000 0.002520 
#    y 0.000000 1.710900 0.000000 
#    z 0.002520 0.000000 1.749140 
# 
# From -- ./inp_files/46979.got.cif
#   From: 2010.06.25/outbox.cif.g09.slc.cpg/sg15_24_cif.got.tgz:46979.got - 2010.06.28 07:06:18.
