data_PCOD8143748
_publ_section_title
;
Structure prediction by ZEFSAII (Michael W. Deem and Ramdas Pophale) SiO2 
 PCOD8143748
Probable space group: C 2/C
;
_chemical_formula_sum "Si O2"
_cell_formula_units_Z 44
_cell_length_a 9.131392
_cell_length_b 23.474105
_cell_length_c 11.776775
_cell_angle_alpha 90.000000
_cell_angle_beta 123.242167
_cell_angle_gamma 90.000000
_cell_volume 2111.281955
_symmetry_space_group_name_H-M "C 2/C"
_symmetry_group_IT_number 15
_symmetry_cell_setting 'monoclinic'
loop_
_space_group_symop_operation_xyz
x,y,z
-x,y,1/2-z
-x,-y,-z
x,-y,1/2+z
1/2+x,1/2+y,z
1/2-x,1/2+y,1/2-z
1/2-x,1/2-y,-z
1/2+x,1/2-y,1/2+z
loop_
_atom_site_type_symbol
_atom_site_label
_atom_site_fract_x
_atom_site_fract_y
_atom_site_fract_z
Si Si1 0.397903 0.971165 0.810421
Si Si2 0.649250 0.085448 0.585878
Si Si3 0.146664 0.875223 0.725700
Si Si4 0.566621 0.698609 0.533718
Si Si5 0.115382 0.678084 0.986661
Si Si6 0.000000 0.848285 0.250000
O O1 0.500000 0.998813 0.750000
O O2 0.235317 0.931116 0.709863
O O3 0.321306 0.024919 0.842797
O O4 0.540527 0.929666 0.928073
O O5 0.530136 0.130623 0.605025
O O6 0.838571 0.112138 0.642624
O O7 0.275419 0.835903 0.853720
O O8 0.000000 0.897442 0.750000
O O9 0.073977 0.841153 0.587671
O O10 0.762415 0.683698 0.572944
O O11 0.519063 0.762771 0.476241
O O12 0.553814 0.690348 0.664389
#
# Coordination Sequence:
#
# PCOD8143748 Si02
#       6
#     8   8   8   8   8   4
#     4  10  21  41  64  86 118 171 203 254 304 363
#     4  10  24  41  59  92 127 156 212 249 310 364
#     4   9  19  39  64  89 119 163 208 251 302 366
#     4  10  22  40  64  94 125 161 204 252 311 368
#     4   9  21  42  65  87 121 168 207 249 305 375
#     4  12  26  38  58 102 126 160 196 266 304 366
#
# _framework density 20.840420000000002
#
# number of rings (size 3 to 8) (size 9 to 14) (size 15 to 20)
#    0.000    2.182    0.000    1.091    6.364    0.727 
#    6.545    1.818    0.000    0.000    0.000    0.000 
#    0.000    0.000    0.000    0.000    0.000    0.000 
#
# Total GULP energy -272673.258486 kJ/mol
# GULP energy per Si atom -12394.239022 kJ/mol
# Density = 2.079299 g / cm^3
# Si number density = 20.840420 Si / 1000 Ang^3
#
#
#
# Elastic Constant Matrix: (Units=GPa)
#
#
# Indices 1 2 3 4 5 6 
#
# 1 101.9898 52.8120 41.5026 0.0000 -3.3576 0.0000
# 2 52.8120 111.5551 39.1510 0.0000 17.1721 0.0000
# 3 41.5026 39.1510 63.1841 0.0000 -9.8755 0.0000
# 4 0.0000 0.0000 0.0000 16.7809 0.0000 5.4715
# 5 -3.3576 17.1721 -9.8755 0.0000 34.5270 0.0000
# 6 0.0000 0.0000 0.0000 5.4715 0.0000 0.4220
#
#
#
# Elastic Compliance Matrix: (Units=1/GPa)
#
#
# Indices 1 2 3 4 5 6 
#
# 1 0.015223 -0.005347 -0.006321 0.000000 0.002332 0.000000
# 2 -0.005347 0.015993 -0.008083 0.000000 -0.010786 0.000000
# 3 -0.006321 -0.008083 0.026714 0.000000 0.011046 0.000000
# 4 0.000000 0.000000 0.000000 -0.018465 0.000000 0.239395
# 5 0.002332 -0.010786 0.011046 0.000000 0.037714 0.000000
# 6 0.000000 0.000000 0.000000 0.239395 0.000000 -0.734214
#
#
# Mechanical properties :
#
#
# Convention : Reuss Voigt Hill
#
# Bulk Modulus (GPa) = 54.27056 60.40667 57.33861
# Shear Modulus (GPa) = -8.17810 19.89688 5.85939
#
# Velocity S-wave (km/s) = -1.98310 3.09322 1.67859
# Velocity P-wave (km/s) = 4.56662 6.46572 5.59730
#
# Compressibility (1/GPa) = 0.01842620
#
# Stress axis : x y z
#
# Youngs Moduli (GPa) = 65.69052 62.52815 37.43332
#
# Poissons Ratio (x) = 0.33435 0.23663
# Poissons Ratio (y) = 0.35126 0.30258
# Poissons Ratio (z) = 0.41526 0.50543
#
# Static dielectric constant tensor:
#      x y z
#    x 3.801860 0.000000 0.102680 
#    y 0.000000 3.738370 0.000000 
#    z 0.102680 0.000000 3.645950 
# 
# 
# High freq. dielectric constant tensor:
#      x y z
#    x 1.815640 0.000000 0.005130 
#    y 0.000000 1.823200 0.000000 
#    z 0.005130 0.000000 1.806500 
# 
# From -- ./inp_files/78103.got.cif
#   From: 2010.06.25/outbox.cif.g09.slc.cpg/sg15_40_cif.got.tgz:78103.got - 2010.06.28 07:06:18.
