data_PCOD8143327
_publ_section_title
;
Structure prediction by ZEFSAII (Michael W. Deem and Ramdas Pophale) SiO2 
 PCOD8143327
Probable space group: C 2/C
;
_chemical_formula_sum "Si O2"
_cell_formula_units_Z 32
_cell_length_a 29.573625
_cell_length_b 7.222241
_cell_length_c 15.553254
_cell_angle_alpha 90.000000
_cell_angle_beta 154.368818
_cell_angle_gamma 90.000000
_cell_volume 1437.013052
_symmetry_space_group_name_H-M "C 2/C"
_symmetry_group_IT_number 15
_symmetry_cell_setting 'monoclinic'
loop_
_space_group_symop_operation_xyz
x,y,z
-x,y,1/2-z
-x,-y,-z
x,-y,1/2+z
1/2+x,1/2+y,z
1/2-x,1/2+y,1/2-z
1/2-x,1/2-y,-z
1/2+x,1/2-y,1/2+z
loop_
_atom_site_type_symbol
_atom_site_label
_atom_site_fract_x
_atom_site_fract_y
_atom_site_fract_z
Si Si1 0.843657 0.163726 0.606905
Si Si2 0.768364 0.815196 0.389924
Si Si3 0.038037 0.651962 0.499064
Si Si4 0.653719 0.057061 0.539688
O O1 0.750000 0.250000 0.500000
O O2 0.951710 0.185823 0.844979
O O3 0.852618 0.267617 0.532305
O O4 0.824543 0.947318 0.555456
O O5 0.756868 0.918060 0.277564
O O6 0.837211 0.630769 0.499565
O O7 0.650433 0.764938 0.221293
O O8 0.000000 0.500000 0.500000
O O9 0.051702 0.555090 0.427635
#
# Coordination Sequence:
#
# PCOD8143327 Si02
#       4
#     8   8   8   8
#     4  12  22  41  69  97 134 175 225 282 340 411
#     4  10  21  41  68  90 134 178 218 277 345 394
#     4  10  21  41  65  94 130 175 220 279 335 394
#     4  10  21  40  65  92 134 173 221 280 336 401
#
# _framework density 22.268412000000001
#
# number of rings (size 3 to 8) (size 9 to 14) (size 15 to 20)
#    1.500    0.000    5.000    0.750    0.000    1.000 
#    0.000   13.750    0.000    0.000    0.000    0.000 
#    0.000    0.000    0.000    0.000    0.000    0.000 
#
# Total GULP energy -198306.137313 kJ/mol
# GULP energy per Si atom -12394.133582 kJ/mol
# Density = 2.221773 g / cm^3
# Si number density = 22.268412 Si / 1000 Ang^3
#
#
#
# Elastic Constant Matrix: (Units=GPa)
#
#
# Indices 1 2 3 4 5 6 
#
# 1 93.3484 -8.9121 10.7932 0.0000 22.7459 0.0000
# 2 -8.9121 60.8535 38.1667 0.0000 11.2901 0.0000
# 3 10.7932 38.1667 115.2940 0.0000 20.6230 0.0000
# 4 0.0000 0.0000 0.0000 37.7231 0.0000 3.4515
# 5 22.7459 11.2901 20.6230 0.0000 34.6903 0.0000
# 6 0.0000 0.0000 0.0000 3.4515 0.0000 26.0478
#
#
#
# Elastic Compliance Matrix: (Units=1/GPa)
#
#
# Indices 1 2 3 4 5 6 
#
# 1 0.013638 0.004438 -0.000994 0.000000 -0.009796 0.000000
# 2 0.004438 0.022463 -0.006740 0.000000 -0.006214 0.000000
# 3 -0.000994 -0.006740 0.011737 0.000000 -0.004132 0.000000
# 4 0.000000 0.000000 0.000000 0.026834 0.000000 -0.003556
# 5 -0.009796 -0.006214 -0.004132 0.000000 0.039728 0.000000
# 6 0.000000 0.000000 0.000000 -0.003556 0.000000 0.038862
#
#
# Mechanical properties :
#
#
# Convention : Reuss Voigt Hill
#
# Bulk Modulus (GPa) = 24.24456 38.84352 31.54404
# Shear Modulus (GPa) = 28.80132 34.98878 31.89505
#
# Velocity S-wave (km/s) = 3.60025 3.96817 3.78868
# Velocity P-wave (km/s) = 5.30975 6.20293 5.77364
#
# Compressibility (1/GPa) = 0.04124636
#
# Stress axis : x y z
#
# Youngs Moduli (GPa) = 73.32410 44.51768 85.20139
#
# Poissons Ratio (x) = -0.19757 0.08466
# Poissons Ratio (y) = -0.32541 0.57427
# Poissons Ratio (z) = 0.07286 0.30005
#
# Static dielectric constant tensor:
#      x y z
#    x 4.105660 0.000000 0.086310 
#    y 0.000000 3.706390 0.000000 
#    z 0.086310 0.000000 4.052230 
# 
# 
# High freq. dielectric constant tensor:
#      x y z
#    x 1.883560 0.000000 0.000390 
#    y 0.000000 1.852430 0.000000 
#    z 0.000390 0.000000 1.869880 
# 
# From -- ./inp_files/223768.got.cif
#   From: 2010.06.25/outbox.cif.g09.slc.cpg/sg15_112_cif.got.tgz:223768.got - 2010.06.28 07:06:18.
