data_PCOD8143908
_publ_section_title
;
Structure prediction by ZEFSAII (Michael W. Deem and Ramdas Pophale) SiO2 
 PCOD8143908
Probable space group: C 2/C
;
_chemical_formula_sum "Si O2"
_cell_formula_units_Z 40
_cell_length_a 11.775476
_cell_length_b 11.698011
_cell_length_c 12.231585
_cell_angle_alpha 90.000000
_cell_angle_beta 84.520078
_cell_angle_gamma 90.000000
_cell_volume 1677.196084
_symmetry_space_group_name_H-M "C 2/C"
_symmetry_group_IT_number 15
_symmetry_cell_setting 'monoclinic'
loop_
_space_group_symop_operation_xyz
x,y,z
-x,y,1/2-z
-x,-y,-z
x,-y,1/2+z
1/2+x,1/2+y,z
1/2-x,1/2+y,1/2-z
1/2-x,1/2-y,-z
1/2+x,1/2-y,1/2+z
loop_
_atom_site_type_symbol
_atom_site_label
_atom_site_fract_x
_atom_site_fract_y
_atom_site_fract_z
Si Si1 0.041095 0.802560 0.622601
Si Si2 0.706625 0.260410 0.351163
Si Si3 0.012241 0.055554 0.875018
Si Si4 0.490760 0.875619 0.546025
Si Si5 0.828027 0.758830 0.389661
O O1 0.174277 0.762595 0.597159
O O2 0.976244 0.708996 0.557468
O O3 0.000000 0.796540 0.750000
O O4 0.008635 0.927648 0.568142
O O5 0.632481 0.375566 0.389847
O O6 0.630668 0.149567 0.387070
O O7 0.737730 0.265248 0.219542
O O8 0.904032 0.132064 0.907808
O O9 0.000000 0.021584 0.750000
O O10 0.589875 0.853153 0.626194
O O11 0.500000 0.000000 0.500000
O O12 0.750000 0.750000 0.500000
#
# Coordination Sequence:
#
# PCOD8143908 Si02
#       5
#     8   8   8   8   8
#     4  11  23  43  69 102 133 174 236 278 342 422
#     4  10  22  44  68  94 137 178 223 294 344 403
#     4   8  19  40  66  94 130 170 223 281 338 400
#     4  11  25  43  62  98 141 178 227 280 345 418
#     4  10  21  41  66  97 132 178 227 277 352 413
#
# _framework density 23.849328
#
# number of rings (size 3 to 8) (size 9 to 14) (size 15 to 20)
#    0.000    2.000    0.000    3.600    2.800    4.800 
#   18.000    2.000    0.000    0.000    0.000    0.000 
#    0.000    0.000    0.000    0.000    0.000    0.000 
#
# Total GULP energy -247778.178641 kJ/mol
# GULP energy per Si atom -12388.908932 kJ/mol
# Density = 2.379505 g / cm^3
# Si number density = 23.849328 Si / 1000 Ang^3
#
#
#
# Elastic Constant Matrix: (Units=GPa)
#
#
# Indices 1 2 3 4 5 6 
#
# 1 101.2549 36.9676 14.9281 0.0000 -0.5673 0.0000
# 2 36.9676 182.9818 50.8096 0.0000 5.6913 0.0000
# 3 14.9281 50.8096 80.3077 0.0000 -18.2585 0.0000
# 4 0.0000 0.0000 0.0000 42.4556 0.0000 0.0441
# 5 -0.5673 5.6913 -18.2585 0.0000 47.5560 0.0000
# 6 0.0000 0.0000 0.0000 0.0441 0.0000 18.8562
#
#
#
# Elastic Compliance Matrix: (Units=1/GPa)
#
#
# Indices 1 2 3 4 5 6 
#
# 1 0.010700 -0.001962 -0.000729 0.000000 0.000083 0.000000
# 2 -0.001962 0.007305 -0.004888 0.000000 -0.002774 0.000000
# 3 -0.000729 -0.004888 0.017323 0.000000 0.007227 0.000000
# 4 0.000000 0.000000 0.000000 0.023554 0.000000 -0.000055
# 5 0.000083 -0.002774 0.007227 0.000000 0.024136 0.000000
# 6 0.000000 0.000000 0.000000 -0.000055 0.000000 0.053033
#
#
# Mechanical properties :
#
#
# Convention : Reuss Voigt Hill
#
# Bulk Modulus (GPa) = 49.57599 63.32835 56.45217
# Shear Modulus (GPa) = 31.65915 39.22950 35.44432
#
# Velocity S-wave (km/s) = 3.64739 4.06012 3.85928
# Velocity P-wave (km/s) = 6.21050 6.97070 6.60155
#
# Compressibility (1/GPa) = 0.02017106
#
# Stress axis : x y z
#
# Youngs Moduli (GPa) = 93.45545 136.89484 57.72610
#
# Poissons Ratio (x) = 0.26858 0.04208
# Poissons Ratio (y) = 0.18335 0.28215
# Poissons Ratio (z) = 0.06813 0.66911
#
# Static dielectric constant tensor:
#      x y z
#    x 50.839360 0.000000 32.555610 
#    y 0.000000 4.363990 0.000000 
#    z 32.555610 0.000000 27.503990 
# 
# 
# High freq. dielectric constant tensor:
#      x y z
#    x 1.942050 0.000000 0.006490 
#    y 0.000000 1.931350 0.000000 
#    z 0.006490 0.000000 1.994150 
# 
# From -- ./inp_files/141736.got.cif
#   From: 2010.06.25/outbox.cif.g09.slc.cpg/sg15_71_cif.got.tgz:141736.got - 2010.06.28 07:06:18.
