data_PCOD8143159
_publ_section_title
;
Structure prediction by ZEFSAII (Michael W. Deem and Ramdas Pophale) SiO2 
 PCOD8143159
Probable space group: C 2/C
;
_chemical_formula_sum "Si O2"
_cell_formula_units_Z 40
_cell_length_a 8.439460
_cell_length_b 31.224275
_cell_length_c 11.811131
_cell_angle_alpha 90.000000
_cell_angle_beta 40.339722
_cell_angle_gamma 90.000000
_cell_volume 2014.728075
_symmetry_space_group_name_H-M "C 2/C"
_symmetry_group_IT_number 15
_symmetry_cell_setting 'monoclinic'
loop_
_space_group_symop_operation_xyz
x,y,z
-x,y,1/2-z
-x,-y,-z
x,-y,1/2+z
1/2+x,1/2+y,z
1/2-x,1/2+y,1/2-z
1/2-x,1/2-y,-z
1/2+x,1/2-y,1/2+z
loop_
_atom_site_type_symbol
_atom_site_label
_atom_site_fract_x
_atom_site_fract_y
_atom_site_fract_z
Si Si1 0.760886 0.272592 0.112472
Si Si2 0.727838 0.301202 0.708394
Si Si3 0.828176 0.897479 0.737107
Si Si4 0.500292 0.545606 0.559254
Si Si5 0.116545 0.546087 0.950046
O O1 0.500000 0.298934 0.250000
O O2 0.768639 0.235921 0.202400
O O3 0.750000 0.250000 0.000000
O O4 0.003793 0.301410 0.999283
O O5 0.500000 0.292079 0.750000
O O6 0.699544 0.347696 0.779960
O O7 0.944025 0.918514 0.563356
O O8 0.000000 0.904605 0.750000
O O9 0.572161 0.917284 0.913796
O O10 0.500000 0.500000 0.500000
O O11 0.244102 0.557044 0.760301
O O12 0.701265 0.543758 0.545616
O O13 0.000000 0.500000 0.000000
#
# Coordination Sequence:
#
# PCOD8143159 Si02
#       5
#     8   8   8   8   8
#     4   9  19  37  62  89 117 156 196 245 306 368
#     4  10  21  40  63  90 123 161 202 252 308 373
#     4  11  24  41  62  90 124 162 206 255 305 364
#     4  11  23  39  62  88 120 164 205 256 309 364
#     4  11  23  39  61  89 119 162 210 252 309 365
#
# _framework density 19.853795999999999
#
# number of rings (size 3 to 8) (size 9 to 14) (size 15 to 20)
#    0.000    1.600    2.000    2.400    0.000    7.200 
#   10.800    0.000    0.000    0.000    0.000    0.000 
#    0.000    0.000    0.000    0.000    0.000    0.000 
#
# Total GULP energy -247825.981928 kJ/mol
# GULP energy per Si atom -12391.299096 kJ/mol
# Density = 1.980861 g / cm^3
# Si number density = 19.853796 Si / 1000 Ang^3
#
#
#
# Elastic Constant Matrix: (Units=GPa)
#
#
# Indices 1 2 3 4 5 6 
#
# 1 99.8503 45.1893 68.8391 0.0000 -13.2063 0.0000
# 2 45.1893 96.9844 54.1194 0.0000 4.4247 0.0000
# 3 68.8391 54.1194 162.7376 0.0000 -8.6758 0.0000
# 4 0.0000 0.0000 0.0000 35.3114 0.0000 2.7161
# 5 -13.2063 4.4247 -8.6758 0.0000 40.9478 0.0000
# 6 0.0000 0.0000 0.0000 2.7161 0.0000 25.5159
#
#
#
# Elastic Compliance Matrix: (Units=1/GPa)
#
#
# Indices 1 2 3 4 5 6 
#
# 1 0.016378 -0.005065 -0.004989 0.000000 0.004772 0.000000
# 2 -0.005065 0.014442 -0.002863 0.000000 -0.003801 0.000000
# 3 -0.004989 -0.002863 0.009243 0.000000 0.000658 0.000000
# 4 0.000000 0.000000 0.000000 0.028553 0.000000 -0.003039
# 5 0.004772 -0.003801 0.000658 0.000000 0.026511 0.000000
# 6 0.000000 0.000000 0.000000 -0.003039 0.000000 0.039515
#
#
# Mechanical properties :
#
#
# Convention : Reuss Voigt Hill
#
# Bulk Modulus (GPa) = 70.28180 77.31866 73.80023
# Shear Modulus (GPa) = 30.26304 33.11666 31.68985
#
# Velocity S-wave (km/s) = 3.90846 4.08858 3.99953
# Velocity P-wave (km/s) = 7.47292 7.83053 7.65382
#
# Compressibility (1/GPa) = 0.01422844
#
# Stress axis : x y z
#
# Youngs Moduli (GPa) = 61.05698 69.24333 108.19559
#
# Poissons Ratio (x) = 0.35071 0.53982
# Poissons Ratio (y) = 0.30925 0.30975
# Poissons Ratio (z) = 0.30463 0.19823
#
# Static dielectric constant tensor:
#      x y z
#    x 4.011090 0.000000 -0.544980 
#    y 0.000000 3.497910 0.000000 
#    z -0.544980 0.000000 4.717050 
# 
# 
# High freq. dielectric constant tensor:
#      x y z
#    x 1.795340 0.000000 -0.008890 
#    y 0.000000 1.758600 0.000000 
#    z -0.008890 0.000000 1.793330 
# 
# From -- ./inp_files/81984.got.cif
#   From: 2010.06.25/outbox.cif.g09.slc.cpg/sg15_41_cif.got.tgz:81984.got - 2010.06.28 07:06:18.
