data_PCOD8143104
_publ_section_title
;
Structure prediction by ZEFSAII (Michael W. Deem and Ramdas Pophale) SiO2 
 PCOD8143104
Probable space group: C 2/C
;
_chemical_formula_sum "Si O2"
_cell_formula_units_Z 56
_cell_length_a 5.165559
_cell_length_b 23.017353
_cell_length_c 21.757512
_cell_angle_alpha 90.000000
_cell_angle_beta 105.240333
_cell_angle_gamma 90.000000
_cell_volume 2495.936288
_symmetry_space_group_name_H-M "C 2/C"
_symmetry_group_IT_number 15
_symmetry_cell_setting 'monoclinic'
loop_
_space_group_symop_operation_xyz
x,y,z
-x,y,1/2-z
-x,-y,-z
x,-y,1/2+z
1/2+x,1/2+y,z
1/2-x,1/2+y,1/2-z
1/2-x,1/2-y,-z
1/2+x,1/2-y,1/2+z
loop_
_atom_site_type_symbol
_atom_site_label
_atom_site_fract_x
_atom_site_fract_y
_atom_site_fract_z
Si Si1 0.028020 0.456337 0.092184
Si Si2 0.560566 0.615094 0.405004
Si Si3 0.436040 0.269744 0.673815
Si Si4 0.713214 0.900239 0.313344
Si Si5 0.344963 0.072591 0.030800
Si Si6 0.940298 0.793546 0.177866
Si Si7 0.489865 0.515975 0.315347
O O1 0.821016 0.505371 0.052944
O O2 0.226780 0.488494 0.150262
O O3 0.887774 0.404663 0.122403
O O4 0.184485 0.427155 0.044848
O O5 0.526992 0.673366 0.364641
O O6 0.871065 0.600928 0.433542
O O7 0.404636 0.564852 0.357979
O O8 0.396024 0.613586 0.458982
O O9 0.500000 0.281201 0.750000
O O10 0.133299 0.245885 0.646898
O O11 0.624655 0.220959 0.651846
O O12 0.500000 0.873419 0.250000
O O13 0.984366 0.861327 0.328275
O O14 0.770908 0.965550 0.296254
O O15 0.000000 0.773619 0.250000
O O16 0.500000 0.547099 0.250000
#
# Coordination Sequence:
#
# PCOD8143104 Si02
#       7
#     8   8   8   8   8   8   8
#     4  10  23  38  58  89 128 167 206 243 309 372
#     4  11  22  40  64  89 123 161 207 259 309 356
#     4  10  21  40  62  90 119 162 205 256 304 371
#     4  12  22  37  61  92 130 160 195 254 315 378
#     4  10  23  40  61  88 123 169 212 250 291 377
#     4  10  22  38  60  87 123 161 205 242 306 375
#     4  11  22  35  58  96 129 156 191 256 322 382
#
# _framework density 22.436468999999999
#
# number of rings (size 3 to 8) (size 9 to 14) (size 15 to 20)
#    0.000    1.429    2.857    3.000    4.000    1.714 
#    0.000    2.143    0.000    5.143    0.000    0.000 
#    0.000    0.000    0.000    0.000    0.000    0.000 
#
# Total GULP energy -347025.720474 kJ/mol
# GULP energy per Si atom -12393.775731 kJ/mol
# Density = 2.238540 g / cm^3
# Si number density = 22.436469 Si / 1000 Ang^3
#
#
#
# Elastic Constant Matrix: (Units=GPa)
#
#
# Indices 1 2 3 4 5 6 
#
# 1 91.6080 29.7787 24.8608 0.0000 -32.3964 0.0000
# 2 29.7787 93.9319 30.7660 0.0000 -18.5023 0.0000
# 3 24.8608 30.7660 98.0726 0.0000 -24.8357 0.0000
# 4 0.0000 0.0000 0.0000 14.7521 0.0000 -8.5648
# 5 -32.3964 -18.5023 -24.8357 0.0000 35.1964 0.0000
# 6 0.0000 0.0000 0.0000 -8.5648 0.0000 34.1621
#
#
#
# Elastic Compliance Matrix: (Units=1/GPa)
#
#
# Indices 1 2 3 4 5 6 
#
# 1 0.016708 -0.002561 0.000148 0.000000 0.014137 0.000000
# 2 -0.002561 0.012844 -0.002760 0.000000 0.002447 0.000000
# 3 0.000148 -0.002760 0.013018 0.000000 0.007871 0.000000
# 4 0.000000 0.000000 0.000000 0.079335 0.000000 0.019890
# 5 0.014137 0.002447 0.007871 0.000000 0.048265 0.000000
# 6 0.000000 0.000000 0.000000 0.019890 0.000000 0.034259
#
#
# Mechanical properties :
#
#
# Convention : Reuss Voigt Hill
#
# Bulk Modulus (GPa) = 31.03299 50.49152 40.76225
# Shear Modulus (GPa) = 22.17141 30.03591 26.10366
#
# Velocity S-wave (km/s) = 3.14695 3.66281 3.41464
# Velocity P-wave (km/s) = 5.20249 6.35935 5.80979
#
# Compressibility (1/GPa) = 0.03222377
#
# Stress axis : x y z
#
# Youngs Moduli (GPa) = 59.85283 77.85767 76.81522
#
# Poissons Ratio (x) = 0.19936 -0.01137
# Poissons Ratio (y) = 0.15326 0.21204
# Poissons Ratio (z) = -0.00886 0.21492
#
# Static dielectric constant tensor:
#      x y z
#    x 4.214800 0.000000 -0.311210 
#    y 0.000000 3.850360 0.000000 
#    z -0.311210 0.000000 4.082490 
# 
# 
# High freq. dielectric constant tensor:
#      x y z
#    x 1.889380 0.000000 -0.023240 
#    y 0.000000 1.862440 0.000000 
#    z -0.023240 0.000000 1.872230 
# 
# From -- ./inp_files/227896.got.cif
#   From: 2010.06.25/outbox.cif.g09.slc.cpg/sg15_114_cif.got.tgz:227896.got - 2010.06.28 07:06:18.
