data_PCOD8143957
_publ_section_title
;
Structure prediction by ZEFSAII (Michael W. Deem and Ramdas Pophale) SiO2 
 PCOD8143957
Probable space group: C 2/C
;
_chemical_formula_sum "Si O2"
_cell_formula_units_Z 60
_cell_length_a 13.411883
_cell_length_b 13.319101
_cell_length_c 17.608555
_cell_angle_alpha 90.000000
_cell_angle_beta 114.808286
_cell_angle_gamma 90.000000
_cell_volume 2855.214656
_symmetry_space_group_name_H-M "C 2/C"
_symmetry_group_IT_number 15
_symmetry_cell_setting 'monoclinic'
loop_
_space_group_symop_operation_xyz
x,y,z
-x,y,1/2-z
-x,-y,-z
x,-y,1/2+z
1/2+x,1/2+y,z
1/2-x,1/2+y,1/2-z
1/2-x,1/2-y,-z
1/2+x,1/2-y,1/2+z
loop_
_atom_site_type_symbol
_atom_site_label
_atom_site_fract_x
_atom_site_fract_y
_atom_site_fract_z
Si Si1 0.302307 0.143419 0.494312
Si Si2 0.079076 0.775032 0.067183
Si Si3 0.694178 0.884939 0.338588
Si Si4 0.852681 0.033048 0.562222
Si Si5 0.081382 0.225504 0.844777
Si Si6 0.019875 0.123884 0.111500
Si Si7 0.752247 0.097732 0.370311
Si Si8 0.500000 0.752651 0.250000
O O1 0.250000 0.250000 0.500000
O O2 0.390802 0.164524 0.456515
O O3 0.350902 0.103787 0.589006
O O4 0.218175 0.062334 0.432417
O O5 0.186774 0.832734 0.132439
O O6 0.989228 0.754915 0.102415
O O7 0.028416 0.838006 0.982921
O O8 0.605048 0.821928 0.263209
O O9 0.699219 0.000358 0.312319
O O10 0.845062 0.125635 0.618654
O O11 0.811761 0.068654 0.467443
O O12 0.979193 0.992778 0.602342
O O13 0.161032 0.317896 0.853116
O O14 0.000000 0.207173 0.750000
O O15 0.151568 0.134652 0.155235
O O16 0.972657 0.185515 0.167881
#
# Coordination Sequence:
#
# PCOD8143957 Si02
#       8
#     8   8   8   8   8   8   8   4
#     4   9  16  37  68  97 119 158 220 268 317 387
#     4  11  20  44  71  91 132 174 219 265 332 394
#     4  10  21  41  67  98 127 173 217 267 331 399
#     4  11  21  43  71  98 127 171 229 267 321 396
#     4  12  29  44  60  97 138 177 218 274 326 389
#     4  12  22  42  71 102 125 174 222 274 326 391
#     4  11  24  45  68  90 133 186 224 253 333 407
#     4  12  26  38  68 108 136 152 220 292 328 378
#
# _framework density 21.014181000000001
#
# number of rings (size 3 to 8) (size 9 to 14) (size 15 to 20)
#    0.000    1.067    6.667    2.400    3.733    0.000 
#    0.000    4.000    0.000    0.000    0.000    0.000 
#    0.000    0.000    0.000    0.000    0.000    0.000 
#
# Total GULP energy -371835.206236 kJ/mol
# GULP energy per Si atom -12394.506875 kJ/mol
# Density = 2.096635 g / cm^3
# Si number density = 21.014181 Si / 1000 Ang^3
#
#
#
# Elastic Constant Matrix: (Units=GPa)
#
#
# Indices 1 2 3 4 5 6 
#
# 1 49.3541 28.8624 1.0434 0.0000 1.8448 0.0000
# 2 28.8624 98.6894 7.5488 0.0000 7.2275 0.0000
# 3 1.0434 7.5488 50.3612 0.0000 9.0459 0.0000
# 4 0.0000 0.0000 0.0000 27.5506 0.0000 11.0574
# 5 1.8448 7.2275 9.0459 0.0000 21.4465 0.0000
# 6 0.0000 0.0000 0.0000 11.0574 0.0000 30.0568
#
#
#
# Elastic Compliance Matrix: (Units=1/GPa)
#
#
# Indices 1 2 3 4 5 6 
#
# 1 0.024458 -0.007202 0.000557 0.000000 0.000088 0.000000
# 2 -0.007202 0.012557 -0.001173 0.000000 -0.003117 0.000000
# 3 0.000557 -0.001173 0.021594 0.000000 -0.008761 0.000000
# 4 0.000000 0.000000 0.000000 0.042584 0.000000 -0.015666
# 5 0.000088 -0.003117 -0.008761 0.000000 0.051366 0.000000
# 6 0.000000 0.000000 0.000000 -0.015666 0.000000 0.039034
#
#
# Mechanical properties :
#
#
# Convention : Reuss Voigt Hill
#
# Bulk Modulus (GPa) = 23.27008 30.36823 26.81916
# Shear Modulus (GPa) = 22.56777 26.54080 24.55428
#
# Velocity S-wave (km/s) = 3.28064 3.55772 3.42199
# Velocity P-wave (km/s) = 5.04457 5.59992 5.32949
#
# Compressibility (1/GPa) = 0.04297363
#
# Stress axis : x y z
#
# Youngs Moduli (GPa) = 40.88561 79.63591 46.30815
#
# Poissons Ratio (x) = 0.57355 -0.02579
# Poissons Ratio (y) = 0.29446 0.05432
# Poissons Ratio (z) = -0.02277 0.09342
#
# Static dielectric constant tensor:
#      x y z
#    x 4.500030 0.000000 -0.322400 
#    y 0.000000 4.111030 0.000000 
#    z -0.322400 0.000000 3.819880 
# 
# 
# High freq. dielectric constant tensor:
#      x y z
#    x 1.815400 0.000000 0.007560 
#    y 0.000000 1.829160 0.000000 
#    z 0.007560 0.000000 1.803900 
# 
# From -- ./inp_files/204509.got.cif
#   From: 2010.06.25/outbox.cif.g09.slc.cpg/sg15_103_cif.got.tgz:204509.got - 2010.06.28 07:06:18.
