data_PCOD8143694
_publ_section_title
;
Structure prediction by ZEFSAII (Michael W. Deem and Ramdas Pophale) SiO2 
 PCOD8143694
Probable space group: C 2/C
;
_chemical_formula_sum "Si O2"
_cell_formula_units_Z 56
_cell_length_a 8.716032
_cell_length_b 31.927422
_cell_length_c 20.073427
_cell_angle_alpha 90.000000
_cell_angle_beta 152.106528
_cell_angle_gamma 90.000000
_cell_volume 2613.313078
_symmetry_space_group_name_H-M "C 2/C"
_symmetry_group_IT_number 15
_symmetry_cell_setting 'monoclinic'
loop_
_space_group_symop_operation_xyz
x,y,z
-x,y,1/2-z
-x,-y,-z
x,-y,1/2+z
1/2+x,1/2+y,z
1/2-x,1/2+y,1/2-z
1/2-x,1/2-y,-z
1/2+x,1/2-y,1/2+z
loop_
_atom_site_type_symbol
_atom_site_label
_atom_site_fract_x
_atom_site_fract_y
_atom_site_fract_z
Si Si1 0.881858 0.931739 0.277152
Si Si2 0.997149 0.267959 0.672358
Si Si3 0.137035 0.800294 0.135025
Si Si4 0.864422 0.980551 0.631428
Si Si5 0.357299 0.651292 0.268335
Si Si6 0.168005 0.907747 0.986995
Si Si7 0.333639 0.388177 0.994123
O O1 0.534241 0.909798 0.156583
O O2 0.000000 0.916218 0.250000
O O3 0.134007 0.920018 0.432422
O O4 0.871362 0.982088 0.276800
O O5 0.619244 0.274303 0.507511
O O6 0.000000 0.276544 0.750000
O O7 0.107675 0.220463 0.697411
O O8 0.252568 0.300509 0.737030
O O9 0.500000 0.792254 0.250000
O O10 0.053218 0.848826 0.100568
O O11 0.890157 0.948798 0.580132
O O12 0.000000 0.956956 0.750000
O O13 0.500000 0.000000 0.500000
O O14 0.500000 0.645650 0.250000
O O15 0.615827 0.634756 0.423386
O O16 0.044416 0.622068 0.158839
O O17 0.938757 0.907816 0.963952
#
# Coordination Sequence:
#
# PCOD8143694 Si02
#       7
#     8   8   8   8   8   8   8
#     4  11  23  41  64  93 131 176 224 274 333 406
#     4  10  22  40  64  97 132 167 224 281 336 403
#     4  10  21  41  63  89 134 177 214 276 336 401
#     4  11  23  43  67  99 136 183 224 277 334 410
#     4  11  23  41  67  95 128 175 224 279 345 414
#     4  12  23  41  67  95 134 177 221 283 337 385
#     4  11  25  42  63  97 132 172 229 284 337 402
#
# _framework density 21.428737000000002
#
# number of rings (size 3 to 8) (size 9 to 14) (size 15 to 20)
#    0.000    1.143    2.857    5.143    2.000    1.714 
#    0.000    7.143    0.000    0.000    0.000    0.000 
#    0.000    0.000    0.000    0.000    0.000    0.000 
#
# Total GULP energy -347128.803473 kJ/mol
# GULP energy per Si atom -12397.457267 kJ/mol
# Density = 2.137996 g / cm^3
# Si number density = 21.428737 Si / 1000 Ang^3
#
#
#
# Elastic Constant Matrix: (Units=GPa)
#
#
# Indices 1 2 3 4 5 6 
#
# 1 138.2151 42.8200 17.5496 -0.0036 -5.5793 0.0087
# 2 42.8200 84.8470 30.1311 -0.0100 -1.1246 -0.0059
# 3 17.5496 30.1311 71.1615 0.0615 7.0119 0.0210
# 4 -0.0036 -0.0100 0.0615 28.4357 -0.0017 -4.2934
# 5 -5.5793 -1.1246 7.0119 -0.0017 41.9813 -0.0057
# 6 0.0087 -0.0059 0.0210 -4.2934 -0.0057 25.5834
#
#
#
# Elastic Compliance Matrix: (Units=1/GPa)
#
#
# Indices 1 2 3 4 5 6 
#
# 1 0.008633 -0.004175 -0.000471 0.000000 0.001114 -0.000003
# 2 -0.004175 0.015969 -0.005815 0.000020 0.000844 0.000013
# 3 -0.000471 -0.005815 0.016931 -0.000042 -0.003046 -0.000023
# 4 0.000000 0.000020 -0.000042 0.036081 0.000010 0.006055
# 5 0.001114 0.000844 -0.003046 0.000010 0.024500 0.000009
# 6 -0.000003 0.000013 -0.000023 0.006055 0.000009 0.040104
#
#
# Mechanical properties :
#
#
# Convention : Reuss Voigt Hill
#
# Bulk Modulus (GPa) = 48.51759 52.80277 50.66018
# Shear Modulus (GPa) = 29.40972 32.78161 31.09567
#
# Velocity S-wave (km/s) = 3.70867 3.91550 3.81349
# Velocity P-wave (km/s) = 6.40543 6.71835 6.56375
#
# Compressibility (1/GPa) = 0.02061108
#
# Stress axis : x y z
#
# Youngs Moduli (GPa) = 115.83021 62.62049 59.06243
#
# Poissons Ratio (x) = 0.26144 0.02783
# Poissons Ratio (y) = 0.48358 0.34346
# Poissons Ratio (z) = 0.05458 0.36415
#
# Static dielectric constant tensor:
#      x y z
#    x 3.882830 0.000030 -0.029250 
#    y 0.000030 4.047100 0.000050 
#    z -0.029250 0.000050 4.157090 
# 
# 
# High freq. dielectric constant tensor:
#      x y z
#    x 1.839960 0.000000 -0.004580 
#    y 0.000000 1.838540 0.000000 
#    z -0.004580 0.000000 1.856300 
# 
# From -- ./inp_files/234959.got.cif
#   From: 2010.06.25/outbox.cif.g09.slc.cpg/sg15_118_cif.got.tgz:234959.got - 2010.06.28 07:06:18.
