data_PCOD8143719
_publ_section_title
;
Structure prediction by ZEFSAII (Michael W. Deem and Ramdas Pophale) SiO2 
 PCOD8143719
Probable space group: C 2/C
;
_chemical_formula_sum "Si O2"
_cell_formula_units_Z 44
_cell_length_a 12.596414
_cell_length_b 8.541676
_cell_length_c 23.331681
_cell_angle_alpha 90.000000
_cell_angle_beta 122.856695
_cell_angle_gamma 90.000000
_cell_volume 2108.778334
_symmetry_space_group_name_H-M "C 2/C"
_symmetry_group_IT_number 15
_symmetry_cell_setting 'monoclinic'
loop_
_space_group_symop_operation_xyz
x,y,z
-x,y,1/2-z
-x,-y,-z
x,-y,1/2+z
1/2+x,1/2+y,z
1/2-x,1/2+y,1/2-z
1/2-x,1/2-y,-z
1/2+x,1/2-y,1/2+z
loop_
_atom_site_type_symbol
_atom_site_label
_atom_site_fract_x
_atom_site_fract_y
_atom_site_fract_z
Si Si1 0.545266 0.858024 0.081109
Si Si2 0.881854 0.651569 0.637523
Si Si3 0.867026 0.802748 0.304678
Si Si4 0.114013 0.305050 0.571372
Si Si5 0.115849 0.835602 0.701944
Si Si6 0.000000 0.407737 0.750000
O O1 0.429242 0.911561 0.088899
O O2 0.631245 0.731297 0.140751
O O3 0.629369 0.008344 0.087638
O O4 0.489370 0.775629 0.008123
O O5 0.743744 0.723508 0.590259
O O6 0.978291 0.789038 0.685801
O O7 0.892620 0.510863 0.686640
O O8 0.937427 0.777438 0.385841
O O9 0.721992 0.747786 0.272112
O O10 0.927125 0.698038 0.273460
O O11 0.869133 0.981209 0.287739
#
# Coordination Sequence:
#
# PCOD8143719 Si02
#       6
#     8   8   8   8   8   4
#     4   9  22  40  63  96 125 170 215 261 326 398
#     4  10  21  41  63  94 123 171 205 271 321 394
#     4  12  23  40  61  92 123 170 207 279 312 395
#     4  11  20  39  70  88 130 168 215 264 328 384
#     4  10  23  40  60  92 125 160 219 251 336 374
#     4  12  24  40  62  92 130 162 228 258 336 380
#
# _framework density 20.865162000000002
#
# number of rings (size 3 to 8) (size 9 to 14) (size 15 to 20)
#    1.091    0.364    1.818    4.909    0.000    4.364 
#    0.000    0.000    0.000    4.364    0.000    0.000 
#    0.000    0.000    0.000    0.000    0.000    0.000 
#
# Total GULP energy -272691.094007 kJ/mol
# GULP energy per Si atom -12395.049728 kJ/mol
# Density = 2.081767 g / cm^3
# Si number density = 20.865162 Si / 1000 Ang^3
#
#
#
# Elastic Constant Matrix: (Units=GPa)
#
#
# Indices 1 2 3 4 5 6 
#
# 1 55.0871 16.5752 1.2846 0.0000 -3.6049 0.0000
# 2 16.5752 127.5037 28.1607 0.0000 3.6567 0.0000
# 3 1.2846 28.1607 81.9420 0.0000 -19.3164 0.0000
# 4 0.0000 0.0000 0.0000 23.1963 0.0000 3.1171
# 5 -3.6049 3.6567 -19.3164 0.0000 33.4448 0.0000
# 6 0.0000 0.0000 0.0000 3.1171 0.0000 22.2931
#
#
#
# Elastic Compliance Matrix: (Units=1/GPa)
#
#
# Indices 1 2 3 4 5 6 
#
# 1 0.019207 -0.002912 0.001462 0.000000 0.003233 0.000000
# 2 -0.002912 0.009201 -0.003968 0.000000 -0.003612 0.000000
# 3 0.001462 -0.003968 0.015841 0.000000 0.009740 0.000000
# 4 0.000000 0.000000 0.000000 0.043936 0.000000 -0.006143
# 5 0.003233 -0.003612 0.009740 0.000000 0.036269 0.000000
# 6 0.000000 0.000000 0.000000 -0.006143 0.000000 0.045716
#
#
# Mechanical properties :
#
#
# Convention : Reuss Voigt Hill
#
# Bulk Modulus (GPa) = 29.92942 39.61932 34.77437
# Shear Modulus (GPa) = 26.02213 30.35432 28.18822
#
# Velocity S-wave (km/s) = 3.53534 3.81830 3.67954
# Velocity P-wave (km/s) = 5.57137 6.20232 5.89529
#
# Compressibility (1/GPa) = 0.03341194
#
# Stress axis : x y z
#
# Youngs Moduli (GPa) = 52.06471 108.67822 63.12888
#
# Poissons Ratio (x) = 0.31652 -0.09229
# Poissons Ratio (y) = 0.15164 0.25049
# Poissons Ratio (z) = -0.07611 0.43123
#
# Static dielectric constant tensor:
#      x y z
#    x 3.598800 0.000000 -0.181020 
#    y 0.000000 3.613290 0.000000 
#    z -0.181020 0.000000 3.894870 
# 
# 
# High freq. dielectric constant tensor:
#      x y z
#    x 1.804090 0.000000 -0.019900 
#    y 0.000000 1.812400 0.000000 
#    z -0.019900 0.000000 1.822360 
# 
# From -- ./inp_files/241973.got.cif
#   From: 2010.06.25/outbox.cif.g09.slc.cpg/sg15_121_cif.got.tgz:241973.got - 2010.06.28 07:06:18.
