data_PCOD8143922
_publ_section_title
;
Structure prediction by ZEFSAII (Michael W. Deem and Ramdas Pophale) SiO2 
 PCOD8143922
Probable space group: C 2/C
;
_chemical_formula_sum "Si O2"
_cell_formula_units_Z 56
_cell_length_a 12.844512
_cell_length_b 15.241500
_cell_length_c 23.087217
_cell_angle_alpha 90.000000
_cell_angle_beta 33.072819
_cell_angle_gamma 90.000000
_cell_volume 2466.462003
_symmetry_space_group_name_H-M "C 2/C"
_symmetry_group_IT_number 15
_symmetry_cell_setting 'monoclinic'
loop_
_space_group_symop_operation_xyz
x,y,z
-x,y,1/2-z
-x,-y,-z
x,-y,1/2+z
1/2+x,1/2+y,z
1/2-x,1/2+y,1/2-z
1/2-x,1/2-y,-z
1/2+x,1/2-y,1/2+z
loop_
_atom_site_type_symbol
_atom_site_label
_atom_site_fract_x
_atom_site_fract_y
_atom_site_fract_z
Si Si1 0.413644 0.065363 0.852896
Si Si2 0.901463 0.058908 0.855483
Si Si3 0.470194 0.209379 0.920563
Si Si4 0.489492 0.899901 0.521389
Si Si5 0.124171 0.600841 0.301335
Si Si6 0.555769 0.407147 0.576635
Si Si7 0.594163 0.721795 0.768224
O O1 0.500000 0.081683 0.750000
O O2 0.481910 0.144510 0.861335
O O3 0.485161 0.975235 0.846532
O O4 0.179846 0.062706 0.962334
O O5 0.000000 0.027852 0.750000
O O6 0.039629 0.129053 0.825120
O O7 0.869640 0.969548 0.906260
O O8 0.710384 0.117762 0.934527
O O9 0.372809 0.304225 0.947188
O O10 0.682364 0.237351 0.838250
O O11 0.399100 0.161658 0.013051
O O12 0.348546 0.892982 0.642243
O O13 0.500000 0.000000 0.500000
O O14 0.329420 0.584971 0.174697
O O15 0.015259 0.690268 0.334729
O O16 0.500000 0.711628 0.750000
#
# Coordination Sequence:
#
# PCOD8143922 Si02
#       7
#     8   8   8   8   8   8   8
#     4  12  26  46  68  97 141 187 228 287 357 421
#     4  11  20  39  70 100 134 181 232 280 343 404
#     4  11  23  44  69 103 145 176 237 291 344 420
#     4  12  21  40  70 100 134 179 230 287 340 414
#     4  11  24  42  69 102 140 179 237 283 355 418
#     4  11  25  43  67 103 139 182 228 293 344 414
#     4  10  21  41  67 102 141 182 232 293 340 408
#
# _framework density 22.704588000000001
#
# number of rings (size 3 to 8) (size 9 to 14) (size 15 to 20)
#    0.000    0.857    5.714    2.571    0.000    4.000 
#    0.000    0.000    0.000    0.000    0.000    0.000 
#    0.000    0.000    0.000    0.000    0.000    0.000 
#
# Total GULP energy -346867.892142 kJ/mol
# GULP energy per Si atom -12388.139005 kJ/mol
# Density = 2.265291 g / cm^3
# Si number density = 22.704588 Si / 1000 Ang^3
#
#
#
# Elastic Constant Matrix: (Units=GPa)
#
#
# Indices 1 2 3 4 5 6 
#
# 1 67.7260 56.0374 40.4550 -0.0010 29.0886 0.0000
# 2 56.0374 197.3582 57.1063 -0.0025 26.9648 0.0013
# 3 40.4550 57.1063 155.2599 -0.0134 21.2014 0.0033
# 4 -0.0010 -0.0025 -0.0134 35.1340 0.0003 0.7443
# 5 29.0886 26.9648 21.2014 0.0003 49.6982 0.0015
# 6 0.0000 0.0013 0.0033 0.7443 0.0015 40.0695
#
#
#
# Elastic Compliance Matrix: (Units=1/GPa)
#
#
# Indices 1 2 3 4 5 6 
#
# 1 0.025362 -0.004742 -0.003386 -0.000001 -0.010827 0.000001
# 2 -0.004742 0.006821 -0.001218 0.000000 -0.000406 0.000000
# 3 -0.003386 -0.001218 0.007868 0.000003 -0.000714 -0.000001
# 4 -0.000001 0.000000 0.000003 0.028474 -0.000001 -0.000529
# 5 -0.010827 -0.000406 -0.000714 -0.000001 0.026984 -0.000001
# 6 0.000001 0.000000 -0.000001 -0.000529 -0.000001 0.024966
#
#
# Mechanical properties :
#
#
# Convention : Reuss Voigt Hill
#
# Bulk Modulus (GPa) = 46.81631 80.83795 63.82713
# Shear Modulus (GPa) = 34.17945 42.76334 38.47139
#
# Velocity S-wave (km/s) = 3.88416 4.34460 4.12081
# Velocity P-wave (km/s) = 6.38593 7.80057 7.12843
#
# Compressibility (1/GPa) = 0.02136008
#
# Stress axis : x y z
#
# Youngs Moduli (GPa) = 39.42936 146.60019 127.08948
#
# Poissons Ratio (x) = 0.69521 0.43028
# Poissons Ratio (y) = 0.18698 0.15478
# Poissons Ratio (z) = 0.13349 0.17854
#
# Static dielectric constant tensor:
#      x y z
#    x 4.074090 0.000000 -0.227030 
#    y 0.000000 4.707830 0.000010 
#    z -0.227030 0.000010 4.419460 
# 
# 
# High freq. dielectric constant tensor:
#      x y z
#    x 1.873750 0.000000 -0.021260 
#    y 0.000000 1.921780 0.000000 
#    z -0.021260 0.000000 1.902700 
# 
# From -- ./inp_files/178337.got.cif
#   From: 2010.06.25/outbox.cif.g09.slc.cpg/sg15_90_cif.got.tgz:178337.got - 2010.06.28 07:06:18.
