data_PCOD8143760
_publ_section_title
;
Structure prediction by ZEFSAII (Michael W. Deem and Ramdas Pophale) SiO2 
 PCOD8143760
Probable space group: C 2/C
;
_chemical_formula_sum "Si O2"
_cell_formula_units_Z 56
_cell_length_a 6.819398
_cell_length_b 23.858596
_cell_length_c 17.351894
_cell_angle_alpha 90.000000
_cell_angle_beta 78.709819
_cell_angle_gamma 90.000000
_cell_volume 2768.541599
_symmetry_space_group_name_H-M "C 2/C"
_symmetry_group_IT_number 15
_symmetry_cell_setting 'monoclinic'
loop_
_space_group_symop_operation_xyz
x,y,z
-x,y,1/2-z
-x,-y,-z
x,-y,1/2+z
1/2+x,1/2+y,z
1/2-x,1/2+y,1/2-z
1/2-x,1/2-y,-z
1/2+x,1/2-y,1/2+z
loop_
_atom_site_type_symbol
_atom_site_label
_atom_site_fract_x
_atom_site_fract_y
_atom_site_fract_z
Si Si1 0.823369 0.186730 0.078214
Si Si2 0.631238 0.188921 0.929976
Si Si3 0.294177 0.350613 0.034499
Si Si4 0.464675 0.376530 0.337269
Si Si5 0.624359 0.914625 0.662390
Si Si6 0.980119 0.007405 0.164892
Si Si7 0.360523 0.047884 0.045141
O O1 0.799822 0.250694 0.108719
O O2 0.744356 0.144219 0.149902
O O3 0.687410 0.179534 0.013906
O O4 0.054035 0.171643 0.042236
O O5 0.393376 0.189989 0.942497
O O6 0.732882 0.137919 0.874351
O O7 0.399078 0.347115 0.109373
O O8 0.212637 0.412092 0.018240
O O9 0.500000 0.350982 0.250000
O O10 0.527723 0.440844 0.332968
O O11 0.500000 0.918053 0.750000
O O12 0.479065 0.917407 0.600445
O O13 0.778108 0.966727 0.644927
O O14 0.000000 0.031502 0.250000
O O15 0.165935 0.021681 0.097764
O O16 0.500000 0.000000 0.000000
#
# Coordination Sequence:
#
# PCOD8143760 Si02
#       7
#     8   8   8   8   8   8   8
#     4  10  22  39  64  92 125 161 208 264 304 377
#     4  10  21  41  64  91 122 164 211 256 317 368
#     4  11  21  39  65  91 121 163 210 257 311 372
#     4  10  24  41  62  89 127 161 207 260 310 374
#     4  12  24  41  64  96 128 166 210 260 323 378
#     4  11  23  42  61  92 132 167 204 262 321 380
#     4  12  24  37  65  95 128 167 213 259 314 384
#
# _framework density 20.227255
#
# number of rings (size 3 to 8) (size 9 to 14) (size 15 to 20)
#    0.000    1.143    4.286    2.143    2.000    2.286 
#    0.000    0.000    6.286    0.000    0.000    0.000 
#    0.000    0.000    0.000    0.000    0.000    0.000 
#
# Total GULP energy -347190.607736 kJ/mol
# GULP energy per Si atom -12399.664562 kJ/mol
# Density = 2.018122 g / cm^3
# Si number density = 20.227255 Si / 1000 Ang^3
#
#
#
# Elastic Constant Matrix: (Units=GPa)
#
#
# Indices 1 2 3 4 5 6 
#
# 1 110.5265 16.7351 42.1303 0.0000 -21.7249 0.0000
# 2 16.7351 83.4162 33.0633 0.0000 -16.5172 0.0000
# 3 42.1303 33.0633 97.4863 0.0000 -19.1675 0.0000
# 4 0.0000 0.0000 0.0000 7.0205 0.0000 -6.5967
# 5 -21.7249 -16.5172 -19.1675 0.0000 33.1199 0.0000
# 6 0.0000 0.0000 0.0000 -6.5967 0.0000 22.7704
#
#
#
# Elastic Compliance Matrix: (Units=1/GPa)
#
#
# Indices 1 2 3 4 5 6 
#
# 1 0.011615 0.000361 -0.004072 0.000000 0.005442 0.000000
# 2 0.000361 0.014549 -0.004082 0.000000 0.005131 0.000000
# 3 -0.004072 -0.004082 0.014079 0.000000 0.003441 0.000000
# 4 0.000000 0.000000 0.000000 0.195718 0.000000 0.056700
# 5 0.005442 0.005131 0.003441 0.000000 0.038313 0.000000
# 6 0.000000 0.000000 0.000000 0.056700 0.000000 0.060343
#
#
# Mechanical properties :
#
#
# Convention : Reuss Voigt Hill
#
# Bulk Modulus (GPa) = 40.55524 52.80958 46.68241
# Shear Modulus (GPa) = 13.95007 25.88216 19.91612
#
# Velocity S-wave (km/s) = 2.62900 3.58099 3.14127
# Velocity P-wave (km/s) = 5.41376 6.57744 6.02377
#
# Compressibility (1/GPa) = 0.02465773
#
# Stress axis : x y z
#
# Youngs Moduli (GPa) = 86.09712 68.73113 71.02955
#
# Poissons Ratio (x) = -0.02484 0.28924
# Poissons Ratio (y) = -0.03112 0.28994
# Poissons Ratio (z) = 0.35059 0.28056
#
# Static dielectric constant tensor:
#      x y z
#    x 3.719210 0.000000 -0.053370 
#    y 0.000000 3.845440 0.000000 
#    z -0.053370 0.000000 3.755190 
# 
# 
# High freq. dielectric constant tensor:
#      x y z
#    x 1.800570 0.000000 -0.009110 
#    y 0.000000 1.790280 0.000000 
#    z -0.009110 0.000000 1.782000 
# 
# From -- ./inp_files/186108.got.cif
#   From: 2010.06.25/outbox.cif.g09.slc.cpg/sg15_94_cif.got.tgz:186108.got - 2010.06.28 07:06:18.
