data_PCOD8143904
_publ_section_title
;
Structure prediction by ZEFSAII (Michael W. Deem and Ramdas Pophale) SiO2 
 PCOD8143904
Probable space group: C 2/C
;
_chemical_formula_sum "Si O2"
_cell_formula_units_Z 40
_cell_length_a 16.405745
_cell_length_b 8.289510
_cell_length_c 29.021472
_cell_angle_alpha 90.000000
_cell_angle_beta 28.937148
_cell_angle_gamma 90.000000
_cell_volume 1909.654950
_symmetry_space_group_name_H-M "C 2/C"
_symmetry_group_IT_number 15
_symmetry_cell_setting 'monoclinic'
loop_
_space_group_symop_operation_xyz
x,y,z
-x,y,1/2-z
-x,-y,-z
x,-y,1/2+z
1/2+x,1/2+y,z
1/2-x,1/2+y,1/2-z
1/2-x,1/2-y,-z
1/2+x,1/2-y,1/2+z
loop_
_atom_site_type_symbol
_atom_site_label
_atom_site_fract_x
_atom_site_fract_y
_atom_site_fract_z
Si Si1 0.088652 0.833566 0.556795
Si Si2 0.393190 0.132799 0.578896
Si Si3 0.508633 0.824795 0.863910
Si Si4 0.309553 0.488487 0.244110
Si Si5 0.795867 0.830619 0.542410
O O1 0.250000 0.750000 0.500000
O O2 0.006335 0.707262 0.563064
O O3 0.955039 0.878095 0.663503
O O4 0.135314 0.992758 0.504324
O O5 0.330603 0.280711 0.577817
O O6 0.500000 0.000000 0.500000
O O7 0.230604 0.041461 0.681736
O O8 0.631190 0.674507 0.808501
O O9 0.630943 0.977098 0.807399
O O10 0.405669 0.830727 0.866971
O O11 0.376078 0.813058 0.971626
#
# Coordination Sequence:
#
# PCOD8143904 Si02
#       5
#     8   8   8   8   8
#     4  11  25  46  70  95 138 189 226 275 349 416
#     4  12  24  42  70 102 137 173 232 289 337 401
#     4  10  21  41  66  96 134 176 221 271 346 408
#     4  11  22  41  67  97 133 178 227 272 343 406
#     4  10  23  41  67  97 136 178 220 280 343 403
#
# _framework density 20.946193000000001
#
# number of rings (size 3 to 8) (size 9 to 14) (size 15 to 20)
#    0.000    1.200    4.000    1.800    5.600    0.800 
#    0.000    0.000    4.400    0.000    0.000    0.000 
#    0.000    0.000    0.000    0.000    0.000    0.000 
#
# Total GULP energy -247880.769451 kJ/mol
# GULP energy per Si atom -12394.038473 kJ/mol
# Density = 2.089852 g / cm^3
# Si number density = 20.946193 Si / 1000 Ang^3
#
#
#
# Elastic Constant Matrix: (Units=GPa)
#
#
# Indices 1 2 3 4 5 6 
#
# 1 126.1064 57.8052 71.2597 0.0024 -1.7464 0.0002
# 2 57.8052 109.8340 59.8310 -0.0016 -0.2035 0.0018
# 3 71.2597 59.8310 138.6402 0.0133 -4.7162 0.0049
# 4 0.0024 -0.0016 0.0133 43.5518 0.0063 2.2081
# 5 -1.7464 -0.2035 -4.7162 0.0063 31.7887 0.0030
# 6 0.0002 0.0018 0.0049 2.2081 0.0030 41.0513
#
#
#
# Elastic Compliance Matrix: (Units=1/GPa)
#
#
# Indices 1 2 3 4 5 6 
#
# 1 0.012381 -0.003986 -0.004645 0.000001 -0.000034 0.000001
# 2 -0.003986 0.013201 -0.003671 0.000002 -0.000679 0.000000
# 3 -0.004645 -0.003671 0.011232 -0.000003 0.001388 -0.000001
# 4 0.000001 0.000002 -0.000003 0.023024 -0.000005 -0.001238
# 5 -0.000034 -0.000679 0.001388 -0.000005 0.031657 -0.000002
# 6 0.000001 0.000000 -0.000001 -0.001238 -0.000002 0.024426
#
#
# Mechanical properties :
#
#
# Convention : Reuss Voigt Hill
#
# Bulk Modulus (GPa) = 81.90090 83.59694 82.74892
# Shear Modulus (GPa) = 34.57909 35.65734 35.11822
#
# Velocity S-wave (km/s) = 4.06748 4.13041 4.09906
# Velocity P-wave (km/s) = 7.82590 7.92111 7.87365
#
# Compressibility (1/GPa) = 0.01220988
#
# Stress axis : x y z
#
# Youngs Moduli (GPa) = 80.76826 75.75095 89.03232
#
# Poissons Ratio (x) = 0.30194 0.41353
# Poissons Ratio (y) = 0.32194 0.32687
# Poissons Ratio (z) = 0.37515 0.27811
#
# Static dielectric constant tensor:
#      x y z
#    x 3.678080 -0.000010 -0.045260 
#    y -0.000010 3.972120 0.000000 
#    z -0.045260 0.000000 4.229040 
# 
# 
# High freq. dielectric constant tensor:
#      x y z
#    x 1.797920 0.000000 -0.010760 
#    y 0.000000 1.832360 0.000000 
#    z -0.010760 0.000000 1.832790 
# 
# From -- ./inp_files/150544.got.cif
#   From: 2010.06.25/outbox.cif.g09.slc.cpg/sg15_76_cif.got.tgz:150544.got - 2010.06.28 07:06:18.
