data_PCOD8143996
_publ_section_title
;
Structure prediction by ZEFSAII (Michael W. Deem and Ramdas Pophale) SiO2 
 PCOD8143996
Probable space group: C 2/C
;
_chemical_formula_sum "Si O2"
_cell_formula_units_Z 56
_cell_length_a 27.090419
_cell_length_b 17.883723
_cell_length_c 8.884020
_cell_angle_alpha 90.000000
_cell_angle_beta 142.062052
_cell_angle_gamma 90.000000
_cell_volume 2646.198841
_symmetry_space_group_name_H-M "C 2/C"
_symmetry_group_IT_number 15
_symmetry_cell_setting 'monoclinic'
loop_
_space_group_symop_operation_xyz
x,y,z
-x,y,1/2-z
-x,-y,-z
x,-y,1/2+z
1/2+x,1/2+y,z
1/2-x,1/2+y,1/2-z
1/2-x,1/2-y,-z
1/2+x,1/2-y,1/2+z
loop_
_atom_site_type_symbol
_atom_site_label
_atom_site_fract_x
_atom_site_fract_y
_atom_site_fract_z
Si Si1 0.310494 0.542687 0.594890
Si Si2 0.000000 0.708684 0.250000
Si Si3 0.695623 0.395118 0.084080
Si Si4 0.000000 0.330638 0.250000
Si Si5 0.939133 0.789430 0.832613
Si Si6 0.376254 0.092665 0.038077
Si Si7 0.029947 0.074514 0.650530
Si Si8 0.129511 0.550134 0.149445
O O1 0.322029 0.453105 0.595361
O O2 0.326083 0.565846 0.806799
O O3 0.373780 0.582328 0.634752
O O4 0.221957 0.565541 0.323640
O O5 0.941571 0.657578 0.209623
O O6 0.060246 0.759272 0.494314
O O7 0.788667 0.371145 0.302119
O O8 0.646873 0.318134 0.936289
O O9 0.023589 0.278186 0.169902
O O10 0.077074 0.381942 0.462980
O O11 0.997333 0.859960 0.966540
O O12 0.376004 0.043451 0.186294
O O13 0.400365 0.031972 0.970540
O O14 0.000000 0.078922 0.750000
O O15 0.000000 0.000000 0.500000
#
# Coordination Sequence:
#
# PCOD8143996 Si02
#       8
#     8   4   8   4   8   8   8   8
#     4  10  21  41  68  99 127 167 221 281 322 384
#     4  12  25  44  61  92 142 174 216 272 331 400
#     4  10  22  42  67  98 130 169 224 272 331 388
#     4  12  25  44  65 100 134 178 226 262 339 394
#     4  12  26  42  62  94 134 180 215 273 328 402
#     4  10  23  44  69  98 129 172 222 276 330 392
#     4  12  24  40  66  93 128 172 220 270 322 391
#     4  10  23  43  71  98 130 171 223 277 324 396
#
# _framework density 21.162428999999999
#
# number of rings (size 3 to 8) (size 9 to 14) (size 15 to 20)
#    0.000    1.143    3.571    2.143    3.000    1.714 
#    2.571    2.143    0.000    0.000    0.000    0.000 
#    0.000    0.000    0.000    0.000    0.000    0.000 
#
# Total GULP energy -347064.321193 kJ/mol
# GULP energy per Si atom -12395.154328 kJ/mol
# Density = 2.111426 g / cm^3
# Si number density = 21.162429 Si / 1000 Ang^3
#
#
#
# Elastic Constant Matrix: (Units=GPa)
#
#
# Indices 1 2 3 4 5 6 
#
# 1 94.5939 40.6988 49.1961 0.0000 11.5555 0.0000
# 2 40.6988 112.9617 61.0873 0.0000 11.7618 0.0000
# 3 49.1961 61.0873 113.5946 0.0000 4.8413 0.0000
# 4 0.0000 0.0000 0.0000 44.7927 0.0000 -1.4891
# 5 11.5555 11.7618 4.8413 0.0000 34.0746 0.0000
# 6 0.0000 0.0000 0.0000 -1.4891 0.0000 23.9114
#
#
#
# Elastic Compliance Matrix: (Units=1/GPa)
#
#
# Indices 1 2 3 4 5 6 
#
# 1 0.014516 -0.002185 -0.004964 0.000000 -0.003463 0.000000
# 2 -0.002185 0.013210 -0.006031 0.000000 -0.002962 0.000000
# 3 -0.004964 -0.006031 0.014122 0.000000 0.001759 0.000000
# 4 0.000000 0.000000 0.000000 0.022371 0.000000 0.001393
# 5 -0.003463 -0.002962 0.001759 0.000000 0.031294 0.000000
# 6 0.000000 0.000000 0.000000 0.001393 0.000000 0.041908
#
#
# Mechanical properties :
#
#
# Convention : Reuss Voigt Hill
#
# Bulk Modulus (GPa) = 64.57069 69.23494 66.90282
# Shear Modulus (GPa) = 29.59552 31.90029 30.74791
#
# Velocity S-wave (km/s) = 3.74370 3.88674 3.81589
# Velocity P-wave (km/s) = 7.01892 7.27525 7.14824
#
# Compressibility (1/GPa) = 0.01548690
#
# Stress axis : x y z
#
# Youngs Moduli (GPa) = 68.88740 75.70179 70.81344
#
# Poissons Ratio (x) = 0.16540 0.35154
# Poissons Ratio (y) = 0.15051 0.42709
# Poissons Ratio (z) = 0.34198 0.45658
#
# Static dielectric constant tensor:
#      x y z
#    x 3.875130 0.000000 0.048150 
#    y 0.000000 3.861540 0.000000 
#    z 0.048150 0.000000 4.048190 
# 
# 
# High freq. dielectric constant tensor:
#      x y z
#    x 1.831050 0.000000 0.002980 
#    y 0.000000 1.821650 0.000000 
#    z 0.002980 0.000000 1.842280 
# 
# From -- ./inp_files/67233.got.cif
#   From: 2010.06.25/outbox.cif.g09.slc.cpg/sg15_34_cif.got.tgz:67233.got - 2010.06.28 07:06:18.
