data_PCOD8143936
_publ_section_title
;
Structure prediction by ZEFSAII (Michael W. Deem and Ramdas Pophale) SiO2 
 PCOD8143936
Probable space group: C 2/C
;
_chemical_formula_sum "Si O2"
_cell_formula_units_Z 56
_cell_length_a 10.938242
_cell_length_b 11.252648
_cell_length_c 25.092276
_cell_angle_alpha 90.000000
_cell_angle_beta 132.062843
_cell_angle_gamma 90.000000
_cell_volume 2292.906798
_symmetry_space_group_name_H-M "C 2/C"
_symmetry_group_IT_number 15
_symmetry_cell_setting 'monoclinic'
loop_
_space_group_symop_operation_xyz
x,y,z
-x,y,1/2-z
-x,-y,-z
x,-y,1/2+z
1/2+x,1/2+y,z
1/2-x,1/2+y,1/2-z
1/2-x,1/2-y,-z
1/2+x,1/2-y,1/2+z
loop_
_atom_site_type_symbol
_atom_site_label
_atom_site_fract_x
_atom_site_fract_y
_atom_site_fract_z
Si Si1 0.898629 0.579516 0.847164
Si Si2 0.828834 0.237109 0.080592
Si Si3 0.918555 0.680223 0.397924
Si Si4 0.164726 0.837227 0.527231
Si Si5 0.621344 0.711097 0.829781
Si Si6 0.974810 0.952917 0.563163
Si Si7 0.646738 0.391876 0.186770
O O1 0.936150 0.457579 0.888740
O O2 0.791594 0.664618 0.854501
O O3 0.801405 0.557560 0.763821
O O4 0.065950 0.644246 0.877767
O O5 0.701572 0.205022 0.088581
O O6 0.942762 0.121075 0.107562
O O7 0.750000 0.250000 0.000000
O O8 0.841403 0.751576 0.325134
O O9 0.101565 0.728820 0.469952
O O10 0.331007 0.804714 0.608786
O O11 0.018367 0.866833 0.526842
O O12 0.179642 0.960569 0.498090
O O13 0.500000 0.771739 0.750000
O O14 0.518636 0.600688 0.824696
O O15 0.127991 0.036587 0.625802
#
# Coordination Sequence:
#
# PCOD8143936 Si02
#       7
#     8   8   8   8   8   8   8
#     4  11  25  44  69 101 142 182 238 295 354 430
#     4  12  24  43  71 104 139 184 234 293 359 426
#     4  11  25  45  70 104 142 181 238 293 359 425
#     4  10  21  42  67  96 132 177 231 288 346 417
#     4  10  21  42  66  97 130 177 235 284 351 420
#     4  10  21  41  67  91 136 176 225 283 349 412
#     4  10  25  43  66 100 132 187 232 288 359 425
#
# _framework density 24.423148000000001
#
# number of rings (size 3 to 8) (size 9 to 14) (size 15 to 20)
#    0.000    1.429    2.857    0.857    2.000    7.429 
#    0.000    0.000    0.000    0.000    0.000    0.000 
#    0.000    0.000    0.000    0.000    0.000    0.000 
#
# Total GULP energy -347016.239048 kJ/mol
# GULP energy per Si atom -12393.437109 kJ/mol
# Density = 2.436756 g / cm^3
# Si number density = 24.423148 Si / 1000 Ang^3
#
#
#
# Elastic Constant Matrix: (Units=GPa)
#
#
# Indices 1 2 3 4 5 6 
#
# 1 40.6232 20.4267 19.2900 0.0000 -4.1813 0.0000
# 2 20.4267 125.8807 69.8869 0.0000 7.1409 0.0000
# 3 19.2900 69.8869 168.9089 0.0000 -3.5060 0.0000
# 4 0.0000 0.0000 0.0000 37.4047 0.0000 -6.3389
# 5 -4.1813 7.1409 -3.5060 0.0000 33.5406 0.0000
# 6 0.0000 0.0000 0.0000 -6.3389 0.0000 26.6694
#
#
#
# Elastic Compliance Matrix: (Units=1/GPa)
#
#
# Indices 1 2 3 4 5 6 
#
# 1 0.027706 -0.003923 -0.001455 0.000000 0.004137 0.000000
# 2 -0.003923 0.011108 -0.004217 0.000000 -0.003295 0.000000
# 3 -0.001455 -0.004217 0.007863 0.000000 0.001538 0.000000
# 4 0.000000 0.000000 0.000000 0.027857 0.000000 0.006621
# 5 0.004137 -0.003295 0.001538 0.000000 0.031193 0.000000
# 6 0.000000 0.000000 0.000000 0.006621 0.000000 0.039070
#
#
# Mechanical properties :
#
#
# Convention : Reuss Voigt Hill
#
# Bulk Modulus (GPa) = 36.37888 61.62445 49.00167
# Shear Modulus (GPa) = 28.87704 34.57690 31.72697
#
# Velocity S-wave (km/s) = 3.44228 3.76672 3.60815
# Velocity P-wave (km/s) = 5.54316 6.64863 6.12091
#
# Compressibility (1/GPa) = 0.02748847
#
# Stress axis : x y z
#
# Youngs Moduli (GPa) = 36.09362 90.02180 127.17625
#
# Poissons Ratio (x) = 0.35312 0.18507
# Poissons Ratio (y) = 0.14158 0.53625
# Poissons Ratio (z) = 0.05253 0.37958
#
# Static dielectric constant tensor:
#      x y z
#    x 5.349910 0.000000 -0.596090 
#    y 0.000000 1.342390 0.000000 
#    z -0.596090 0.000000 4.657100 
# 
# 
# High freq. dielectric constant tensor:
#      x y z
#    x 1.977500 0.000000 -0.014000 
#    y 0.000000 1.964250 0.000000 
#    z -0.014000 0.000000 1.973800 
# 
# From -- ./inp_files/292303.got.cif
#   From: 2010.06.25/outbox.cif.g09.slc.cpg/sg15_147_cif.got.tgz:292303.got - 2010.06.28 07:06:18.
