data_PCOD8143682
_publ_section_title
;
Structure prediction by ZEFSAII (Michael W. Deem and Ramdas Pophale) SiO2 
 PCOD8143682
Probable space group: C 2/C
;
_chemical_formula_sum "Si O2"
_cell_formula_units_Z 44
_cell_length_a 15.709082
_cell_length_b 8.167251
_cell_length_c 24.014514
_cell_angle_alpha 90.000000
_cell_angle_beta 45.885644
_cell_angle_gamma 90.000000
_cell_volume 2212.054716
_symmetry_space_group_name_H-M "C 2/C"
_symmetry_group_IT_number 15
_symmetry_cell_setting 'monoclinic'
loop_
_space_group_symop_operation_xyz
x,y,z
-x,y,1/2-z
-x,-y,-z
x,-y,1/2+z
1/2+x,1/2+y,z
1/2-x,1/2+y,1/2-z
1/2-x,1/2-y,-z
1/2+x,1/2-y,1/2+z
loop_
_atom_site_type_symbol
_atom_site_label
_atom_site_fract_x
_atom_site_fract_y
_atom_site_fract_z
Si Si1 0.098871 0.959698 0.824800
Si Si2 0.966670 0.672922 0.577712
Si Si3 0.832604 0.628840 0.743842
Si Si4 0.500000 0.058189 0.250000
Si Si5 0.643671 0.101845 0.988216
Si Si6 0.904144 0.197687 0.881140
O O1 0.020530 0.861008 0.906791
O O2 0.162304 0.827531 0.754857
O O3 0.197977 0.068095 0.810655
O O4 0.014616 0.074747 0.826910
O O5 0.884841 0.574227 0.659641
O O6 0.903388 0.678607 0.547322
O O7 0.094195 0.583300 0.517169
O O8 0.909521 0.555153 0.758185
O O9 0.580900 0.166185 0.172737
O O10 0.597648 0.219338 0.057810
O O11 0.785569 0.094163 0.923471
#
# Coordination Sequence:
#
# PCOD8143682 Si02
#       6
#     8   8   8   4   8   8
#     4  10  22  40  63  93 123 161 212 244 320 355
#     4   9  21  41  61  90 123 167 205 256 302 371
#     4  10  22  40  61  91 123 160 205 261 298 370
#     4  12  22  42  62  90 128 160 216 256 314 360
#     4  10  21  41  63  87 127 164 207 251 311 367
#     4  11  23  37  65  93 122 169 203 255 312 372
#
# _framework density 19.891010000000001
#
# number of rings (size 3 to 8) (size 9 to 14) (size 15 to 20)
#    1.091    0.727    1.818    2.182    2.545    2.182 
#    0.000    0.000    0.000    0.000    0.000    0.000 
#    0.000    0.000    0.000    0.000    0.000    0.000 
#
# Total GULP energy -272721.799213 kJ/mol
# GULP energy per Si atom -12396.445419 kJ/mol
# Density = 1.984574 g / cm^3
# Si number density = 19.891010 Si / 1000 Ang^3
#
#
#
# Elastic Constant Matrix: (Units=GPa)
#
#
# Indices 1 2 3 4 5 6 
#
# 1 144.3586 59.9081 49.4116 0.0002 -7.8928 0.0005
# 2 59.9081 98.3301 27.1986 0.0004 -11.9190 0.0013
# 3 49.4116 27.1986 46.4345 -0.0001 1.3302 -0.0001
# 4 0.0002 0.0004 -0.0001 20.9056 0.0000 -14.9237
# 5 -7.8928 -11.9190 1.3302 0.0000 40.7771 0.0001
# 6 0.0005 0.0013 -0.0001 -14.9237 0.0001 27.5506
#
#
#
# Elastic Compliance Matrix: (Units=1/GPa)
#
#
# Indices 1 2 3 4 5 6 
#
# 1 0.012561 -0.004494 -0.010776 0.000000 0.001469 0.000000
# 2 -0.004494 0.014356 -0.003726 -0.000001 0.003448 -0.000001
# 3 -0.010776 -0.003726 0.035309 0.000001 -0.004327 0.000001
# 4 0.000000 -0.000001 0.000001 0.077994 0.000000 0.042248
# 5 0.001469 0.003448 -0.004327 0.000000 0.025957 -0.000001
# 6 0.000000 -0.000001 0.000001 0.042248 -0.000001 0.059182
#
#
# Mechanical properties :
#
#
# Convention : Reuss Voigt Hill
#
# Bulk Modulus (GPa) = 41.26324 62.46219 51.86271
# Shear Modulus (GPa) = 18.42105 28.02030 23.22068
#
# Velocity S-wave (km/s) = 3.04649 3.75733 3.42042
# Velocity P-wave (km/s) = 5.75886 7.09181 6.45981
#
# Compressibility (1/GPa) = 0.02423465
#
# Stress axis : x y z
#
# Youngs Moduli (GPa) = 79.61145 69.65565 28.32146
#
# Poissons Ratio (x) = 0.31304 0.30519
# Poissons Ratio (y) = 0.35778 0.10552
# Poissons Ratio (z) = 0.85790 0.25951
#
# Static dielectric constant tensor:
#      x y z
#    x 3.557600 0.000000 0.010930 
#    y 0.000000 3.486850 0.000000 
#    z 0.010930 0.000000 3.548890 
# 
# 
# High freq. dielectric constant tensor:
#      x y z
#    x 1.782660 0.000000 0.002150 
#    y 0.000000 1.770180 0.000000 
#    z 0.002150 0.000000 1.765640 
# 
# From -- ./inp_files/203078.got.cif
#   From: 2010.06.25/outbox.cif.g09.slc.cpg/sg15_102_cif.got.tgz:203078.got - 2010.06.28 07:06:18.
