data_PCOD8143221
_publ_section_title
;
Structure prediction by ZEFSAII (Michael W. Deem and Ramdas Pophale) SiO2 
 PCOD8143221
Probable space group: C 2/C
;
_chemical_formula_sum "Si O2"
_cell_formula_units_Z 60
_cell_length_a 16.758111
_cell_length_b 9.106503
_cell_length_c 18.958299
_cell_angle_alpha 90.000000
_cell_angle_beta 95.348383
_cell_angle_gamma 90.000000
_cell_volume 2880.588141
_symmetry_space_group_name_H-M "C 2/C"
_symmetry_group_IT_number 15
_symmetry_cell_setting 'monoclinic'
loop_
_space_group_symop_operation_xyz
x,y,z
-x,y,1/2-z
-x,-y,-z
x,-y,1/2+z
1/2+x,1/2+y,z
1/2-x,1/2+y,1/2-z
1/2-x,1/2-y,-z
1/2+x,1/2-y,1/2+z
loop_
_atom_site_type_symbol
_atom_site_label
_atom_site_fract_x
_atom_site_fract_y
_atom_site_fract_z
Si Si1 0.752627 0.962810 0.167307
Si Si2 0.675388 0.314587 0.726573
Si Si3 0.083980 0.960923 0.377123
Si Si4 0.057272 0.259359 0.993330
Si Si5 0.333121 0.454855 0.920111
Si Si6 0.383615 0.711841 0.010438
Si Si7 0.000000 0.891746 0.750000
Si Si8 0.688356 0.990211 0.006594
O O1 0.703864 0.849212 0.211673
O O2 0.840636 0.895283 0.159444
O O3 0.704291 0.984177 0.091161
O O4 0.767474 0.118456 0.207744
O O5 0.688036 0.428679 0.662893
O O6 0.582078 0.299871 0.743936
O O7 0.047937 0.834743 0.421922
O O8 0.118191 0.099285 0.424548
O O9 0.012297 0.007557 0.319765
O O10 0.105814 0.407262 0.983005
O O11 0.968089 0.295678 0.011275
O O12 0.097900 0.162443 0.057352
O O13 0.363696 0.620076 0.937507
O O14 0.258639 0.417247 0.966056
O O15 0.318732 0.839777 0.017516
#
# Coordination Sequence:
#
# PCOD8143221 Si02
#       8
#     8   8   8   8   8   8   4   8
#     4  11  24  41  63  92 125 164 207 253 307 374
#     4  11  24  41  66  90 123 164 208 254 312 365
#     4  10  21  40  64  90 118 165 209 252 296 375
#     4  11  20  38  61  90 123 159 206 253 306 359
#     4  11  21  39  67  89 118 165 210 250 303 373
#     4  11  23  35  62  94 125 157 205 254 308 359
#     4  10  22  42  66  86 128 162 208 248 310 378
#     4  12  23  39  63  94 130 158 205 261 313 359
#
# _framework density 20.829080000000001
#
# number of rings (size 3 to 8) (size 9 to 14) (size 15 to 20)
#    0.000    1.067    4.000    5.200    1.867    1.067 
#    0.000    0.000    0.000    0.800    0.000    0.000 
#    0.000    0.000    0.000    0.000    0.000    0.000 
#
# Total GULP energy -371983.514891 kJ/mol
# GULP energy per Si atom -12399.450496 kJ/mol
# Density = 2.078167 g / cm^3
# Si number density = 20.829080 Si / 1000 Ang^3
#
#
#
# Elastic Constant Matrix: (Units=GPa)
#
#
# Indices 1 2 3 4 5 6 
#
# 1 96.4079 24.1952 14.8509 0.0000 -10.3932 0.0000
# 2 24.1952 70.1572 15.9104 0.0000 0.5671 0.0000
# 3 14.8509 15.9104 80.5344 0.0000 -7.6344 0.0000
# 4 0.0000 0.0000 0.0000 16.7324 0.0000 -4.7582
# 5 -10.3932 0.5671 -7.6344 0.0000 23.3191 0.0000
# 6 0.0000 0.0000 0.0000 -4.7582 0.0000 32.2811
#
#
#
# Elastic Compliance Matrix: (Units=1/GPa)
#
#
# Indices 1 2 3 4 5 6 
#
# 1 0.012078 -0.003992 -0.000948 0.000000 0.005170 0.000000
# 2 -0.003992 0.016284 -0.002773 0.000000 -0.003083 0.000000
# 3 -0.000948 -0.002773 0.013526 0.000000 0.004073 0.000000
# 4 0.000000 0.000000 0.000000 0.062379 0.000000 0.009195
# 5 0.005170 -0.003083 0.004073 0.000000 0.046596 0.000000
# 6 0.000000 0.000000 0.000000 0.009195 0.000000 0.032333
#
#
# Mechanical properties :
#
#
# Convention : Reuss Voigt Hill
#
# Bulk Modulus (GPa) = 37.79203 39.66805 38.73004
# Shear Modulus (GPa) = 24.10290 27.27603 25.68946
#
# Velocity S-wave (km/s) = 3.40542 3.62265 3.51571
# Velocity P-wave (km/s) = 5.80050 6.04847 5.92578
#
# Compressibility (1/GPa) = 0.02646061
#
# Stress axis : x y z
#
# Youngs Moduli (GPa) = 82.79596 61.40889 73.93194
#
# Poissons Ratio (x) = 0.24514 0.07012
# Poissons Ratio (y) = 0.33052 0.20503
# Poissons Ratio (z) = 0.07853 0.17030
#
# Static dielectric constant tensor:
#      x y z
#    x 3.838220 0.000000 0.032350 
#    y 0.000000 3.539650 0.000000 
#    z 0.032350 0.000000 3.838070 
# 
# 
# High freq. dielectric constant tensor:
#      x y z
#    x 1.829150 0.000000 -0.000010 
#    y 0.000000 1.794630 0.000000 
#    z -0.000010 0.000000 1.812810 
# 
# From -- ./inp_files/247520.got.cif
#   From: 2010.06.25/outbox.cif.g09.slc.cpg/sg15_124_cif.got.tgz:247520.got - 2010.06.28 07:06:18.
