data_PCOD8143242
_publ_section_title
;
Structure prediction by ZEFSAII (Michael W. Deem and Ramdas Pophale) SiO2 
 PCOD8143242
Probable space group: C 2/C
;
_chemical_formula_sum "Si O2"
_cell_formula_units_Z 60
_cell_length_a 26.722236
_cell_length_b 9.176708
_cell_length_c 21.139635
_cell_angle_alpha 90.000000
_cell_angle_beta 34.279805
_cell_angle_gamma 90.000000
_cell_volume 2919.756966
_symmetry_space_group_name_H-M "C 2/C"
_symmetry_group_IT_number 15
_symmetry_cell_setting 'monoclinic'
loop_
_space_group_symop_operation_xyz
x,y,z
-x,y,1/2-z
-x,-y,-z
x,-y,1/2+z
1/2+x,1/2+y,z
1/2-x,1/2+y,1/2-z
1/2-x,1/2-y,-z
1/2+x,1/2-y,1/2+z
loop_
_atom_site_type_symbol
_atom_site_label
_atom_site_fract_x
_atom_site_fract_y
_atom_site_fract_z
Si Si1 0.783735 0.218817 0.067746
Si Si2 0.339588 0.226707 0.712896
Si Si3 0.000000 0.308524 0.750000
Si Si4 0.854297 0.111066 0.871012
Si Si5 0.709828 0.904744 0.768038
Si Si6 0.777120 0.831417 0.908288
Si Si7 0.112884 0.518885 0.036925
Si Si8 0.529251 0.869386 0.011765
O O1 0.724835 0.311847 0.082205
O O2 0.725766 0.131502 0.178359
O O3 0.839547 0.111209 0.963256
O O4 0.846135 0.336062 0.040111
O O5 0.294271 0.363115 0.723686
O O6 0.312658 0.226720 0.815270
O O7 0.447651 0.246057 0.596844
O O8 0.307403 0.078013 0.712090
O O9 0.944771 0.200019 0.761242
O O10 0.933288 0.418382 0.852945
O O11 0.856111 0.945240 0.843985
O O12 0.624162 0.814007 0.884544
O O13 0.750000 0.750000 0.000000
O O14 0.689034 0.907498 0.975377
O O15 0.042195 0.433503 0.068428
O O16 0.500000 0.000000 0.000000
#
# Coordination Sequence:
#
# PCOD8143242 Si02
#       8
#     8   8   4   8   8   8   8   8
#     4   9  18  36  65  87 119 167 207 261 313 386
#     4  11  25  41  66  95 129 172 218 264 330 385
#     4  10  22  36  62  96 124 164 210 274 318 384
#     4   9  20  37  59  94 122 156 215 258 322 378
#     4  11  22  42  66  89 131 169 215 267 321 389
#     4  11  23  42  64  89 131 176 214 269 331 396
#     4  10  21  40  64  92 126 167 220 258 328 393
#     4  10  22  39  61  93 121 164 219 260 314 390
#
# _framework density 20.549655999999999
#
# number of rings (size 3 to 8) (size 9 to 14) (size 15 to 20)
#    0.000    1.867    1.333    3.200    7.467    0.000 
#    2.400    2.000    0.000    0.000    0.000    0.000 
#    0.000    0.000    0.000    0.000    0.000    0.000 
#
# Total GULP energy -371683.994260 kJ/mol
# GULP energy per Si atom -12389.466475 kJ/mol
# Density = 2.050288 g / cm^3
# Si number density = 20.549656 Si / 1000 Ang^3
#
#
#
# Elastic Constant Matrix: (Units=GPa)
#
#
# Indices 1 2 3 4 5 6 
#
# 1 87.2923 29.5606 35.2649 0.0006 -2.3451 -0.0050
# 2 29.5606 60.8816 26.9611 0.0175 -4.2595 0.0003
# 3 35.2649 26.9611 101.8378 0.0113 -7.6971 0.0064
# 4 0.0006 0.0175 0.0113 31.4507 -0.0033 -3.2780
# 5 -2.3451 -4.2595 -7.6971 -0.0033 38.0863 0.0016
# 6 -0.0050 0.0003 0.0064 -3.2780 0.0016 15.9660
#
#
#
# Elastic Compliance Matrix: (Units=1/GPa)
#
#
# Indices 1 2 3 4 5 6 
#
# 1 0.014829 -0.005599 -0.003687 0.000005 -0.000458 0.000007
# 2 -0.005599 0.020767 -0.003462 -0.000010 0.001278 -0.000003
# 3 -0.003687 -0.003462 0.012152 -0.000003 0.001842 -0.000007
# 4 0.000005 -0.000010 -0.000003 0.032491 0.000001 0.006671
# 5 -0.000458 0.001278 0.001842 0.000001 0.026743 -0.000003
# 6 0.000007 -0.000003 -0.000007 0.006671 -0.000003 0.064003
#
#
# Mechanical properties :
#
#
# Convention : Reuss Voigt Hill
#
# Bulk Modulus (GPa) = 44.94360 48.17610 46.55985
# Shear Modulus (GPa) = 24.52185 27.64895 26.08540
#
# Velocity S-wave (km/s) = 3.45816 3.67204 3.56671
# Velocity P-wave (km/s) = 6.15332 6.43997 6.29828
#
# Compressibility (1/GPa) = 0.02225011
#
# Stress axis : x y z
#
# Youngs Moduli (GPa) = 67.43420 48.15392 82.28918
#
# Poissons Ratio (x) = 0.26963 0.30343
# Poissons Ratio (y) = 0.37759 0.28491
# Poissons Ratio (z) = 0.24866 0.16672
#
# Static dielectric constant tensor:
#      x y z
#    x 3.953920 0.000000 -0.444550 
#    y 0.000000 3.680370 0.000000 
#    z -0.444550 0.000000 4.498270 
# 
# 
# High freq. dielectric constant tensor:
#      x y z
#    x 1.808880 0.000000 0.000630 
#    y 0.000000 1.780100 0.000000 
#    z 0.000630 0.000000 1.806290 
# 
# From -- ./inp_files/255172.got.cif
#   From: 2010.06.25/outbox.cif.g09.slc.cpg/sg15_128_cif.got.tgz:255172.got - 2010.06.28 07:06:18.
