data_PCOD8143727
_publ_section_title
;
Structure prediction by ZEFSAII (Michael W. Deem and Ramdas Pophale) SiO2 
 PCOD8143727
Probable space group: C 2/C
;
_chemical_formula_sum "Si O2"
_cell_formula_units_Z 60
_cell_length_a 16.747485
_cell_length_b 7.892214
_cell_length_c 21.173441
_cell_angle_alpha 90.000000
_cell_angle_beta 78.903929
_cell_angle_gamma 90.000000
_cell_volume 2746.276668
_symmetry_space_group_name_H-M "C 2/C"
_symmetry_group_IT_number 15
_symmetry_cell_setting 'monoclinic'
loop_
_space_group_symop_operation_xyz
x,y,z
-x,y,1/2-z
-x,-y,-z
x,-y,1/2+z
1/2+x,1/2+y,z
1/2-x,1/2+y,1/2-z
1/2-x,1/2-y,-z
1/2+x,1/2-y,1/2+z
loop_
_atom_site_type_symbol
_atom_site_label
_atom_site_fract_x
_atom_site_fract_y
_atom_site_fract_z
Si Si1 0.315103 0.300716 0.438517
Si Si2 0.997000 0.175393 0.931992
Si Si3 0.671165 0.280951 0.202696
Si Si4 0.930907 0.499538 0.139349
Si Si5 0.975948 0.198502 0.429703
Si Si6 0.242210 0.608843 0.312312
Si Si7 0.299304 0.696233 0.430636
Si Si8 0.000000 0.614312 0.250000
O O1 0.250000 0.250000 0.500000
O O2 0.404834 0.254352 0.449888
O O3 0.300573 0.215425 0.371549
O O4 0.308084 0.497789 0.431152
O O5 0.050793 0.309524 0.886208
O O6 0.036639 0.166363 0.994532
O O7 0.000807 0.987862 0.898136
O O8 0.679999 0.484903 0.206457
O O9 0.727996 0.204392 0.248784
O O10 0.576455 0.236147 0.224627
O O11 0.834232 0.486521 0.160896
O O12 0.978327 0.482754 0.197997
O O13 0.956834 0.343141 0.091433
O O14 0.890414 0.272792 0.416765
O O15 0.256545 0.739748 0.369397
O O16 0.250000 0.750000 0.500000
#
# Coordination Sequence:
#
# PCOD8143727 Si02
#       8
#     8   8   8   8   8   8   8   4
#     4  10  22  37  65  94 128 174 220 266 343 397
#     4  10  21  41  63  96 135 171 216 279 331 395
#     4  10  22  45  63  96 132 170 226 270 330 413
#     4  11  22  41  68  93 128 177 221 269 332 397
#     4  10  23  38  63  96 129 168 229 266 327 403
#     4  10  24  42  65  95 132 171 222 271 344 398
#     4  10  22  38  58  94 132 168 217 277 327 394
#     4  10  22  42  70  92 126 182 220 268 338 402
#
# _framework density 21.847760999999998
#
# number of rings (size 3 to 8) (size 9 to 14) (size 15 to 20)
#    0.000    1.867    1.333    1.200    5.600    3.200 
#    4.800    0.667    0.000    0.000    0.000    0.000 
#    0.000    0.000    0.000    0.000    0.000    0.000 
#
# Total GULP energy -371810.959060 kJ/mol
# GULP energy per Si atom -12393.698635 kJ/mol
# Density = 2.179804 g / cm^3
# Si number density = 21.847761 Si / 1000 Ang^3
#
#
#
# Elastic Constant Matrix: (Units=GPa)
#
#
# Indices 1 2 3 4 5 6 
#
# 1 83.8884 16.8544 39.6865 0.0000 17.2673 0.0000
# 2 16.8544 65.6919 21.4764 0.0000 -7.6060 0.0000
# 3 39.6865 21.4764 130.0970 0.0000 15.3702 0.0000
# 4 0.0000 0.0000 0.0000 29.6492 0.0000 -1.5140
# 5 17.2673 -7.6060 15.3702 0.0000 39.7770 0.0000
# 6 0.0000 0.0000 0.0000 -1.5140 0.0000 24.8965
#
#
#
# Elastic Compliance Matrix: (Units=1/GPa)
#
#
# Indices 1 2 3 4 5 6 
#
# 1 0.015510 -0.003566 -0.003423 0.000000 -0.006092 0.000000
# 2 -0.003566 0.017644 -0.002522 0.000000 0.005896 0.000000
# 3 -0.003423 -0.002522 0.009460 0.000000 -0.002652 0.000000
# 4 0.000000 0.000000 0.000000 0.033833 0.000000 0.002057
# 5 -0.006092 0.005896 -0.002652 0.000000 0.029937 0.000000
# 6 0.000000 0.000000 0.000000 0.002057 0.000000 0.040291
#
#
# Mechanical properties :
#
#
# Convention : Reuss Voigt Hill
#
# Bulk Modulus (GPa) = 42.38305 48.41246 45.39776
# Shear Modulus (GPa) = 28.80813 32.30853 30.55833
#
# Velocity S-wave (km/s) = 3.63517 3.84969 3.74397
# Velocity P-wave (km/s) = 6.08775 6.47822 6.28601
#
# Compressibility (1/GPa) = 0.02359434
#
# Stress axis : x y z
#
# Youngs Moduli (GPa) = 64.47273 56.67495 105.70421
#
# Poissons Ratio (x) = 0.20209 0.36184
# Poissons Ratio (y) = 0.22989 0.26654
# Poissons Ratio (z) = 0.22070 0.14291
#
# Static dielectric constant tensor:
#      x y z
#    x 4.204740 0.000000 0.591940 
#    y 0.000000 3.751440 0.000000 
#    z 0.591940 0.000000 4.101730 
# 
# 
# High freq. dielectric constant tensor:
#      x y z
#    x 1.867600 0.000000 0.018190 
#    y 0.000000 1.838840 0.000000 
#    z 0.018190 0.000000 1.864810 
# 
# From -- ./inp_files/247434.got.cif
#   From: 2010.06.25/outbox.cif.g09.slc.cpg/sg15_124_cif.got.tgz:247434.got - 2010.06.28 07:06:18.
