data_PCOD8143170
_publ_section_title
;
Structure prediction by ZEFSAII (Michael W. Deem and Ramdas Pophale) SiO2 
 PCOD8143170
Probable space group: C 2/C
;
_chemical_formula_sum "Si O2"
_cell_formula_units_Z 52
_cell_length_a 21.101159
_cell_length_b 7.852650
_cell_length_c 14.796399
_cell_angle_alpha 90.000000
_cell_angle_beta 80.927998
_cell_angle_gamma 90.000000
_cell_volume 2421.094380
_symmetry_space_group_name_H-M "C 2/C"
_symmetry_group_IT_number 15
_symmetry_cell_setting 'monoclinic'
loop_
_space_group_symop_operation_xyz
x,y,z
-x,y,1/2-z
-x,-y,-z
x,-y,1/2+z
1/2+x,1/2+y,z
1/2-x,1/2+y,1/2-z
1/2-x,1/2-y,-z
1/2+x,1/2-y,1/2+z
loop_
_atom_site_type_symbol
_atom_site_label
_atom_site_fract_x
_atom_site_fract_y
_atom_site_fract_z
Si Si1 0.630503 0.308932 0.065116
Si Si2 0.823537 0.443457 0.457019
Si Si3 0.543799 0.164275 0.589426
Si Si4 0.388801 0.633794 0.734873
Si Si5 0.500000 0.609254 0.250000
Si Si6 0.487679 0.196801 0.094684
Si Si7 0.186249 0.890647 0.429787
O O1 0.651180 0.307158 0.167256
O O2 0.552925 0.306692 0.082512
O O3 0.661643 0.138389 0.012515
O O4 0.653061 0.480549 0.009418
O O5 0.886063 0.381832 0.386137
O O6 0.816552 0.309268 0.541497
O O7 0.761234 0.441639 0.408063
O O8 0.502087 0.285480 0.658823
O O9 0.551158 0.248109 0.487809
O O10 0.499567 0.001072 0.591378
O O11 0.431597 0.478879 0.758990
O O12 0.441435 0.770842 0.689965
O O13 0.340984 0.583083 0.664652
#
# Coordination Sequence:
#
# PCOD8143170 Si02
#       7
#     8   8   8   8   4   8   8
#     4  11  23  43  67  95 130 171 221 271 325 385
#     4  10  23  44  68  89 126 178 213 273 324 386
#     4  10  22  39  65  93 122 166 217 261 332 389
#     4  12  24  40  63  99 131 171 214 272 326 390
#     4  12  24  36  64  98 128 168 212 278 328 390
#     4  10  21  40  63  91 128 165 207 271 328 384
#     4  11  24  46  66  93 134 174 222 268 325 389
#
# _framework density 21.477892000000001
#
# number of rings (size 3 to 8) (size 9 to 14) (size 15 to 20)
#    0.000    1.231    3.077    2.308    4.308    1.231 
#    8.308    0.000    0.000    0.000    0.000    0.000 
#    0.000    0.000    0.000    0.000    0.000    0.000 
#
# Total GULP energy -322190.664558 kJ/mol
# GULP energy per Si atom -12391.948637 kJ/mol
# Density = 2.142901 g / cm^3
# Si number density = 21.477892 Si / 1000 Ang^3
#
#
#
# Elastic Constant Matrix: (Units=GPa)
#
#
# Indices 1 2 3 4 5 6 
#
# 1 113.8586 28.3235 33.2339 0.0000 23.3898 0.0000
# 2 28.3235 99.1803 53.1972 0.0000 3.0826 0.0000
# 3 33.2339 53.1972 120.0257 0.0000 15.4250 0.0000
# 4 0.0000 0.0000 0.0000 24.3081 0.0000 -0.7260
# 5 23.3898 3.0826 15.4250 0.0000 29.8373 0.0000
# 6 0.0000 0.0000 0.0000 -0.7260 0.0000 32.4204
#
#
#
# Elastic Compliance Matrix: (Units=1/GPa)
#
#
# Indices 1 2 3 4 5 6 
#
# 1 0.011357 -0.002445 -0.001017 0.000000 -0.008125 0.000000
# 2 -0.002445 0.013843 -0.005914 0.000000 0.003544 0.000000
# 3 -0.001017 -0.005914 0.011840 0.000000 -0.004713 0.000000
# 4 0.000000 0.000000 0.000000 0.041166 0.000000 0.000922
# 5 -0.008125 0.003544 -0.004713 0.000000 0.041954 0.000000
# 6 0.000000 0.000000 0.000000 0.000922 0.000000 0.030865
#
#
# Mechanical properties :
#
#
# Convention : Reuss Voigt Hill
#
# Bulk Modulus (GPa) = 54.68087 62.50820 58.59454
# Shear Modulus (GPa) = 28.42966 31.86716 30.14841
#
# Velocity S-wave (km/s) = 3.64218 3.85609 3.75066
# Velocity P-wave (km/s) = 6.57280 6.99947 6.78949
#
# Compressibility (1/GPa) = 0.01828793
#
# Stress axis : x y z
#
# Youngs Moduli (GPa) = 88.05204 72.23996 84.46139
#
# Poissons Ratio (x) = 0.17666 0.08587
# Poissons Ratio (y) = 0.21533 0.49948
# Poissons Ratio (z) = 0.08952 0.42720
#
# Static dielectric constant tensor:
#      x y z
#    x 4.245190 0.000000 0.361300 
#    y 0.000000 3.977090 0.000000 
#    z 0.361300 0.000000 4.099740 
# 
# 
# High freq. dielectric constant tensor:
#      x y z
#    x 1.849790 0.000000 0.004170 
#    y 0.000000 1.850050 0.000000 
#    z 0.004170 0.000000 1.824160 
# 
# From -- ./inp_files/166254.got.cif
#   From: 2010.06.25/outbox.cif.g09.slc.cpg/sg15_84_cif.got.tgz:166254.got - 2010.06.28 07:06:18.
