data_PCOD8143305
_publ_section_title
;
Structure prediction by ZEFSAII (Michael W. Deem and Ramdas Pophale) SiO2 
 PCOD8143305
Probable space group: C 2/C
;
_chemical_formula_sum "Si O2"
_cell_formula_units_Z 48
_cell_length_a 20.836543
_cell_length_b 7.453915
_cell_length_c 25.827874
_cell_angle_alpha 90.000000
_cell_angle_beta 145.199573
_cell_angle_gamma 90.000000
_cell_volume 2289.399669
_symmetry_space_group_name_H-M "C 2/C"
_symmetry_group_IT_number 15
_symmetry_cell_setting 'monoclinic'
loop_
_space_group_symop_operation_xyz
x,y,z
-x,y,1/2-z
-x,-y,-z
x,-y,1/2+z
1/2+x,1/2+y,z
1/2-x,1/2+y,1/2-z
1/2-x,1/2-y,-z
1/2+x,1/2-y,1/2+z
loop_
_atom_site_type_symbol
_atom_site_label
_atom_site_fract_x
_atom_site_fract_y
_atom_site_fract_z
Si Si1 0.394679 0.902413 0.643006
Si Si2 0.528316 0.622371 0.885967
Si Si3 0.264095 0.395065 0.210420
Si Si4 0.688837 0.388040 0.580233
Si Si5 0.781499 0.699033 0.704533
Si Si6 0.979674 0.769944 0.679218
O O1 0.500000 0.870587 0.750000
O O2 0.405715 0.776794 0.600515
O O3 0.282144 0.851464 0.598505
O O4 0.388074 0.110292 0.620357
O O5 0.395471 0.654822 0.795580
O O6 0.562779 0.430049 0.884950
O O7 0.567854 0.622688 0.971967
O O8 0.194285 0.263686 0.127576
O O9 0.217417 0.378756 0.237086
O O10 0.241386 0.595902 0.175724
O O11 0.700109 0.582411 0.614290
O O12 0.907192 0.677803 0.766849
O O13 0.000000 0.850775 0.750000
#
# Coordination Sequence:
#
# PCOD8143305 Si02
#       6
#     8   8   8   8   8   8
#     4  11  20  40  68  90 128 166 205 254 311 371
#     4  11  25  39  65  95 128 160 212 257 305 372
#     4  11  24  43  66  87 128 168 205 256 315 363
#     4  12  24  42  64  96 124 166 209 255 312 368
#     4  11  22  41  65  89 120 168 208 252 307 373
#     4  10  21  40  65  90 123 168 205 254 314 364
#
# _framework density 20.966196
#
# number of rings (size 3 to 8) (size 9 to 14) (size 15 to 20)
#    0.000    1.000    6.667    1.000    2.333    2.667 
#    0.000    0.833    0.000    0.000    0.000    0.000 
#    0.000    0.000    0.000    0.000    0.000    0.000 
#
# Total GULP energy -297731.197806 kJ/mol
# GULP energy per Si atom -12405.466575 kJ/mol
# Density = 2.091848 g / cm^3
# Si number density = 20.966196 Si / 1000 Ang^3
#
#
#
# Elastic Constant Matrix: (Units=GPa)
#
#
# Indices 1 2 3 4 5 6 
#
# 1 89.3092 10.4783 15.5729 0.0003 -24.9092 -0.0003
# 2 10.4783 102.2352 51.1869 -0.0001 -16.5064 -0.0004
# 3 15.5729 51.1869 108.2804 0.0001 -32.4445 -0.0001
# 4 0.0003 -0.0001 0.0001 16.4296 0.0000 -15.6496
# 5 -24.9092 -16.5064 -32.4445 0.0000 24.9955 -0.0001
# 6 -0.0003 -0.0004 -0.0001 -15.6496 -0.0001 36.5233
#
#
#
# Elastic Compliance Matrix: (Units=1/GPa)
#
#
# Indices 1 2 3 4 5 6 
#
# 1 0.016609 -0.000334 0.004357 0.000000 0.021986 0.000000
# 2 -0.000334 0.012836 -0.005858 0.000000 0.000540 0.000000
# 3 0.004357 -0.005858 0.018852 0.000000 0.024943 0.000000
# 4 0.000000 0.000000 0.000000 0.102838 0.000000 0.044064
# 5 0.021986 0.000540 0.024943 0.000000 0.094651 0.000001
# 6 0.000000 0.000000 0.000000 0.044064 0.000001 0.046261
#
#
# Mechanical properties :
#
#
# Convention : Reuss Voigt Hill
#
# Bulk Modulus (GPa) = 22.40828 50.47789 36.44308
# Shear Modulus (GPa) = 16.09836 30.42880 23.26358
#
# Velocity S-wave (km/s) = 2.77397 3.81376 3.33464
# Velocity P-wave (km/s) = 4.57940 6.59706 5.67856
#
# Compressibility (1/GPa) = 0.04462637
#
# Stress axis : x y z
#
# Youngs Moduli (GPa) = 60.20953 77.90753 53.04536
#
# Poissons Ratio (x) = 0.02602 -0.23112
# Poissons Ratio (y) = 0.02011 0.31074
# Poissons Ratio (z) = -0.26234 0.45638
#
# Static dielectric constant tensor:
#      x y z
#    x 3.906750 0.000000 -0.164650 
#    y 0.000000 3.938150 0.000000 
#    z -0.164650 0.000000 3.654690 
# 
# 
# High freq. dielectric constant tensor:
#      x y z
#    x 1.830800 0.000000 -0.016000 
#    y 0.000000 1.834410 0.000000 
#    z -0.016000 0.000000 1.797250 
# 
# From -- ./inp_files/279434.got.cif
#   From: 2010.06.25/outbox.cif.g09.slc.cpg/sg15_140_cif.got.tgz:279434.got - 2010.06.28 07:06:18.
