data_PCOD8143066
_publ_section_title
;
Structure prediction by ZEFSAII (Michael W. Deem and Ramdas Pophale) SiO2 
 PCOD8143066
Probable space group: C 2/C
;
_chemical_formula_sum "Si O2"
_cell_formula_units_Z 56
_cell_length_a 27.899127
_cell_length_b 13.784535
_cell_length_c 12.284519
_cell_angle_alpha 90.000000
_cell_angle_beta 143.401300
_cell_angle_gamma 90.000000
_cell_volume 2816.681318
_symmetry_space_group_name_H-M "C 2/C"
_symmetry_group_IT_number 15
_symmetry_cell_setting 'monoclinic'
loop_
_space_group_symop_operation_xyz
x,y,z
-x,y,1/2-z
-x,-y,-z
x,-y,1/2+z
1/2+x,1/2+y,z
1/2-x,1/2+y,1/2-z
1/2-x,1/2-y,-z
1/2+x,1/2-y,1/2+z
loop_
_atom_site_type_symbol
_atom_site_label
_atom_site_fract_x
_atom_site_fract_y
_atom_site_fract_z
Si Si1 0.163895 0.562924 0.096193
Si Si2 0.241728 0.088410 0.020125
Si Si3 0.628770 0.752285 0.797029
Si Si4 0.373244 0.787801 0.285125
Si Si5 0.475444 0.201721 0.589747
Si Si6 0.914822 0.627524 0.089316
Si Si7 0.736676 0.614369 0.417259
O O1 0.221340 0.545349 0.303047
O O2 0.212906 0.631702 0.102539
O O3 0.077373 0.606775 0.974954
O O4 0.150425 0.457930 0.015638
O O5 0.301559 0.167050 0.078795
O O6 0.159190 0.146714 0.888765
O O7 0.219563 0.999667 0.900156
O O8 0.581110 0.737056 0.595673
O O9 0.575396 0.793769 0.796623
O O10 0.441496 0.819480 0.322314
O O11 0.402659 0.812513 0.457803
O O12 0.347582 0.673757 0.234817
O O13 0.292901 0.849194 0.117556
O O14 0.500000 0.253636 0.750000
O O15 0.000000 0.572780 0.250000
#
# Coordination Sequence:
#
# PCOD8143066 Si02
#       7
#     8   8   8   8   8   8   8
#     4  11  22  36  63  92 124 160 196 263 312 373
#     4  10  21  40  61  90 121 158 210 250 306 367
#     4  10  22  39  64  88 120 163 202 260 306 361
#     4  11  24  39  61  89 124 164 200 257 304 367
#     4  11  22  41  60  88 126 159 205 251 312 370
#     4  12  22  36  64  92 125 157 201 254 322 363
#     4  11  22  41  60  88 124 159 210 252 308 361
#
# _framework density 19.881554999999999
#
# number of rings (size 3 to 8) (size 9 to 14) (size 15 to 20)
#    0.000    1.143    5.714    1.286    0.000    0.571 
#    2.571    0.714    0.000    0.000    0.000    0.000 
#    0.000    0.000    0.000    0.000    0.000    0.000 
#
# Total GULP energy -346916.283974 kJ/mol
# GULP energy per Si atom -12389.867285 kJ/mol
# Density = 1.983630 g / cm^3
# Si number density = 19.881555 Si / 1000 Ang^3
#
#
#
# Elastic Constant Matrix: (Units=GPa)
#
#
# Indices 1 2 3 4 5 6 
#
# 1 91.1055 34.1260 34.5445 0.0000 -9.1356 0.0000
# 2 34.1260 94.8338 42.2962 0.0000 3.6514 0.0000
# 3 34.5445 42.2962 98.4638 0.0000 -7.5487 0.0000
# 4 0.0000 0.0000 0.0000 21.4590 0.0000 2.2460
# 5 -9.1356 3.6514 -7.5487 0.0000 29.8759 0.0000
# 6 0.0000 0.0000 0.0000 2.2460 0.0000 18.3809
#
#
#
# Elastic Compliance Matrix: (Units=1/GPa)
#
#
# Indices 1 2 3 4 5 6 
#
# 1 0.013932 -0.003864 -0.002922 0.000000 0.003994 0.000000
# 2 -0.003864 0.014397 -0.005154 0.000000 -0.004244 0.000000
# 3 -0.002922 -0.005154 0.013639 0.000000 0.003183 0.000000
# 4 0.000000 0.000000 0.000000 0.047204 0.000000 -0.005768
# 5 0.003994 -0.004244 0.003183 0.000000 0.036016 0.000000
# 6 0.000000 0.000000 0.000000 -0.005768 0.000000 0.055109
#
#
# Mechanical properties :
#
#
# Convention : Reuss Voigt Hill
#
# Bulk Modulus (GPa) = 55.28406 56.25962 55.77184
# Shear Modulus (GPa) = 23.78600 25.50560 24.64580
#
# Velocity S-wave (km/s) = 3.46263 3.58561 3.52466
# Velocity P-wave (km/s) = 6.62220 6.74544 6.68410
#
# Compressibility (1/GPa) = 0.01808840
#
# Stress axis : x y z
#
# Youngs Moduli (GPa) = 71.77690 69.45655 73.31847
#
# Poissons Ratio (x) = 0.26839 0.21422
# Poissons Ratio (y) = 0.27736 0.37790
# Poissons Ratio (z) = 0.20971 0.35800
#
# Static dielectric constant tensor:
#      x y z
#    x 3.627150 0.000000 -0.012800 
#    y 0.000000 3.421440 0.000000 
#    z -0.012800 0.000000 3.745540 
# 
# 
# High freq. dielectric constant tensor:
#      x y z
#    x 1.771840 0.000000 -0.011710 
#    y 0.000000 1.746650 0.000000 
#    z -0.011710 0.000000 1.785730 
# 
# From -- ./inp_files/123344.got.cif
#   From: 2010.06.25/outbox.cif.g09.slc.cpg/sg15_62_cif.got.tgz:123344.got - 2010.06.28 07:06:18.
