data_PCOD8143721
_publ_section_title
;
Structure prediction by ZEFSAII (Michael W. Deem and Ramdas Pophale) SiO2 
 PCOD8143721
Probable space group: C 2/C
;
_chemical_formula_sum "Si O2"
_cell_formula_units_Z 40
_cell_length_a 23.948197
_cell_length_b 5.169721
_cell_length_c 14.505383
_cell_angle_alpha 90.000000
_cell_angle_beta 102.515601
_cell_angle_gamma 90.000000
_cell_volume 1753.171525
_symmetry_space_group_name_H-M "C 2/C"
_symmetry_group_IT_number 15
_symmetry_cell_setting 'monoclinic'
loop_
_space_group_symop_operation_xyz
x,y,z
-x,y,1/2-z
-x,-y,-z
x,-y,1/2+z
1/2+x,1/2+y,z
1/2-x,1/2+y,1/2-z
1/2-x,1/2-y,-z
1/2+x,1/2-y,1/2+z
loop_
_atom_site_type_symbol
_atom_site_label
_atom_site_fract_x
_atom_site_fract_y
_atom_site_fract_z
Si Si1 0.949952 0.693354 0.968825
Si Si2 0.523406 0.474457 0.854750
Si Si3 0.238866 0.023723 0.801525
Si Si4 0.331565 0.141568 0.981959
Si Si5 0.853230 0.153058 0.102006
O O1 0.886403 0.576994 0.934250
O O2 0.967601 0.861307 0.886608
O O3 0.000000 0.500000 0.000000
O O4 0.947551 0.820464 0.068547
O O5 0.500000 0.589461 0.750000
O O6 0.578704 0.291658 0.855744
O O7 0.230964 0.272307 0.732819
O O8 0.274696 0.122058 0.901829
O O9 0.176149 0.931238 0.812470
O O10 0.337857 0.433916 0.020828
O O11 0.327519 0.928051 0.060928
#
# Coordination Sequence:
#
# PCOD8143721 Si02
#       5
#     8   8   8   8   8
#     4  10  21  41  63  94 130 173 217 263 339 392
#     4  10  23  39  64  96 131 170 219 274 326 397
#     4  12  26  42  65 100 129 168 223 278 329 385
#     4  11  23  43  69  89 131 176 214 269 324 404
#     4  11  23  44  65  93 128 176 219 260 337 396
#
# _framework density 22.815795000000001
#
# number of rings (size 3 to 8) (size 9 to 14) (size 15 to 20)
#    0.000    1.200    2.000    3.600    2.800    2.400 
#    0.000    0.000    0.000    0.000    0.000    0.000 
#    0.000    0.000    0.000    0.000    0.000    0.000 
#
# Total GULP energy -247790.061767 kJ/mol
# GULP energy per Si atom -12389.503088 kJ/mol
# Density = 2.276387 g / cm^3
# Si number density = 22.815795 Si / 1000 Ang^3
#
#
#
# Elastic Constant Matrix: (Units=GPa)
#
#
# Indices 1 2 3 4 5 6 
#
# 1 86.5319 -8.2875 23.2105 0.0000 -7.6494 0.0000
# 2 -8.2875 75.0313 9.1480 0.0000 -3.0149 0.0000
# 3 23.2105 9.1480 103.9585 0.0000 -6.9965 0.0000
# 4 0.0000 0.0000 0.0000 13.7147 0.0000 -0.2047
# 5 -7.6494 -3.0149 -6.9965 0.0000 28.4171 0.0000
# 6 0.0000 0.0000 0.0000 -0.2047 0.0000 32.8188
#
#
#
# Elastic Compliance Matrix: (Units=1/GPa)
#
#
# Indices 1 2 3 4 5 6 
#
# 1 0.012750 0.001869 -0.002813 0.000000 0.002938 0.000000
# 2 0.001869 0.013784 -0.001523 0.000000 0.001591 0.000000
# 3 -0.002813 -0.001523 0.010493 0.000000 0.001665 0.000000
# 4 0.000000 0.000000 0.000000 0.072921 0.000000 0.000455
# 5 0.002938 0.001591 0.001665 0.000000 0.036560 0.000000
# 6 0.000000 0.000000 0.000000 0.000455 0.000000 0.030473
#
#
# Mechanical properties :
#
#
# Convention : Reuss Voigt Hill
#
# Bulk Modulus (GPa) = 31.15996 34.85151 33.00574
# Shear Modulus (GPa) = 25.95880 31.08684 28.52282
#
# Velocity S-wave (km/s) = 3.37672 3.69523 3.53956
# Velocity P-wave (km/s) = 5.37493 5.78918 5.58590
#
# Compressibility (1/GPa) = 0.03209247
#
# Stress axis : x y z
#
# Youngs Moduli (GPa) = 78.43264 72.54856 95.29770
#
# Poissons Ratio (x) = -0.13562 0.26811
# Poissons Ratio (y) = -0.14662 0.14516
# Poissons Ratio (z) = 0.22066 0.11051
#
# Static dielectric constant tensor:
#      x y z
#    x 3.216860 0.000000 0.343810 
#    y 0.000000 3.617700 0.000000 
#    z 0.343810 0.000000 3.579570 
# 
# 
# High freq. dielectric constant tensor:
#      x y z
#    x 1.926930 0.000000 -0.014090 
#    y 0.000000 1.889200 0.000000 
#    z -0.014090 0.000000 1.882500 
# 
# From -- ./inp_files/120717.got.cif
#   From: 2010.06.25/outbox.cif.g09.slc.cpg/sg15_61_cif.got.tgz:120717.got - 2010.06.28 07:06:18.
