data_PCOD8143452
_publ_section_title
;
Structure prediction by ZEFSAII (Michael W. Deem and Ramdas Pophale) SiO2 
 PCOD8143452
Probable space group: C 2/C
;
_chemical_formula_sum "Si O2"
_cell_formula_units_Z 48
_cell_length_a 9.850606
_cell_length_b 17.729639
_cell_length_c 28.873446
_cell_angle_alpha 90.000000
_cell_angle_beta 153.152546
_cell_angle_gamma 90.000000
_cell_volume 2277.358524
_symmetry_space_group_name_H-M "C 2/C"
_symmetry_group_IT_number 15
_symmetry_cell_setting 'monoclinic'
loop_
_space_group_symop_operation_xyz
x,y,z
-x,y,1/2-z
-x,-y,-z
x,-y,1/2+z
1/2+x,1/2+y,z
1/2-x,1/2+y,1/2-z
1/2-x,1/2-y,-z
1/2+x,1/2-y,1/2+z
loop_
_atom_site_type_symbol
_atom_site_label
_atom_site_fract_x
_atom_site_fract_y
_atom_site_fract_z
Si Si1 0.405486 0.619343 0.492868
Si Si2 0.660501 0.957818 0.158016
Si Si3 0.173700 0.269786 0.550444
Si Si4 0.159502 0.491922 0.848402
Si Si5 0.152185 0.295716 0.136608
Si Si6 0.168233 0.385563 0.628065
O O1 0.625273 0.691088 0.562064
O O2 0.579820 0.555320 0.575959
O O3 0.324311 0.584527 0.417180
O O4 0.095470 0.649809 0.421112
O O5 0.496415 0.878017 0.099276
O O6 0.000000 0.936715 0.250000
O O7 0.592564 0.984479 0.190010
O O8 0.577197 0.025448 0.097091
O O9 0.489268 0.265983 0.619294
O O10 0.175400 0.344637 0.581431
O O11 0.894637 0.276809 0.431023
O O12 0.000000 0.479260 0.750000
O O13 0.500000 0.289267 0.250000
O O14 0.500000 0.376550 0.750000
#
# Coordination Sequence:
#
# PCOD8143452 Si02
#       6
#     8   8   8   8   8   8
#     4  10  22  41  61  94 133 155 222 268 312 396
#     4   9  19  42  62  92 127 162 218 263 308 388
#     4  11  23  41  62  97 126 171 214 261 330 387
#     4  10  21  40  67  95 124 176 211 265 329 380
#     4  10  23  41  64  88 132 172 212 266 321 387
#     4  10  23  41  65  93 128 166 210 270 324 379
#
# _framework density 21.07705
#
# number of rings (size 3 to 8) (size 9 to 14) (size 15 to 20)
#    0.000    2.000    1.667    0.500    2.333    4.667 
#   15.000    0.000    0.000    0.000    0.000    0.000 
#    0.000    0.000    0.000    0.000    0.000    0.000 
#
# Total GULP energy -297321.033601 kJ/mol
# GULP energy per Si atom -12388.376400 kJ/mol
# Density = 2.102908 g / cm^3
# Si number density = 21.077050 Si / 1000 Ang^3
#
#
#
# Elastic Constant Matrix: (Units=GPa)
#
#
# Indices 1 2 3 4 5 6 
#
# 1 103.1756 45.2917 47.6146 0.0004 -0.9071 -0.0062
# 2 45.2917 83.8883 28.8206 -0.0040 -15.3970 -0.0018
# 3 47.6146 28.8206 110.8544 -0.0139 3.2045 -0.0349
# 4 0.0004 -0.0040 -0.0139 33.7622 -0.0053 9.0185
# 5 -0.9071 -15.3970 3.2045 -0.0053 29.8319 -0.0172
# 6 -0.0062 -0.0018 -0.0349 9.0185 -0.0172 33.0935
#
#
#
# Elastic Compliance Matrix: (Units=1/GPa)
#
#
# Indices 1 2 3 4 5 6 
#
# 1 0.014771 -0.006926 -0.004467 -0.000002 -0.002645 -0.000003
# 2 -0.006926 0.018054 -0.001988 0.000002 0.009321 0.000002
# 3 -0.004467 -0.001988 0.011526 0.000002 -0.002400 0.000010
# 4 -0.000002 0.000002 0.000002 0.031944 0.000002 -0.008705
# 5 -0.002645 0.009321 -0.002400 0.000002 0.038509 0.000017
# 6 -0.000003 0.000002 0.000010 -0.008705 0.000017 0.032590
#
#
# Mechanical properties :
#
#
# Convention : Reuss Voigt Hill
#
# Bulk Modulus (GPa) = 56.85785 60.15247 58.50516
# Shear Modulus (GPa) = 27.77479 31.08361 29.42920
#
# Velocity S-wave (km/s) = 3.63405 3.84443 3.74072
# Velocity P-wave (km/s) = 6.68156 6.95036 6.81728
#
# Compressibility (1/GPa) = 0.01758772
#
# Stress axis : x y z
#
# Youngs Moduli (GPa) = 67.70136 55.39037 86.75999
#
# Poissons Ratio (x) = 0.38361 0.38759
# Poissons Ratio (y) = 0.46887 0.17252
# Poissons Ratio (z) = 0.30245 0.11014
#
# Static dielectric constant tensor:
#      x y z
#    x 3.797340 0.000000 0.297310 
#    y 0.000000 4.084200 -0.000010 
#    z 0.297310 -0.000010 3.716560 
# 
# 
# High freq. dielectric constant tensor:
#      x y z
#    x 1.820990 0.000000 0.030440 
#    y 0.000000 1.836810 0.000000 
#    z 0.030440 0.000000 1.810880 
# 
# From -- ./inp_files/290148.got.cif
#   From: 2010.06.25/outbox.cif.g09.slc.cpg/sg15_146_cif.got.tgz:290148.got - 2010.06.28 07:06:18.
