data_PCOD8143474
_publ_section_title
;
Structure prediction by ZEFSAII (Michael W. Deem and Ramdas Pophale) SiO2 
 PCOD8143474
Probable space group: C 2/C
;
_chemical_formula_sum "Si O2"
_cell_formula_units_Z 48
_cell_length_a 14.328579
_cell_length_b 22.438292
_cell_length_c 10.460608
_cell_angle_alpha 90.000000
_cell_angle_beta 42.484916
_cell_angle_gamma 90.000000
_cell_volume 2271.477212
_symmetry_space_group_name_H-M "C 2/C"
_symmetry_group_IT_number 15
_symmetry_cell_setting 'monoclinic'
loop_
_space_group_symop_operation_xyz
x,y,z
-x,y,1/2-z
-x,-y,-z
x,-y,1/2+z
1/2+x,1/2+y,z
1/2-x,1/2+y,1/2-z
1/2-x,1/2-y,-z
1/2+x,1/2-y,1/2+z
loop_
_atom_site_type_symbol
_atom_site_label
_atom_site_fract_x
_atom_site_fract_y
_atom_site_fract_z
Si Si1 0.218731 0.242877 0.736481
Si Si2 0.030530 0.274607 0.362524
Si Si3 0.273302 0.000244 0.724719
Si Si4 0.999955 0.415507 0.399380
Si Si5 0.666224 0.839072 0.586000
Si Si6 0.344235 0.452250 0.409801
O O1 0.315889 0.247911 0.762719
O O2 0.269601 0.184615 0.610778
O O3 0.229163 0.300513 0.636936
O O4 0.064172 0.236384 0.945050
O O5 0.000000 0.255695 0.250000
O O6 0.002633 0.344589 0.413926
O O7 0.369705 0.057070 0.657844
O O8 0.179138 0.010996 0.696001
O O9 0.363277 0.940944 0.605693
O O10 0.172305 0.992937 0.947859
O O11 0.000000 0.434122 0.250000
O O12 0.500000 0.837755 0.750000
O O13 0.722048 0.904810 0.546555
O O14 0.500000 0.425637 0.250000
#
# Coordination Sequence:
#
# PCOD8143474 Si02
#       6
#     8   8   8   8   8   8
#     4  11  23  42  64  96 135 173 228 278 328 389
#     4  11  23  40  66  96 136 179 224 271 332 399
#     4  11  23  42  68 100 136 174 222 278 332 396
#     4  10  21  40  68 100 128 180 232 273 320 400
#     4  11  25  43  70  98 130 178 226 277 327 398
#     4  12  27  43  70 101 140 174 219 280 344 399
#
# _framework density 21.131623999999999
#
# number of rings (size 3 to 8) (size 9 to 14) (size 15 to 20)
#    0.000    1.000    3.333    3.000    7.000    0.000 
#    0.000    0.000    0.000    0.000    0.000    0.000 
#    0.000    0.000    0.000    0.000    0.000    0.000 
#
# Total GULP energy -297622.639742 kJ/mol
# GULP energy per Si atom -12400.943323 kJ/mol
# Density = 2.108353 g / cm^3
# Si number density = 21.131624 Si / 1000 Ang^3
#
#
#
# Elastic Constant Matrix: (Units=GPa)
#
#
# Indices 1 2 3 4 5 6 
#
# 1 124.5458 28.2216 33.4771 0.0000 13.6769 0.0000
# 2 28.2216 53.1918 25.3370 0.0000 -2.7400 0.0000
# 3 33.4771 25.3370 96.0380 0.0000 9.9704 0.0000
# 4 0.0000 0.0000 0.0000 21.6708 0.0000 -2.6731
# 5 13.6769 -2.7400 9.9704 0.0000 40.9290 0.0000
# 6 0.0000 0.0000 0.0000 -2.6731 0.0000 21.2705
#
#
#
# Elastic Compliance Matrix: (Units=1/GPa)
#
#
# Indices 1 2 3 4 5 6 
#
# 1 0.009916 -0.004497 -0.001944 0.000000 -0.003141 0.000000
# 2 -0.004497 0.023881 -0.005186 0.000000 0.004365 0.000000
# 3 -0.001944 -0.005186 0.012749 0.000000 -0.002803 0.000000
# 4 0.000000 0.000000 0.000000 0.046872 0.000000 0.005890
# 5 -0.003141 0.004365 -0.002803 0.000000 0.026457 0.000000
# 6 0.000000 0.000000 0.000000 0.005890 0.000000 0.047754
#
#
# Mechanical properties :
#
#
# Convention : Reuss Voigt Hill
#
# Bulk Modulus (GPa) = 42.93227 49.76078 46.34653
# Shear Modulus (GPa) = 25.17047 29.22339 27.19693
#
# Velocity S-wave (km/s) = 3.45502 3.72280 3.59141
# Velocity P-wave (km/s) = 6.02303 6.48677 6.25919
#
# Compressibility (1/GPa) = 0.02329250
#
# Stress axis : x y z
#
# Youngs Moduli (GPa) = 100.85184 41.87487 78.43519
#
# Poissons Ratio (x) = 0.18830 0.15248
# Poissons Ratio (y) = 0.45349 0.40676
# Poissons Ratio (z) = 0.19606 0.21716
#
# Static dielectric constant tensor:
#      x y z
#    x 4.072290 0.000000 0.225460 
#    y 0.000000 3.519040 0.000000 
#    z 0.225460 0.000000 3.857740 
# 
# 
# High freq. dielectric constant tensor:
#      x y z
#    x 1.847380 0.000000 0.013750 
#    y 0.000000 1.807230 0.000000 
#    z 0.013750 0.000000 1.836340 
# 
# From -- ./inp_files/99960.got.cif
#   From: 2010.06.25/outbox.cif.g09.slc.cpg/sg15_50_cif.got.tgz:99960.got - 2010.06.28 07:06:18.
