data_PCOD8143169
_publ_section_title
;
Structure prediction by ZEFSAII (Michael W. Deem and Ramdas Pophale) SiO2 
 PCOD8143169
Probable space group: C 2/C
;
_chemical_formula_sum "Si O2"
_cell_formula_units_Z 64
_cell_length_a 26.753669
_cell_length_b 18.783851
_cell_length_c 10.472719
_cell_angle_alpha 90.000000
_cell_angle_beta 35.768882
_cell_angle_gamma 90.000000
_cell_volume 3076.271408
_symmetry_space_group_name_H-M "C 2/C"
_symmetry_group_IT_number 15
_symmetry_cell_setting 'monoclinic'
loop_
_space_group_symop_operation_xyz
x,y,z
-x,y,1/2-z
-x,-y,-z
x,-y,1/2+z
1/2+x,1/2+y,z
1/2-x,1/2+y,1/2-z
1/2-x,1/2-y,-z
1/2+x,1/2-y,1/2+z
loop_
_atom_site_type_symbol
_atom_site_label
_atom_site_fract_x
_atom_site_fract_y
_atom_site_fract_z
Si Si1 0.189770 0.545581 0.230445
Si Si2 0.127931 0.393330 0.317298
Si Si3 0.978754 0.226817 0.581344
Si Si4 0.629262 0.245996 0.950435
Si Si5 0.999954 0.911442 0.889260
Si Si6 0.257942 0.626822 0.329399
Si Si7 0.026841 0.632277 0.545413
Si Si8 0.640986 0.516019 0.242271
O O1 0.146929 0.468962 0.342652
O O2 0.208428 0.585485 0.322355
O O3 0.116862 0.595543 0.318512
O O4 0.276473 0.532144 0.968651
O O5 0.136091 0.339094 0.419689
O O6 0.039352 0.397738 0.423053
O O7 0.198676 0.365456 0.073951
O O8 0.967151 0.282784 0.489589
O O9 0.071762 0.230199 0.450715
O O10 0.969173 0.147232 0.552497
O O11 0.907527 0.240298 0.834379
O O12 0.715628 0.292988 0.765543
O O13 0.000000 0.876220 0.750000
O O14 0.093283 0.946300 0.721811
O O15 0.927410 0.970729 0.039539
O O16 0.337843 0.578082 0.201341
O O17 0.000000 0.617512 0.750000
#
# Coordination Sequence:
#
# PCOD8143169 Si02
#       8
#     8   8   8   8   8   8   8   8
#     4  11  23  40  64  96 130 167 213 276 324 386
#     4  10  23  40  65  94 124 174 220 263 323 394
#     4  10  22  39  64  93 125 168 220 266 319 392
#     4  10  21  40  63  91 127 169 214 267 322 384
#     4  11  21  40  64  95 130 171 212 265 330 393
#     4  11  20  40  63  91 130 166 215 265 326 386
#     4  11  22  44  65  92 129 175 219 269 330 386
#     4  10  23  38  61  95 130 169 214 266 326 389
#
# _framework density 20.804407999999999
#
# number of rings (size 3 to 8) (size 9 to 14) (size 15 to 20)
#    0.000    1.500    2.500    2.625    0.000    3.000 
#    4.500    3.750    0.000    0.000    0.000    0.000 
#    0.000    0.000    0.000    0.000    0.000    0.000 
#
# Total GULP energy -396600.569004 kJ/mol
# GULP energy per Si atom -12393.767781 kJ/mol
# Density = 2.075706 g / cm^3
# Si number density = 20.804408 Si / 1000 Ang^3
#
#
#
# Elastic Constant Matrix: (Units=GPa)
#
#
# Indices 1 2 3 4 5 6 
#
# 1 88.8166 58.0101 41.1952 0.0000 -5.6809 0.0000
# 2 58.0101 80.9140 49.3193 0.0000 -7.7105 0.0000
# 3 41.1952 49.3193 67.4084 0.0000 -15.2462 0.0000
# 4 0.0000 0.0000 0.0000 21.2612 0.0000 -10.4061
# 5 -5.6809 -7.7105 -15.2462 0.0000 33.5763 0.0000
# 6 0.0000 0.0000 0.0000 -10.4061 0.0000 18.9149
#
#
#
# Elastic Compliance Matrix: (Units=1/GPa)
#
#
# Indices 1 2 3 4 5 6 
#
# 1 0.021626 -0.013361 -0.003685 0.000000 -0.001083 0.000000
# 2 -0.013361 0.030760 -0.014770 0.000000 -0.001904 0.000000
# 3 -0.003685 -0.014770 0.030074 0.000000 0.009641 0.000000
# 4 0.000000 0.000000 0.000000 0.064365 0.000000 0.035411
# 5 -0.001083 -0.001904 0.009641 0.000000 0.033540 0.000000
# 6 0.000000 0.000000 0.000000 0.035411 0.000000 0.072350
#
#
# Mechanical properties :
#
#
# Convention : Reuss Voigt Hill
#
# Bulk Modulus (GPa) = 53.11829 59.35423 56.23626
# Shear Modulus (GPa) = 15.49788 20.65810 18.07799
#
# Velocity S-wave (km/s) = 2.73231 3.15456 2.95099
# Velocity P-wave (km/s) = 5.96168 6.46992 6.22099
#
# Compressibility (1/GPa) = 0.01882591
#
# Stress axis : x y z
#
# Youngs Moduli (GPa) = 46.24016 32.51023 33.25097
#
# Poissons Ratio (x) = 0.43438 0.12254
# Poissons Ratio (y) = 0.61783 0.49113
# Poissons Ratio (z) = 0.17041 0.48018
#
# Static dielectric constant tensor:
#      x y z
#    x 3.786940 0.000000 -0.232990 
#    y 0.000000 3.937670 0.000000 
#    z -0.232990 0.000000 3.688390 
# 
# 
# High freq. dielectric constant tensor:
#      x y z
#    x 1.812830 0.000000 -0.007900 
#    y 0.000000 1.823130 0.000000 
#    z -0.007900 0.000000 1.811270 
# 
# From -- ./inp_files/127269.got.cif
#   From: 2010.06.25/outbox.cif.g09.slc.cpg/sg15_64_cif.got.tgz:127269.got - 2010.06.28 07:06:18.
