data_PCOD8143534
_publ_section_title
;
Structure prediction by ZEFSAII (Michael W. Deem and Ramdas Pophale) SiO2 
 PCOD8143534
Probable space group: C 2/C
;
_chemical_formula_sum "Si O2"
_cell_formula_units_Z 48
_cell_length_a 28.864500
_cell_length_b 12.564503
_cell_length_c 14.666660
_cell_angle_alpha 90.000000
_cell_angle_beta 152.500316
_cell_angle_gamma 90.000000
_cell_volume 2456.074727
_symmetry_space_group_name_H-M "C 2/C"
_symmetry_group_IT_number 15
_symmetry_cell_setting 'monoclinic'
loop_
_space_group_symop_operation_xyz
x,y,z
-x,y,1/2-z
-x,-y,-z
x,-y,1/2+z
1/2+x,1/2+y,z
1/2-x,1/2+y,1/2-z
1/2-x,1/2-y,-z
1/2+x,1/2-y,1/2+z
loop_
_atom_site_type_symbol
_atom_site_label
_atom_site_fract_x
_atom_site_fract_y
_atom_site_fract_z
Si Si1 0.025437 0.833977 0.436974
Si Si2 0.319804 0.324351 0.181756
Si Si3 0.309428 0.636745 0.864978
Si Si4 0.264590 0.700777 0.123449
Si Si5 0.500000 0.516100 0.250000
Si Si6 0.000000 0.347213 0.750000
Si Si7 0.187507 0.485228 0.027420
O O1 0.124238 0.849008 0.671313
O O2 0.930946 0.821794 0.337301
O O3 0.005542 0.942781 0.348465
O O4 0.042120 0.731020 0.401820
O O5 0.329875 0.294394 0.307471
O O6 0.260626 0.437393 0.075628
O O7 0.250000 0.250000 0.000000
O O8 0.246061 0.708480 0.821197
O O9 0.240951 0.534245 0.718998
O O10 0.406107 0.595184 0.087210
O O11 0.179133 0.610574 0.992083
O O12 0.250000 0.750000 0.000000
O O13 0.918403 0.424034 0.654535
#
# Coordination Sequence:
#
# PCOD8143534 Si02
#       7
#     8   8   8   8   4   4   8
#     4  11  21  41  72  99 125 182 227 273 331 406
#     4  10  21  40  70 100 129 168 233 276 328 406
#     4  10  24  41  64 100 132 174 226 280 340 395
#     4  12  27  45  65  98 143 176 223 286 339 403
#     4  11  24  39  74  98 132 175 228 287 334 396
#     4  11  20  43  70  96 132 175 230 259 334 418
#     4  10  23  43  64 100 132 175 223 279 336 395
#
# _framework density 19.543378000000001
#
# number of rings (size 3 to 8) (size 9 to 14) (size 15 to 20)
#    1.000    0.333    5.000    0.000    7.000    2.000 
#    0.000    0.833    0.000    0.000    0.000    0.000 
#    0.000    0.000    0.000    0.000    0.000    0.000 
#
# Total GULP energy -297358.207487 kJ/mol
# GULP energy per Si atom -12389.925312 kJ/mol
# Density = 1.949890 g / cm^3
# Si number density = 19.543378 Si / 1000 Ang^3
#
#
#
# Elastic Constant Matrix: (Units=GPa)
#
#
# Indices 1 2 3 4 5 6 
#
# 1 114.2987 39.3280 34.3047 0.0000 -4.1562 0.0000
# 2 39.3280 96.1685 38.9490 0.0000 -3.5722 0.0000
# 3 34.3047 38.9490 112.1459 0.0000 -1.1419 0.0000
# 4 0.0000 0.0000 0.0000 33.9811 0.0000 -2.1140
# 5 -4.1562 -3.5722 -1.1419 0.0000 34.5741 0.0000
# 6 0.0000 0.0000 0.0000 -2.1140 0.0000 31.5251
#
#
#
# Elastic Compliance Matrix: (Units=1/GPa)
#
#
# Indices 1 2 3 4 5 6 
#
# 1 0.010583 -0.003478 -0.002021 0.000000 0.000846 0.000000
# 2 -0.003478 0.013286 -0.003542 0.000000 0.000838 0.000000
# 3 -0.002021 -0.003542 0.010763 0.000000 -0.000253 0.000000
# 4 0.000000 0.000000 0.000000 0.029551 0.000000 0.001982
# 5 0.000846 0.000838 -0.000253 0.000000 0.029103 0.000000
# 6 0.000000 0.000000 0.000000 0.001982 0.000000 0.031854
#
#
# Mechanical properties :
#
#
# Convention : Reuss Voigt Hill
#
# Bulk Modulus (GPa) = 60.42109 60.86404 60.64256
# Shear Modulus (GPa) = 33.61597 34.01815 33.81706
#
# Velocity S-wave (km/s) = 4.15187 4.17663 4.16427
# Velocity P-wave (km/s) = 7.34626 7.38036 7.36333
#
# Compressibility (1/GPa) = 0.01655051
#
# Stress axis : x y z
#
# Youngs Moduli (GPa) = 94.49132 75.26477 92.91384
#
# Poissons Ratio (x) = 0.26178 0.18775
# Poissons Ratio (y) = 0.32865 0.32910
# Poissons Ratio (z) = 0.19094 0.26659
#
# Static dielectric constant tensor:
#      x y z
#    x 3.641750 0.000000 0.198460 
#    y 0.000000 3.537570 0.000000 
#    z 0.198460 0.000000 3.820860 
# 
# 
# High freq. dielectric constant tensor:
#      x y z
#    x 1.755900 0.000000 0.004410 
#    y 0.000000 1.752330 0.000000 
#    z 0.004410 0.000000 1.766120 
# 
# From -- ./inp_files/181836.got.cif
#   From: 2010.06.25/outbox.cif.g09.slc.cpg/sg15_91_cif.got.tgz:181836.got - 2010.06.28 07:06:18.
