data_PCOD8143079
_publ_section_title
;
Structure prediction by ZEFSAII (Michael W. Deem and Ramdas Pophale) SiO2 
 PCOD8143079
Probable space group: C 2/C
;
_chemical_formula_sum "Si O2"
_cell_formula_units_Z 56
_cell_length_a 19.610939
_cell_length_b 21.801000
_cell_length_c 8.951701
_cell_angle_alpha 90.000000
_cell_angle_beta 44.493902
_cell_angle_gamma 90.000000
_cell_volume 2682.224535
_symmetry_space_group_name_H-M "C 2/C"
_symmetry_group_IT_number 15
_symmetry_cell_setting 'monoclinic'
loop_
_space_group_symop_operation_xyz
x,y,z
-x,y,1/2-z
-x,-y,-z
x,-y,1/2+z
1/2+x,1/2+y,z
1/2-x,1/2+y,1/2-z
1/2-x,1/2-y,-z
1/2+x,1/2-y,1/2+z
loop_
_atom_site_type_symbol
_atom_site_label
_atom_site_fract_x
_atom_site_fract_y
_atom_site_fract_z
Si Si1 0.713259 0.556046 0.211448
Si Si2 0.500000 0.646709 0.250000
Si Si3 0.496378 0.571289 0.525651
Si Si4 0.187851 0.675514 0.462459
Si Si5 0.500000 0.231109 0.250000
Si Si6 0.701012 0.569355 0.556873
Si Si7 0.889994 0.767882 0.706355
Si Si8 0.315571 0.810308 0.874626
O O1 0.608144 0.591733 0.373315
O O2 0.789779 0.604967 0.024131
O O3 0.743060 0.546897 0.335379
O O4 0.718049 0.488536 0.137329
O O5 0.449596 0.602747 0.451230
O O6 0.580821 0.686466 0.206575
O O7 0.500000 0.500000 0.500000
O O8 0.415493 0.584721 0.779440
O O9 0.113880 0.701500 0.703399
O O10 0.285122 0.716295 0.306122
O O11 0.148631 0.681723 0.353341
O O12 0.466052 0.270774 0.448478
O O13 0.590536 0.190696 0.164331
O O14 0.755102 0.630665 0.525723
O O15 0.250000 0.750000 0.000000
#
# Coordination Sequence:
#
# PCOD8143079 Si02
#       8
#     8   4   8   8   4   8   8   8
#     4  10  21  40  61  93 129 173 220 264 333 383
#     4  12  24  38  57  91 128 174 210 260 320 392
#     4  10  23  34  57  90 130 171 218 256 319 397
#     4  10  22  42  62  95 131 166 215 272 327 391
#     4  12  26  44  67  97 130 174 220 270 332 406
#     4  10  24  37  64  90 131 172 215 276 321 398
#     4  11  24  38  66  93 128 172 214 268 329 388
#     4  11  24  43  65  97 134 171 218 273 333 390
#
# _framework density 20.878193
#
# number of rings (size 3 to 8) (size 9 to 14) (size 15 to 20)
#    0.000    1.429    2.857    1.286   12.000    1.143 
#    0.000    0.000    0.000    8.571    0.000    0.000 
#    0.000    0.000    0.000    0.000    0.000    0.000 
#
# Total GULP energy -346903.718369 kJ/mol
# GULP energy per Si atom -12389.418513 kJ/mol
# Density = 2.083067 g / cm^3
# Si number density = 20.878193 Si / 1000 Ang^3
#
#
#
# Elastic Constant Matrix: (Units=GPa)
#
#
# Indices 1 2 3 4 5 6 
#
# 1 105.0335 46.4146 15.2224 0.0000 0.6588 0.0000
# 2 46.4146 134.6990 49.0602 0.0000 4.5903 0.0000
# 3 15.2224 49.0602 90.0484 0.0000 7.6912 0.0000
# 4 0.0000 0.0000 0.0000 35.9753 0.0000 3.3654
# 5 0.6588 4.5903 7.6912 0.0000 24.6640 0.0000
# 6 0.0000 0.0000 0.0000 3.3654 0.0000 38.4166
#
#
#
# Elastic Compliance Matrix: (Units=1/GPa)
#
#
# Indices 1 2 3 4 5 6 
#
# 1 0.011239 -0.003970 0.000231 0.000000 0.000366 0.000000
# 2 -0.003970 0.010664 -0.005115 0.000000 -0.000284 0.000000
# 3 0.000231 -0.005115 0.014149 0.000000 -0.003466 0.000000
# 4 0.000000 0.000000 0.000000 0.028027 0.000000 -0.002455
# 5 0.000366 -0.000284 -0.003466 0.000000 0.041669 0.000000
# 6 0.000000 0.000000 0.000000 -0.002455 0.000000 0.026246
#
#
# Mechanical properties :
#
#
# Convention : Reuss Voigt Hill
#
# Bulk Modulus (GPa) = 54.50695 61.24171 57.87433
# Shear Modulus (GPa) = 32.08941 34.41676 33.25308
#
# Velocity S-wave (km/s) = 3.92469 4.06452 3.99522
# Velocity P-wave (km/s) = 6.83384 7.17103 7.00446
#
# Compressibility (1/GPa) = 0.01834629
#
# Stress axis : x y z
#
# Youngs Moduli (GPa) = 88.97518 93.76968 70.67742
#
# Poissons Ratio (x) = 0.37222 -0.01636
# Poissons Ratio (y) = 0.35319 0.36151
# Poissons Ratio (z) = -0.02060 0.47962
#
# Static dielectric constant tensor:
#      x y z
#    x 3.914650 0.000000 0.005380 
#    y 0.000000 3.821150 0.000000 
#    z 0.005380 0.000000 4.080150 
# 
# 
# High freq. dielectric constant tensor:
#      x y z
#    x 1.809200 0.000000 0.021930 
#    y 0.000000 1.819140 0.000000 
#    z 0.021930 0.000000 1.806870 
# 
# From -- ./inp_files/57822.got.cif
#   From: 2010.06.25/outbox.cif.g09.slc.cpg/sg15_29_cif.got.tgz:57822.got - 2010.06.28 07:06:18.
