data_PCOD8143030
_publ_section_title
;
Structure prediction by ZEFSAII (Michael W. Deem and Ramdas Pophale) SiO2 
 PCOD8143030
Probable space group: C 2/C
;
_chemical_formula_sum "Si O2"
_cell_formula_units_Z 48
_cell_length_a 6.914755
_cell_length_b 24.343377
_cell_length_c 14.554975
_cell_angle_alpha 90.000000
_cell_angle_beta 81.895766
_cell_angle_gamma 90.000000
_cell_volume 2425.549208
_symmetry_space_group_name_H-M "C 2/C"
_symmetry_group_IT_number 15
_symmetry_cell_setting 'monoclinic'
loop_
_space_group_symop_operation_xyz
x,y,z
-x,y,1/2-z
-x,-y,-z
x,-y,1/2+z
1/2+x,1/2+y,z
1/2-x,1/2+y,1/2-z
1/2-x,1/2-y,-z
1/2+x,1/2-y,1/2+z
loop_
_atom_site_type_symbol
_atom_site_label
_atom_site_fract_x
_atom_site_fract_y
_atom_site_fract_z
Si Si1 0.000000 0.622517 0.250000
Si Si2 0.000000 0.613679 0.750000
Si Si3 0.843880 0.569438 0.431876
Si Si4 0.526236 0.637358 0.990734
Si Si5 0.856035 0.443122 0.434026
Si Si6 0.838694 0.197924 0.687198
Si Si7 0.828370 0.186481 0.329293
O O1 0.872523 0.583614 0.323385
O O2 0.871354 0.659551 0.191307
O O3 0.003667 0.573862 0.660588
O O4 0.197134 0.650294 0.736526
O O5 0.687699 0.612473 0.481688
O O6 0.784743 0.505869 0.438332
O O7 0.039089 0.574603 0.478863
O O8 0.613691 0.665501 0.074786
O O9 0.654444 0.588068 0.944139
O O10 0.531517 0.682286 0.910057
O O11 0.699375 0.248118 0.667942
O O12 0.000000 0.215916 0.750000
O O13 0.000000 0.169010 0.250000
#
# Coordination Sequence:
#
# PCOD8143030 Si02
#       7
#     4   4   8   8   8   8   8
#     4  12  23  40  64  86 124 158 209 248 306 366
#     4  10  21  40  60  86 120 164 195 250 298 364
#     4  11  22  39  62  90 118 161 198 255 302 361
#     4  11  23  40  63  92 123 158 205 252 304 360
#     4  10  22  39  61  88 124 155 204 246 306 361
#     4  11  23  40  63  90 124 160 205 250 306 365
#     4  12  23  42  61  91 122 161 204 255 303 361
#
# _framework density 19.789332999999999
#
# number of rings (size 3 to 8) (size 9 to 14) (size 15 to 20)
#    0.000    1.000    5.000    2.500    0.000    0.000 
#    0.000    1.667    3.667    0.000    0.000    0.000 
#    0.000    0.000    0.000    0.000    0.000    0.000 
#
# Total GULP energy -297591.046379 kJ/mol
# GULP energy per Si atom -12399.626932 kJ/mol
# Density = 1.974429 g / cm^3
# Si number density = 19.789333 Si / 1000 Ang^3
#
#
#
# Elastic Constant Matrix: (Units=GPa)
#
#
# Indices 1 2 3 4 5 6 
#
# 1 65.1440 21.9282 22.4104 0.0000 -4.1733 0.0000
# 2 21.9282 63.5405 31.2444 0.0000 10.7736 0.0000
# 3 22.4104 31.2444 116.7765 0.0000 -7.1610 0.0000
# 4 0.0000 0.0000 0.0000 24.5924 0.0000 -2.5137
# 5 -4.1733 10.7736 -7.1610 0.0000 32.7097 0.0000
# 6 0.0000 0.0000 0.0000 -2.5137 0.0000 15.8686
#
#
#
# Elastic Compliance Matrix: (Units=1/GPa)
#
#
# Indices 1 2 3 4 5 6 
#
# 1 0.018241 -0.006190 -0.001598 0.000000 0.004016 0.000000
# 2 -0.006190 0.022025 -0.005269 0.000000 -0.009198 0.000000
# 3 -0.001598 -0.005269 0.010515 0.000000 0.003834 0.000000
# 4 0.000000 0.000000 0.000000 0.041332 0.000000 0.006547
# 5 0.004016 -0.009198 0.003834 0.000000 0.034953 0.000000
# 6 0.000000 0.000000 0.000000 0.006547 0.000000 0.064054
#
#
# Mechanical properties :
#
#
# Convention : Reuss Voigt Hill
#
# Bulk Modulus (GPa) = 40.54131 44.06965 42.30548
# Shear Modulus (GPa) = 22.17712 25.95934 24.06823
#
# Velocity S-wave (km/s) = 3.35126 3.62579 3.49122
# Velocity P-wave (km/s) = 5.95865 6.31238 6.13806
#
# Compressibility (1/GPa) = 0.02466620
#
# Stress axis : x y z
#
# Youngs Moduli (GPa) = 54.82019 45.40361 95.10346
#
# Poissons Ratio (x) = 0.28107 0.15199
# Poissons Ratio (y) = 0.33936 0.50109
# Poissons Ratio (z) = 0.08761 0.23923
#
# Static dielectric constant tensor:
#      x y z
#    x 3.486740 0.000000 -0.136160 
#    y 0.000000 3.626340 0.000000 
#    z -0.136160 0.000000 3.810510 
# 
# 
# High freq. dielectric constant tensor:
#      x y z
#    x 1.767480 0.000000 -0.004840 
#    y 0.000000 1.779060 0.000000 
#    z -0.004840 0.000000 1.785100 
# 
# From -- ./inp_files/130067.got.cif
#   From: 2010.06.25/outbox.cif.g09.slc.cpg/sg15_66_cif.got.tgz:130067.got - 2010.06.28 07:06:18.
