data_PCOD8143484
_publ_section_title
;
Structure prediction by ZEFSAII (Michael W. Deem and Ramdas Pophale) SiO2 
 PCOD8143484
Probable space group: C 2/C
;
_chemical_formula_sum "Si O2"
_cell_formula_units_Z 64
_cell_length_a 21.001399
_cell_length_b 14.480451
_cell_length_c 14.698765
_cell_angle_alpha 90.000000
_cell_angle_beta 137.652213
_cell_angle_gamma 90.000000
_cell_volume 3011.147575
_symmetry_space_group_name_H-M "C 2/C"
_symmetry_group_IT_number 15
_symmetry_cell_setting 'monoclinic'
loop_
_space_group_symop_operation_xyz
x,y,z
-x,y,1/2-z
-x,-y,-z
x,-y,1/2+z
1/2+x,1/2+y,z
1/2-x,1/2+y,1/2-z
1/2-x,1/2-y,-z
1/2+x,1/2-y,1/2+z
loop_
_atom_site_type_symbol
_atom_site_label
_atom_site_fract_x
_atom_site_fract_y
_atom_site_fract_z
Si Si1 0.612557 0.560837 0.685023
Si Si2 0.287660 0.982890 0.472723
Si Si3 0.139050 0.745222 0.131432
Si Si4 0.407333 0.403570 0.976620
Si Si5 0.709123 0.903885 0.833290
Si Si6 0.569226 0.233728 0.614538
Si Si7 0.895246 0.535769 0.907008
Si Si8 0.226712 0.190671 0.389389
O O1 0.693625 0.572758 0.845393
O O2 0.625839 0.645490 0.629372
O O3 0.624783 0.464739 0.644127
O O4 0.508166 0.560375 0.621556
O O5 0.328708 0.938563 0.609117
O O6 0.372165 0.971254 0.489762
O O7 0.253612 0.087945 0.447164
O O8 0.165180 0.694975 0.255560
O O9 0.220236 0.722424 0.145734
O O10 0.040739 0.708452 0.984445
O O11 0.323536 0.404373 0.961822
O O12 0.422614 0.297677 0.965348
O O13 0.680943 0.974629 0.725013
O O14 0.622173 0.138649 0.647840
O O15 0.616212 0.288311 0.749654
O O16 0.000000 0.500000 0.000000
O O17 0.250000 0.250000 0.500000
#
# Coordination Sequence:
#
# PCOD8143484 Si02
#       8
#     8   8   8   8   8   8   8   8
#     4  10  21  41  67  97 125 178 222 278 342 408
#     4  12  25  42  69 100 137 175 229 280 342 414
#     4  11  23  43  68  94 134 180 225 274 347 402
#     4  10  21  40  68  92 133 169 222 279 341 403
#     4  12  24  43  66  97 136 182 220 281 339 405
#     4  11  21  42  70  92 130 180 216 279 342 398
#     4  12  23  44  68  95 135 182 228 277 338 400
#     4  12  24  42  65 103 133 170 228 284 341 406
#
# _framework density 21.254356000000001
#
# number of rings (size 3 to 8) (size 9 to 14) (size 15 to 20)
#    0.000    0.750    6.250    1.500    1.750    2.000 
#    0.000    3.750    0.000    0.000    0.000    0.000 
#    0.000    0.000    0.000    0.000    0.000    0.000 
#
# Total GULP energy -396716.198243 kJ/mol
# GULP energy per Si atom -12397.381195 kJ/mol
# Density = 2.120598 g / cm^3
# Si number density = 21.254356 Si / 1000 Ang^3
#
#
#
# Elastic Constant Matrix: (Units=GPa)
#
#
# Indices 1 2 3 4 5 6 
#
# 1 95.1509 11.6200 57.0725 0.0000 7.2263 0.0000
# 2 11.6200 95.0816 9.7344 0.0000 0.1233 0.0000
# 3 57.0725 9.7344 94.5767 0.0000 6.7556 0.0000
# 4 0.0000 0.0000 0.0000 37.1611 0.0000 -1.9159
# 5 7.2263 0.1233 6.7556 0.0000 41.2351 0.0000
# 6 0.0000 0.0000 0.0000 -1.9159 0.0000 22.2441
#
#
#
# Elastic Compliance Matrix: (Units=1/GPa)
#
#
# Indices 1 2 3 4 5 6 
#
# 1 0.016636 -0.001024 -0.009841 0.000000 -0.001300 0.000000
# 2 -0.001024 0.010693 -0.000499 0.000000 0.000229 0.000000
# 3 -0.009841 -0.000499 0.016635 0.000000 -0.000999 0.000000
# 4 0.000000 0.000000 0.000000 0.027030 0.000000 0.002328
# 5 -0.001300 0.000229 -0.000999 0.000000 0.024642 0.000000
# 6 0.000000 0.000000 0.000000 0.002328 0.000000 0.045156
#
#
# Mechanical properties :
#
#
# Convention : Reuss Voigt Hill
#
# Bulk Modulus (GPa) = 47.08931 49.07367 48.08149
# Shear Modulus (GPa) = 29.30863 33.88690 31.59776
#
# Velocity S-wave (km/s) = 3.71745 3.99726 3.85989
# Velocity P-wave (km/s) = 6.37410 6.66656 6.52197
#
# Compressibility (1/GPa) = 0.02123624
#
# Stress axis : x y z
#
# Youngs Moduli (GPa) = 60.11062 93.51729 60.11566
#
# Poissons Ratio (x) = 0.09575 0.59158
# Poissons Ratio (y) = 0.06155 0.03000
# Poissons Ratio (z) = 0.59153 0.04667
#
# Static dielectric constant tensor:
#      x y z
#    x 3.707120 0.000000 0.335990 
#    y 0.000000 4.103710 0.000000 
#    z 0.335990 0.000000 1.811170 
# 
# 
# High freq. dielectric constant tensor:
#      x y z
#    x 1.816230 0.000000 0.028570 
#    y 0.000000 1.851220 0.000000 
#    z 0.028570 0.000000 1.827710 
# 
# From -- ./inp_files/173681.got.cif
#   From: 2010.06.25/outbox.cif.g09.slc.cpg/sg15_87_cif.got.tgz:173681.got - 2010.06.28 07:06:18.
