data_PCOD8143855
_publ_section_title
;
Structure prediction by ZEFSAII (Michael W. Deem and Ramdas Pophale) SiO2 
 PCOD8143855
Probable space group: C 2/C
;
_chemical_formula_sum "Si O2"
_cell_formula_units_Z 56
_cell_length_a 19.404491
_cell_length_b 8.598431
_cell_length_c 27.850959
_cell_angle_alpha 90.000000
_cell_angle_beta 35.573045
_cell_angle_gamma 90.000000
_cell_volume 2703.278745
_symmetry_space_group_name_H-M "C 2/C"
_symmetry_group_IT_number 15
_symmetry_cell_setting 'monoclinic'
loop_
_space_group_symop_operation_xyz
x,y,z
-x,y,1/2-z
-x,-y,-z
x,-y,1/2+z
1/2+x,1/2+y,z
1/2-x,1/2+y,1/2-z
1/2-x,1/2-y,-z
1/2+x,1/2-y,1/2+z
loop_
_atom_site_type_symbol
_atom_site_label
_atom_site_fract_x
_atom_site_fract_y
_atom_site_fract_z
Si Si1 0.138879 0.093039 0.020738
Si Si2 0.936613 0.487028 0.735388
Si Si3 0.380879 0.482147 0.159113
Si Si4 0.285274 0.680868 0.625260
Si Si5 0.632285 0.983678 0.442863
Si Si6 0.637944 0.949859 0.046729
Si Si7 0.260499 0.737257 0.802130
O O1 0.120911 0.268108 0.047956
O O2 0.017225 0.999998 0.096821
O O3 0.179629 0.088017 0.942552
O O4 0.238563 0.011264 0.996876
O O5 0.848510 0.635314 0.783975
O O6 0.866567 0.328271 0.767037
O O7 0.000000 0.481236 0.750000
O O8 0.028795 0.495883 0.640246
O O9 0.376252 0.372994 0.114796
O O10 0.308491 0.402699 0.242785
O O11 0.322065 0.649956 0.182796
O O12 0.290729 0.865197 0.614857
O O13 0.635286 0.957020 0.498282
O O14 0.500000 0.000000 0.500000
O O15 0.684385 0.831689 0.388636
#
# Coordination Sequence:
#
# PCOD8143855 Si02
#       7
#     8   8   8   8   8   8   8
#     4  10  21  41  66 100 125 174 225 265 324 401
#     4  11  24  46  68  97 138 174 223 275 332 395
#     4  11  24  41  68  97 133 170 224 275 331 393
#     4  10  22  41  70  96 131 175 220 269 332 391
#     4  11  25  44  67  99 136 173 223 278 331 397
#     4  10  23  42  67  97 133 176 218 270 331 390
#     4  11  26  42  66 100 131 176 223 275 340 393
#
# _framework density 20.715585000000001
#
# number of rings (size 3 to 8) (size 9 to 14) (size 15 to 20)
#    0.000    1.429    1.429    3.000   12.000    2.286 
#    0.000    2.143    0.000    0.000    0.000    0.000 
#    0.000    0.000    0.000    0.000    0.000    0.000 
#
# Total GULP energy -347353.970491 kJ/mol
# GULP energy per Si atom -12405.498946 kJ/mol
# Density = 2.066844 g / cm^3
# Si number density = 20.715585 Si / 1000 Ang^3
#
#
#
# Elastic Constant Matrix: (Units=GPa)
#
#
# Indices 1 2 3 4 5 6 
#
# 1 130.6045 33.0209 61.9838 -0.0041 -11.7933 -0.0050
# 2 33.0209 80.0240 61.7573 -0.0057 0.0246 -0.0107
# 3 61.9838 61.7573 134.5016 -0.0011 -6.3775 0.0011
# 4 -0.0041 -0.0057 -0.0011 30.2017 0.0000 0.5657
# 5 -11.7933 0.0246 -6.3775 0.0000 37.3041 0.0094
# 6 -0.0050 -0.0107 0.0011 0.5657 0.0094 33.4646
#
#
#
# Elastic Compliance Matrix: (Units=1/GPa)
#
#
# Indices 1 2 3 4 5 6 
#
# 1 0.010062 -0.001030 -0.004046 0.000001 0.002490 0.000001
# 2 -0.001030 0.019549 -0.008587 0.000003 -0.001807 0.000007
# 3 -0.004046 -0.008587 0.013289 -0.000002 0.000999 -0.000004
# 4 0.000001 0.000003 -0.000002 0.033121 0.000000 -0.000560
# 5 0.002490 -0.001807 0.000999 0.000000 0.027766 -0.000008
# 6 0.000001 0.000007 -0.000004 -0.000560 -0.000008 0.029892
#
#
# Mechanical properties :
#
#
# Convention : Reuss Voigt Hill
#
# Bulk Modulus (GPa) = 64.20886 73.18379 68.69632
# Shear Modulus (GPa) = 30.08487 32.75194 31.41841
#
# Velocity S-wave (km/s) = 3.81502 3.98053 3.89865
# Velocity P-wave (km/s) = 7.10412 7.51869 7.31434
#
# Compressibility (1/GPa) = 0.01557418
#
# Stress axis : x y z
#
# Youngs Moduli (GPa) = 99.38163 51.15439 75.24838
#
# Poissons Ratio (x) = 0.05271 0.30444
# Poissons Ratio (y) = 0.10241 0.64613
# Poissons Ratio (z) = 0.40208 0.43925
#
# Static dielectric constant tensor:
#      x y z
#    x 3.999750 -0.000010 0.053880 
#    y -0.000010 3.751460 0.000040 
#    z 0.053880 0.000040 3.746880 
# 
# 
# High freq. dielectric constant tensor:
#      x y z
#    x 1.824050 0.000000 0.003250 
#    y 0.000000 1.801110 0.000000 
#    z 0.003250 0.000000 1.823420 
# 
# From -- ./inp_files/298518.got.cif
#   From: 2010.06.25/outbox.cif.g09.slc.cpg/sg15_150_cif.got.tgz:298518.got - 2010.06.28 07:06:18.
