data_PCOD8143757
_publ_section_title
;
Structure prediction by ZEFSAII (Michael W. Deem and Ramdas Pophale) SiO2 
 PCOD8143757
Probable space group: C 2/C
;
_chemical_formula_sum "Si O2"
_cell_formula_units_Z 52
_cell_length_a 8.843215
_cell_length_b 27.676129
_cell_length_c 13.386280
_cell_angle_alpha 90.000000
_cell_angle_beta 130.090653
_cell_angle_gamma 90.000000
_cell_volume 2506.408746
_symmetry_space_group_name_H-M "C 2/C"
_symmetry_group_IT_number 15
_symmetry_cell_setting 'monoclinic'
loop_
_space_group_symop_operation_xyz
x,y,z
-x,y,1/2-z
-x,-y,-z
x,-y,1/2+z
1/2+x,1/2+y,z
1/2-x,1/2+y,1/2-z
1/2-x,1/2-y,-z
1/2+x,1/2-y,1/2+z
loop_
_atom_site_type_symbol
_atom_site_label
_atom_site_fract_x
_atom_site_fract_y
_atom_site_fract_z
Si Si1 0.354951 0.187116 0.940301
Si Si2 0.787784 0.288652 0.633876
Si Si3 0.000000 0.871688 0.250000
Si Si4 0.706691 0.115961 0.050445
Si Si5 0.081970 0.060154 0.966395
Si Si6 0.813849 0.469852 0.103306
Si Si7 0.859251 0.121962 0.324267
O O1 0.370140 0.244808 0.927108
O O2 0.185301 0.162269 0.799913
O O3 0.290495 0.182963 0.029348
O O4 0.557629 0.161026 0.995410
O O5 0.741706 0.326675 0.700541
O O6 0.000000 0.265635 0.750000
O O7 0.080490 0.904477 0.373005
O O8 0.761579 0.097617 0.185042
O O9 0.908383 0.133844 0.085408
O O10 0.621530 0.071770 0.948115
O O11 0.856963 0.045896 0.892818
O O12 0.182024 0.085041 0.104549
O O13 0.224561 0.014748 0.002018
O O14 0.000000 0.484398 0.250000
#
# Coordination Sequence:
#
# PCOD8143757 Si02
#       7
#     8   8   4   8   8   8   8
#     4  11  23  37  62  94 124 165 211 256 311 374
#     4  11  21  39  64  90 126 165 211 257 312 374
#     4  12  22  38  60  90 124 162 206 258 310 372
#     4  10  22  40  66  92 126 166 211 259 317 376
#     4  10  23  39  62  89 125 166 206 256 319 370
#     4  10  22  42  62  89 124 162 207 260 313 379
#     4  10  21  41  64  90 128 166 208 262 317 372
#
# _framework density 20.746817
#
# number of rings (size 3 to 8) (size 9 to 14) (size 15 to 20)
#    0.000    1.538    3.846    0.923    0.000    6.154 
#    0.000    2.308    6.769    0.000    0.000    0.000 
#    0.000    0.000    0.000    0.000    0.000    0.000 
#
# Total GULP energy -322318.768968 kJ/mol
# GULP energy per Si atom -12396.875730 kJ/mol
# Density = 2.069960 g / cm^3
# Si number density = 20.746817 Si / 1000 Ang^3
#
#
#
# Elastic Constant Matrix: (Units=GPa)
#
#
# Indices 1 2 3 4 5 6 
#
# 1 53.9443 44.2376 22.6320 0.0000 -1.0792 0.0000
# 2 44.2376 105.1151 34.3731 0.0000 3.3956 0.0000
# 3 22.6320 34.3731 94.2794 0.0000 4.5420 0.0000
# 4 0.0000 0.0000 0.0000 33.2238 0.0000 4.3094
# 5 -1.0792 3.3956 4.5420 0.0000 30.2938 0.0000
# 6 0.0000 0.0000 0.0000 4.3094 0.0000 38.3887
#
#
#
# Elastic Compliance Matrix: (Units=1/GPa)
#
#
# Indices 1 2 3 4 5 6 
#
# 1 0.029193 -0.011399 -0.002985 0.000000 0.002765 0.000000
# 2 -0.011399 0.015264 -0.002746 0.000000 -0.001705 0.000000
# 3 -0.002985 -0.002746 0.012405 0.000000 -0.001658 0.000000
# 4 0.000000 0.000000 0.000000 0.030544 0.000000 -0.003429
# 5 0.002765 -0.001705 -0.001658 0.000000 0.033548 0.000000
# 6 0.000000 0.000000 0.000000 -0.003429 0.000000 0.026434
#
#
# Mechanical properties :
#
#
# Convention : Reuss Voigt Hill
#
# Bulk Modulus (GPa) = 44.24734 50.64715 47.44725
# Shear Modulus (GPa) = 26.42941 30.52099 28.47520
#
# Velocity S-wave (km/s) = 3.57305 3.83968 3.70876
# Velocity P-wave (km/s) = 6.19644 6.64248 6.42333
#
# Compressibility (1/GPa) = 0.02260023
#
# Stress axis : x y z
#
# Youngs Moduli (GPa) = 34.25434 65.51400 80.61531
#
# Poissons Ratio (x) = 0.74681 0.24065
# Poissons Ratio (y) = 0.39047 0.22141
# Poissons Ratio (z) = 0.10226 0.17993
#
# Static dielectric constant tensor:
#      x y z
#    x 3.615230 0.000000 -0.028940 
#    y 0.000000 3.733420 0.000000 
#    z -0.028940 0.000000 3.859240 
# 
# 
# High freq. dielectric constant tensor:
#      x y z
#    x 1.791160 0.000000 0.003820 
#    y 0.000000 1.814520 0.000000 
#    z 0.003820 0.000000 1.823530 
# 
# From -- ./inp_files/139893.got.cif
#   From: 2010.06.25/outbox.cif.g09.slc.cpg/sg15_70_cif.got.tgz:139893.got - 2010.06.28 07:06:18.
