data_PCOD8143229
_publ_section_title
;
Structure prediction by ZEFSAII (Michael W. Deem and Ramdas Pophale) SiO2 
 PCOD8143229
Probable space group: C 2/C
;
_chemical_formula_sum "Si O2"
_cell_formula_units_Z 64
_cell_length_a 8.639981
_cell_length_b 17.184706
_cell_length_c 32.270609
_cell_angle_alpha 90.000000
_cell_angle_beta 141.488747
_cell_angle_gamma 90.000000
_cell_volume 2983.450474
_symmetry_space_group_name_H-M "C 2/C"
_symmetry_group_IT_number 15
_symmetry_cell_setting 'monoclinic'
loop_
_space_group_symop_operation_xyz
x,y,z
-x,y,1/2-z
-x,-y,-z
x,-y,1/2+z
1/2+x,1/2+y,z
1/2-x,1/2+y,1/2-z
1/2-x,1/2-y,-z
1/2+x,1/2-y,1/2+z
loop_
_atom_site_type_symbol
_atom_site_label
_atom_site_fract_x
_atom_site_fract_y
_atom_site_fract_z
Si Si1 0.966216 0.964617 0.166076
Si Si2 0.084360 0.861016 0.494786
Si Si3 0.403292 0.022686 0.312415
Si Si4 0.692771 0.735850 0.403564
Si Si5 0.392762 0.126864 0.865016
Si Si6 0.684809 0.629052 0.480034
Si Si7 0.147852 0.395174 0.617152
Si Si8 0.422992 0.512795 0.899382
O O1 0.050808 0.938949 0.138040
O O2 0.888482 0.886638 0.175878
O O3 0.178759 0.013959 0.233485
O O4 0.727170 0.022234 0.113917
O O5 0.373740 0.869482 0.544296
O O6 0.951982 0.782456 0.450718
O O7 0.047646 0.864892 0.536701
O O8 0.938281 0.931614 0.442230
O O9 0.342973 0.094560 0.330955
O O10 0.449271 0.942820 0.346125
O O11 0.663373 0.035266 0.343336
O O12 0.449334 0.792732 0.352085
O O13 0.700596 0.699573 0.451131
O O14 0.668540 0.672640 0.361587
O O15 0.564877 0.125189 0.941504
O O16 0.645664 0.549754 0.446356
#
# Coordination Sequence:
#
# PCOD8143229 Si02
#       8
#     8   8   8   8   8   8   8   8
#     4  11  25  40  68  92 123 174 221 263 304 370
#     4  11  22  38  65  95 130 168 200 265 328 380
#     4  11  22  44  68  88 123 171 223 261 305 364
#     4  11  23  41  63  98 135 160 199 262 337 390
#     4  10  21  40  64  90 127 162 205 259 317 379
#     4  11  21  39  65  94 132 164 200 264 331 377
#     4  11  22  39  66  94 128 160 210 260 318 382
#     4  12  21  40  67  94 126 161 226 264 308 375
#
# _framework density 21.451671000000001
#
# number of rings (size 3 to 8) (size 9 to 14) (size 15 to 20)
#    0.000    1.000    5.000    5.625    1.750    1.000 
#    2.250    0.000   11.000    1.500    0.000    0.000 
#    0.000    0.000    0.000    0.000    0.000    0.000 
#
# Total GULP energy -396512.091907 kJ/mol
# GULP energy per Si atom -12391.002872 kJ/mol
# Density = 2.140285 g / cm^3
# Si number density = 21.451671 Si / 1000 Ang^3
#
#
#
# Elastic Constant Matrix: (Units=GPa)
#
#
# Indices 1 2 3 4 5 6 
#
# 1 102.2224 29.5604 24.7120 0.0003 -0.4935 0.0002
# 2 29.5604 88.5038 19.5536 0.0003 0.2456 0.0001
# 3 24.7120 19.5536 50.9446 0.0019 1.1475 0.0002
# 4 0.0003 0.0003 0.0019 22.4789 0.0005 -3.3006
# 5 -0.4935 0.2456 1.1475 0.0005 23.8306 0.0001
# 6 0.0002 0.0001 0.0002 -3.3006 0.0001 45.0525
#
#
#
# Elastic Compliance Matrix: (Units=1/GPa)
#
#
# Indices 1 2 3 4 5 6 
#
# 1 0.011735 -0.002907 -0.004588 0.000000 0.000494 0.000000
# 2 -0.002907 0.013066 -0.003604 0.000000 -0.000021 0.000000
# 3 -0.004588 -0.003604 0.023264 -0.000002 -0.001178 0.000000
# 4 0.000000 0.000000 -0.000002 0.044970 -0.000001 0.003295
# 5 0.000494 -0.000021 -0.001178 -0.000001 0.042030 0.000000
# 6 0.000000 0.000000 0.000000 0.003295 0.000000 0.022438
#
#
# Mechanical properties :
#
#
# Convention : Reuss Voigt Hill
#
# Bulk Modulus (GPa) = 38.65900 43.25809 40.95855
# Shear Modulus (GPa) = 26.54999 29.46204 28.00601
#
# Velocity S-wave (km/s) = 3.52186 3.70998 3.61715
# Velocity P-wave (km/s) = 5.88206 6.20976 6.04813
#
# Compressibility (1/GPa) = 0.02586719
#
# Stress axis : x y z
#
# Youngs Moduli (GPa) = 85.21731 76.53235 42.98400
#
# Poissons Ratio (x) = 0.22250 0.19719
# Poissons Ratio (y) = 0.24775 0.15493
# Poissons Ratio (z) = 0.39093 0.27586
#
# Static dielectric constant tensor:
#      x y z
#    x 4.098810 0.000000 0.053460 
#    y 0.000000 3.843620 0.000000 
#    z 0.053460 0.000000 3.615350 
# 
# 
# High freq. dielectric constant tensor:
#      x y z
#    x 1.855610 0.000000 -0.001310 
#    y 0.000000 1.823630 0.000000 
#    z -0.001310 0.000000 1.816780 
# 
# From -- ./inp_files/308798.got.cif
#   From: 2010.06.25/outbox.cif.g09.slc.cpg/sg15_155_cif.got.tgz:308798.got - 2010.06.28 07:06:18.
