data_PCOD8143445
_publ_section_title
;
Structure prediction by ZEFSAII (Michael W. Deem and Ramdas Pophale) SiO2 
 PCOD8143445
Probable space group: C 2/C
;
_chemical_formula_sum "Si O2"
_cell_formula_units_Z 64
_cell_length_a 11.357693
_cell_length_b 28.762303
_cell_length_c 13.672096
_cell_angle_alpha 90.000000
_cell_angle_beta 44.820035
_cell_angle_gamma 90.000000
_cell_volume 3148.222940
_symmetry_space_group_name_H-M "C 2/C"
_symmetry_group_IT_number 15
_symmetry_cell_setting 'monoclinic'
loop_
_space_group_symop_operation_xyz
x,y,z
-x,y,1/2-z
-x,-y,-z
x,-y,1/2+z
1/2+x,1/2+y,z
1/2-x,1/2+y,1/2-z
1/2-x,1/2-y,-z
1/2+x,1/2-y,1/2+z
loop_
_atom_site_type_symbol
_atom_site_label
_atom_site_fract_x
_atom_site_fract_y
_atom_site_fract_z
Si Si1 0.041434 0.047192 0.328192
Si Si2 0.076293 0.691265 0.600517
Si Si3 0.494840 0.369906 0.003091
Si Si4 0.818791 0.379798 0.188732
Si Si5 0.210036 0.510622 0.043923
Si Si6 0.446564 0.706013 0.392312
Si Si7 0.361079 0.011651 0.691395
Si Si8 0.843891 0.896503 0.402203
O O1 0.031688 0.081568 0.426191
O O2 0.000000 0.074128 0.250000
O O3 0.892697 0.010009 0.418162
O O4 0.222347 0.021015 0.219481
O O5 0.269319 0.680173 0.496241
O O6 0.054509 0.741967 0.560780
O O7 0.000000 0.697837 0.750000
O O8 0.992224 0.647846 0.595427
O O9 0.300445 0.366289 0.150075
O O10 0.598598 0.364656 0.041609
O O11 0.554684 0.327232 0.899163
O O12 0.834871 0.435260 0.176957
O O13 0.752931 0.364873 0.120200
O O14 0.158639 0.495531 0.181756
O O15 0.059932 0.498413 0.054160
O O16 0.226071 0.565460 0.021170
O O17 0.500000 0.706273 0.250000
O O18 0.000000 0.918900 0.250000
#
# Coordination Sequence:
#
# PCOD8143445 Si02
#       8
#     8   8   8   8   8   8   8   8
#     4  12  23  38  61  87 123 167 207 261 314 367
#     4  10  21  40  67  93 128 154 204 265 319 382
#     4  11  21  40  62  87 122 157 206 258 308 380
#     4  11  22  38  64  89 115 166 215 252 302 381
#     4  11  22  39  57  83 123 166 213 255 310 362
#     4  10  22  40  64  98 124 159 194 263 339 377
#     4  11  24  38  60  86 123 169 212 256 312 364
#     4  10  22  40  61  83 118 168 210 250 305 363
#
# _framework density 20.32893
#
# number of rings (size 3 to 8) (size 9 to 14) (size 15 to 20)
#    0.000    1.250    3.750    3.375    3.500    2.000 
#    2.250    0.625    0.000    0.000    0.000    0.000 
#    0.000    0.000    0.000    0.000    0.000    0.000 
#
# Total GULP energy -396468.585126 kJ/mol
# GULP energy per Si atom -12389.643285 kJ/mol
# Density = 2.028266 g / cm^3
# Si number density = 20.328930 Si / 1000 Ang^3
#
#
#
# Elastic Constant Matrix: (Units=GPa)
#
#
# Indices 1 2 3 4 5 6 
#
# 1 124.7613 45.1740 31.1717 0.0000 2.4871 0.0000
# 2 45.1740 82.3202 13.1694 0.0000 7.1474 0.0000
# 3 31.1717 13.1694 61.0930 0.0000 -8.5556 0.0000
# 4 0.0000 0.0000 0.0000 26.7367 0.0000 -7.1087
# 5 2.4871 7.1474 -8.5556 0.0000 33.5635 0.0000
# 6 0.0000 0.0000 0.0000 -7.1087 0.0000 11.4638
#
#
#
# Elastic Compliance Matrix: (Units=1/GPa)
#
#
# Indices 1 2 3 4 5 6 
#
# 1 0.011105 -0.005272 -0.004654 0.000000 -0.000886 0.000000
# 2 -0.005272 0.015493 -0.001096 0.000000 -0.003188 0.000000
# 3 -0.004654 -0.001096 0.019766 0.000000 0.005617 0.000000
# 4 0.000000 0.000000 0.000000 0.044785 0.000000 0.027771
# 5 -0.000886 -0.003188 0.005617 0.000000 0.031971 0.000000
# 6 0.000000 0.000000 0.000000 0.027771 0.000000 0.104452
#
#
# Mechanical properties :
#
#
# Convention : Reuss Voigt Hill
#
# Bulk Modulus (GPa) = 41.11923 49.68939 45.40431
# Shear Modulus (GPa) = 19.40077 26.26345 22.83211
#
# Velocity S-wave (km/s) = 3.09260 3.59823 3.35495
# Velocity P-wave (km/s) = 5.74657 6.46211 6.11481
#
# Compressibility (1/GPa) = 0.02431952
#
# Stress axis : x y z
#
# Youngs Moduli (GPa) = 90.05171 64.54484 50.59260
#
# Poissons Ratio (x) = 0.34031 0.23544
# Poissons Ratio (y) = 0.47479 0.05545
# Poissons Ratio (z) = 0.41906 0.07074
#
# Static dielectric constant tensor:
#      x y z
#    x 4.054340 0.000000 -0.047370 
#    y 0.000000 3.530220 0.000000 
#    z -0.047370 0.000000 3.901190 
# 
# 
# High freq. dielectric constant tensor:
#      x y z
#    x 1.805500 0.000000 0.006310 
#    y 0.000000 1.764970 0.000000 
#    z 0.006310 0.000000 1.802190 
# 
# From -- ./inp_files/148760.got.cif
#   From: 2010.06.25/outbox.cif.g09.slc.cpg/sg15_75_cif.got.tgz:148760.got - 2010.06.28 07:06:18.
