data_PCOD8143737
_publ_section_title
;
Structure prediction by ZEFSAII (Michael W. Deem and Ramdas Pophale) SiO2 
 PCOD8143737
Probable space group: C 2/C
;
_chemical_formula_sum "Si O2"
_cell_formula_units_Z 64
_cell_length_a 20.035451
_cell_length_b 21.119420
_cell_length_c 15.536821
_cell_angle_alpha 90.000000
_cell_angle_beta 154.229342
_cell_angle_gamma 90.000000
_cell_volume 2858.267147
_symmetry_space_group_name_H-M "C 2/C"
_symmetry_group_IT_number 15
_symmetry_cell_setting 'monoclinic'
loop_
_space_group_symop_operation_xyz
x,y,z
-x,y,1/2-z
-x,-y,-z
x,-y,1/2+z
1/2+x,1/2+y,z
1/2-x,1/2+y,1/2-z
1/2-x,1/2-y,-z
1/2+x,1/2-y,1/2+z
loop_
_atom_site_type_symbol
_atom_site_label
_atom_site_fract_x
_atom_site_fract_y
_atom_site_fract_z
Si Si1 0.622952 0.349625 0.955592
Si Si2 0.734672 0.130865 0.622143
Si Si3 0.771045 0.528088 0.541349
Si Si4 0.897847 0.495218 0.008424
Si Si5 0.104018 0.700452 0.624810
Si Si6 0.175639 0.611677 0.192130
Si Si7 0.530832 0.657361 0.050772
Si Si8 0.172845 0.892718 0.449805
O O1 0.500000 0.314215 0.750000
O O2 0.524351 0.371565 0.923034
O O3 0.688392 0.410707 0.982998
O O4 0.758944 0.303336 0.145302
O O5 0.669704 0.189287 0.603763
O O6 0.722245 0.139383 0.504333
O O7 0.645368 0.068662 0.550241
O O8 0.918271 0.125378 0.849996
O O9 0.814201 0.538982 0.491579
O O10 0.658619 0.467805 0.416740
O O11 0.920270 0.509792 0.769830
O O12 0.848611 0.461738 0.861744
O O13 0.017243 0.766593 0.531249
O O14 0.983687 0.646529 0.508793
O O15 0.294928 0.639789 0.262789
O O16 0.237138 0.623010 0.358925
O O17 0.000000 0.864606 0.250000
#
# Coordination Sequence:
#
# PCOD8143737 Si02
#       8
#     8   8   8   8   8   8   8   8
#     4  11  23  43  69 100 140 185 225 283 353 422
#     4  10  23  46  66  96 141 179 233 288 354 411
#     4  10  21  41  64 101 147 176 218 275 351 437
#     4  10  22  39  69 105 136 183 225 284 352 430
#     4  11  25  45  69  96 134 188 242 285 338 414
#     4  12  23  40  70  97 136 176 233 292 346 408
#     4  11  25  45  66  97 139 184 242 285 342 406
#     4  11  23  40  64 100 138 173 226 285 352 415
#
# _framework density 22.391188
#
# number of rings (size 3 to 8) (size 9 to 14) (size 15 to 20)
#    0.000    1.250    2.500    3.375    3.500    4.500 
#    0.000    5.000    0.000    0.000    0.000    0.000 
#    0.000    0.000    0.000    0.000    0.000    0.000 
#
# Total GULP energy -396756.532284 kJ/mol
# GULP energy per Si atom -12398.641634 kJ/mol
# Density = 2.234022 g / cm^3
# Si number density = 22.391188 Si / 1000 Ang^3
#
#
#
# Elastic Constant Matrix: (Units=GPa)
#
#
# Indices 1 2 3 4 5 6 
#
# 1 71.7331 11.8583 45.1926 0.0000 1.3966 0.0000
# 2 11.8583 56.9411 21.7504 0.0000 -3.0655 0.0000
# 3 45.1926 21.7504 135.5334 0.0000 -10.1848 0.0000
# 4 0.0000 0.0000 0.0000 27.0464 0.0000 6.6013
# 5 1.3966 -3.0655 -10.1848 0.0000 41.4619 0.0000
# 6 0.0000 0.0000 0.0000 6.6013 0.0000 22.2583
#
#
#
# Elastic Compliance Matrix: (Units=1/GPa)
#
#
# Indices 1 2 3 4 5 6 
#
# 1 0.017962 -0.001606 -0.005895 0.000000 -0.002172 0.000000
# 2 -0.001606 0.018870 -0.002429 0.000000 0.000853 0.000000
# 3 -0.005895 -0.002429 0.009918 0.000000 0.002455 0.000000
# 4 0.000000 0.000000 0.000000 0.039859 0.000000 -0.011821
# 5 -0.002172 0.000853 0.002455 0.000000 0.024858 0.000000
# 6 0.000000 0.000000 0.000000 -0.011821 0.000000 0.048433
#
#
# Mechanical properties :
#
#
# Convention : Reuss Voigt Hill
#
# Bulk Modulus (GPa) = 37.18662 46.86780 42.02721
# Shear Modulus (GPa) = 26.49390 30.51374 28.50382
#
# Velocity S-wave (km/s) = 3.44354 3.69556 3.57177
# Velocity P-wave (km/s) = 5.69688 6.25990 5.98501
#
# Compressibility (1/GPa) = 0.02689139
#
# Stress axis : x y z
#
# Youngs Moduli (GPa) = 55.67276 52.99393 100.82578
#
# Poissons Ratio (x) = 0.08510 0.59435
# Poissons Ratio (y) = 0.08941 0.24488
# Poissons Ratio (z) = 0.32818 0.12871
#
# Static dielectric constant tensor:
#      x y z
#    x 4.238260 0.000000 0.043540 
#    y 0.000000 3.645330 0.000000 
#    z 0.043540 0.000000 4.210980 
# 
# 
# High freq. dielectric constant tensor:
#      x y z
#    x 1.902150 0.000000 0.008640 
#    y 0.000000 1.848630 0.000000 
#    z 0.008640 0.000000 1.894220 
# 
# From -- ./inp_files/164266.got.cif
#   From: 2010.06.25/outbox.cif.g09.slc.cpg/sg15_83_cif.got.tgz:164266.got - 2010.06.28 07:06:18.
