data_PCOD8143720
_publ_section_title
;
Structure prediction by ZEFSAII (Michael W. Deem and Ramdas Pophale) SiO2 
 PCOD8143720
Probable space group: C 2/C
;
_chemical_formula_sum "Si O2"
_cell_formula_units_Z 64
_cell_length_a 28.838777
_cell_length_b 13.730730
_cell_length_c 9.202533
_cell_angle_alpha 90.000000
_cell_angle_beta 52.277210
_cell_angle_gamma 90.000000
_cell_volume 2882.328512
_symmetry_space_group_name_H-M "C 2/C"
_symmetry_group_IT_number 15
_symmetry_cell_setting 'monoclinic'
loop_
_space_group_symop_operation_xyz
x,y,z
-x,y,1/2-z
-x,-y,-z
x,-y,1/2+z
1/2+x,1/2+y,z
1/2-x,1/2+y,1/2-z
1/2-x,1/2-y,-z
1/2+x,1/2-y,1/2+z
loop_
_atom_site_type_symbol
_atom_site_label
_atom_site_fract_x
_atom_site_fract_y
_atom_site_fract_z
Si Si1 0.484423 0.702050 0.618930
Si Si2 0.088144 0.369414 0.881678
Si Si3 0.324536 0.886037 0.250869
Si Si4 0.811563 0.115195 0.545070
Si Si5 0.381683 0.019949 0.910313
Si Si6 0.377484 0.413858 0.410513
Si Si7 0.685877 0.724640 0.667537
Si Si8 0.886088 0.194587 0.169271
O O1 0.500000 0.743525 0.750000
O O2 0.454323 0.780789 0.572963
O O3 0.444022 0.603636 0.716900
O O4 0.545561 0.687190 0.418603
O O5 0.081169 0.448033 0.764872
O O6 0.154054 0.326181 0.766457
O O7 0.075145 0.416798 0.066332
O O8 0.254559 0.875860 0.384614
O O9 0.342215 0.914281 0.380686
O O10 0.363705 0.792354 0.130150
O O11 0.337998 0.966288 0.104165
O O12 0.816166 0.142877 0.703655
O O13 0.847861 0.195118 0.387623
O O14 0.845601 0.015205 0.439913
O O15 0.341480 0.323288 0.420668
O O16 0.376238 0.399461 0.586187
O O17 0.750000 0.750000 0.500000
#
# Coordination Sequence:
#
# PCOD8143720 Si02
#       8
#     8   8   8   8   8   8   8   8
#     4   9  20  43  69  91 132 178 222 272 332 399
#     4  10  21  41  63  94 128 169 219 262 330 388
#     4  11  24  40  62  95 131 171 215 271 336 391
#     4  12  25  39  65  99 133 167 225 277 328 397
#     4  10  22  39  64  94 130 167 214 271 324 394
#     4  10  23  40  65  96 129 174 219 268 331 393
#     4  11  23  40  62  92 132 179 211 264 338 405
#     4  11  23  44  66  93 132 177 222 277 329 392
#
# _framework density 22.204269
#
# number of rings (size 3 to 8) (size 9 to 14) (size 15 to 20)
#    0.000    1.500    0.000    5.625    7.000    0.500 
#    0.000   16.250    0.000    0.000    0.000    0.000 
#    0.000    0.000    0.000    0.000    0.000    0.000 
#
# Total GULP energy -396520.128624 kJ/mol
# GULP energy per Si atom -12391.254019 kJ/mol
# Density = 2.215373 g / cm^3
# Si number density = 22.204269 Si / 1000 Ang^3
#
#
#
# Elastic Constant Matrix: (Units=GPa)
#
#
# Indices 1 2 3 4 5 6 
#
# 1 101.6346 21.5825 41.6326 0.0000 -6.7230 0.0000
# 2 21.5825 76.6223 13.0947 0.0000 0.1515 0.0000
# 3 41.6326 13.0947 85.3968 0.0000 0.6366 0.0000
# 4 0.0000 0.0000 0.0000 28.2598 0.0000 4.6075
# 5 -6.7230 0.1515 0.6366 0.0000 46.1462 0.0000
# 6 0.0000 0.0000 0.0000 4.6075 0.0000 32.5874
#
#
#
# Elastic Compliance Matrix: (Units=1/GPa)
#
#
# Indices 1 2 3 4 5 6 
#
# 1 0.012959 -0.002641 -0.005928 0.000000 0.001978 0.000000
# 2 -0.002641 0.013941 -0.000847 0.000000 -0.000419 0.000000
# 3 -0.005928 -0.000847 0.014738 0.000000 -0.001064 0.000000
# 4 0.000000 0.000000 0.000000 0.036221 0.000000 -0.005121
# 5 0.001978 -0.000419 -0.001064 0.000000 0.021975 0.000000
# 6 0.000000 0.000000 0.000000 -0.005121 0.000000 0.031411
#
#
# Mechanical properties :
#
#
# Convention : Reuss Voigt Hill
#
# Bulk Modulus (GPa) = 43.84805 46.25259 45.05032
# Shear Modulus (GPa) = 31.71049 33.88827 32.79938
#
# Velocity S-wave (km/s) = 3.78316 3.91091 3.84756
# Velocity P-wave (km/s) = 6.23486 6.42412 6.33020
#
# Compressibility (1/GPa) = 0.02280603
#
# Stress axis : x y z
#
# Youngs Moduli (GPa) = 77.16657 71.73330 67.85362
#
# Poissons Ratio (x) = 0.18946 0.40220
# Poissons Ratio (y) = 0.20381 0.05747
# Poissons Ratio (z) = 0.45741 0.06075
#
# Static dielectric constant tensor:
#      x y z
#    x 3.173530 0.000000 -0.178950 
#    y 0.000000 3.962040 0.000000 
#    z -0.178950 0.000000 3.885130 
# 
# 
# High freq. dielectric constant tensor:
#      x y z
#    x 1.883120 0.000000 0.008570 
#    y 0.000000 1.870450 0.000000 
#    z 0.008570 0.000000 1.871060 
# 
# From -- ./inp_files/70130.got.cif
#   From: 2010.06.25/outbox.cif.g09.slc.cpg/sg15_36_cif.got.tgz:70130.got - 2010.06.28 07:06:18.
