data_PCOD8143150
_publ_section_title
;
Structure prediction by ZEFSAII (Michael W. Deem and Ramdas Pophale) SiO2 
 PCOD8143150
Probable space group: C 2/C
;
_chemical_formula_sum "Si O2"
_cell_formula_units_Z 44
_cell_length_a 23.271820
_cell_length_b 6.861914
_cell_length_c 14.716477
_cell_angle_alpha 90.000000
_cell_angle_beta 58.967121
_cell_angle_gamma 90.000000
_cell_volume 2013.702124
_symmetry_space_group_name_H-M "C 2/C"
_symmetry_group_IT_number 15
_symmetry_cell_setting 'monoclinic'
loop_
_space_group_symop_operation_xyz
x,y,z
-x,y,1/2-z
-x,-y,-z
x,-y,1/2+z
1/2+x,1/2+y,z
1/2-x,1/2+y,1/2-z
1/2-x,1/2-y,-z
1/2+x,1/2-y,1/2+z
loop_
_atom_site_type_symbol
_atom_site_label
_atom_site_fract_x
_atom_site_fract_y
_atom_site_fract_z
Si Si1 0.500000 0.379026 0.250000
Si Si2 0.341866 0.374084 0.117223
Si Si3 0.889036 0.165184 0.378176
Si Si4 0.041178 0.472739 0.600395
Si Si5 0.596704 0.009443 0.371158
Si Si6 0.696686 0.281585 0.718010
O O1 0.436970 0.518758 0.283379
O O2 0.477977 0.239439 0.349137
O O3 0.327467 0.566754 0.185816
O O4 0.275885 0.242317 0.157430
O O5 0.394443 0.244623 0.132920
O O6 0.371950 0.418041 0.992497
O O7 0.925357 0.378579 0.354299
O O8 0.822462 0.166577 0.370308
O O9 0.094728 0.437922 0.477094
O O10 0.971518 0.564240 0.620694
O O11 0.660541 0.921442 0.268934
#
# Coordination Sequence:
#
# PCOD8143150 Si02
#       6
#     4   8   8   8   8   8
#     4  12  20  38  60  92 122 158 206 254 318 372
#     4  11  24  42  63  94 127 170 215 256 317 378
#     4  11  25  40  64  96 128 163 212 267 315 379
#     4  10  22  39  62  92 125 164 207 264 318 372
#     4  10  21  40  63  89 125 165 211 258 315 377
#     4  12  22  42  64  89 128 170 210 262 315 376
#
# _framework density 21.850301000000002
#
# number of rings (size 3 to 8) (size 9 to 14) (size 15 to 20)
#    0.000    1.091    1.818    5.455    0.000    0.000 
#    0.000    8.182    0.000    0.000    0.000    0.000 
#    0.000    0.000    0.000    0.000    0.000    0.000 
#
# Total GULP energy -272688.856251 kJ/mol
# GULP energy per Si atom -12394.948011 kJ/mol
# Density = 2.180057 g / cm^3
# Si number density = 21.850301 Si / 1000 Ang^3
#
#
#
# Elastic Constant Matrix: (Units=GPa)
#
#
# Indices 1 2 3 4 5 6 
#
# 1 92.1714 21.1054 10.7441 0.0000 6.7845 0.0009
# 2 21.1054 69.8213 22.7152 0.0004 9.6620 0.0034
# 3 10.7441 22.7152 66.9789 -0.0002 -0.8501 0.0004
# 4 0.0000 0.0004 -0.0002 47.1258 -0.0001 -3.7312
# 5 6.7845 9.6620 -0.8501 -0.0001 33.3425 0.0002
# 6 0.0009 0.0034 0.0004 -3.7312 0.0002 19.1196
#
#
#
# Elastic Compliance Matrix: (Units=1/GPa)
#
#
# Indices 1 2 3 4 5 6 
#
# 1 0.011764 -0.003062 -0.000868 0.000000 -0.001529 0.000000
# 2 -0.003062 0.017704 -0.005572 0.000000 -0.004649 -0.000003
# 3 -0.000868 -0.005572 0.016987 0.000000 0.002224 0.000001
# 4 0.000000 0.000000 0.000000 0.021553 0.000000 0.004206
# 5 -0.001529 -0.004649 0.002224 0.000000 0.031707 0.000001
# 6 0.000000 -0.000003 0.000001 0.004206 0.000001 0.053123
#
#
# Mechanical properties :
#
#
# Convention : Reuss Voigt Hill
#
# Bulk Modulus (GPa) = 36.42820 37.56676 36.99748
# Shear Modulus (GPa) = 27.62541 31.54470 29.58505
#
# Velocity S-wave (km/s) = 3.55956 3.80369 3.68365
# Velocity P-wave (km/s) = 5.79671 6.04325 5.92127
#
# Compressibility (1/GPa) = 0.02745126
#
# Stress axis : x y z
#
# Youngs Moduli (GPa) = 85.00354 56.48440 58.86787
#
# Poissons Ratio (x) = 0.17296 0.05110
# Poissons Ratio (y) = 0.26029 0.32801
# Poissons Ratio (z) = 0.07378 0.31473
#
# Static dielectric constant tensor:
#      x y z
#    x 3.922870 0.000000 -0.034110 
#    y 0.000000 3.779610 0.000000 
#    z -0.034110 0.000000 3.987340 
# 
# 
# High freq. dielectric constant tensor:
#      x y z
#    x 1.854510 0.000000 -0.001820 
#    y 0.000000 1.851300 0.000000 
#    z -0.001820 0.000000 1.872130 
# 
# From -- ./inp_files/175769.got.cif
#   From: 2010.06.25/outbox.cif.g09.slc.cpg/sg15_88_cif.got.tgz:175769.got - 2010.06.28 07:06:18.
