data_PCOD8143344
_publ_section_title
;
Structure prediction by ZEFSAII (Michael W. Deem and Ramdas Pophale) SiO2 
 PCOD8143344
Probable space group: C 2/C
;
_chemical_formula_sum "Si O2"
_cell_formula_units_Z 32
_cell_length_a 9.626894
_cell_length_b 10.341572
_cell_length_c 13.688048
_cell_angle_alpha 90.000000
_cell_angle_beta 109.549963
_cell_angle_gamma 90.000000
_cell_volume 1284.181845
_symmetry_space_group_name_H-M "C 2/C"
_symmetry_group_IT_number 15
_symmetry_cell_setting 'monoclinic'
loop_
_space_group_symop_operation_xyz
x,y,z
-x,y,1/2-z
-x,-y,-z
x,-y,1/2+z
1/2+x,1/2+y,z
1/2-x,1/2+y,1/2-z
1/2-x,1/2-y,-z
1/2+x,1/2-y,1/2+z
loop_
_atom_site_type_symbol
_atom_site_label
_atom_site_fract_x
_atom_site_fract_y
_atom_site_fract_z
Si Si1 0.666182 0.961054 0.441117
Si Si2 0.695141 0.489550 0.218886
Si Si3 0.097325 0.100013 0.892116
Si Si4 0.095230 0.352850 0.618756
O O1 0.717498 0.910505 0.346523
O O2 0.666418 0.851206 0.525952
O O3 0.785945 0.074272 0.494875
O O4 0.504192 0.019276 0.394550
O O5 0.526232 0.515234 0.142799
O O6 0.686831 0.394035 0.311012
O O7 0.776836 0.623496 0.269333
O O8 0.003548 0.229292 0.885542
#
# Coordination Sequence:
#
# PCOD8143344 Si02
#       4
#     8   8   8   8
#     4  10  21  40  65  95 133 165 217 269 312 385
#     4  10  22  37  65  98 130 167 218 263 313 388
#     4  10  22  41  65  93 130 176 208 263 334 370
#     4  10  22  41  66  98 131 167 216 270 316 383
#
# _framework density 24.918589000000001
#
# number of rings (size 3 to 8) (size 9 to 14) (size 15 to 20)
#    0.000    2.000    0.000    2.250    7.000    1.000 
#    0.000    0.000    5.500    0.000    0.000    0.000 
#    0.000    0.000    0.000    0.000    0.000    0.000 
#
# Total GULP energy -198209.973294 kJ/mol
# GULP energy per Si atom -12388.123331 kJ/mol
# Density = 2.486187 g / cm^3
# Si number density = 24.918589 Si / 1000 Ang^3
#
#
#
# Elastic Constant Matrix: (Units=GPa)
#
#
# Indices 1 2 3 4 5 6 
#
# 1 135.6169 35.8616 63.6874 0.0000 -30.4712 0.0000
# 2 35.8616 63.4349 24.8933 0.0000 -6.4497 0.0000
# 3 63.6874 24.8933 103.4910 0.0000 -22.4361 0.0000
# 4 0.0000 0.0000 0.0000 18.3357 0.0000 7.0065
# 5 -30.4712 -6.4497 -22.4361 0.0000 73.3897 0.0000
# 6 0.0000 0.0000 0.0000 7.0065 0.0000 54.2125
#
#
#
# Elastic Compliance Matrix: (Units=1/GPa)
#
#
# Indices 1 2 3 4 5 6 
#
# 1 0.011736 -0.004146 -0.005620 0.000000 0.002790 0.000000
# 2 -0.004146 0.018877 -0.002145 0.000000 -0.000718 0.000000
# 3 -0.005620 -0.002145 0.014020 0.000000 0.001764 0.000000
# 4 0.000000 0.000000 0.000000 0.057372 0.000000 -0.007415
# 5 0.002790 -0.000718 0.001764 0.000000 0.015261 0.000000
# 6 0.000000 0.000000 0.000000 -0.007415 0.000000 0.019404
#
#
# Mechanical properties :
#
#
# Convention : Reuss Voigt Hill
#
# Bulk Modulus (GPa) = 48.05210 61.26971 54.66091
# Shear Modulus (GPa) = 29.86361 41.06095 35.46228
#
# Velocity S-wave (km/s) = 3.46562 4.06372 3.77653
# Velocity P-wave (km/s) = 5.94470 6.83079 6.40309
#
# Compressibility (1/GPa) = 0.02081074
#
# Stress axis : x y z
#
# Youngs Moduli (GPa) = 85.20598 52.97575 71.32810
#
# Poissons Ratio (x) = 0.21962 0.40089
# Poissons Ratio (y) = 0.35323 0.15300
# Poissons Ratio (z) = 0.47888 0.11363
#
# Static dielectric constant tensor:
#      x y z
#    x 5.095670 0.000000 0.048930 
#    y 0.000000 3.749760 0.000000 
#    z 0.048930 0.000000 4.956890 
# 
# 
# High freq. dielectric constant tensor:
#      x y z
#    x 2.023370 0.000000 -0.007250 
#    y 0.000000 1.922390 0.000000 
#    z -0.007250 0.000000 2.008430 
# 
# From -- ./inp_files/131920.got.cif
#   From: 2010.06.25/outbox.cif.g09.slc.cpg/sg15_66_cif.got.tgz:131920.got - 2010.06.28 07:06:18.
