data_PCOD8143295
_publ_section_title
;
Structure prediction by ZEFSAII (Michael W. Deem and Ramdas Pophale) SiO2 
 PCOD8143295
Probable space group: C 2/C
;
_chemical_formula_sum "Si O2"
_cell_formula_units_Z 36
_cell_length_a 7.925541
_cell_length_b 22.785565
_cell_length_c 9.495446
_cell_angle_alpha 90.000000
_cell_angle_beta 69.534530
_cell_angle_gamma 90.000000
_cell_volume 1606.532372
_symmetry_space_group_name_H-M "C 2/C"
_symmetry_group_IT_number 15
_symmetry_cell_setting 'monoclinic'
loop_
_space_group_symop_operation_xyz
x,y,z
-x,y,1/2-z
-x,-y,-z
x,-y,1/2+z
1/2+x,1/2+y,z
1/2-x,1/2+y,1/2-z
1/2-x,1/2-y,-z
1/2+x,1/2-y,1/2+z
loop_
_atom_site_type_symbol
_atom_site_label
_atom_site_fract_x
_atom_site_fract_y
_atom_site_fract_z
Si Si1 0.484790 0.283759 0.012547
Si Si2 0.352576 0.058851 0.170124
Si Si3 0.897491 0.569319 0.643041
Si Si4 0.263633 0.192927 0.670413
Si Si5 0.000000 0.132184 0.250000
O O1 0.316586 0.273595 0.167879
O O2 0.646506 0.305594 0.063546
O O3 0.543563 0.222633 0.920290
O O4 0.439918 0.329921 0.902764
O O5 0.500000 0.062688 0.250000
O O6 0.167867 0.093055 0.254849
O O7 0.297026 0.992228 0.136118
O O8 0.456106 0.090078 0.012780
O O9 0.768947 0.624407 0.709198
O O10 0.000000 0.550538 0.750000
#
# Coordination Sequence:
#
# PCOD8143295 Si02
#       5
#     8   8   8   8   4
#     4  10  24  39  63  96 131 173 220 265 339 376
#     4  10  23  42  64  98 131 170 215 272 327 384
#     4  10  21  40  65  88 128 175 216 265 327 387
#     4  10  22  43  61  92 134 175 215 277 320 396
#     4  12  24  40  68 104 128 170 220 270 324 402
#
# _framework density 22.408514
#
# number of rings (size 3 to 8) (size 9 to 14) (size 15 to 20)
#    0.000    1.778    0.000    2.667    4.667    2.667 
#    0.000   12.222    0.000    0.000    0.000    0.000 
#    0.000    0.000    0.000    0.000    0.000    0.000 
#
# Total GULP energy -223020.565559 kJ/mol
# GULP energy per Si atom -12390.031420 kJ/mol
# Density = 2.235751 g / cm^3
# Si number density = 22.408514 Si / 1000 Ang^3
#
#
#
# Elastic Constant Matrix: (Units=GPa)
#
#
# Indices 1 2 3 4 5 6 
#
# 1 88.9275 42.4581 29.6340 0.0000 -0.9031 0.0000
# 2 42.4581 114.3831 34.9999 0.0000 -1.5895 0.0000
# 3 29.6340 34.9999 134.8601 0.0000 -1.5991 0.0000
# 4 0.0000 0.0000 0.0000 34.2690 0.0000 -2.1243
# 5 -0.9031 -1.5895 -1.5991 0.0000 19.1728 0.0000
# 6 0.0000 0.0000 0.0000 -2.1243 0.0000 32.0216
#
#
#
# Elastic Compliance Matrix: (Units=1/GPa)
#
#
# Indices 1 2 3 4 5 6 
#
# 1 0.014097 -0.004653 -0.001889 0.000000 0.000121 0.000000
# 2 -0.004653 0.011039 -0.001836 0.000000 0.000543 0.000000
# 3 -0.001889 -0.001836 0.008312 0.000000 0.000452 0.000000
# 4 0.000000 0.000000 0.000000 0.029301 0.000000 0.001944
# 5 0.000121 0.000543 0.000452 0.000000 0.052246 0.000000
# 6 0.000000 0.000000 0.000000 0.001944 0.000000 0.031358
#
#
# Mechanical properties :
#
#
# Convention : Reuss Voigt Hill
#
# Bulk Modulus (GPa) = 59.90672 61.37275 60.63973
# Shear Modulus (GPa) = 29.64307 32.49793 31.07050
#
# Velocity S-wave (km/s) = 3.64104 3.81235 3.72768
# Velocity P-wave (km/s) = 6.66845 6.84297 6.75627
#
# Compressibility (1/GPa) = 0.01669262
#
# Stress axis : x y z
#
# Youngs Moduli (GPa) = 70.93508 90.58675 120.30854
#
# Poissons Ratio (x) = 0.42152 0.22722
# Poissons Ratio (y) = 0.33008 0.22089
# Poissons Ratio (z) = 0.13397 0.16632
#
# Static dielectric constant tensor:
#      x y z
#    x 3.787550 0.000000 0.043980 
#    y 0.000000 4.034540 0.000000 
#    z 0.043980 0.000000 4.218690 
# 
# 
# High freq. dielectric constant tensor:
#      x y z
#    x 1.862390 0.000000 0.011180 
#    y 0.000000 1.888260 0.000000 
#    z 0.011180 0.000000 1.900920 
# 
# From -- ./inp_files/23306.got.cif
#   From: 2010.06.25/outbox.cif.g09.slc.cpg/sg15_12_cif.got.tgz:23306.got - 2010.06.28 07:06:18.
