data_PCOD8143180
_publ_section_title
;
Structure prediction by ZEFSAII (Michael W. Deem and Ramdas Pophale) SiO2 
 PCOD8143180
Probable space group: C 2/C
;
_chemical_formula_sum "Si O2"
_cell_formula_units_Z 48
_cell_length_a 21.424226
_cell_length_b 11.014667
_cell_length_c 11.582364
_cell_angle_alpha 90.000000
_cell_angle_beta 59.215129
_cell_angle_gamma 90.000000
_cell_volume 2348.091143
_symmetry_space_group_name_H-M "C 2/C"
_symmetry_group_IT_number 15
_symmetry_cell_setting 'monoclinic'
loop_
_space_group_symop_operation_xyz
x,y,z
-x,y,1/2-z
-x,-y,-z
x,-y,1/2+z
1/2+x,1/2+y,z
1/2-x,1/2+y,1/2-z
1/2-x,1/2-y,-z
1/2+x,1/2-y,1/2+z
loop_
_atom_site_type_symbol
_atom_site_label
_atom_site_fract_x
_atom_site_fract_y
_atom_site_fract_z
Si Si1 0.795117 0.403112 0.065492
Si Si2 0.057972 0.818510 0.441966
Si Si3 0.355920 0.687847 0.861834
Si Si4 0.156940 0.323090 0.008344
Si Si5 0.902695 0.091292 0.052068
Si Si6 0.307083 0.239257 0.777013
O O1 0.708498 0.392932 0.132372
O O2 0.827332 0.535010 0.013831
O O3 0.817247 0.368015 0.174773
O O4 0.829790 0.315485 0.937197
O O5 0.084222 0.779107 0.290394
O O6 0.084086 0.718323 0.510551
O O7 0.971053 0.827862 0.529088
O O8 0.090638 0.949670 0.436632
O O9 0.392166 0.606532 0.925874
O O10 0.222509 0.249397 0.887736
O O11 0.146985 0.288728 0.151811
O O12 0.833848 0.136094 0.191964
#
# Coordination Sequence:
#
# PCOD8143180 Si02
#       6
#     8   8   8   8   8   8
#     4  10  22  38  65  93 126 160 209 261 309 372
#     4  11  23  40  65  93 122 167 209 258 319 375
#     4  10  21  40  63  93 123 166 205 259 313 372
#     4  11  24  37  65  94 124 165 208 260 314 374
#     4  10  24  41  63  91 127 161 209 264 312 378
#     4  10  23  40  59  92 124 158 207 257 315 370
#
# _framework density 20.442136000000001
#
# number of rings (size 3 to 8) (size 9 to 14) (size 15 to 20)
#    0.000    1.667    1.667    1.500    9.333    0.667 
#    0.000    3.333    7.333    0.000    0.000    0.000 
#    0.000    0.000    0.000    0.000    0.000    0.000 
#
# Total GULP energy -297663.763122 kJ/mol
# GULP energy per Si atom -12402.656797 kJ/mol
# Density = 2.039561 g / cm^3
# Si number density = 20.442136 Si / 1000 Ang^3
#
#
#
# Elastic Constant Matrix: (Units=GPa)
#
#
# Indices 1 2 3 4 5 6 
#
# 1 80.6491 23.6174 34.5082 0.0000 20.4171 0.0000
# 2 23.6174 78.4356 25.3917 0.0000 10.6134 0.0000
# 3 34.5082 25.3917 74.7506 0.0000 29.7054 0.0000
# 4 0.0000 0.0000 0.0000 16.7563 0.0000 0.8252
# 5 20.4171 10.6134 29.7054 0.0000 32.8709 0.0000
# 6 0.0000 0.0000 0.0000 0.8252 0.0000 29.7804
#
#
#
# Elastic Compliance Matrix: (Units=1/GPa)
#
#
# Indices 1 2 3 4 5 6 
#
# 1 0.016498 -0.002772 -0.004615 0.000000 -0.005181 0.000000
# 2 -0.002772 0.014793 -0.003950 0.000000 0.000515 0.000000
# 3 -0.004615 -0.003950 0.023724 0.000000 -0.017297 0.000000
# 4 0.000000 0.000000 0.000000 0.059761 0.000000 -0.001656
# 5 -0.005181 0.000515 -0.017297 0.000000 0.049105 0.000000
# 6 0.000000 0.000000 0.000000 -0.001656 0.000000 0.033625
#
#
# Mechanical properties :
#
#
# Convention : Reuss Voigt Hill
#
# Bulk Modulus (GPa) = 30.92172 44.54109 37.73141
# Shear Modulus (GPa) = 21.64867 25.90272 23.77569
#
# Velocity S-wave (km/s) = 3.25779 3.56353 3.41409
# Velocity P-wave (km/s) = 5.41389 6.22638 5.83430
#
# Compressibility (1/GPa) = 0.03233972
#
# Stress axis : x y z
#
# Youngs Moduli (GPa) = 60.61427 67.59927 42.15133
#
# Poissons Ratio (x) = 0.18741 0.19455
# Poissons Ratio (y) = 0.16804 0.16649
# Poissons Ratio (z) = 0.27976 0.26700
#
# Static dielectric constant tensor:
#      x y z
#    x 3.785550 0.000000 0.131720 
#    y 0.000000 3.474800 0.000000 
#    z 0.131720 0.000000 3.775140 
# 
# 
# High freq. dielectric constant tensor:
#      x y z
#    x 1.797130 0.000000 0.015240 
#    y 0.000000 1.789650 0.000000 
#    z 0.015240 0.000000 1.808570 
# 
# From -- ./inp_files/110862.got.cif
#   From: 2010.06.25/outbox.cif.g09.slc.cpg/sg15_56_cif.got.tgz:110862.got - 2010.06.28 07:06:18.
