data_PCOD8143611
_publ_section_title
;
Structure prediction by ZEFSAII (Michael W. Deem and Ramdas Pophale) SiO2 
 PCOD8143611
Probable space group: C 2/C
;
_chemical_formula_sum "Si O2"
_cell_formula_units_Z 48
_cell_length_a 21.775615
_cell_length_b 15.028436
_cell_length_c 12.294240
_cell_angle_alpha 90.000000
_cell_angle_beta 34.416857
_cell_angle_gamma 90.000000
_cell_volume 2274.026579
_symmetry_space_group_name_H-M "C 2/C"
_symmetry_group_IT_number 15
_symmetry_cell_setting 'monoclinic'
loop_
_space_group_symop_operation_xyz
x,y,z
-x,y,1/2-z
-x,-y,-z
x,-y,1/2+z
1/2+x,1/2+y,z
1/2-x,1/2+y,1/2-z
1/2-x,1/2-y,-z
1/2+x,1/2-y,1/2+z
loop_
_atom_site_type_symbol
_atom_site_label
_atom_site_fract_x
_atom_site_fract_y
_atom_site_fract_z
Si Si1 0.879924 0.218229 0.902164
Si Si2 0.380210 0.075623 0.431374
Si Si3 0.083801 0.127182 0.856866
Si Si4 0.200631 0.033706 0.102820
Si Si5 0.662851 0.689059 0.304185
Si Si6 0.260965 0.624364 0.673198
O O1 0.883362 0.323189 0.889775
O O2 0.841928 0.179608 0.841514
O O3 0.000000 0.179997 0.750000
O O4 0.809394 0.182485 0.107440
O O5 0.500000 0.033571 0.250000
O O6 0.328696 0.067849 0.628035
O O7 0.307970 0.025586 0.448567
O O8 0.138746 0.145755 0.892732
O O9 0.095241 0.022528 0.801737
O O10 0.964146 0.169122 0.036589
O O11 0.228303 0.115963 0.141958
O O12 0.185501 0.067059 0.001809
O O13 0.702223 0.787535 0.210072
#
# Coordination Sequence:
#
# PCOD8143611 Si02
#       6
#     8   8   8   8   8   8
#     4   8  17  37  64  84 111 154 200 246 293 357
#     4   9  20  40  60  88 119 153 204 254 304 354
#     4  10  22  40  65  91 118 164 206 252 305 356
#     4  11  23  37  59  91 130 156 204 249 306 367
#     4  10  21  41  61  88 127 160 202 250 307 366
#     4  10  23  41  61  89 125 161 203 252 301 375
#
# _framework density 21.107934
#
# number of rings (size 3 to 8) (size 9 to 14) (size 15 to 20)
#    0.000    2.333    0.000    2.000    4.667    7.333 
#    6.000    0.000    0.000    0.000    0.000    0.000 
#    0.000    0.000    0.000    0.000    0.000    0.000 
#
# Total GULP energy -297370.085366 kJ/mol
# GULP energy per Si atom -12390.420224 kJ/mol
# Density = 2.105989 g / cm^3
# Si number density = 21.107934 Si / 1000 Ang^3
#
#
#
# Elastic Constant Matrix: (Units=GPa)
#
#
# Indices 1 2 3 4 5 6 
#
# 1 117.1332 54.8853 36.2477 0.0000 10.6505 0.0000
# 2 54.8853 82.1632 38.6330 0.0000 12.7209 0.0000
# 3 36.2477 38.6330 44.9249 0.0000 6.7852 0.0000
# 4 0.0000 0.0000 0.0000 14.1816 0.0000 5.9184
# 5 10.6505 12.7209 6.7852 0.0000 35.3536 0.0000
# 6 0.0000 0.0000 0.0000 5.9184 0.0000 33.4713
#
#
#
# Elastic Compliance Matrix: (Units=1/GPa)
#
#
# Indices 1 2 3 4 5 6 
#
# 1 0.013107 -0.006249 -0.005092 0.000000 -0.000723 0.000000
# 2 -0.006249 0.024006 -0.015016 0.000000 -0.003873 0.000000
# 3 -0.005092 -0.015016 0.039375 0.000000 -0.000620 0.000000
# 4 0.000000 0.000000 0.000000 0.076132 0.000000 -0.013462
# 5 -0.000723 -0.003873 -0.000620 0.000000 0.030016 0.000000
# 6 0.000000 0.000000 0.000000 -0.013462 0.000000 0.032257
#
#
# Mechanical properties :
#
#
# Convention : Reuss Voigt Hill
#
# Bulk Modulus (GPa) = 42.06657 55.97259 49.01958
# Shear Modulus (GPa) = 18.14666 24.23165 21.18916
#
# Velocity S-wave (km/s) = 2.93526 3.39187 3.17179
# Velocity P-wave (km/s) = 5.60894 6.47415 6.05701
#
# Compressibility (1/GPa) = 0.02377185
#
# Stress axis : x y z
#
# Youngs Moduli (GPa) = 76.29460 41.65649 25.39680
#
# Poissons Ratio (x) = 0.26033 0.12933
# Poissons Ratio (y) = 0.47679 0.38137
# Poissons Ratio (z) = 0.38851 0.62553
#
# Static dielectric constant tensor:
#      x y z
#    x 3.746250 0.000000 0.056820 
#    y 0.000000 3.910130 0.000000 
#    z 0.056820 0.000000 3.951110 
# 
# 
# High freq. dielectric constant tensor:
#      x y z
#    x 1.817200 0.000000 0.007670 
#    y 0.000000 1.822650 0.000000 
#    z 0.007670 0.000000 1.822690 
# 
# From -- ./inp_files/96172.got.cif
#   From: 2010.06.25/outbox.cif.g09.slc.cpg/sg15_49_cif.got.tgz:96172.got - 2010.06.28 07:06:18.
