data_PCOD8143726
_publ_section_title
;
Structure prediction by ZEFSAII (Michael W. Deem and Ramdas Pophale) SiO2 
 PCOD8143726
Probable space group: C 2/C
;
_chemical_formula_sum "Si O2"
_cell_formula_units_Z 64
_cell_length_a 14.061186
_cell_length_b 16.439828
_cell_length_c 22.235890
_cell_angle_alpha 90.000000
_cell_angle_beta 150.419201
_cell_angle_gamma 90.000000
_cell_volume 2537.425380
_symmetry_space_group_name_H-M "C 2/C"
_symmetry_group_IT_number 15
_symmetry_cell_setting 'monoclinic'
loop_
_space_group_symop_operation_xyz
x,y,z
-x,y,1/2-z
-x,-y,-z
x,-y,1/2+z
1/2+x,1/2+y,z
1/2-x,1/2+y,1/2-z
1/2-x,1/2-y,-z
1/2+x,1/2-y,1/2+z
loop_
_atom_site_type_symbol
_atom_site_label
_atom_site_fract_x
_atom_site_fract_y
_atom_site_fract_z
Si Si1 0.063700 0.727902 0.680126
Si Si2 0.798946 0.927779 0.270693
Si Si3 0.869464 0.412204 0.765736
Si Si4 0.871834 0.333619 0.894812
Si Si5 0.728484 0.540496 0.001423
Si Si6 0.718443 0.511147 0.364484
Si Si7 0.044392 0.191318 0.046078
Si Si8 0.810603 0.384080 0.112249
O O1 0.194295 0.656009 0.724592
O O2 0.179173 0.778618 0.794412
O O3 0.007764 0.788468 0.595981
O O4 0.873076 0.692876 0.606320
O O5 0.029787 0.913210 0.406880
O O6 0.721466 0.999177 0.271704
O O7 0.761352 0.951420 0.180746
O O8 0.889034 0.358396 0.835729
O O9 0.737197 0.363404 0.644607
O O10 0.089989 0.419722 0.863457
O O11 0.857682 0.410796 0.931863
O O12 0.052387 0.274752 0.011895
O O13 0.708277 0.448270 0.012350
O O14 0.780505 0.537752 0.958512
O O15 0.500000 0.542707 0.250000
O O16 0.849265 0.139017 0.924492
O O17 0.000000 0.419873 0.250000
#
# Coordination Sequence:
#
# PCOD8143726 Si02
#       8
#     8   8   8   8   8   8   8   8
#     4  11  23  38  63  91 132 169 206 254 324 382
#     4  10  21  41  63  96 124 166 212 259 316 377
#     4  10  22  40  64  92 126 164 215 258 318 373
#     4  10  22  37  59  95 128 168 201 259 322 381
#     4  11  22  42  66  94 126 167 216 271 302 371
#     4   9  21  36  65  97 128 158 210 265 324 372
#     4  11  23  40  60  91 133 163 210 259 320 382
#     4  12  23  39  60  97 125 168 207 255 327 381
#
# _framework density 25.222415999999999
#
# number of rings (size 3 to 8) (size 9 to 14) (size 15 to 20)
#    0.000    1.500    3.750    1.125    5.250    1.000 
#    2.250    4.375    0.000    1.500    0.000    0.000 
#    0.000    0.000    0.000    0.000    0.000    0.000 
#
# Total GULP energy -396742.537372 kJ/mol
# GULP energy per Si atom -12398.204293 kJ/mol
# Density = 2.516501 g / cm^3
# Si number density = 25.222416 Si / 1000 Ang^3
#
#
#
# Elastic Constant Matrix: (Units=GPa)
#
#
# Indices 1 2 3 4 5 6 
#
# 1 32.5161 0.3218 6.9537 0.0003 26.7214 -0.0002
# 2 0.3218 61.9400 31.6148 0.0028 21.7646 0.0000
# 3 6.9537 31.6148 111.8141 0.0065 31.0728 -0.0002
# 4 0.0003 0.0028 0.0065 40.4167 0.0000 1.7982
# 5 26.7214 21.7646 31.0728 0.0000 38.1963 -0.0001
# 6 -0.0002 0.0000 -0.0002 1.7982 -0.0001 14.4224
#
#
#
# Elastic Compliance Matrix: (Units=1/GPa)
#
#
# Indices 1 2 3 4 5 6 
#
# 1 0.125337 0.033195 0.016077 -0.000006 -0.119677 0.000001
# 2 0.033195 0.029932 0.000860 -0.000002 -0.040978 0.000000
# 3 0.016077 0.000860 0.014164 -0.000002 -0.023260 0.000000
# 4 -0.000006 -0.000002 -0.000002 0.024880 0.000007 -0.003102
# 5 -0.119677 -0.040978 -0.023260 0.000007 0.152176 -0.000002
# 6 0.000001 0.000000 0.000000 -0.003102 -0.000002 0.069723
#
#
# Mechanical properties :
#
#
# Convention : Reuss Voigt Hill
#
# Bulk Modulus (GPa) = 3.70785 31.56120 17.63453
# Shear Modulus (GPa) = 12.31992 29.76574 21.04283
#
# Velocity S-wave (km/s) = 2.21249 3.43903 2.89154
# Velocity P-wave (km/s) = 2.82844 5.32067 4.26085
#
# Compressibility (1/GPa) = 0.26969827
#
# Stress axis : x y z
#
# Youngs Moduli (GPa) = 7.97852 33.40896 70.59984
#
# Poissons Ratio (x) = -1.10901 -1.13507
# Poissons Ratio (y) = -0.26485 -0.06072
# Poissons Ratio (z) = -0.12827 -0.02874
#
# Static dielectric constant tensor:
#      x y z
#    x 4.319490 0.000000 -0.038180 
#    y 0.000000 4.469350 0.000000 
#    z -0.038180 0.000000 4.871950 
# 
# 
# High freq. dielectric constant tensor:
#      x y z
#    x 1.988170 0.000000 -0.005550 
#    y 0.000000 1.997010 0.000000 
#    z -0.005550 0.000000 2.025490 
# 
# From -- ./inp_files/274851.got.cif
#   From: 2010.06.25/outbox.cif.g09.slc.cpg/sg15_138_cif.got.tgz:274851.got - 2010.06.28 07:06:18.
