data_PCOD8143780
_publ_section_title
;
Structure prediction by ZEFSAII (Michael W. Deem and Ramdas Pophale) SiO2 
 PCOD8143780
Probable space group: C 2/C
;
_chemical_formula_sum "Si O2"
_cell_formula_units_Z 60
_cell_length_a 8.754686
_cell_length_b 21.592887
_cell_length_c 19.991830
_cell_angle_alpha 90.000000
_cell_angle_beta 131.054577
_cell_angle_gamma 90.000000
_cell_volume 2849.861412
_symmetry_space_group_name_H-M "C 2/C"
_symmetry_group_IT_number 15
_symmetry_cell_setting 'monoclinic'
loop_
_space_group_symop_operation_xyz
x,y,z
-x,y,1/2-z
-x,-y,-z
x,-y,1/2+z
1/2+x,1/2+y,z
1/2-x,1/2+y,1/2-z
1/2-x,1/2-y,-z
1/2+x,1/2-y,1/2+z
loop_
_atom_site_type_symbol
_atom_site_label
_atom_site_fract_x
_atom_site_fract_y
_atom_site_fract_z
Si Si1 0.069322 0.905538 0.012907
Si Si2 0.513216 0.193601 0.090811
Si Si3 0.855349 0.143955 0.266882
Si Si4 0.763327 0.491186 0.758762
Si Si5 0.810252 0.188290 0.053534
Si Si6 0.000000 0.094447 0.750000
Si Si7 0.288514 0.019903 0.115940
Si Si8 0.582986 0.664669 0.910988
O O1 0.064520 0.877314 0.086332
O O2 0.174930 0.971758 0.035936
O O3 0.215076 0.864292 0.009256
O O4 0.835447 0.914959 0.920409
O O5 0.620027 0.161924 0.186300
O O6 0.661054 0.179671 0.071885
O O7 0.492268 0.264921 0.106070
O O8 0.304611 0.161926 0.008609
O O9 0.000000 0.167705 0.250000
O O10 0.950617 0.181712 0.357334
O O11 0.879656 0.069514 0.279737
O O12 0.679973 0.549181 0.777224
O O13 0.787707 0.510625 0.689026
O O14 0.986287 0.471234 0.848920
O O15 0.750000 0.250000 0.000000
O O16 0.921286 0.138267 0.666413
#
# Coordination Sequence:
#
# PCOD8143780 Si02
#       8
#     8   8   8   8   8   4   8   8
#     4  11  21  42  63  96 131 169 216 279 332 405
#     4  10  24  44  65  91 127 173 225 270 336 400
#     4  10  21  41  64  95 127 169 215 272 328 405
#     4  11  21  42  62  96 131 175 224 270 335 408
#     4  11  22  39  68  95 128 169 217 277 338 403
#     4  12  26  42  66  98 140 182 224 288 346 402
#     4  10  23  38  65  94 129 171 220 270 338 395
#     4  11  24  45  62  92 135 173 224 282 331 409
#
# _framework density 21.053657000000001
#
# number of rings (size 3 to 8) (size 9 to 14) (size 15 to 20)
#    0.000    1.333    4.667    0.800    1.867    1.067 
#    0.000    1.333    0.000    0.000    0.000    0.000 
#    0.000    0.000    0.000    0.000    0.000    0.000 
#
# Total GULP energy -371643.586520 kJ/mol
# GULP energy per Si atom -12388.119551 kJ/mol
# Density = 2.100574 g / cm^3
# Si number density = 21.053657 Si / 1000 Ang^3
#
#
#
# Elastic Constant Matrix: (Units=GPa)
#
#
# Indices 1 2 3 4 5 6 
#
# 1 81.0271 37.4051 30.3252 0.0000 -1.9476 0.0000
# 2 37.4051 114.0778 50.8619 0.0000 2.9011 0.0000
# 3 30.3252 50.8619 104.3706 0.0000 3.9966 0.0000
# 4 0.0000 0.0000 0.0000 33.0735 0.0000 -2.8551
# 5 -1.9476 2.9011 3.9966 0.0000 31.7296 0.0000
# 6 0.0000 0.0000 0.0000 -2.8551 0.0000 36.7428
#
#
#
# Elastic Compliance Matrix: (Units=1/GPa)
#
#
# Indices 1 2 3 4 5 6 
#
# 1 0.015123 -0.003849 -0.002580 0.000000 0.001605 0.000000
# 2 -0.003849 0.012183 -0.004790 0.000000 -0.000747 0.000000
# 3 -0.002580 -0.004790 0.012716 0.000000 -0.001322 0.000000
# 4 0.000000 0.000000 0.000000 0.030440 0.000000 0.002365
# 5 0.001605 -0.000747 -0.001322 0.000000 0.031850 0.000000
# 6 0.000000 0.000000 0.000000 0.002365 0.000000 0.027400
#
#
# Mechanical properties :
#
#
# Convention : Reuss Voigt Hill
#
# Bulk Modulus (GPa) = 56.87173 59.62889 58.25031
# Shear Modulus (GPa) = 31.64385 32.36807 32.00596
#
# Velocity S-wave (km/s) = 3.88107 3.92523 3.90322
# Velocity P-wave (km/s) = 6.86695 6.99479 6.93117
#
# Compressibility (1/GPa) = 0.01758343
#
# Stress axis : x y z
#
# Youngs Moduli (GPa) = 66.12660 82.08407 78.64388
#
# Poissons Ratio (x) = 0.31596 0.20287
# Poissons Ratio (y) = 0.25454 0.37669
# Poissons Ratio (z) = 0.17058 0.39317
#
# Static dielectric constant tensor:
#      x y z
#    x 3.718710 0.000000 0.117720 
#    y 0.000000 3.742840 0.000000 
#    z 0.117720 0.000000 4.092670 
# 
# 
# High freq. dielectric constant tensor:
#      x y z
#    x 1.819410 0.000000 0.000740 
#    y 0.000000 1.824190 0.000000 
#    z 0.000740 0.000000 1.828250 
# 
# From -- ./inp_files/234106.got.cif
#   From: 2010.06.25/outbox.cif.g09.slc.cpg/sg15_118_cif.got.tgz:234106.got - 2010.06.28 07:06:18.
