data_PCOD8143592
_publ_section_title
;
Structure prediction by ZEFSAII (Michael W. Deem and Ramdas Pophale) SiO2 
 PCOD8143592
Probable space group: C 2/C
;
_chemical_formula_sum "Si O2"
_cell_formula_units_Z 64
_cell_length_a 32.917270
_cell_length_b 14.195442
_cell_length_c 9.645976
_cell_angle_alpha 90.000000
_cell_angle_beta 135.730413
_cell_angle_gamma 90.000000
_cell_volume 3146.272159
_symmetry_space_group_name_H-M "C 2/C"
_symmetry_group_IT_number 15
_symmetry_cell_setting 'monoclinic'
loop_
_space_group_symop_operation_xyz
x,y,z
-x,y,1/2-z
-x,-y,-z
x,-y,1/2+z
1/2+x,1/2+y,z
1/2-x,1/2+y,1/2-z
1/2-x,1/2-y,-z
1/2+x,1/2-y,1/2+z
loop_
_atom_site_type_symbol
_atom_site_label
_atom_site_fract_x
_atom_site_fract_y
_atom_site_fract_z
Si Si1 0.234477 0.154118 0.185432
Si Si2 0.384463 0.046717 0.143309
Si Si3 0.828172 0.782059 0.499256
Si Si4 0.056189 0.703887 0.060572
Si Si5 0.687348 0.438532 0.830591
Si Si6 0.691382 0.009611 0.281330
Si Si7 0.929469 0.649663 0.711067
Si Si8 0.354618 0.643461 0.762484
O O1 0.261689 0.242050 0.336982
O O2 0.195118 0.087914 0.188167
O O3 0.292013 0.102334 0.266317
O O4 0.193708 0.187369 0.959054
O O5 0.419688 0.143413 0.251420
O O6 0.333887 0.038460 0.132976
O O7 0.429454 0.958762 0.260823
O O8 0.354384 0.051794 0.918975
O O9 0.841066 0.853524 0.655061
O O10 0.873782 0.699300 0.641191
O O11 0.838487 0.831991 0.378748
O O12 0.082917 0.810083 0.125452
O O13 0.075167 0.649299 0.967315
O O14 0.986433 0.707056 0.900196
O O15 0.645815 0.529812 0.747596
O O16 0.750062 0.452003 0.052546
#
# Coordination Sequence:
#
# PCOD8143592 Si02
#       8
#     8   8   8   8   8   8   8   8
#     4  11  21  37  56  90 122 154 190 238 298 358
#     4  12  20  38  59  89 121 156 193 238 293 361
#     4  11  21  38  61  85 114 157 193 246 294 348
#     4  10  22  39  63  84 117 159 201 246 286 354
#     4  11  23  37  58  87 126 154 192 242 300 348
#     4  11  21  34  57  88 124 154 188 232 291 362
#     4  10  21  41  60  88 117 153 206 243 294 347
#     4  10  22  38  58  86 115 157 204 238 286 351
#
# _framework density 20.341533999999999
#
# number of rings (size 3 to 8) (size 9 to 14) (size 15 to 20)
#    0.000    1.250    3.750    3.375    3.500    0.000 
#    0.000    0.625    0.000    1.500    0.000    0.000 
#    0.000    0.000    0.000    0.000    0.000    0.000 
#
# Total GULP energy -396823.612348 kJ/mol
# GULP energy per Si atom -12400.737886 kJ/mol
# Density = 2.029524 g / cm^3
# Si number density = 20.341534 Si / 1000 Ang^3
#
#
#
# Elastic Constant Matrix: (Units=GPa)
#
#
# Indices 1 2 3 4 5 6 
#
# 1 58.1221 21.2074 12.3632 0.0000 2.7758 0.0000
# 2 21.2074 68.2756 1.4698 0.0000 1.3275 0.0000
# 3 12.3632 1.4698 51.0660 0.0000 2.4118 0.0000
# 4 0.0000 0.0000 0.0000 29.0593 0.0000 -0.1774
# 5 2.7758 1.3275 2.4118 0.0000 27.1141 0.0000
# 6 0.0000 0.0000 0.0000 -0.1774 0.0000 21.3104
#
#
#
# Elastic Compliance Matrix: (Units=1/GPa)
#
#
# Indices 1 2 3 4 5 6 
#
# 1 0.020561 -0.006258 -0.004733 0.000000 -0.001378 0.000000
# 2 -0.006258 0.016573 0.001051 0.000000 -0.000264 0.000000
# 3 -0.004733 0.001051 0.020765 0.000000 -0.001414 0.000000
# 4 0.000000 0.000000 0.000000 0.034414 0.000000 0.000287
# 5 -0.001378 -0.000264 -0.001414 0.000000 0.037161 0.000000
# 6 0.000000 0.000000 0.000000 0.000287 0.000000 0.046928
#
#
# Mechanical properties :
#
#
# Convention : Reuss Voigt Hill
#
# Bulk Modulus (GPa) = 26.30295 27.50496 26.90395
# Shear Modulus (GPa) = 23.92866 24.99164 24.46015
#
# Velocity S-wave (km/s) = 3.43351 3.50894 3.47143
# Velocity P-wave (km/s) = 5.35513 5.47429 5.41504
#
# Compressibility (1/GPa) = 0.03801855
#
# Stress axis : x y z
#
# Youngs Moduli (GPa) = 48.63580 60.33972 48.15836
#
# Poissons Ratio (x) = 0.37760 0.22792
# Poissons Ratio (y) = 0.30436 -0.05059
# Poissons Ratio (z) = 0.23018 -0.06339
#
# Static dielectric constant tensor:
#      x y z
#    x 3.539090 0.000000 -0.042960 
#    y 0.000000 3.685120 0.000000 
#    z -0.042960 0.000000 3.698710 
# 
# 
# High freq. dielectric constant tensor:
#      x y z
#    x 1.776620 0.000000 -0.010580 
#    y 0.000000 1.785820 0.000000 
#    z -0.010580 0.000000 1.792940 
# 
# From -- ./inp_files/70160.got.cif
#   From: 2010.06.25/outbox.cif.g09.slc.cpg/sg15_36_cif.got.tgz:70160.got - 2010.06.28 07:06:18.
