data_PCOD8143172
_publ_section_title
;
Structure prediction by ZEFSAII (Michael W. Deem and Ramdas Pophale) SiO2 
 PCOD8143172
Probable space group: C 2/C
;
_chemical_formula_sum "Si O2"
_cell_formula_units_Z 40
_cell_length_a 23.067284
_cell_length_b 16.150404
_cell_length_c 14.871080
_cell_angle_alpha 90.000000
_cell_angle_beta 19.617832
_cell_angle_gamma 90.000000
_cell_volume 1860.079858
_symmetry_space_group_name_H-M "C 2/C"
_symmetry_group_IT_number 15
_symmetry_cell_setting 'monoclinic'
loop_
_space_group_symop_operation_xyz
x,y,z
-x,y,1/2-z
-x,-y,-z
x,-y,1/2+z
1/2+x,1/2+y,z
1/2-x,1/2+y,1/2-z
1/2-x,1/2-y,-z
1/2+x,1/2-y,1/2+z
loop_
_atom_site_type_symbol
_atom_site_label
_atom_site_fract_x
_atom_site_fract_y
_atom_site_fract_z
Si Si1 0.135805 0.565165 0.764222
Si Si2 0.552782 0.751060 0.436466
Si Si3 0.690467 0.415161 0.671349
Si Si4 0.818731 0.034323 0.667271
Si Si5 0.677868 0.202506 0.938610
O O1 0.073255 0.658634 0.866192
O O2 0.170871 0.558094 0.606701
O O3 0.299774 0.541526 0.586999
O O4 0.000000 0.500000 0.000000
O O5 0.649930 0.683109 0.232222
O O6 0.650519 0.744286 0.388412
O O7 0.346600 0.734715 0.745773
O O8 0.748467 0.449621 0.685258
O O9 0.519908 0.462342 0.890624
O O10 0.705702 0.106495 0.877229
O O11 0.500000 0.214058 0.250000
#
# Coordination Sequence:
#
# PCOD8143172 Si02
#       5
#     8   8   8   8   8
#     4  11  24  39  63  96 130 163 217 268 323 383
#     4  10  23  41  62  97 125 174 217 261 330 385
#     4  10  21  43  66  87 127 170 215 262 320 390
#     4   9  22  40  63  92 121 170 209 261 325 379
#     4  10  21  40  63  91 134 163 215 268 322 386
#
# _framework density 21.504455
#
# number of rings (size 3 to 8) (size 9 to 14) (size 15 to 20)
#    0.000    2.000    0.000    1.800    8.400    0.000 
#    3.600    2.000    0.000    0.000    0.000    0.000 
#    0.000    0.000    0.000    0.000    0.000    0.000 
#
# Total GULP energy -247783.919126 kJ/mol
# GULP energy per Si atom -12389.195956 kJ/mol
# Density = 2.145551 g / cm^3
# Si number density = 21.504455 Si / 1000 Ang^3
#
#
#
# Elastic Constant Matrix: (Units=GPa)
#
#
# Indices 1 2 3 4 5 6 
#
# 1 37.4231 27.1352 20.6322 -0.0129 -4.9044 0.0015
# 2 27.1352 116.7363 44.8644 -0.0075 9.1690 -0.0007
# 3 20.6322 44.8644 99.5508 -0.0030 14.1057 -0.0009
# 4 -0.0129 -0.0075 -0.0030 23.1831 -0.0059 -5.1465
# 5 -4.9044 9.1690 14.1057 -0.0059 37.8500 0.0007
# 6 0.0015 -0.0007 -0.0009 -5.1465 0.0007 33.5776
#
#
#
# Elastic Compliance Matrix: (Units=1/GPa)
#
#
# Indices 1 2 3 4 5 6 
#
# 1 0.035839 -0.006867 -0.005518 0.000019 0.008364 0.000001
# 2 -0.006867 0.011700 -0.003507 -0.000001 -0.002417 0.000000
# 3 -0.005518 -0.003507 0.013461 -0.000004 -0.004882 0.000000
# 4 0.000019 -0.000001 -0.000004 0.044654 0.000011 0.006844
# 5 0.008364 -0.002417 -0.004882 0.000011 0.029909 0.000001
# 6 0.000001 0.000000 0.000000 0.006844 0.000001 0.030831
#
#
# Mechanical properties :
#
#
# Convention : Reuss Voigt Hill
#
# Bulk Modulus (GPa) = 34.22808 48.77486 41.50147
# Shear Modulus (GPa) = 24.04800 29.66071 26.85435
#
# Velocity S-wave (km/s) = 3.34770 3.71790 3.53764
# Velocity P-wave (km/s) = 5.55824 6.41567 6.00229
#
# Compressibility (1/GPa) = 0.02921578
#
# Stress axis : x y z
#
# Youngs Moduli (GPa) = 27.90256 85.46792 74.28787
#
# Poissons Ratio (x) = 0.58690 0.40993
# Poissons Ratio (y) = 0.19160 0.26055
# Poissons Ratio (z) = 0.15397 0.29976
#
# Static dielectric constant tensor:
#      x y z
#    x 4.990520 -0.000010 -0.035110 
#    y -0.000010 3.925670 0.000010 
#    z -0.035110 0.000010 3.732130 
# 
# 
# High freq. dielectric constant tensor:
#      x y z
#    x 1.851130 0.000000 -0.007720 
#    y 0.000000 1.846030 0.000000 
#    z -0.007720 0.000000 1.835280 
# 
# From -- ./inp_files/85553.got.cif
#   From: 2010.06.25/outbox.cif.g09.slc.cpg/sg15_43_cif.got.tgz:85553.got - 2010.06.28 07:06:18.
