data_PCOD8143583
_publ_section_title
;
Structure prediction by ZEFSAII (Michael W. Deem and Ramdas Pophale) SiO2 
 PCOD8143583
Probable space group: C 2/C
;
_chemical_formula_sum "Si O2"
_cell_formula_units_Z 40
_cell_length_a 13.763770
_cell_length_b 7.087301
_cell_length_c 34.925936
_cell_angle_alpha 90.000000
_cell_angle_beta 40.323916
_cell_angle_gamma 90.000000
_cell_volume 2204.667778
_symmetry_space_group_name_H-M "C 2/C"
_symmetry_group_IT_number 15
_symmetry_cell_setting 'monoclinic'
loop_
_space_group_symop_operation_xyz
x,y,z
-x,y,1/2-z
-x,-y,-z
x,-y,1/2+z
1/2+x,1/2+y,z
1/2-x,1/2+y,1/2-z
1/2-x,1/2-y,-z
1/2+x,1/2-y,1/2+z
loop_
_atom_site_type_symbol
_atom_site_label
_atom_site_fract_x
_atom_site_fract_y
_atom_site_fract_z
Si Si1 0.174492 0.723256 0.854502
Si Si2 0.130385 0.472301 0.239553
Si Si3 0.956710 0.457277 0.369873
Si Si4 0.135961 0.020446 0.930527
Si Si5 0.140693 0.306038 0.862531
O O1 0.017507 0.721213 0.877011
O O2 0.223058 0.505688 0.847903
O O3 0.305150 0.822295 0.790769
O O4 0.153000 0.829056 0.901273
O O5 0.067522 0.474576 0.300745
O O6 0.259200 0.316294 0.196356
O O7 0.000000 0.413034 0.250000
O O8 0.984458 0.646551 0.387149
O O9 0.784800 0.435626 0.410276
O O10 0.104269 0.195891 0.912333
O O11 0.000000 0.000000 0.000000
#
# Coordination Sequence:
#
# PCOD8143583 Si02
#       5
#     8   8   8   8   8
#     4   9  22  39  58  92 117 154 200 226 306 357
#     4  11  18  38  63  89 126 150 187 241 294 356
#     4  10  21  41  58  89 124 152 192 240 294 354
#     4  11  23  44  61  82 121 154 203 258 273 336
#     4   9  22  39  58  92 117 154 200 226 306 357
#
# _framework density 18.143322999999999
#
# number of rings (size 3 to 8) (size 9 to 14) (size 15 to 20)
#    1.200    0.800    4.000    1.200    0.000    3.200 
#    7.200    0.000    0.000    0.000    0.000    0.000 
#    0.000    0.000    0.000    0.000    0.000    0.000 
#
# Total GULP energy -247797.684769 kJ/mol
# GULP energy per Si atom -12389.884238 kJ/mol
# Density = 1.810203 g / cm^3
# Si number density = 18.143323 Si / 1000 Ang^3
#
#
#
# Elastic Constant Matrix: (Units=GPa)
#
#
# Indices 1 2 3 4 5 6 
#
# 1 96.3968 -6.7668 16.1083 -0.0243 0.1456 -0.0067
# 2 -6.7668 79.5423 5.1010 -0.0576 7.7529 0.0050
# 3 16.1083 5.1010 77.2267 -0.0249 -11.2718 -0.0130
# 4 -0.0243 -0.0576 -0.0249 8.9195 0.0077 4.4524
# 5 0.1456 7.7529 -11.2718 0.0077 11.7219 -0.0035
# 6 -0.0067 0.0050 -0.0130 4.4524 -0.0035 35.3671
#
#
#
# Elastic Compliance Matrix: (Units=1/GPa)
#
#
# Indices 1 2 3 4 5 6 
#
# 1 0.010983 0.001515 -0.002975 0.000037 -0.003999 -0.000004
# 2 0.001515 0.014090 -0.003036 0.000106 -0.012257 -0.000017
# 3 -0.002975 -0.003036 0.016365 -0.000001 0.017782 0.000008
# 4 0.000037 0.000106 -0.000001 0.119633 -0.000155 -0.015061
# 5 -0.003999 -0.012257 0.017782 -0.000155 0.110567 0.000038
# 6 -0.000004 -0.000017 0.000008 -0.015061 0.000038 0.030171
#
#
# Mechanical properties :
#
#
# Convention : Reuss Voigt Hill
#
# Bulk Modulus (GPa) = 30.81867 31.33899 31.07883
# Shear Modulus (GPa) = 15.54648 27.11657 21.33153
#
# Velocity S-wave (km/s) = 2.93041 3.87017 3.43260
# Velocity P-wave (km/s) = 5.33600 6.10585 5.73386
#
# Compressibility (1/GPa) = 0.03244786
#
# Stress axis : x y z
#
# Youngs Moduli (GPa) = 91.04763 70.97087 61.10499
#
# Poissons Ratio (x) = -0.10752 0.18177
# Poissons Ratio (y) = -0.13793 0.18550
# Poissons Ratio (z) = 0.27084 0.21545
#
# Static dielectric constant tensor:
#      x y z
#    x 3.696150 -0.000080 0.185480 
#    y -0.000080 3.309940 -0.000090 
#    z 0.185480 -0.000090 3.188230 
# 
# 
# High freq. dielectric constant tensor:
#      x y z
#    x 1.708670 0.000000 0.011400 
#    y 0.000000 1.700070 -0.000010 
#    z 0.011400 -0.000010 1.688010 
# 
# From -- ./inp_files/309814.got.cif
#   From: 2010.06.25/outbox.cif.g09.slc.cpg/sg15_155_cif.got.tgz:309814.got - 2010.06.28 07:06:18.
