data_PCOD8143505
_publ_section_title
;
Structure prediction by ZEFSAII (Michael W. Deem and Ramdas Pophale) SiO2 
 PCOD8143505
Probable space group: C 2/C
;
_chemical_formula_sum "Si O2"
_cell_formula_units_Z 56
_cell_length_a 28.424991
_cell_length_b 8.443504
_cell_length_c 11.226303
_cell_angle_alpha 90.000000
_cell_angle_beta 75.883431
_cell_angle_gamma 90.000000
_cell_volume 2613.019627
_symmetry_space_group_name_H-M "C 2/C"
_symmetry_group_IT_number 15
_symmetry_cell_setting 'monoclinic'
loop_
_space_group_symop_operation_xyz
x,y,z
-x,y,1/2-z
-x,-y,-z
x,-y,1/2+z
1/2+x,1/2+y,z
1/2-x,1/2+y,1/2-z
1/2-x,1/2-y,-z
1/2+x,1/2-y,1/2+z
loop_
_atom_site_type_symbol
_atom_site_label
_atom_site_fract_x
_atom_site_fract_y
_atom_site_fract_z
Si Si1 0.589003 0.236564 0.893717
Si Si2 0.508265 0.884182 0.107164
Si Si3 0.725277 0.403290 0.778696
Si Si4 0.613631 0.110092 0.473754
Si Si5 0.840596 0.777463 0.861515
Si Si6 0.679903 0.739645 0.749873
Si Si7 0.847476 0.892301 0.474744
O O1 0.532515 0.249114 0.891845
O O2 0.618016 0.293993 0.761832
O O3 0.607151 0.063018 0.924025
O O4 0.600805 0.355317 0.994570
O O5 0.500000 0.950864 0.250000
O O6 0.563037 0.821482 0.059129
O O7 0.500000 0.000000 0.000000
O O8 0.711188 0.291386 0.673244
O O9 0.710460 0.583511 0.762856
O O10 0.782926 0.387998 0.763648
O O11 0.696771 0.342370 0.911821
O O12 0.652101 0.119348 0.561807
O O13 0.633430 0.228185 0.360688
O O14 0.846491 0.923442 0.947826
O O15 0.657492 0.723188 0.633924
#
# Coordination Sequence:
#
# PCOD8143505 Si02
#       7
#     8   8   8   8   8   8   8
#     4  10  23  39  69  96 121 170 218 261 325 394
#     4  10  21  40  68  99 135 167 218 276 328 391
#     4  10  23  40  61  91 125 178 216 268 322 389
#     4  11  23  39  66  95 127 166 213 271 323 382
#     4  10  21  42  62  90 131 163 209 267 323 379
#     4  11  24  40  62  92 131 168 220 269 326 385
#     4  10  22  43  64  87 134 171 212 271 327 391
#
# _framework density 21.431144
#
# number of rings (size 3 to 8) (size 9 to 14) (size 15 to 20)
#    0.000    1.714    2.857    0.429    6.000    1.714 
#    0.000    0.714    6.286    0.000    0.000    0.000 
#    0.000    0.000    0.000    0.000    0.000    0.000 
#
# Total GULP energy -346896.977822 kJ/mol
# GULP energy per Si atom -12389.177779 kJ/mol
# Density = 2.138237 g / cm^3
# Si number density = 21.431144 Si / 1000 Ang^3
#
#
#
# Elastic Constant Matrix: (Units=GPa)
#
#
# Indices 1 2 3 4 5 6 
#
# 1 77.7633 15.1066 48.6669 0.0000 -2.1893 0.0000
# 2 15.1066 28.0047 17.2965 0.0000 2.1088 0.0000
# 3 48.6669 17.2965 138.0849 0.0000 15.7780 0.0000
# 4 0.0000 0.0000 0.0000 18.9857 0.0000 3.3030
# 5 -2.1893 2.1088 15.7780 0.0000 31.7396 0.0000
# 6 0.0000 0.0000 0.0000 3.3030 0.0000 30.6846
#
#
#
# Elastic Compliance Matrix: (Units=1/GPa)
#
#
# Indices 1 2 3 4 5 6 
#
# 1 0.018038 -0.006315 -0.006103 0.000000 0.004698 0.000000
# 2 -0.006315 0.040914 -0.002692 0.000000 -0.001816 0.000000
# 3 -0.006103 -0.002692 0.010345 0.000000 -0.005385 0.000000
# 4 0.000000 0.000000 0.000000 0.053676 0.000000 -0.005778
# 5 0.004698 -0.001816 -0.005385 0.000000 0.034628 0.000000
# 6 0.000000 0.000000 0.000000 -0.005778 0.000000 0.033212
#
#
# Mechanical properties :
#
#
# Convention : Reuss Voigt Hill
#
# Bulk Modulus (GPa) = 25.58979 45.11033 35.35006
# Shear Modulus (GPa) = 21.36220 27.13419 24.24819
#
# Velocity S-wave (km/s) = 3.16061 3.56210 3.36735
# Velocity P-wave (km/s) = 5.02849 6.16545 5.62576
#
# Compressibility (1/GPa) = 0.03907809
#
# Stress axis : x y z
#
# Youngs Moduli (GPa) = 55.43838 24.44163 96.66119
#
# Poissons Ratio (x) = 0.15434 0.58994
# Poissons Ratio (y) = 0.35007 0.26020
# Poissons Ratio (z) = 0.33835 0.06579
#
# Static dielectric constant tensor:
#      x y z
#    x 4.335440 0.000000 0.173010 
#    y 0.000000 3.581530 0.000000 
#    z 0.173010 0.000000 4.198420 
# 
# 
# High freq. dielectric constant tensor:
#      x y z
#    x 1.842730 0.000000 0.016370 
#    y 0.000000 1.810680 0.000000 
#    z 0.016370 0.000000 1.863350 
# 
# From -- ./inp_files/121852.got.cif
#   From: 2010.06.25/outbox.cif.g09.slc.cpg/sg15_61_cif.got.tgz:121852.got - 2010.06.28 07:06:18.
