data_PCOD8143684
_publ_section_title
;
Structure prediction by ZEFSAII (Michael W. Deem and Ramdas Pophale) SiO2 
 PCOD8143684
Probable space group: C 2/C
;
_chemical_formula_sum "Si O2"
_cell_formula_units_Z 64
_cell_length_a 29.976450
_cell_length_b 18.035447
_cell_length_c 8.977852
_cell_angle_alpha 90.000000
_cell_angle_beta 42.101767
_cell_angle_gamma 90.000000
_cell_volume 3254.210365
_symmetry_space_group_name_H-M "C 2/C"
_symmetry_group_IT_number 15
_symmetry_cell_setting 'monoclinic'
loop_
_space_group_symop_operation_xyz
x,y,z
-x,y,1/2-z
-x,-y,-z
x,-y,1/2+z
1/2+x,1/2+y,z
1/2-x,1/2+y,1/2-z
1/2-x,1/2-y,-z
1/2+x,1/2-y,1/2+z
loop_
_atom_site_type_symbol
_atom_site_label
_atom_site_fract_x
_atom_site_fract_y
_atom_site_fract_z
Si Si1 0.079432 0.800400 0.844862
Si Si2 0.572206 0.186857 0.110922
Si Si3 0.575115 0.791038 0.078124
Si Si4 0.319497 0.932540 0.119353
Si Si5 0.068201 0.806271 0.340758
Si Si6 0.681726 0.913120 0.730247
Si Si7 0.183404 0.072168 0.114649
Si Si8 0.819803 0.081293 0.025818
O O1 0.091994 0.730753 0.704899
O O2 0.131181 0.866046 0.696531
O O3 0.088306 0.762752 0.982714
O O4 0.005947 0.836372 0.008551
O O5 0.500000 0.153579 0.250000
O O6 0.573700 0.219873 0.273126
O O7 0.624430 0.122235 0.959356
O O8 0.500000 0.823316 0.250000
O O9 0.580700 0.709791 0.983852
O O10 0.627342 0.850859 0.891591
O O11 0.252149 0.905879 0.365218
O O12 0.339429 0.014287 0.124609
O O13 0.312212 0.931837 0.959392
O O14 0.120894 0.861169 0.139124
O O15 0.753217 0.885644 0.614877
O O16 0.193016 0.065745 0.268327
O O17 0.158644 0.993755 0.111371
#
# Coordination Sequence:
#
# PCOD8143684 Si02
#       8
#     8   8   8   8   8   8   8   8
#     4  10  23  39  65  88 123 155 198 246 296 358
#     4  10  21  41  63  88 119 156 194 245 298 353
#     4  10  23  41  63  91 121 154 199 246 296 353
#     4  11  24  41  62  87 122 158 201 244 298 353
#     4  10  21  43  61  89 121 157 195 247 300 350
#     4  11  24  42  61  88 121 159 199 247 296 352
#     4  11  24  41  60  91 118 160 201 244 298 353
#     4  11  24  40  63  86 123 157 201 247 296 354
#
# _framework density 19.666827999999999
#
# number of rings (size 3 to 8) (size 9 to 14) (size 15 to 20)
#    0.000    1.500    2.500    3.000    7.000    3.000 
#    0.000    1.250    0.000    0.000    0.000    0.000 
#    0.000    0.000    0.000    0.000    0.000    0.000 
#
# Total GULP energy -396713.510145 kJ/mol
# GULP energy per Si atom -12397.297192 kJ/mol
# Density = 1.962207 g / cm^3
# Si number density = 19.666828 Si / 1000 Ang^3
#
#
#
# Elastic Constant Matrix: (Units=GPa)
#
#
# Indices 1 2 3 4 5 6 
#
# 1 115.7402 62.7956 62.1533 0.0000 -6.2618 0.0000
# 2 62.7956 86.8557 62.5700 0.0000 -21.1646 0.0000
# 3 62.1533 62.5700 120.9013 0.0000 -4.0106 0.0000
# 4 0.0000 0.0000 0.0000 61.0905 0.0000 -14.1393
# 5 -6.2618 -21.1646 -4.0106 0.0000 33.9005 0.0000
# 6 0.0000 0.0000 0.0000 -14.1393 0.0000 22.9765
#
#
#
# Elastic Compliance Matrix: (Units=1/GPa)
#
#
# Indices 1 2 3 4 5 6 
#
# 1 0.015387 -0.009953 -0.002883 0.000000 -0.003713 0.000000
# 2 -0.009953 0.029330 -0.009554 0.000000 0.015343 0.000000
# 3 -0.002883 -0.009554 0.014539 0.000000 -0.004777 0.000000
# 4 0.000000 0.000000 0.000000 0.019088 0.000000 0.011746
# 5 -0.003713 0.015343 -0.004777 0.000000 0.037826 0.000000
# 6 0.000000 0.000000 0.000000 0.011746 0.000000 0.050751
#
#
# Mechanical properties :
#
#
# Convention : Reuss Voigt Hill
#
# Bulk Modulus (GPa) = 69.06987 77.61502 73.34245
# Shear Modulus (GPa) = 23.09203 32.65870 27.87536
#
# Velocity S-wave (km/s) = 3.43032 4.07946 3.76889
# Velocity P-wave (km/s) = 7.13342 7.85748 7.50419
#
# Compressibility (1/GPa) = 0.01447809
#
# Stress axis : x y z
#
# Youngs Moduli (GPa) = 64.98964 34.09469 68.78087
#
# Poissons Ratio (x) = 0.33934 0.19826
# Poissons Ratio (y) = 0.64683 0.65711
# Poissons Ratio (z) = 0.18733 0.32573
#
# Static dielectric constant tensor:
#      x y z
#    x 3.717200 0.000000 0.139120 
#    y 0.000000 3.305560 0.000000 
#    z 0.139120 0.000000 3.730770 
# 
# 
# High freq. dielectric constant tensor:
#      x y z
#    x 1.784030 0.000000 0.012300 
#    y 0.000000 1.750520 0.000000 
#    z 0.012300 0.000000 1.782330 
# 
# From -- ./inp_files/70585.got.cif
#   From: 2010.06.25/outbox.cif.g09.slc.cpg/sg15_36_cif.got.tgz:70585.got - 2010.06.28 07:06:18.
