data_PCOD8143839
_publ_section_title
;
Structure prediction by ZEFSAII (Michael W. Deem and Ramdas Pophale) SiO2 
 PCOD8143839
Probable space group: C 2/C
;
_chemical_formula_sum "Si O2"
_cell_formula_units_Z 60
_cell_length_a 11.701071
_cell_length_b 14.618748
_cell_length_c 18.278166
_cell_angle_alpha 90.000000
_cell_angle_beta 72.682005
_cell_angle_gamma 90.000000
_cell_volume 2984.836066
_symmetry_space_group_name_H-M "C 2/C"
_symmetry_group_IT_number 15
_symmetry_cell_setting 'monoclinic'
loop_
_space_group_symop_operation_xyz
x,y,z
-x,y,1/2-z
-x,-y,-z
x,-y,1/2+z
1/2+x,1/2+y,z
1/2-x,1/2+y,1/2-z
1/2-x,1/2-y,-z
1/2+x,1/2-y,1/2+z
loop_
_atom_site_type_symbol
_atom_site_label
_atom_site_fract_x
_atom_site_fract_y
_atom_site_fract_z
Si Si1 0.624094 0.643555 0.565598
Si Si2 0.254806 0.008460 0.126668
Si Si3 0.727262 0.704166 0.398581
Si Si4 0.500000 0.068120 0.750000
Si Si5 0.548459 0.862879 0.394189
Si Si6 0.286542 0.146024 0.000648
Si Si7 0.404201 0.442434 0.064923
Si Si8 0.258096 0.959579 0.794431
O O1 0.653428 0.553809 0.608184
O O2 0.693703 0.639196 0.473937
O O3 0.657145 0.735739 0.602144
O O4 0.480798 0.644482 0.579844
O O5 0.225410 0.032479 0.215704
O O6 0.378626 0.952796 0.095935
O O7 0.262319 0.106631 0.085906
O O8 0.616491 0.769875 0.401202
O O9 0.764255 0.645290 0.320887
O O10 0.473922 0.135824 0.688117
O O11 0.385061 0.005525 0.789193
O O12 0.425862 0.865739 0.460592
O O13 0.210300 0.087015 0.958765
O O14 0.250000 0.250000 0.000000
O O15 0.354879 0.496332 0.143693
O O16 0.500000 0.500000 0.000000
#
# Coordination Sequence:
#
# PCOD8143839 Si02
#       8
#     8   8   8   4   8   8   8   8
#     4  10  21  41  65  96 126 169 215 258 323 381
#     4  10  23  43  64  95 129 174 218 257 336 385
#     4  10  21  41  69  95 125 166 219 273 314 371
#     4  10  22  44  62  94 128 178 212 258 332 388
#     4  10  22  41  67  92 130 172 215 268 328 380
#     4  12  24  40  64  98 129 170 219 274 312 389
#     4  12  22  42  69  91 130 172 215 259 326 384
#     4  11  23  43  68  94 129 173 213 270 322 390
#
# _framework density 20.101606
#
# number of rings (size 3 to 8) (size 9 to 14) (size 15 to 20)
#    0.000    1.333    4.000    1.200    0.000    1.600 
#   14.400    0.000    0.000    0.000    0.000    0.000 
#    0.000    0.000    0.000    0.000    0.000    0.000 
#
# Total GULP energy -372002.464409 kJ/mol
# GULP energy per Si atom -12400.082147 kJ/mol
# Density = 2.005585 g / cm^3
# Si number density = 20.101606 Si / 1000 Ang^3
#
#
#
# Elastic Constant Matrix: (Units=GPa)
#
#
# Indices 1 2 3 4 5 6 
#
# 1 101.1349 30.4101 51.7198 0.0000 0.3423 0.0000
# 2 30.4101 102.2190 71.3255 0.0000 5.1011 0.0000
# 3 51.7198 71.3255 138.3393 0.0000 7.5836 0.0000
# 4 0.0000 0.0000 0.0000 35.8259 0.0000 7.7850
# 5 0.3423 5.1011 7.5836 0.0000 37.8155 0.0000
# 6 0.0000 0.0000 0.0000 7.7850 0.0000 29.7377
#
#
#
# Elastic Compliance Matrix: (Units=1/GPa)
#
#
# Indices 1 2 3 4 5 6 
#
# 1 0.012284 -0.000718 -0.004268 0.000000 0.000842 0.000000
# 2 -0.000718 0.015331 -0.007607 0.000000 -0.000536 0.000000
# 3 -0.004268 -0.007607 0.012829 0.000000 -0.001508 0.000000
# 4 0.000000 0.000000 0.000000 0.029596 0.000000 -0.007748
# 5 0.000842 -0.000536 -0.001508 0.000000 0.026811 0.000000
# 6 0.000000 0.000000 0.000000 -0.007748 0.000000 0.035656
#
#
# Mechanical properties :
#
#
# Convention : Reuss Voigt Hill
#
# Bulk Modulus (GPa) = 65.54119 72.06711 68.80415
# Shear Modulus (GPa) = 30.71659 33.22499 31.97079
#
# Velocity S-wave (km/s) = 3.91329 4.06994 3.99238
# Velocity P-wave (km/s) = 7.28658 7.61677 7.45350
#
# Compressibility (1/GPa) = 0.01525758
#
# Stress axis : x y z
#
# Youngs Moduli (GPa) = 81.40916 65.22772 77.94958
#
# Poissons Ratio (x) = 0.04684 0.33271
# Poissons Ratio (y) = 0.05846 0.59292
# Poissons Ratio (z) = 0.34748 0.49615
#
# Static dielectric constant tensor:
#      x y z
#    x 4.111810 0.000000 0.192560 
#    y 0.000000 3.688900 0.000000 
#    z 0.192560 0.000000 3.636070 
# 
# 
# High freq. dielectric constant tensor:
#      x y z
#    x 1.800070 0.000000 0.012240 
#    y 0.000000 1.781530 0.000000 
#    z 0.012240 0.000000 1.780770 
# 
# From -- ./inp_files/198276.got.cif
#   From: 2010.06.25/outbox.cif.g09.slc.cpg/sg15_100_cif.got.tgz:198276.got - 2010.06.28 07:06:18.
