data_PCOD8143466
_publ_section_title
;
Structure prediction by ZEFSAII (Michael W. Deem and Ramdas Pophale) SiO2 
 PCOD8143466
Probable space group: C 2/C
;
_chemical_formula_sum "Si O2"
_cell_formula_units_Z 40
_cell_length_a 17.053621
_cell_length_b 8.385011
_cell_length_c 24.688955
_cell_angle_alpha 90.000000
_cell_angle_beta 30.354885
_cell_angle_gamma 90.000000
_cell_volume 1784.099429
_symmetry_space_group_name_H-M "C 2/C"
_symmetry_group_IT_number 15
_symmetry_cell_setting 'monoclinic'
loop_
_space_group_symop_operation_xyz
x,y,z
-x,y,1/2-z
-x,-y,-z
x,-y,1/2+z
1/2+x,1/2+y,z
1/2-x,1/2+y,1/2-z
1/2-x,1/2-y,-z
1/2+x,1/2-y,1/2+z
loop_
_atom_site_type_symbol
_atom_site_label
_atom_site_fract_x
_atom_site_fract_y
_atom_site_fract_z
Si Si1 0.173107 0.948576 0.907941
Si Si2 0.638107 0.893626 0.394616
Si Si3 0.248758 0.932215 0.479322
Si Si4 0.926980 0.401598 0.187695
Si Si5 0.542439 0.437607 0.785045
O O1 0.169954 0.756690 0.914871
O O2 0.239457 0.040656 0.920514
O O3 0.281598 0.991586 0.792145
O O4 0.000000 0.000000 0.000000
O O5 0.590854 0.836863 0.362687
O O6 0.500000 0.000000 0.500000
O O7 0.793281 0.993830 0.295800
O O8 0.250000 0.750000 0.500000
O O9 0.412973 0.005454 0.402087
O O10 0.095873 0.013856 0.596044
O O11 0.944286 0.252130 0.217324
O O12 0.500000 0.485069 0.750000
#
# Coordination Sequence:
#
# PCOD8143466 Si02
#       5
#     8   8   8   8   8
#     4  12  24  41  67  98 131 175 223 271 329 395
#     4  12  26  43  64  98 137 174 217 275 333 391
#     4  10  21  40  67  98 127 168 221 276 330 394
#     4  11  22  43  69  95 128 175 223 269 325 395
#     4  11  23  43  67  95 130 170 214 269 329 391
#
# _framework density 22.420273000000002
#
# number of rings (size 3 to 8) (size 9 to 14) (size 15 to 20)
#    0.000    0.800    0.000   10.200    0.000    3.200 
#    0.000    3.000    0.000    0.000    0.000    0.000 
#    0.000    0.000    0.000    0.000    0.000    0.000 
#
# Total GULP energy -247968.737399 kJ/mol
# GULP energy per Si atom -12398.436870 kJ/mol
# Density = 2.236924 g / cm^3
# Si number density = 22.420273 Si / 1000 Ang^3
#
#
#
# Elastic Constant Matrix: (Units=GPa)
#
#
# Indices 1 2 3 4 5 6 
#
# 1 140.3631 22.3743 50.1330 0.0002 -4.0848 -0.0027
# 2 22.3743 86.0854 45.1878 0.0002 -2.4566 -0.0038
# 3 50.1330 45.1878 186.8147 -0.0022 -34.3625 -0.0002
# 4 0.0002 0.0002 -0.0022 28.1169 0.0004 -1.2447
# 5 -4.0848 -2.4566 -34.3625 0.0004 57.4574 0.0007
# 6 -0.0027 -0.0038 -0.0002 -1.2447 0.0007 24.0559
#
#
#
# Elastic Compliance Matrix: (Units=1/GPa)
#
#
# Indices 1 2 3 4 5 6 
#
# 1 0.007991 -0.001036 -0.002020 0.000000 -0.000684 0.000001
# 2 -0.001036 0.013560 -0.003268 0.000000 -0.001449 0.000002
# 3 -0.002020 -0.003268 0.007453 0.000001 0.004174 -0.000001
# 4 0.000000 0.000000 0.000001 0.035647 0.000000 0.001844
# 5 -0.000684 -0.001449 0.004174 0.000000 0.019790 -0.000001
# 6 0.000001 0.000002 -0.000001 0.001844 -0.000001 0.041665
#
#
# Mechanical properties :
#
#
# Convention : Reuss Voigt Hill
#
# Bulk Modulus (GPa) = 61.14057 72.07260 66.60658
# Shear Modulus (GPa) = 34.67232 41.63058 38.15145
#
# Velocity S-wave (km/s) = 3.93679 4.31377 4.12958
# Velocity P-wave (km/s) = 6.92776 7.55165 7.24642
#
# Compressibility (1/GPa) = 0.01635575
#
# Stress axis : x y z
#
# Youngs Moduli (GPa) = 125.14090 73.74638 134.17056
#
# Poissons Ratio (x) = 0.07643 0.27097
# Poissons Ratio (y) = 0.12969 0.43851
# Poissons Ratio (z) = 0.25273 0.24103
#
# Static dielectric constant tensor:
#      x y z
#    x 4.195060 -0.000010 -0.164370 
#    y -0.000010 3.816950 -0.000240 
#    z -0.164370 -0.000240 8.798640 
# 
# 
# High freq. dielectric constant tensor:
#      x y z
#    x 1.895790 0.000000 -0.013990 
#    y 0.000000 1.850590 0.000000 
#    z -0.013990 0.000000 1.915550 
# 
# From -- ./inp_files/102677.got.cif
#   From: 2010.06.25/outbox.cif.g09.slc.cpg/sg15_52_cif.got.tgz:102677.got - 2010.06.28 07:06:18.
