data_PCOD8143591
_publ_section_title
;
Structure prediction by ZEFSAII (Michael W. Deem and Ramdas Pophale) SiO2 
 PCOD8143591
Probable space group: C 2/C
;
_chemical_formula_sum "Si O2"
_cell_formula_units_Z 64
_cell_length_a 8.959041
_cell_length_b 26.420468
_cell_length_c 13.696159
_cell_angle_alpha 90.000000
_cell_angle_beta 74.148462
_cell_angle_gamma 90.000000
_cell_volume 3118.627904
_symmetry_space_group_name_H-M "C 2/C"
_symmetry_group_IT_number 15
_symmetry_cell_setting 'monoclinic'
loop_
_space_group_symop_operation_xyz
x,y,z
-x,y,1/2-z
-x,-y,-z
x,-y,1/2+z
1/2+x,1/2+y,z
1/2-x,1/2+y,1/2-z
1/2-x,1/2-y,-z
1/2+x,1/2-y,1/2+z
loop_
_atom_site_type_symbol
_atom_site_label
_atom_site_fract_x
_atom_site_fract_y
_atom_site_fract_z
Si Si1 0.587391 0.149129 0.638489
Si Si2 0.397941 0.237308 0.576234
Si Si3 0.579418 0.033444 0.341212
Si Si4 0.334134 0.616553 0.328011
Si Si5 0.238551 0.148076 0.505844
Si Si6 0.822983 0.315663 0.794112
Si Si7 0.933179 0.567459 0.560086
Si Si8 0.088519 0.167635 0.981391
O O1 0.500000 0.129765 0.750000
O O2 0.494804 0.197375 0.619090
O O3 0.582563 0.100486 0.566525
O O4 0.766506 0.166050 0.619198
O O5 0.291447 0.206435 0.517567
O O6 0.283930 0.267035 0.668789
O O7 0.527392 0.275034 0.508259
O O8 0.500000 0.043960 0.250000
O O9 0.735903 0.064813 0.333660
O O10 0.455085 0.044767 0.448340
O O11 0.617086 0.973874 0.349958
O O12 0.500000 0.606737 0.250000
O O13 0.234318 0.660394 0.295957
O O14 0.360294 0.637134 0.431714
O O15 0.302809 0.141730 0.383270
O O16 0.296475 0.108439 0.574841
O O17 0.054811 0.138992 0.542728
O O18 0.000000 0.298568 0.750000
#
# Coordination Sequence:
#
# PCOD8143591 Si02
#       8
#     8   8   8   8   8   8   8   8
#     4  11  24  40  64  90 130 174 216 261 325 379
#     4  10  23  38  58  91 131 175 213 259 310 387
#     4  11  23  41  70  94 121 165 212 266 329 381
#     4  12  22  38  64  97 129 156 211 268 326 375
#     4  10  21  41  60  86 130 171 204 255 320 378
#     4  11  22  35  62  91 128 165 211 258 314 376
#     4  10  22  44  63  93 127 159 215 264 315 399
#     4  11  22  40  60  93 131 165 214 268 312 373
#
# _framework density 20.521846
#
# number of rings (size 3 to 8) (size 9 to 14) (size 15 to 20)
#    0.000    1.250    3.750    4.125    3.500    2.000 
#    0.000    5.000    0.000    0.000    0.000    0.000 
#    0.000    0.000    0.000    0.000    0.000    0.000 
#
# Total GULP energy -396577.094729 kJ/mol
# GULP energy per Si atom -12393.034210 kJ/mol
# Density = 2.047514 g / cm^3
# Si number density = 20.521846 Si / 1000 Ang^3
#
#
#
# Elastic Constant Matrix: (Units=GPa)
#
#
# Indices 1 2 3 4 5 6 
#
# 1 139.9242 54.8803 50.0375 0.0000 -12.4662 0.0000
# 2 54.8803 118.8110 26.7920 0.0000 0.0286 0.0000
# 3 50.0375 26.7920 72.1135 0.0000 -11.1189 0.0000
# 4 0.0000 0.0000 0.0000 26.7089 0.0000 2.4065
# 5 -12.4662 0.0286 -11.1189 0.0000 34.9337 0.0000
# 6 0.0000 0.0000 0.0000 2.4065 0.0000 15.2035
#
#
#
# Elastic Compliance Matrix: (Units=1/GPa)
#
#
# Indices 1 2 3 4 5 6 
#
# 1 0.010873 -0.003702 -0.005858 0.000000 0.002019 0.000000
# 2 -0.003702 0.010491 -0.001613 0.000000 -0.001843 0.000000
# 3 -0.005858 -0.001613 0.019149 0.000000 0.004006 0.000000
# 4 0.000000 0.000000 0.000000 0.037982 0.000000 -0.006012
# 5 0.002019 -0.001843 0.004006 0.000000 0.030622 0.000000
# 6 0.000000 0.000000 0.000000 -0.006012 0.000000 0.066726
#
#
# Mechanical properties :
#
#
# Convention : Reuss Voigt Hill
#
# Bulk Modulus (GPa) = 55.04605 66.02980 60.53792
# Shear Modulus (GPa) = 24.48028 28.64515 26.56272
#
# Velocity S-wave (km/s) = 3.45757 3.74014 3.60163
# Velocity P-wave (km/s) = 6.54378 7.13420 6.84536
#
# Compressibility (1/GPa) = 0.01816661
#
# Stress axis : x y z
#
# Youngs Moduli (GPa) = 91.96703 95.32019 52.22285
#
# Poissons Ratio (x) = 0.35288 0.30593
# Poissons Ratio (y) = 0.34047 0.08424
# Poissons Ratio (z) = 0.53875 0.15376
#
# Static dielectric constant tensor:
#      x y z
#    x 3.956290 0.000000 0.096200 
#    y 0.000000 3.826670 0.000000 
#    z 0.096200 0.000000 3.649710 
# 
# 
# High freq. dielectric constant tensor:
#      x y z
#    x 1.812520 0.000000 0.008920 
#    y 0.000000 1.801140 0.000000 
#    z 0.008920 0.000000 1.791060 
# 
# From -- ./inp_files/138581.got.cif
#   From: 2010.06.25/outbox.cif.g09.slc.cpg/sg15_70_cif.got.tgz:138581.got - 2010.06.28 07:06:18.
