data_PCOD8143016
_publ_section_title
;
Structure prediction by ZEFSAII (Michael W. Deem and Ramdas Pophale) SiO2 
 PCOD8143016
Probable space group: C 2/C
;
_chemical_formula_sum "Si O2"
_cell_formula_units_Z 64
_cell_length_a 14.839464
_cell_length_b 12.428239
_cell_length_c 27.828309
_cell_angle_alpha 90.000000
_cell_angle_beta 38.264922
_cell_angle_gamma 90.000000
_cell_volume 3178.444440
_symmetry_space_group_name_H-M "C 2/C"
_symmetry_group_IT_number 15
_symmetry_cell_setting 'monoclinic'
loop_
_space_group_symop_operation_xyz
x,y,z
-x,y,1/2-z
-x,-y,-z
x,-y,1/2+z
1/2+x,1/2+y,z
1/2-x,1/2+y,1/2-z
1/2-x,1/2-y,-z
1/2+x,1/2-y,1/2+z
loop_
_atom_site_type_symbol
_atom_site_label
_atom_site_fract_x
_atom_site_fract_y
_atom_site_fract_z
Si Si1 0.092348 0.877140 0.338540
Si Si2 0.309080 0.945715 0.368932
Si Si3 0.589578 0.508815 0.664271
Si Si4 0.620430 0.976044 0.266294
Si Si5 0.145992 0.882912 0.996866
Si Si6 0.887864 0.645954 0.149572
Si Si7 0.678039 0.142051 0.978895
Si Si8 0.658731 0.714946 0.168840
O O1 0.050458 0.751922 0.348670
O O2 0.023964 0.957588 0.328882
O O3 0.024528 0.905809 0.419752
O O4 0.267362 0.881501 0.266398
O O5 0.256748 0.820333 0.386855
O O6 0.453725 0.941653 0.341584
O O7 0.342952 0.004967 0.304316
O O8 0.191645 0.018796 0.444450
O O9 0.500000 0.532320 0.750000
O O10 0.742186 0.575053 0.597117
O O11 0.633448 0.382396 0.641669
O O12 0.655112 0.070344 0.288730
O O13 0.172407 0.765582 0.962281
O O14 0.226425 0.879584 0.014208
O O15 0.743698 0.666836 0.178866
O O16 0.014375 0.601844 0.060597
O O17 0.500000 0.761195 0.250000
#
# Coordination Sequence:
#
# PCOD8143016 Si02
#       8
#     8   8   8   8   8   8   8   8
#     4  10  21  40  59  88 118 160 200 236 309 360
#     4  11  21  37  61  89 121 152 206 246 297 347
#     4  10  22  37  63  86 120 158 197 247 296 357
#     4  11  21  35  61  93 112 154 203 251 282 356
#     4   9  19  37  61  83 124 156 192 252 305 348
#     4  11  21  39  66  84 121 160 197 244 303 353
#     4   9  19  38  58  89 117 158 197 243 309 350
#     4  11  21  40  58  86 123 164 190 240 304 363
#
# _framework density 20.135636999999999
#
# number of rings (size 3 to 8) (size 9 to 14) (size 15 to 20)
#    0.000    1.750    3.750    2.250    0.000    2.000 
#    0.000    2.500    2.750    0.000    0.000    0.000 
#    0.000    0.000    0.000    0.000    0.000    0.000 
#
# Total GULP energy -396432.671321 kJ/mol
# GULP energy per Si atom -12388.520979 kJ/mol
# Density = 2.008981 g / cm^3
# Si number density = 20.135637 Si / 1000 Ang^3
#
#
#
# Elastic Constant Matrix: (Units=GPa)
#
#
# Indices 1 2 3 4 5 6 
#
# 1 61.1762 17.2661 10.9023 0.0000 -2.8850 0.0000
# 2 17.2661 99.8878 53.2972 0.0000 16.1243 0.0000
# 3 10.9023 53.2972 108.3531 0.0000 0.6353 0.0000
# 4 0.0000 0.0000 0.0000 24.1953 0.0000 0.2028
# 5 -2.8850 16.1243 0.6353 0.0000 23.9811 0.0000
# 6 0.0000 0.0000 0.0000 0.2028 0.0000 27.9969
#
#
#
# Elastic Compliance Matrix: (Units=1/GPa)
#
#
# Indices 1 2 3 4 5 6 
#
# 1 0.017642 -0.003863 0.000097 0.000000 0.004717 0.000000
# 2 -0.003863 0.016657 -0.007738 0.000000 -0.011460 0.000000
# 3 0.000097 -0.007738 0.012997 0.000000 0.004870 0.000000
# 4 0.000000 0.000000 0.000000 0.041333 0.000000 -0.000299
# 5 0.004717 -0.011460 0.004870 0.000000 0.049843 0.000000
# 6 0.000000 0.000000 0.000000 -0.000299 0.000000 0.035720
#
#
# Mechanical properties :
#
#
# Convention : Reuss Voigt Hill
#
# Bulk Modulus (GPa) = 41.17011 48.03870 44.60441
# Shear Modulus (GPa) = 24.35518 27.76475 26.05997
#
# Velocity S-wave (km/s) = 3.48164 3.71736 3.60143
# Velocity P-wave (km/s) = 6.05419 6.50649 6.28441
#
# Compressibility (1/GPa) = 0.02428947
#
# Stress axis : x y z
#
# Youngs Moduli (GPa) = 56.68438 60.03334 76.94216
#
# Poissons Ratio (x) = 0.23190 -0.00749
# Poissons Ratio (y) = 0.21896 0.59535
# Poissons Ratio (z) = -0.00552 0.46452
#
# Static dielectric constant tensor:
#      x y z
#    x 3.627730 0.000000 -0.320730 
#    y 0.000000 3.707740 0.000000 
#    z -0.320730 0.000000 3.890540 
# 
# 
# High freq. dielectric constant tensor:
#      x y z
#    x 1.779850 0.000000 -0.026580 
#    y 0.000000 1.781450 0.000000 
#    z -0.026580 0.000000 1.779800 
# 
# From -- ./inp_files/296128.got.cif
#   From: 2010.06.25/outbox.cif.g09.slc.cpg/sg15_149_cif.got.tgz:296128.got - 2010.06.28 07:06:18.
