data_PCOD8143343
_publ_section_title
;
Structure prediction by ZEFSAII (Michael W. Deem and Ramdas Pophale) SiO2 
 PCOD8143343
Probable space group: C 2/C
;
_chemical_formula_sum "Si O2"
_cell_formula_units_Z 64
_cell_length_a 19.782291
_cell_length_b 17.274238
_cell_length_c 15.748860
_cell_angle_alpha 90.000000
_cell_angle_beta 33.709847
_cell_angle_gamma 90.000000
_cell_volume 2986.810927
_symmetry_space_group_name_H-M "C 2/C"
_symmetry_group_IT_number 15
_symmetry_cell_setting 'monoclinic'
loop_
_space_group_symop_operation_xyz
x,y,z
-x,y,1/2-z
-x,-y,-z
x,-y,1/2+z
1/2+x,1/2+y,z
1/2-x,1/2+y,1/2-z
1/2-x,1/2-y,-z
1/2+x,1/2-y,1/2+z
loop_
_atom_site_type_symbol
_atom_site_label
_atom_site_fract_x
_atom_site_fract_y
_atom_site_fract_z
Si Si1 0.078190 0.614008 0.945386
Si Si2 0.377930 0.834478 0.919149
Si Si3 0.250701 0.180430 0.878555
Si Si4 0.133835 0.843317 0.089214
Si Si5 0.514284 0.594545 0.084311
Si Si6 0.612648 0.433275 0.950858
Si Si7 0.733096 0.353147 0.588961
Si Si8 0.353232 0.056510 0.100665
O O1 0.161559 0.636268 0.778333
O O2 0.088008 0.527156 0.970951
O O3 0.109061 0.668764 0.992509
O O4 0.938235 0.618713 0.061136
O O5 0.500000 0.873660 0.750000
O O6 0.371619 0.747823 0.890789
O O7 0.249316 0.875467 0.024812
O O8 0.268897 0.272475 0.856745
O O9 0.278251 0.153052 0.945563
O O10 0.112639 0.160589 0.999445
O O11 0.000000 0.879606 0.250000
O O12 0.155749 0.866094 0.968974
O O13 0.484020 0.600745 0.015464
O O14 0.401635 0.610793 0.264476
O O15 0.561486 0.507834 0.054827
O O16 0.729150 0.460411 0.778103
O O17 0.829572 0.409775 0.532047
#
# Coordination Sequence:
#
# PCOD8143343 Si02
#       8
#     8   8   8   8   8   8   8   8
#     4  11  24  42  68  93 126 175 216 263 324 392
#     4  10  23  43  61  92 133 170 217 264 322 394
#     4  11  24  42  65  98 127 171 223 271 327 394
#     4  10  23  38  62  97 127 165 214 263 318 390
#     4  10  22  40  65  92 129 167 215 271 322 394
#     4  10  21  40  65  95 130 165 212 269 326 386
#     4  10  25  43  65  95 133 171 218 276 332 385
#     4  10  23  44  62  96 127 163 221 263 321 394
#
# _framework density 21.427537000000001
#
# number of rings (size 3 to 8) (size 9 to 14) (size 15 to 20)
#    0.000    1.750    1.250    1.125    7.000    2.500 
#    4.500    0.000    0.000    0.000    0.000    0.000 
#    0.000    0.000    0.000    0.000    0.000    0.000 
#
# Total GULP energy -396709.303546 kJ/mol
# GULP energy per Si atom -12397.165736 kJ/mol
# Density = 2.137877 g / cm^3
# Si number density = 21.427537 Si / 1000 Ang^3
#
#
#
# Elastic Constant Matrix: (Units=GPa)
#
#
# Indices 1 2 3 4 5 6 
#
# 1 125.2839 28.7538 61.9079 0.0000 -15.6605 0.0000
# 2 28.7538 48.0554 28.1369 0.0001 1.9894 0.0000
# 3 61.9079 28.1369 97.7651 0.0001 -5.4309 -0.0001
# 4 0.0000 0.0001 0.0001 25.3739 -0.0001 4.7033
# 5 -15.6605 1.9894 -5.4309 -0.0001 41.8363 0.0001
# 6 0.0000 0.0000 -0.0001 4.7033 0.0001 31.2814
#
#
#
# Elastic Compliance Matrix: (Units=1/GPa)
#
#
# Indices 1 2 3 4 5 6 
#
# 1 0.012680 -0.003831 -0.006701 0.000000 0.004059 0.000000
# 2 -0.003831 0.026376 -0.005353 0.000000 -0.003383 0.000000
# 3 -0.006701 -0.005353 0.016003 0.000000 -0.000176 0.000000
# 4 0.000000 0.000000 0.000000 0.040540 0.000000 -0.006095
# 5 0.004059 -0.003383 -0.000176 0.000000 0.025560 0.000000
# 6 0.000000 0.000000 0.000000 -0.006095 0.000000 0.032884
#
#
# Mechanical properties :
#
#
# Convention : Reuss Voigt Hill
#
# Bulk Modulus (GPa) = 42.94085 56.52241 49.73163
# Shear Modulus (GPa) = 25.82958 29.85206 27.84082
#
# Velocity S-wave (km/s) = 3.47571 3.73656 3.60849
# Velocity P-wave (km/s) = 6.01589 6.71204 6.37348
#
# Compressibility (1/GPa) = 0.02328785
#
# Stress axis : x y z
#
# Youngs Moduli (GPa) = 78.86527 37.91326 62.48944
#
# Poissons Ratio (x) = 0.14526 0.41875
# Poissons Ratio (y) = 0.30216 0.33450
# Poissons Ratio (z) = 0.52849 0.20294
#
# Static dielectric constant tensor:
#      x y z
#    x 4.176790 0.000000 -0.274100 
#    y 0.000000 3.677690 0.000000 
#    z -0.274100 0.000000 3.853000 
# 
# 
# High freq. dielectric constant tensor:
#      x y z
#    x 1.855570 0.000000 -0.011070 
#    y 0.000000 1.826140 0.000000 
#    z -0.011070 0.000000 1.839350 
# 
# From -- ./inp_files/163271.got.cif
#   From: 2010.06.25/outbox.cif.g09.slc.cpg/sg15_82_cif.got.tgz:163271.got - 2010.06.28 07:06:18.
