data_PCOD8143864
_publ_section_title
;
Structure prediction by ZEFSAII (Michael W. Deem and Ramdas Pophale) SiO2 
 PCOD8143864
Probable space group: C 2/C
;
_chemical_formula_sum "Si O2"
_cell_formula_units_Z 52
_cell_length_a 22.783824
_cell_length_b 8.747348
_cell_length_c 23.582338
_cell_angle_alpha 90.000000
_cell_angle_beta 35.001405
_cell_angle_gamma 90.000000
_cell_volume 2695.854146
_symmetry_space_group_name_H-M "C 2/C"
_symmetry_group_IT_number 15
_symmetry_cell_setting 'monoclinic'
loop_
_space_group_symop_operation_xyz
x,y,z
-x,y,1/2-z
-x,-y,-z
x,-y,1/2+z
1/2+x,1/2+y,z
1/2-x,1/2+y,1/2-z
1/2-x,1/2-y,-z
1/2+x,1/2-y,1/2+z
loop_
_atom_site_type_symbol
_atom_site_label
_atom_site_fract_x
_atom_site_fract_y
_atom_site_fract_z
Si Si1 0.144177 0.083838 0.421957
Si Si2 0.342882 0.227963 0.100377
Si Si3 0.855924 0.607177 0.208534
Si Si4 0.000000 0.975496 0.250000
Si Si5 0.997848 0.832345 0.365276
Si Si6 0.056803 0.702499 0.893020
Si Si7 0.126140 0.103844 0.241797
O O1 0.265426 0.112974 0.325987
O O2 0.093352 0.167972 0.408426
O O3 0.095543 0.146151 0.517972
O O4 0.130322 0.902614 0.434188
O O5 0.327146 0.220006 0.180014
O O6 0.245213 0.150877 0.147110
O O7 0.444173 0.139567 0.998368
O O8 0.958634 0.661210 0.159883
O O9 0.867679 0.442323 0.169363
O O10 0.088433 0.085954 0.206202
O O11 0.955358 0.865311 0.335284
O O12 0.097032 0.944312 0.297143
O O13 0.058972 0.769167 0.827548
#
# Coordination Sequence:
#
# PCOD8143864 Si02
#       7
#     8   8   8   4   8   8   8
#     4  12  22  38  63  94 130 166 204 254 337 376
#     4  12  22  37  62  95 127 168 202 256 328 376
#     4  12  24  35  61 100 132 156 206 264 319 382
#     4   8  22  46  66  84 120 184 212 252 316 362
#     4  10  23  43  66  83 130 172 209 259 311 388
#     4  12  23  36  59 100 132 159 205 264 324 382
#     4  10  21  41  66  85 123 168 212 258 304 385
#
# _framework density 19.288876999999999
#
# number of rings (size 3 to 8) (size 9 to 14) (size 15 to 20)
#    0.923    0.000    6.154    1.846    2.154    0.000 
#    0.000    4.615    0.000    0.000    0.000    0.000 
#    0.000    0.000    0.000    0.000    0.000    0.000 
#
# Total GULP energy -322116.344168 kJ/mol
# GULP energy per Si atom -12389.090160 kJ/mol
# Density = 1.924497 g / cm^3
# Si number density = 19.288877 Si / 1000 Ang^3
#
#
#
# Elastic Constant Matrix: (Units=GPa)
#
#
# Indices 1 2 3 4 5 6 
#
# 1 116.2643 27.0895 55.1794 -0.0003 12.7708 0.0002
# 2 27.0895 50.3704 29.5030 0.0006 2.0533 0.0014
# 3 55.1794 29.5030 149.6660 -0.0002 -6.2133 -0.0004
# 4 -0.0003 0.0006 -0.0002 29.1175 -0.0004 -3.4475
# 5 12.7708 2.0533 -6.2133 -0.0004 26.4663 -0.0002
# 6 0.0002 0.0014 -0.0004 -3.4475 -0.0002 24.7345
#
#
#
# Elastic Compliance Matrix: (Units=1/GPa)
#
#
# Indices 1 2 3 4 5 6 
#
# 1 0.012104 -0.003929 -0.003957 0.000000 -0.006465 0.000000
# 2 -0.003929 0.023928 -0.003299 -0.000001 -0.000735 -0.000001
# 3 -0.003957 -0.003299 0.008968 0.000000 0.004270 0.000000
# 4 0.000000 -0.000001 0.000000 0.034920 0.000001 0.004867
# 5 -0.006465 -0.000735 0.004270 0.000001 0.041963 0.000001
# 6 0.000000 -0.000001 0.000000 0.004867 0.000001 0.041108
#
#
# Mechanical properties :
#
#
# Convention : Reuss Voigt Hill
#
# Bulk Modulus (GPa) = 44.18572 59.98272 52.08422
# Shear Modulus (GPa) = 25.91970 29.69891 27.80930
#
# Velocity S-wave (km/s) = 3.66972 3.92815 3.80113
# Velocity P-wave (km/s) = 6.39631 7.19294 6.80629
#
# Compressibility (1/GPa) = 0.02263174
#
# Stress axis : x y z
#
# Youngs Moduli (GPa) = 82.61429 41.79197 111.50935
#
# Poissons Ratio (x) = 0.16419 0.44120
# Poissons Ratio (y) = 0.32458 0.36785
# Poissons Ratio (z) = 0.32687 0.13787
#
# Static dielectric constant tensor:
#      x y z
#    x 3.165750 0.000000 -0.023560 
#    y 0.000000 3.580530 0.000000 
#    z -0.023560 0.000000 3.718230 
# 
# 
# High freq. dielectric constant tensor:
#      x y z
#    x 1.708230 0.000000 -0.000920 
#    y 0.000000 1.752940 0.000000 
#    z -0.000920 0.000000 1.765050 
# 
# From -- ./inp_files/303032.got.cif
#   From: 2010.06.25/outbox.cif.g09.slc.cpg/sg15_152_cif.got.tgz:303032.got - 2010.06.28 07:06:18.
