data_PCOD8143503
_publ_section_title
;
Structure prediction by ZEFSAII (Michael W. Deem and Ramdas Pophale) SiO2 
 PCOD8143503
Probable space group: C 2/C
;
_chemical_formula_sum "Si O2"
_cell_formula_units_Z 60
_cell_length_a 19.036454
_cell_length_b 18.852439
_cell_length_c 10.764744
_cell_angle_alpha 90.000000
_cell_angle_beta 136.539954
_cell_angle_gamma 90.000000
_cell_volume 2657.358520
_symmetry_space_group_name_H-M "C 2/C"
_symmetry_group_IT_number 15
_symmetry_cell_setting 'monoclinic'
loop_
_space_group_symop_operation_xyz
x,y,z
-x,y,1/2-z
-x,-y,-z
x,-y,1/2+z
1/2+x,1/2+y,z
1/2-x,1/2+y,1/2-z
1/2-x,1/2-y,-z
1/2+x,1/2-y,1/2+z
loop_
_atom_site_type_symbol
_atom_site_label
_atom_site_fract_x
_atom_site_fract_y
_atom_site_fract_z
Si Si1 0.294510 0.175001 0.598624
Si Si2 0.082210 0.747927 0.103792
Si Si3 0.236618 0.138009 0.889508
Si Si4 0.619655 0.230300 0.546221
Si Si5 0.255873 0.362217 0.822166
Si Si6 0.500000 0.204850 0.750000
Si Si7 0.388266 0.438161 0.630007
Si Si8 0.317836 0.498452 0.788446
O O1 0.250000 0.250000 0.500000
O O2 0.329041 0.179510 0.785055
O O3 0.397433 0.158076 0.648859
O O4 0.205131 0.117089 0.474582
O O5 0.139773 0.820556 0.207345
O O6 0.150692 0.679007 0.178611
O O7 0.021026 0.756269 0.895286
O O8 0.002246 0.730725 0.111240
O O9 0.333613 0.192886 0.017258
O O10 0.253623 0.066259 0.833164
O O11 0.216708 0.114230 0.003775
O O12 0.653641 0.311336 0.609126
O O13 0.247031 0.429561 0.720558
O O14 0.500000 0.402408 0.750000
O O15 0.390673 0.483884 0.762076
O O16 0.375902 0.488418 0.492986
#
# Coordination Sequence:
#
# PCOD8143503 Si02
#       8
#     8   8   8   8   8   4   8   8
#     4  11  22  39  66  99 137 175 226 282 342 410
#     4  10  22  41  69 101 132 173 232 282 345 405
#     4  11  23  43  68  97 137 177 226 283 343 414
#     4  10  21  40  68  99 129 171 224 283 336 404
#     4  11  24  45  67  98 138 180 223 288 344 410
#     4  10  22  38  66 102 140 174 222 286 350 404
#     4  12  27  45  72 100 141 183 230 284 350 420
#     4  12  25  48  67  98 141 183 229 279 350 415
#
# _framework density 22.578813
#
# number of rings (size 3 to 8) (size 9 to 14) (size 15 to 20)
#    0.000    1.067    2.667    5.200    0.933    5.333 
#    0.000    0.667    2.933    0.000    0.000    0.000 
#    0.000    0.000    0.000    0.000    0.000    0.000 
#
# Total GULP energy -371770.727455 kJ/mol
# GULP energy per Si atom -12392.357582 kJ/mol
# Density = 2.252742 g / cm^3
# Si number density = 22.578813 Si / 1000 Ang^3
#
#
#
# Elastic Constant Matrix: (Units=GPa)
#
#
# Indices 1 2 3 4 5 6 
#
# 1 125.9873 50.3029 52.4822 0.0000 -2.3666 0.0000
# 2 50.3029 132.1099 39.1090 0.0000 3.5949 0.0000
# 3 52.4822 39.1090 74.3561 0.0000 -0.2815 0.0000
# 4 0.0000 0.0000 0.0000 25.2641 0.0000 -7.7700
# 5 -2.3666 3.5949 -0.2815 0.0000 38.6424 0.0000
# 6 0.0000 0.0000 0.0000 -7.7700 0.0000 31.4221
#
#
#
# Elastic Compliance Matrix: (Units=1/GPa)
#
#
# Indices 1 2 3 4 5 6 
#
# 1 0.011890 -0.002450 -0.007100 0.000000 0.000904 0.000000
# 2 -0.002450 0.009500 -0.003271 0.000000 -0.001058 0.000000
# 3 -0.007100 -0.003271 0.020181 0.000000 0.000016 0.000000
# 4 0.000000 0.000000 0.000000 0.042840 0.000000 0.010593
# 5 0.000904 -0.001058 0.000016 0.000000 0.026032 0.000000
# 6 0.000000 0.000000 0.000000 0.010593 0.000000 0.034444
#
#
# Mechanical properties :
#
#
# Convention : Reuss Voigt Hill
#
# Bulk Modulus (GPa) = 62.78390 68.47127 65.62759
# Shear Modulus (GPa) = 28.43502 31.76967 30.10234
#
# Velocity S-wave (km/s) = 3.55261 3.75514 3.65528
# Velocity P-wave (km/s) = 6.68543 7.01376 6.85156
#
# Compressibility (1/GPa) = 0.01592765
#
# Stress axis : x y z
#
# Youngs Moduli (GPa) = 84.10206 105.26860 49.55167
#
# Poissons Ratio (x) = 0.25792 0.35183
# Poissons Ratio (y) = 0.20606 0.16209
# Poissons Ratio (z) = 0.59715 0.34435
#
# Static dielectric constant tensor:
#      x y z
#    x 4.584480 0.000000 -0.233630 
#    y 0.000000 3.787730 0.000000 
#    z -0.233630 0.000000 4.110290 
# 
# 
# High freq. dielectric constant tensor:
#      x y z
#    x 1.912030 0.000000 -0.022390 
#    y 0.000000 1.867970 0.000000 
#    z -0.022390 0.000000 1.890070 
# 
# From -- ./inp_files/113835.got.cif
#   From: 2010.06.25/outbox.cif.g09.slc.cpg/sg15_57_cif.got.tgz:113835.got - 2010.06.28 07:06:18.
