data_PCOD8143317
_publ_section_title
;
Structure prediction by ZEFSAII (Michael W. Deem and Ramdas Pophale) SiO2 
 PCOD8143317
Probable space group: C 2/C
;
_chemical_formula_sum "Si O2"
_cell_formula_units_Z 52
_cell_length_a 17.916420
_cell_length_b 20.272601
_cell_length_c 7.995787
_cell_angle_alpha 90.000000
_cell_angle_beta 57.793488
_cell_angle_gamma 90.000000
_cell_volume 2457.312274
_symmetry_space_group_name_H-M "C 2/C"
_symmetry_group_IT_number 15
_symmetry_cell_setting 'monoclinic'
loop_
_space_group_symop_operation_xyz
x,y,z
-x,y,1/2-z
-x,-y,-z
x,-y,1/2+z
1/2+x,1/2+y,z
1/2-x,1/2+y,1/2-z
1/2-x,1/2-y,-z
1/2+x,1/2-y,1/2+z
loop_
_atom_site_type_symbol
_atom_site_label
_atom_site_fract_x
_atom_site_fract_y
_atom_site_fract_z
Si Si1 0.690558 0.158274 0.458272
Si Si2 0.751133 0.707445 0.764821
Si Si3 0.974837 0.115233 0.094943
Si Si4 0.310875 0.450531 0.680467
Si Si5 0.445709 0.249600 0.480772
Si Si6 0.500000 0.816541 0.250000
Si Si7 0.841017 0.915687 0.267987
O O1 0.697908 0.223273 0.331171
O O2 0.748758 0.175027 0.551686
O O3 0.726126 0.092975 0.328273
O O4 0.589488 0.140992 0.627176
O O5 0.849219 0.718026 0.577063
O O6 0.700018 0.657081 0.705443
O O7 0.000000 0.141024 0.250000
O O8 0.894021 0.063777 0.204134
O O9 0.058572 0.081740 0.910936
O O10 0.937564 0.172347 0.017473
O O11 0.339585 0.434628 0.460979
O O12 0.286713 0.528025 0.730465
O O13 0.500000 0.231206 0.250000
O O14 0.495920 0.225728 0.586164
#
# Coordination Sequence:
#
# PCOD8143317 Si02
#       7
#     8   8   8   8   8   4   8
#     4  10  21  40  65  91 131 163 222 261 339 373
#     4  10  22  40  64  96 128 171 210 277 317 393
#     4  12  23  41  63  96 135 175 213 265 328 394
#     4  12  25  43  65  94 131 175 216 271 327 399
#     4  11  22  38  64  97 136 167 222 264 332 383
#     4  10  22  38  62  94 126 176 208 282 320 384
#     4  12  26  41  66  94 133 173 221 265 330 393
#
# _framework density 21.161331000000001
#
# number of rings (size 3 to 8) (size 9 to 14) (size 15 to 20)
#    0.000    0.923    2.308    5.538    4.308    0.615 
#    0.000    0.000    1.692    2.769    0.000    0.000 
#    0.000    0.000    0.000    0.000    0.000    0.000 
#
# Total GULP energy -322449.949800 kJ/mol
# GULP energy per Si atom -12401.921146 kJ/mol
# Density = 2.111317 g / cm^3
# Si number density = 21.161331 Si / 1000 Ang^3
#
#
#
# Elastic Constant Matrix: (Units=GPa)
#
#
# Indices 1 2 3 4 5 6 
#
# 1 72.7076 26.5317 30.3685 0.0000 -7.8276 0.0000
# 2 26.5317 113.2887 37.0801 0.0000 -11.0942 0.0000
# 3 30.3685 37.0801 132.1381 0.0000 -4.8935 0.0000
# 4 0.0000 0.0000 0.0000 29.6947 0.0000 1.7176
# 5 -7.8276 -11.0942 -4.8935 0.0000 35.2327 0.0000
# 6 0.0000 0.0000 0.0000 1.7176 0.0000 20.1327
#
#
#
# Elastic Compliance Matrix: (Units=1/GPa)
#
#
# Indices 1 2 3 4 5 6 
#
# 1 0.016170 -0.002607 -0.002897 0.000000 0.002369 0.000000
# 2 -0.002607 0.010402 -0.002231 0.000000 0.002386 0.000000
# 3 -0.002897 -0.002231 0.008856 0.000000 -0.000116 0.000000
# 4 0.000000 0.000000 0.000000 0.033843 0.000000 -0.002887
# 5 0.002369 0.002386 -0.000116 0.000000 0.029644 0.000000
# 6 0.000000 0.000000 0.000000 -0.002887 0.000000 0.049917
#
#
# Mechanical properties :
#
#
# Convention : Reuss Voigt Hill
#
# Bulk Modulus (GPa) = 50.10825 56.23280 53.17052
# Shear Modulus (GPa) = 29.24767 31.95562 30.60164
#
# Velocity S-wave (km/s) = 3.72173 3.89021 3.80690
# Velocity P-wave (km/s) = 6.49607 6.84174 6.67114
#
# Compressibility (1/GPa) = 0.01995680
#
# Stress axis : x y z
#
# Youngs Moduli (GPa) = 61.84277 96.13990 112.92410
#
# Poissons Ratio (x) = 0.25061 0.32715
# Poissons Ratio (y) = 0.16121 0.25198
# Poissons Ratio (z) = 0.17916 0.21452
#
# Static dielectric constant tensor:
#      x y z
#    x 3.665360 0.000000 0.007280 
#    y 0.000000 3.851750 0.000000 
#    z 0.007280 0.000000 3.884920 
# 
# 
# High freq. dielectric constant tensor:
#      x y z
#    x 1.820760 0.000000 0.002600 
#    y 0.000000 1.813450 0.000000 
#    z 0.002600 0.000000 1.843660 
# 
# From -- ./inp_files/48957.got.cif
#   From: 2010.06.25/outbox.cif.g09.slc.cpg/sg15_25_cif.got.tgz:48957.got - 2010.06.28 07:06:18.
