data_PCOD8143334
_publ_section_title
;
Structure prediction by ZEFSAII (Michael W. Deem and Ramdas Pophale) SiO2 
 PCOD8143334
Probable space group: C 2/C
;
_chemical_formula_sum "Si O2"
_cell_formula_units_Z 60
_cell_length_a 8.830730
_cell_length_b 22.899404
_cell_length_c 14.592477
_cell_angle_alpha 90.000000
_cell_angle_beta 77.706700
_cell_angle_gamma 90.000000
_cell_volume 2883.206144
_symmetry_space_group_name_H-M "C 2/C"
_symmetry_group_IT_number 15
_symmetry_cell_setting 'monoclinic'
loop_
_space_group_symop_operation_xyz
x,y,z
-x,y,1/2-z
-x,-y,-z
x,-y,1/2+z
1/2+x,1/2+y,z
1/2-x,1/2+y,1/2-z
1/2-x,1/2-y,-z
1/2+x,1/2-y,1/2+z
loop_
_atom_site_type_symbol
_atom_site_label
_atom_site_fract_x
_atom_site_fract_y
_atom_site_fract_z
Si Si1 0.748845 0.659130 0.738636
Si Si2 0.721422 0.453596 0.009378
Si Si3 0.782518 0.584048 0.021141
Si Si4 0.015007 0.436470 0.650721
Si Si5 0.038490 0.848773 0.095964
Si Si6 0.500000 0.749481 0.250000
Si Si7 0.954084 0.434460 0.138328
Si Si8 0.613586 0.295808 0.544136
O O1 0.619485 0.642762 0.828264
O O2 0.675785 0.670246 0.647051
O O3 0.840930 0.716179 0.756010
O O4 0.872894 0.606555 0.723612
O O5 0.685756 0.522576 0.030174
O O6 0.572834 0.412535 0.046025
O O7 0.857143 0.435290 0.058911
O O8 0.803187 0.438519 0.901677
O O9 0.668541 0.637756 0.040363
O O10 0.897440 0.590960 0.092725
O O11 0.878130 0.589596 0.914011
O O12 0.000000 0.402154 0.750000
O O13 0.959115 0.501824 0.679377
O O14 0.014628 0.798044 0.021782
O O15 0.469292 0.714248 0.347798
O O16 0.750000 0.250000 0.500000
#
# Coordination Sequence:
#
# PCOD8143334 Si02
#       8
#     8   8   8   8   8   4   8   8
#     4  10  21  40  65  94 119 158 218 268 308 364
#     4   8  17  36  58  88 122 158 195 251 325 379
#     4   9  19  37  57  85 129 162 199 259 316 377
#     4   9  17  30  56  90 124 160 204 245 309 390
#     4  10  22  41  66  93 127 155 206 272 324 375
#     4  12  26  42  64  90 122 168 222 254 306 384
#     4   8  16  32  59  88 115 156 205 250 301 373
#     4  12  25  43  61  87 124 172 214 260 314 370
#
# _framework density 20.810168000000001
#
# number of rings (size 3 to 8) (size 9 to 14) (size 15 to 20)
#    0.000    2.400    1.333    2.400    0.933    3.200 
#    0.000    5.333    0.000    0.000    0.000    0.000 
#    0.000    0.000    0.000    0.000    0.000    0.000 
#
# Total GULP energy -371679.641772 kJ/mol
# GULP energy per Si atom -12389.321392 kJ/mol
# Density = 2.076280 g / cm^3
# Si number density = 20.810168 Si / 1000 Ang^3
#
#
#
# Elastic Constant Matrix: (Units=GPa)
#
#
# Indices 1 2 3 4 5 6 
#
# 1 80.6145 42.8990 39.7731 0.0000 -3.4701 0.0000
# 2 42.8990 90.0542 34.4188 0.0000 -11.2108 0.0000
# 3 39.7731 34.4188 138.3322 0.0000 -8.6186 0.0000
# 4 0.0000 0.0000 0.0000 205.4743 0.0000 -44.1768
# 5 -3.4701 -11.2108 -8.6186 0.0000 27.5882 0.0000
# 6 0.0000 0.0000 0.0000 -44.1768 0.0000 38.9236
#
#
#
# Elastic Compliance Matrix: (Units=1/GPa)
#
#
# Indices 1 2 3 4 5 6 
#
# 1 0.018006 -0.007498 -0.003427 0.000000 -0.001853 0.000000
# 2 -0.007498 0.015869 -0.001478 0.000000 0.005044 0.000000
# 3 -0.003427 -0.001478 0.008687 0.000000 0.001682 0.000000
# 4 0.000000 0.000000 0.000000 0.006438 0.000000 0.007307
# 5 -0.001853 0.005044 0.001682 0.000000 0.038589 0.000000
# 6 0.000000 0.000000 0.000000 0.007307 0.000000 0.033984
#
#
# Mechanical properties :
#
#
# Convention : Reuss Voigt Hill
#
# Bulk Modulus (GPa) = 56.32176 60.35363 58.33770
# Shear Modulus (GPa) = 32.83025 67.19122 50.01074
#
# Velocity S-wave (km/s) = 3.97622 5.68839 4.90755
# Velocity P-wave (km/s) = 6.94289 8.49757 7.75926
#
# Compressibility (1/GPa) = 0.01775513
#
# Stress axis : x y z
#
# Youngs Moduli (GPa) = 55.53734 63.01463 115.11647
#
# Poissons Ratio (x) = 0.47251 0.39448
# Poissons Ratio (y) = 0.41644 0.17018
# Poissons Ratio (z) = 0.19031 0.09316
#
# Static dielectric constant tensor:
#      x y z
#    x 2.885890 0.000000 0.089930 
#    y 0.000000 3.690110 0.000000 
#    z 0.089930 0.000000 4.115160 
# 
# 
# High freq. dielectric constant tensor:
#      x y z
#    x 1.812490 0.000000 0.008460 
#    y 0.000000 1.788130 0.000000 
#    z 0.008460 0.000000 1.833490 
# 
# From -- ./inp_files/137330.got.cif
#   From: 2010.06.25/outbox.cif.g09.slc.cpg/sg15_69_cif.got.tgz:137330.got - 2010.06.28 07:06:18.
