data_PCOD8143903
_publ_section_title
;
Structure prediction by ZEFSAII (Michael W. Deem and Ramdas Pophale) SiO2 
 PCOD8143903
Probable space group: C 2/C
;
_chemical_formula_sum "Si O2"
_cell_formula_units_Z 52
_cell_length_a 11.744863
_cell_length_b 26.788616
_cell_length_c 9.915058
_cell_angle_alpha 90.000000
_cell_angle_beta 129.466082
_cell_angle_gamma 90.000000
_cell_volume 2408.304243
_symmetry_space_group_name_H-M "C 2/C"
_symmetry_group_IT_number 15
_symmetry_cell_setting 'monoclinic'
loop_
_space_group_symop_operation_xyz
x,y,z
-x,y,1/2-z
-x,-y,-z
x,-y,1/2+z
1/2+x,1/2+y,z
1/2-x,1/2+y,1/2-z
1/2-x,1/2-y,-z
1/2+x,1/2-y,1/2+z
loop_
_atom_site_type_symbol
_atom_site_label
_atom_site_fract_x
_atom_site_fract_y
_atom_site_fract_z
Si Si1 0.715842 0.843279 0.896367
Si Si2 0.163435 0.496711 0.183244
Si Si3 0.500000 0.064434 0.750000
Si Si4 0.795615 0.397004 0.873370
Si Si5 0.000000 0.739139 0.250000
Si Si6 0.840234 0.909774 0.190679
Si Si7 0.041928 0.181029 0.574280
Si Si8 0.000000 0.847512 0.750000
O O1 0.656352 0.855958 0.701484
O O2 0.627666 0.798093 0.898974
O O3 0.714167 0.892112 0.990047
O O4 0.885109 0.828651 0.022987
O O5 0.233365 0.551726 0.231734
O O6 0.280564 0.461697 0.198929
O O7 0.136589 0.471469 0.309244
O O8 0.000000 0.500000 0.000000
O O9 0.431384 0.099201 0.580876
O O10 0.641631 0.382071 0.827504
O O11 0.919601 0.768635 0.313935
O O12 0.852441 0.866073 0.313910
O O13 0.000000 0.921334 0.250000
O O14 0.034654 0.187698 0.406229
#
# Coordination Sequence:
#
# PCOD8143903 Si02
#       8
#     8   8   4   8   4   8   8   4
#     4  10  23  38  64  96 125 162 227 270 329 392
#     4  10  23  37  63  90 133 176 219 267 331 399
#     4  10  22  41  53  88 132 176 213 267 340 388
#     4  10  23  40  62  92 130 175 216 273 333 399
#     4  12  22  39  71  92 126 175 226 275 342 400
#     4  10  21  41  66  96 132 170 224 280 333 392
#     4  10  21  43  64  95 127 167 212 285 333 402
#     4  10  22  44  64  92 134 163 219 282 336 400
#
# _framework density 21.591956
#
# number of rings (size 3 to 8) (size 9 to 14) (size 15 to 20)
#    0.000    1.846    2.308    1.385    9.692    0.000 
#    0.000    6.923    0.000    0.000    0.000    0.000 
#    0.000    0.000    0.000    0.000    0.000    0.000 
#
# Total GULP energy -322105.791626 kJ/mol
# GULP energy per Si atom -12388.684293 kJ/mol
# Density = 2.154281 g / cm^3
# Si number density = 21.591956 Si / 1000 Ang^3
#
#
#
# Elastic Constant Matrix: (Units=GPa)
#
#
# Indices 1 2 3 4 5 6 
#
# 1 83.9970 38.4243 25.6892 0.0000 -6.5748 0.0000
# 2 38.4243 97.0750 24.2380 0.0000 5.4210 0.0000
# 3 25.6892 24.2380 89.0282 0.0000 -8.3061 0.0000
# 4 0.0000 0.0000 0.0000 17.9411 0.0000 4.0243
# 5 -6.5748 5.4210 -8.3061 0.0000 29.1850 0.0000
# 6 0.0000 0.0000 0.0000 4.0243 0.0000 28.9640
#
#
#
# Elastic Compliance Matrix: (Units=1/GPa)
#
#
# Indices 1 2 3 4 5 6 
#
# 1 0.015631 -0.005757 -0.002583 0.000000 0.003855 0.000000
# 2 -0.005757 0.013433 -0.002414 0.000000 -0.004479 0.000000
# 3 -0.002583 -0.002414 0.012967 0.000000 0.003557 0.000000
# 4 0.000000 0.000000 0.000000 0.057531 0.000000 -0.007993
# 5 0.003855 -0.004479 0.003557 0.000000 0.036977 0.000000
# 6 0.000000 0.000000 0.000000 -0.007993 0.000000 0.035636
#
#
# Mechanical properties :
#
#
# Convention : Reuss Voigt Hill
#
# Bulk Modulus (GPa) = 48.72804 49.64481 49.18643
# Shear Modulus (GPa) = 24.93474 27.33459 26.13466
#
# Velocity S-wave (km/s) = 3.40195 3.56190 3.48284
# Velocity P-wave (km/s) = 6.16828 6.32126 6.24524
#
# Compressibility (1/GPa) = 0.02052206
#
# Stress axis : x y z
#
# Youngs Moduli (GPa) = 63.97687 74.44379 77.12038
#
# Poissons Ratio (x) = 0.42859 0.19921
# Poissons Ratio (y) = 0.36833 0.18615
# Poissons Ratio (z) = 0.16526 0.17969
#
# Static dielectric constant tensor:
#      x y z
#    x 4.070130 0.000000 -0.158340 
#    y 0.000000 3.988370 0.000000 
#    z -0.158340 0.000000 3.996510 
# 
# 
# High freq. dielectric constant tensor:
#      x y z
#    x 1.844820 0.000000 -0.002560 
#    y 0.000000 1.838340 0.000000 
#    z -0.002560 0.000000 1.846090 
# 
# From -- ./inp_files/91343.got.cif
#   From: 2010.06.25/outbox.cif.g09.slc.cpg/sg15_46_cif.got.tgz:91343.got - 2010.06.28 07:06:18.
