data_PCOD8143974
_publ_section_title
;
Structure prediction by ZEFSAII (Michael W. Deem and Ramdas Pophale) SiO2 
 PCOD8143974
Probable space group: C 2/C
;
_chemical_formula_sum "Si O2"
_cell_formula_units_Z 64
_cell_length_a 11.307873
_cell_length_b 16.884816
_cell_length_c 24.405940
_cell_angle_alpha 90.000000
_cell_angle_beta 139.359938
_cell_angle_gamma 90.000000
_cell_volume 3034.989364
_symmetry_space_group_name_H-M "C 2/C"
_symmetry_group_IT_number 15
_symmetry_cell_setting 'monoclinic'
loop_
_space_group_symop_operation_xyz
x,y,z
-x,y,1/2-z
-x,-y,-z
x,-y,1/2+z
1/2+x,1/2+y,z
1/2-x,1/2+y,1/2-z
1/2-x,1/2-y,-z
1/2+x,1/2-y,1/2+z
loop_
_atom_site_type_symbol
_atom_site_label
_atom_site_fract_x
_atom_site_fract_y
_atom_site_fract_z
Si Si1 0.784607 0.437949 0.940199
Si Si2 0.418626 0.859412 0.314616
Si Si3 0.390734 0.250579 0.155541
Si Si4 0.399115 0.378988 0.972047
Si Si5 0.107517 0.800406 0.133592
Si Si6 0.181626 0.403075 0.099644
Si Si7 0.122718 0.216196 0.345005
Si Si8 0.755290 0.044466 0.948629
O O1 0.736017 0.508720 0.880615
O O2 0.645510 0.366389 0.884105
O O3 0.774344 0.470911 0.997851
O O4 0.986477 0.403401 0.001231
O O5 0.264219 0.857634 0.213631
O O6 0.325466 0.878739 0.339339
O O7 0.522820 0.774821 0.352601
O O8 0.570813 0.924961 0.354845
O O9 0.500000 0.242086 0.250000
O O10 0.230199 0.186553 0.100447
O O11 0.527894 0.241081 0.152142
O O12 0.310248 0.338120 0.117460
O O13 0.294032 0.461668 0.933424
O O14 0.449524 0.354848 0.052149
O O15 0.584949 0.390895 0.003176
O O16 0.186401 0.749719 0.110572
O O17 0.000000 0.199465 0.250000
#
# Coordination Sequence:
#
# PCOD8143974 Si02
#       8
#     8   8   8   8   8   8   8   8
#     4  10  22  40  65  96 130 173 213 284 333 398
#     4  10  21  41  68  93 130 172 224 274 326 410
#     4  12  25  42  65  96 136 175 227 274 341 406
#     4  11  24  42  64 100 132 181 220 277 339 406
#     4  11  22  42  67  95 133 176 221 276 338 407
#     4  10  22  39  64  95 129 170 220 268 340 392
#     4  10  22  38  63  96 127 167 222 270 333 390
#     4  10  23  42  65  96 134 168 232 271 336 403
#
# _framework density 21.087388000000001
#
# number of rings (size 3 to 8) (size 9 to 14) (size 15 to 20)
#    0.000    1.500    2.500    1.875    1.750    4.500 
#    6.750    0.000    0.000    0.000    0.000    0.000 
#    0.000    0.000    0.000    0.000    0.000    0.000 
#
# Total GULP energy -396788.382273 kJ/mol
# GULP energy per Si atom -12399.636946 kJ/mol
# Density = 2.103939 g / cm^3
# Si number density = 21.087388 Si / 1000 Ang^3
#
#
#
# Elastic Constant Matrix: (Units=GPa)
#
#
# Indices 1 2 3 4 5 6 
#
# 1 82.0477 24.0524 25.8275 0.0000 -1.7246 0.0000
# 2 24.0524 110.6662 58.7572 0.0000 -2.4163 0.0000
# 3 25.8275 58.7572 93.7431 0.0000 5.7809 0.0000
# 4 0.0000 0.0000 0.0000 20.6387 0.0000 -1.0242
# 5 -1.7246 -2.4163 5.7809 0.0000 27.7636 0.0000
# 6 0.0000 0.0000 0.0000 -1.0242 0.0000 29.7368
#
#
#
# Elastic Compliance Matrix: (Units=1/GPa)
#
#
# Indices 1 2 3 4 5 6 
#
# 1 0.013545 -0.001332 -0.002980 0.000000 0.001346 0.000000
# 2 -0.001332 0.013923 -0.008539 0.000000 0.002907 0.000000
# 3 -0.002980 -0.008539 0.017117 0.000000 -0.004492 0.000000
# 4 0.000000 0.000000 0.000000 0.048536 0.000000 0.001672
# 5 0.001346 0.002907 -0.004492 0.000000 0.037290 0.000000
# 6 0.000000 0.000000 0.000000 0.001672 0.000000 0.033686
#
#
# Mechanical properties :
#
#
# Convention : Reuss Voigt Hill
#
# Bulk Modulus (GPa) = 52.95674 55.97013 54.46344
# Shear Modulus (GPa) = 25.49804 27.48249 26.49026
#
# Velocity S-wave (km/s) = 3.48107 3.61399 3.54816
# Velocity P-wave (km/s) = 6.42843 6.63432 6.53218
#
# Compressibility (1/GPa) = 0.01888334
#
# Stress axis : x y z
#
# Youngs Moduli (GPa) = 73.82867 71.82420 58.41987
#
# Poissons Ratio (x) = 0.09571 0.17407
# Poissons Ratio (y) = 0.09838 0.49884
# Poissons Ratio (z) = 0.21998 0.61330
#
# Static dielectric constant tensor:
#      x y z
#    x 3.882900 0.000000 0.208700 
#    y 0.000000 3.744700 0.000000 
#    z 0.208700 0.000000 3.707760 
# 
# 
# High freq. dielectric constant tensor:
#      x y z
#    x 1.834150 0.000000 0.008570 
#    y 0.000000 1.818260 0.000000 
#    z 0.008570 0.000000 1.820880 
# 
# From -- ./inp_files/293104.got.cif
#   From: 2010.06.25/outbox.cif.g09.slc.cpg/sg15_147_cif.got.tgz:293104.got - 2010.06.28 07:06:18.
