data_PCOD8143019
_publ_section_title
;
Structure prediction by ZEFSAII (Michael W. Deem and Ramdas Pophale) SiO2 
 PCOD8143019
Probable space group: C 2/C
;
_chemical_formula_sum "Si O2"
_cell_formula_units_Z 44
_cell_length_a 11.064102
_cell_length_b 15.478723
_cell_length_c 25.706653
_cell_angle_alpha 90.000000
_cell_angle_beta 149.142919
_cell_angle_gamma 90.000000
_cell_volume 2258.021834
_symmetry_space_group_name_H-M "C 2/C"
_symmetry_group_IT_number 15
_symmetry_cell_setting 'monoclinic'
loop_
_space_group_symop_operation_xyz
x,y,z
-x,y,1/2-z
-x,-y,-z
x,-y,1/2+z
1/2+x,1/2+y,z
1/2-x,1/2+y,1/2-z
1/2-x,1/2-y,-z
1/2+x,1/2-y,1/2+z
loop_
_atom_site_type_symbol
_atom_site_label
_atom_site_fract_x
_atom_site_fract_y
_atom_site_fract_z
Si Si1 0.394560 0.526783 0.883560
Si Si2 0.666379 0.618795 0.532526
Si Si3 0.367175 0.041328 0.816247
Si Si4 0.837779 0.743101 0.947338
Si Si5 0.500000 0.364800 0.250000
Si Si6 0.361287 0.876277 0.549253
O O1 0.296487 0.568654 0.899726
O O2 0.191924 0.525487 0.765856
O O3 0.476619 0.429344 0.925995
O O4 0.612282 0.582107 0.942152
O O5 0.569000 0.715342 0.505222
O O6 0.925569 0.613806 0.602047
O O7 0.138890 0.073504 0.762110
O O8 0.446420 0.949547 0.868982
O O9 0.684749 0.694140 0.848464
O O10 0.672263 0.816395 0.912189
O O11 0.943761 0.679727 0.030389
#
# Coordination Sequence:
#
# PCOD8143019 Si02
#       6
#     8   8   8   8   4   8
#     4   9  17  37  60  92 113 152 201 248 291 353
#     4   9  20  35  63  88 118 150 204 254 295 335
#     4  11  22  39  60  90 116 169 195 244 286 380
#     4  10  21  40  59  91 117 160 190 260 295 343
#     4  12  26  38  60  86 130 162 198 232 310 364
#     4   9  20  40  64  81 125 155 197 239 308 345
#
# _framework density 19.486082
#
# number of rings (size 3 to 8) (size 9 to 14) (size 15 to 20)
#    0.000    2.182    1.818    1.636    2.545    1.455 
#    0.000    1.818    0.000    0.000    0.000    0.000 
#    0.000    0.000    0.000    0.000    0.000    0.000 
#
# Total GULP energy -272783.748064 kJ/mol
# GULP energy per Si atom -12399.261276 kJ/mol
# Density = 1.944173 g / cm^3
# Si number density = 19.486082 Si / 1000 Ang^3
#
#
#
# Elastic Constant Matrix: (Units=GPa)
#
#
# Indices 1 2 3 4 5 6 
#
# 1 64.6517 29.0011 26.8658 0.0000 7.6072 0.0000
# 2 29.0011 86.4399 37.3479 -0.0001 1.7220 0.0001
# 3 26.8658 37.3479 97.3661 -0.0002 -6.4558 0.0004
# 4 0.0000 -0.0001 -0.0002 27.9304 0.0001 -1.3833
# 5 7.6072 1.7220 -6.4558 0.0001 27.1257 -0.0001
# 6 0.0000 0.0001 0.0004 -1.3833 -0.0001 32.6681
#
#
#
# Elastic Compliance Matrix: (Units=1/GPa)
#
#
# Indices 1 2 3 4 5 6 
#
# 1 0.020085 -0.004840 -0.004103 0.000000 -0.006302 0.000000
# 2 -0.004840 0.015162 -0.004525 0.000000 -0.000682 0.000000
# 3 -0.004103 -0.004525 0.013446 0.000000 0.004638 0.000000
# 4 0.000000 0.000000 0.000000 0.035879 0.000000 0.001519
# 5 -0.006302 -0.000682 0.004638 0.000000 0.039780 0.000000
# 6 0.000000 0.000000 0.000000 0.001519 0.000000 0.030675
#
#
# Mechanical properties :
#
#
# Convention : Reuss Voigt Hill
#
# Bulk Modulus (GPa) = 45.96618 48.32079 47.14349
# Shear Modulus (GPa) = 26.42480 27.89436 27.15958
#
# Velocity S-wave (km/s) = 3.68650 3.78762 3.73741
# Velocity P-wave (km/s) = 6.46226 6.63171 6.54753
#
# Compressibility (1/GPa) = 0.02175512
#
# Stress axis : x y z
#
# Youngs Moduli (GPa) = 49.78752 65.95636 74.37120
#
# Poissons Ratio (x) = 0.31925 0.30516
# Poissons Ratio (y) = 0.24099 0.33656
# Poissons Ratio (z) = 0.20429 0.29848
#
# Static dielectric constant tensor:
#      x y z
#    x 3.482550 0.000000 -0.019430 
#    y 0.000000 3.537750 0.000000 
#    z -0.019430 0.000000 3.393820 
# 
# 
# High freq. dielectric constant tensor:
#      x y z
#    x 1.753060 0.000000 -0.005970 
#    y 0.000000 1.752560 0.000000 
#    z -0.005970 0.000000 1.755240 
# 
# From -- ./inp_files/123246.got.cif
#   From: 2010.06.25/outbox.cif.g09.slc.cpg/sg15_62_cif.got.tgz:123246.got - 2010.06.28 07:06:18.
