data_PCOD8143099
_publ_section_title
;
Structure prediction by ZEFSAII (Michael W. Deem and Ramdas Pophale) SiO2 
 PCOD8143099
Probable space group: C 2/C
;
_chemical_formula_sum "Si O2"
_cell_formula_units_Z 64
_cell_length_a 14.972974
_cell_length_b 16.525650
_cell_length_c 15.233648
_cell_angle_alpha 90.000000
_cell_angle_beta 56.024633
_cell_angle_gamma 90.000000
_cell_volume 3125.867990
_symmetry_space_group_name_H-M "C 2/C"
_symmetry_group_IT_number 15
_symmetry_cell_setting 'monoclinic'
loop_
_space_group_symop_operation_xyz
x,y,z
-x,y,1/2-z
-x,-y,-z
x,-y,1/2+z
1/2+x,1/2+y,z
1/2-x,1/2+y,1/2-z
1/2-x,1/2-y,-z
1/2+x,1/2-y,1/2+z
loop_
_atom_site_type_symbol
_atom_site_label
_atom_site_fract_x
_atom_site_fract_y
_atom_site_fract_z
Si Si1 0.115942 0.246337 0.872563
Si Si2 0.444632 0.953663 0.196936
Si Si3 0.381637 0.315880 0.487845
Si Si4 0.640376 0.889947 0.981494
Si Si5 0.712055 0.691079 0.646976
Si Si6 0.730857 0.133197 0.609733
Si Si7 0.245487 0.488173 0.310411
Si Si8 0.374586 0.483543 0.579664
O O1 0.107297 0.336403 0.915674
O O2 0.150466 0.246561 0.751865
O O3 0.206265 0.206268 0.882659
O O4 0.005838 0.197233 0.942853
O O5 0.500000 0.000128 0.250000
O O6 0.380425 0.877509 0.274765
O O7 0.357527 0.008399 0.195131
O O8 0.531121 0.928801 0.077053
O O9 0.367057 0.325187 0.391224
O O10 0.317710 0.238020 0.557475
O O11 0.341731 0.397326 0.556854
O O12 0.727290 0.958722 0.906654
O O13 0.700463 0.842569 0.026894
O O14 0.747017 0.606580 0.671301
O O15 0.802105 0.051348 0.572267
O O16 0.350795 0.515414 0.197781
O O17 0.500000 0.500000 0.500000
#
# Coordination Sequence:
#
# PCOD8143099 Si02
#       8
#     8   8   8   8   8   8   8   8
#     4  12  22  40  63  86 128 158 206 252 315 367
#     4   9  19  37  61  86 117 157 197 246 312 361
#     4  11  24  39  65  93 122 166 207 253 310 375
#     4  11  23  37  62  95 118 162 211 256 306 374
#     4  11  23  42  62  91 129 162 204 256 314 368
#     4  10  21  40  62  87 125 161 203 254 313 365
#     4  11  21  40  63  89 126 163 206 261 303 365
#     4  11  20  40  65  90 123 168 210 255 309 369
#
# _framework density 20.474312999999999
#
# number of rings (size 3 to 8) (size 9 to 14) (size 15 to 20)
#    0.000    1.250    3.750    3.375    0.000    0.000 
#    0.000    5.625    0.000    0.000    0.000    0.000 
#    0.000    0.000    0.000    0.000    0.000    0.000 
#
# Total GULP energy -396730.871637 kJ/mol
# GULP energy per Si atom -12397.839739 kJ/mol
# Density = 2.042771 g / cm^3
# Si number density = 20.474313 Si / 1000 Ang^3
#
#
#
# Elastic Constant Matrix: (Units=GPa)
#
#
# Indices 1 2 3 4 5 6 
#
# 1 60.5597 5.1702 40.0720 0.0000 0.1833 0.0000
# 2 5.1702 61.0994 44.5118 0.0000 9.9717 0.0000
# 3 40.0720 44.5118 154.7157 0.0000 3.4388 0.0000
# 4 0.0000 0.0000 0.0000 25.8813 0.0000 5.9747
# 5 0.1833 9.9717 3.4388 0.0000 35.9903 0.0000
# 6 0.0000 0.0000 0.0000 5.9747 0.0000 27.0654
#
#
#
# Elastic Compliance Matrix: (Units=1/GPa)
#
#
# Indices 1 2 3 4 5 6 
#
# 1 0.020269 0.002721 -0.006026 0.000000 -0.000281 0.000000
# 2 0.002721 0.022082 -0.006936 0.000000 -0.005469 0.000000
# 3 -0.006026 -0.006936 0.009998 0.000000 0.000997 0.000000
# 4 0.000000 0.000000 0.000000 0.040713 0.000000 -0.008987
# 5 -0.000281 -0.005469 0.000997 0.000000 0.029207 0.000000
# 6 0.000000 0.000000 0.000000 -0.008987 0.000000 0.038931
#
#
# Mechanical properties :
#
#
# Convention : Reuss Voigt Hill
#
# Bulk Modulus (GPa) = 31.38177 50.65365 41.01771
# Shear Modulus (GPa) = 26.00042 30.22880 28.11461
#
# Velocity S-wave (km/s) = 3.56744 3.84660 3.70964
# Velocity P-wave (km/s) = 5.68590 6.67250 6.19886
#
# Compressibility (1/GPa) = 0.03186563
#
# Stress axis : x y z
#
# Youngs Moduli (GPa) = 49.33715 45.28507 100.02297
#
# Poissons Ratio (x) = -0.12322 0.60276
# Poissons Ratio (y) = -0.13425 0.69379
# Poissons Ratio (z) = 0.29732 0.31411
#
# Static dielectric constant tensor:
#      x y z
#    x 3.802650 0.000000 0.100080 
#    y 0.000000 3.462320 0.000000 
#    z 0.100080 0.000000 3.959140 
# 
# 
# High freq. dielectric constant tensor:
#      x y z
#    x 1.806520 0.000000 0.003730 
#    y 0.000000 1.780390 0.000000 
#    z 0.003730 0.000000 1.817780 
# 
# From -- ./inp_files/155479.got.cif
#   From: 2010.06.25/outbox.cif.g09.slc.cpg/sg15_78_cif.got.tgz:155479.got - 2010.06.28 07:06:18.
