data_PCOD8143636
_publ_section_title
;
Structure prediction by ZEFSAII (Michael W. Deem and Ramdas Pophale) SiO2 
 PCOD8143636
Probable space group: C 2/C
;
_chemical_formula_sum "Si O2"
_cell_formula_units_Z 52
_cell_length_a 8.102394
_cell_length_b 12.006116
_cell_length_c 27.620813
_cell_angle_alpha 90.000000
_cell_angle_beta 99.343104
_cell_angle_gamma 90.000000
_cell_volume 2651.260386
_symmetry_space_group_name_H-M "C 2/C"
_symmetry_group_IT_number 15
_symmetry_cell_setting 'monoclinic'
loop_
_space_group_symop_operation_xyz
x,y,z
-x,y,1/2-z
-x,-y,-z
x,-y,1/2+z
1/2+x,1/2+y,z
1/2-x,1/2+y,1/2-z
1/2-x,1/2-y,-z
1/2+x,1/2-y,1/2+z
loop_
_atom_site_type_symbol
_atom_site_label
_atom_site_fract_x
_atom_site_fract_y
_atom_site_fract_z
Si Si1 0.108402 0.005737 0.553272
Si Si2 0.251404 0.240145 0.330342
Si Si3 0.854401 0.485262 0.331809
Si Si4 0.794024 0.236690 0.446455
Si Si5 0.060356 0.121640 0.871229
Si Si6 0.411008 0.850625 0.090116
Si Si7 0.500000 0.144909 0.750000
O O1 0.201201 0.891336 0.567145
O O2 0.247672 0.102349 0.555111
O O3 0.000000 0.000000 0.500000
O O4 0.989712 0.025327 0.593545
O O5 0.400392 0.329351 0.336604
O O6 0.144665 0.254414 0.374741
O O7 0.133790 0.271161 0.279805
O O8 0.328648 0.117620 0.328558
O O9 0.678032 0.429197 0.335976
O O10 0.910999 0.438085 0.283071
O O11 0.993170 0.451818 0.378312
O O12 0.750000 0.250000 0.500000
O O13 0.648812 0.281912 0.405727
O O14 0.970638 0.297020 0.444842
#
# Coordination Sequence:
#
# PCOD8143636 Si02
#       7
#     8   8   8   8   8   8   4
#     4  11  21  37  55  84 116 154 201 241 278 338
#     4  10  21  41  62  85 117 151 187 237 297 347
#     4  10  21  41  62  85 117 151 187 237 297 347
#     4  11  21  37  55  84 116 154 201 241 278 338
#     4  10  22  39  58  84 116 156 194 231 290 345
#     4   9  22  39  58  84 120 156 192 241 292 342
#     4  10  24  38  60  94 112 138 196 236 284 362
#
# _framework density 19.613313000000002
#
# number of rings (size 3 to 8) (size 9 to 14) (size 15 to 20)
#    0.000    1.846    1.538    1.846    0.000    4.308 
#    2.769    3.077    0.000    0.000    0.000    0.000 
#    0.000    0.000    0.000    0.000    0.000    0.000 
#
# Total GULP energy -322468.443360 kJ/mol
# GULP energy per Si atom -12402.632437 kJ/mol
# Density = 1.956867 g / cm^3
# Si number density = 19.613313 Si / 1000 Ang^3
#
#
#
# Elastic Constant Matrix: (Units=GPa)
#
#
# Indices 1 2 3 4 5 6 
#
# 1 94.1456 3.7861 38.8850 0.0000 -19.6835 0.0000
# 2 3.7861 81.2360 21.1773 0.0000 -18.8309 0.0000
# 3 38.8850 21.1773 86.9659 0.0000 -15.0584 0.0000
# 4 0.0000 0.0000 0.0000 13.2758 0.0000 -9.2448
# 5 -19.6835 -18.8309 -15.0584 0.0000 40.6091 0.0000
# 6 0.0000 0.0000 0.0000 -9.2448 0.0000 33.0363
#
#
#
# Elastic Compliance Matrix: (Units=1/GPa)
#
#
# Indices 1 2 3 4 5 6 
#
# 1 0.014151 0.002193 -0.005875 0.000000 0.005698 0.000000
# 2 0.002193 0.014620 -0.003401 0.000000 0.006581 0.000000
# 3 -0.005875 -0.003401 0.015161 0.000000 0.001197 0.000000
# 4 0.000000 0.000000 0.000000 0.093556 0.000000 0.026180
# 5 0.005698 0.006581 0.001197 0.000000 0.030882 0.000000
# 6 0.000000 0.000000 0.000000 0.026180 0.000000 0.037596
#
#
# Mechanical properties :
#
#
# Convention : Reuss Voigt Hill
#
# Bulk Modulus (GPa) = 33.59559 43.33825 38.46692
# Shear Modulus (GPa) = 21.73393 30.61752 26.17573
#
# Velocity S-wave (km/s) = 3.33246 3.95531 3.65717
# Velocity P-wave (km/s) = 5.65448 6.55771 6.12278
#
# Compressibility (1/GPa) = 0.02976581
#
# Stress axis : x y z
#
# Youngs Moduli (GPa) = 70.66446 68.40077 65.95834
#
# Poissons Ratio (x) = -0.14998 0.38750
# Poissons Ratio (y) = -0.15495 0.22432
# Poissons Ratio (z) = 0.41515 0.23263
#
# Static dielectric constant tensor:
#      x y z
#    x 3.805280 0.000000 -0.085860 
#    y 0.000000 3.585280 0.000000 
#    z -0.085860 0.000000 3.452760 
# 
# 
# High freq. dielectric constant tensor:
#      x y z
#    x 1.784020 0.000000 -0.001330 
#    y 0.000000 1.766630 0.000000 
#    z -0.001330 0.000000 1.757350 
# 
# From -- ./inp_files/287635.got.cif
#   From: 2010.06.25/outbox.cif.g09.slc.cpg/sg15_144_cif.got.tgz:287635.got - 2010.06.28 07:06:18.
