data_PCOD8143246
_publ_section_title
;
Structure prediction by ZEFSAII (Michael W. Deem and Ramdas Pophale) SiO2 
 PCOD8143246
Probable space group: C 2/C
;
_chemical_formula_sum "Si O2"
_cell_formula_units_Z 44
_cell_length_a 11.709844
_cell_length_b 5.023241
_cell_length_c 24.654074
_cell_angle_alpha 90.000000
_cell_angle_beta 85.193089
_cell_angle_gamma 90.000000
_cell_volume 1445.085716
_symmetry_space_group_name_H-M "C 2/C"
_symmetry_group_IT_number 15
_symmetry_cell_setting 'monoclinic'
loop_
_space_group_symop_operation_xyz
x,y,z
-x,y,1/2-z
-x,-y,-z
x,-y,1/2+z
1/2+x,1/2+y,z
1/2-x,1/2+y,1/2-z
1/2-x,1/2-y,-z
1/2+x,1/2-y,1/2+z
loop_
_atom_site_type_symbol
_atom_site_label
_atom_site_fract_x
_atom_site_fract_y
_atom_site_fract_z
Si Si1 0.301000 0.630852 0.728534
Si Si2 0.495876 0.848879 0.368416
Si Si3 0.500000 0.967337 0.250000
Si Si4 0.636294 0.672060 0.573799
Si Si5 0.619063 0.403721 0.954907
Si Si6 0.209021 0.682477 0.382911
O O1 0.308631 0.330212 0.752909
O O2 0.396391 0.824860 0.748805
O O3 0.298068 0.591218 0.663492
O O4 0.511960 0.615266 0.414517
O O5 0.480507 0.784183 0.304984
O O6 0.408671 0.077525 0.391780
O O7 0.626425 0.952031 0.366312
O O8 0.571465 0.631387 0.518403
O O9 0.654711 0.412619 0.614708
O O10 0.774276 0.697377 0.556322
O O11 0.668465 0.697144 0.942273
#
# Coordination Sequence:
#
# PCOD8143246 Si02
#       6
#     8   8   4   8   8   8
#     4  11  26  45  71 101 141 189 236 297 362 429
#     4  10  22  40  61  93 132 174 229 292 352 429
#     4  10  24  44  66 102 138 182 242 288 362 432
#     4  10  21  40  64  92 131 178 223 283 366 422
#     4  10  22  39  63  96 129 172 230 291 345 436
#     4  10  23  39  62  92 134 168 235 289 353 432
#
# _framework density 30.448021000000001
#
# number of rings (size 3 to 8) (size 9 to 14) (size 15 to 20)
#    0.000    1.818    0.000    2.182   10.182    2.909 
#    3.273    0.000    0.000    0.000    0.000    0.000 
#    0.000    0.000    0.000    0.000    0.000    0.000 
#
# Total GULP energy -272636.202106 kJ/mol
# GULP energy per Si atom -12392.554641 kJ/mol
# Density = 3.037872 g / cm^3
# Si number density = 30.448021 Si / 1000 Ang^3
#
#
#
# Elastic Constant Matrix: (Units=GPa)
#
#
# Indices 1 2 3 4 5 6 
#
# 1 101.3458 -9.8526 55.6971 0.0000 23.7724 0.0000
# 2 -9.8526 132.3923 62.5414 0.0000 -2.5539 0.0000
# 3 55.6971 62.5414 255.6383 0.0000 5.0257 0.0000
# 4 0.0000 0.0000 0.0000 54.7640 0.0000 2.9464
# 5 23.7724 -2.5539 5.0257 0.0000 46.4444 0.0000
# 6 0.0000 0.0000 0.0000 2.9464 0.0000 31.1616
#
#
#
# Elastic Compliance Matrix: (Units=1/GPa)
#
#
# Indices 1 2 3 4 5 6 
#
# 1 0.013494 0.002499 -0.003425 0.000000 -0.006399 0.000000
# 2 0.002499 0.009026 -0.002743 0.000000 -0.000486 0.000000
# 3 -0.003425 -0.002743 0.005309 0.000000 0.001028 0.000000
# 4 0.000000 0.000000 0.000000 0.018354 0.000000 -0.001735
# 5 -0.006399 -0.000486 0.001028 0.000000 0.024668 0.000000
# 6 0.000000 0.000000 0.000000 -0.001735 0.000000 0.032255
#
#
# Mechanical properties :
#
#
# Convention : Reuss Voigt Hill
#
# Bulk Modulus (GPa) = 48.80637 78.46092 63.63364
# Shear Modulus (GPa) = 42.63528 51.87336 47.25432
#
# Velocity S-wave (km/s) = 3.74607 4.13203 3.94378
# Velocity P-wave (km/s) = 5.89703 6.97063 6.45618
#
# Compressibility (1/GPa) = 0.02048913
#
# Stress axis : x y z
#
# Youngs Moduli (GPa) = 74.10922 110.79484 188.36066
#
# Poissons Ratio (x) = -0.27687 0.64523
# Poissons Ratio (y) = -0.18519 0.51668
# Poissons Ratio (z) = 0.25386 0.30391
#
# Static dielectric constant tensor:
#      x y z
#    x 6.873500 0.000000 0.181910 
#    y 0.000000 5.410000 0.000000 
#    z 0.181910 0.000000 6.270970 
# 
# 
# High freq. dielectric constant tensor:
#      x y z
#    x 2.323060 0.000000 0.014530 
#    y 0.000000 2.243610 0.000000 
#    z 0.014530 0.000000 2.258050 
# 
# From -- ./inp_files/294266.got.cif
#   From: 2010.06.25/outbox.cif.g09.slc.cpg/sg15_148_cif.got.tgz:294266.got - 2010.06.28 07:06:18.
