data_PCOD8143155
_publ_section_title
;
Structure prediction by ZEFSAII (Michael W. Deem and Ramdas Pophale) SiO2 
 PCOD8143155
Probable space group: C 2/C
;
_chemical_formula_sum "Si O2"
_cell_formula_units_Z 32
_cell_length_a 17.186900
_cell_length_b 9.376493
_cell_length_c 27.732335
_cell_angle_alpha 90.000000
_cell_angle_beta 160.003816
_cell_angle_gamma 90.000000
_cell_volume 1528.257824
_symmetry_space_group_name_H-M "C 2/C"
_symmetry_group_IT_number 15
_symmetry_cell_setting 'monoclinic'
loop_
_space_group_symop_operation_xyz
x,y,z
-x,y,1/2-z
-x,-y,-z
x,-y,1/2+z
1/2+x,1/2+y,z
1/2-x,1/2+y,1/2-z
1/2-x,1/2-y,-z
1/2+x,1/2-y,1/2+z
loop_
_atom_site_type_symbol
_atom_site_label
_atom_site_fract_x
_atom_site_fract_y
_atom_site_fract_z
Si Si1 0.710951 0.519695 0.505623
Si Si2 0.000000 0.371994 0.750000
Si Si3 0.500000 0.596144 0.250000
Si Si4 0.137197 0.866592 0.257597
Si Si5 0.929583 0.685620 0.552918
O O1 0.574578 0.387374 0.402402
O O2 0.914002 0.574108 0.588427
O O3 0.532335 0.651166 0.408062
O O4 0.808378 0.470171 0.613788
O O5 0.111694 0.279015 0.772547
O O6 0.645794 0.498931 0.298720
O O7 0.683330 0.693064 0.383599
O O8 0.371571 0.865676 0.365514
#
# Coordination Sequence:
#
# PCOD8143155 Si02
#       5
#     8   4   4   8   8
#     4  10  23  41  60  90 125 154 205 251 295 360
#     4  11  23  42  62  92 121 157 204 250 298 363
#     4   9  19  40  62  92 123 153 206 244 298 361
#     4  10  22  39  62  91 122 162 195 249 306 354
#     4  10  21  40  63  90 120 163 196 252 300 351
#
# _framework density 20.938876
#
# number of rings (size 3 to 8) (size 9 to 14) (size 15 to 20)
#    0.000    2.000    0.000    2.250    3.500    1.000 
#   13.500    0.000    0.000    0.000    0.000    0.000 
#    0.000    0.000    0.000    0.000    0.000    0.000 
#
# Total GULP energy -198402.061199 kJ/mol
# GULP energy per Si atom -12400.128825 kJ/mol
# Density = 2.089122 g / cm^3
# Si number density = 20.938876 Si / 1000 Ang^3
#
#
#
# Elastic Constant Matrix: (Units=GPa)
#
#
# Indices 1 2 3 4 5 6 
#
# 1 137.5748 50.5469 62.4812 -0.0098 13.5615 0.0051
# 2 50.5469 86.0979 46.5733 -0.0058 1.3897 0.0076
# 3 62.4812 46.5733 83.5702 0.0636 -9.3794 0.0031
# 4 -0.0098 -0.0058 0.0636 20.1389 0.0114 -13.7752
# 5 13.5615 1.3897 -9.3794 0.0114 53.3563 -0.0093
# 6 0.0051 0.0076 0.0031 -13.7752 -0.0093 29.1775
#
#
#
# Elastic Compliance Matrix: (Units=1/GPa)
#
#
# Indices 1 2 3 4 5 6 
#
# 1 0.012521 -0.002771 -0.008331 0.000048 -0.004575 0.000021
# 2 -0.002771 0.017475 -0.007793 0.000039 -0.001121 0.000015
# 3 -0.008331 -0.007793 0.023257 -0.000120 0.006409 -0.000054
# 4 0.000048 0.000039 -0.000120 0.073339 -0.000044 0.034624
# 5 -0.004575 -0.001121 0.006409 -0.000044 0.021060 -0.000014
# 6 0.000021 0.000015 -0.000054 0.034624 -0.000014 0.050620
#
#
# Mechanical properties :
#
#
# Convention : Reuss Voigt Hill
#
# Bulk Modulus (GPa) = 64.66670 69.60508 67.13589
# Shear Modulus (GPa) = 20.72829 30.37733 25.55281
#
# Velocity S-wave (km/s) = 3.14975 3.81302 3.49714
# Velocity P-wave (km/s) = 6.64669 7.25946 6.95982
#
# Compressibility (1/GPa) = 0.01546391
#
# Stress axis : x y z
#
# Youngs Moduli (GPa) = 79.86363 57.22477 42.99791
#
# Poissons Ratio (x) = 0.15856 0.35821
# Poissons Ratio (y) = 0.22128 0.33508
# Poissons Ratio (z) = 0.66534 0.44595
#
# Static dielectric constant tensor:
#      x y z
#    x 3.921920 0.000020 -0.238800 
#    y 0.000020 3.724970 -0.000110 
#    z -0.238800 -0.000110 3.463980 
# 
# 
# High freq. dielectric constant tensor:
#      x y z
#    x 1.831660 0.000000 -0.014450 
#    y 0.000000 1.825000 -0.000010 
#    z -0.014450 -0.000010 1.798070 
# 
# From -- ./inp_files/68941.got.cif
#   From: 2010.06.25/outbox.cif.g09.slc.cpg/sg15_35_cif.got.tgz:68941.got - 2010.06.28 07:06:18.
