data_PCOD8143713
_publ_section_title
;
Structure prediction by ZEFSAII (Michael W. Deem and Ramdas Pophale) SiO2 
 PCOD8143713
Probable space group: C 2/C
;
_chemical_formula_sum "Si O2"
_cell_formula_units_Z 44
_cell_length_a 6.336174
_cell_length_b 23.064432
_cell_length_c 15.372004
_cell_angle_alpha 90.000000
_cell_angle_beta 120.174666
_cell_angle_gamma 90.000000
_cell_volume 1942.065644
_symmetry_space_group_name_H-M "C 2/C"
_symmetry_group_IT_number 15
_symmetry_cell_setting 'monoclinic'
loop_
_space_group_symop_operation_xyz
x,y,z
-x,y,1/2-z
-x,-y,-z
x,-y,1/2+z
1/2+x,1/2+y,z
1/2-x,1/2+y,1/2-z
1/2-x,1/2-y,-z
1/2+x,1/2-y,1/2+z
loop_
_atom_site_type_symbol
_atom_site_label
_atom_site_fract_x
_atom_site_fract_y
_atom_site_fract_z
Si Si1 0.550314 0.753470 0.857440
Si Si2 0.257207 0.508995 0.832594
Si Si3 0.179651 0.076989 0.000392
Si Si4 0.962519 0.192124 0.003654
Si Si5 0.637101 0.853315 0.574249
Si Si6 0.000000 0.071096 0.250000
O O1 0.500000 0.734077 0.750000
O O2 0.423696 0.704854 0.892869
O O3 0.439511 0.816260 0.857309
O O4 0.843996 0.758102 0.927666
O O5 0.478792 0.554817 0.888899
O O6 0.307211 0.466717 0.762703
O O7 0.000000 0.538931 0.750000
O O8 0.229721 0.474831 0.918456
O O9 0.059841 0.126716 0.034733
O O10 0.413228 0.104963 0.997811
O O11 0.718857 0.191888 0.013781
O O12 0.865254 0.891019 0.649935
#
# Coordination Sequence:
#
# PCOD8143713 Si02
#       6
#     8   8   8   8   8   4
#     4  10  22  38  64  95 133 174 222 270 325 402
#     4  11  23  41  62  95 128 171 225 281 327 399
#     4  10  23  40  64  89 133 172 217 277 338 393
#     4  10  21  41  63  93 131 174 218 274 335 390
#     4  11  21  36  65  96 129 175 222 277 330 389
#     4  12  22  34  64  96 122 168 234 270 326 386
#
# _framework density 22.656289999999998
#
# number of rings (size 3 to 8) (size 9 to 14) (size 15 to 20)
#    0.000    1.455    3.636    1.636    2.545    2.182 
#    1.636    0.000   10.000    0.000    0.000    0.000 
#    0.000    0.000    0.000    0.000    0.000    0.000 
#
# Total GULP energy -272694.557326 kJ/mol
# GULP energy per Si atom -12395.207151 kJ/mol
# Density = 2.260472 g / cm^3
# Si number density = 22.656290 Si / 1000 Ang^3
#
#
#
# Elastic Constant Matrix: (Units=GPa)
#
#
# Indices 1 2 3 4 5 6 
#
# 1 146.9303 38.7306 72.5475 0.0000 -0.8218 0.0000
# 2 38.7306 47.0601 32.4410 0.0000 1.7421 0.0000
# 3 72.5475 32.4410 141.0661 0.0000 0.8162 0.0000
# 4 0.0000 0.0000 0.0000 24.6819 0.0000 1.8470
# 5 -0.8218 1.7421 0.8162 0.0000 40.5691 0.0000
# 6 0.0000 0.0000 0.0000 1.8470 0.0000 38.7435
#
#
#
# Elastic Compliance Matrix: (Units=1/GPa)
#
#
# Indices 1 2 3 4 5 6 
#
# 1 0.010284 -0.005747 -0.003970 0.000000 0.000535 0.000000
# 2 -0.005747 0.028502 -0.003592 0.000000 -0.001268 0.000000
# 3 -0.003970 -0.003592 0.009958 0.000000 -0.000127 0.000000
# 4 0.000000 0.000000 0.000000 0.040661 0.000000 -0.001938
# 5 0.000535 -0.001268 -0.000127 0.000000 0.024717 0.000000
# 6 0.000000 0.000000 0.000000 -0.001938 0.000000 0.025903
#
#
# Mechanical properties :
#
#
# Convention : Reuss Voigt Hill
#
# Bulk Modulus (GPa) = 45.19634 69.16607 57.18121
# Shear Modulus (GPa) = 28.73268 33.55473 31.14371
#
# Velocity S-wave (km/s) = 3.56504 3.85260 3.71160
# Velocity P-wave (km/s) = 6.07767 7.09822 6.60767
#
# Compressibility (1/GPa) = 0.02212568
#
# Stress axis : x y z
#
# Youngs Moduli (GPa) = 97.23654 35.08530 100.42597
#
# Poissons Ratio (x) = 0.20162 0.39874
# Poissons Ratio (y) = 0.55878 0.36072
# Poissons Ratio (z) = 0.38608 0.12602
#
# Static dielectric constant tensor:
#      x y z
#    x 4.156770 0.000000 0.105990 
#    y 0.000000 4.022240 0.000000 
#    z 0.105990 0.000000 3.824880 
# 
# 
# High freq. dielectric constant tensor:
#      x y z
#    x 1.905470 0.000000 0.004980 
#    y 0.000000 1.886290 0.000000 
#    z 0.004980 0.000000 1.870140 
# 
# From -- ./inp_files/130128.got.cif
#   From: 2010.06.25/outbox.cif.g09.slc.cpg/sg15_66_cif.got.tgz:130128.got - 2010.06.28 07:06:18.
