data_PCOD8143934
_publ_section_title
;
Structure prediction by ZEFSAII (Michael W. Deem and Ramdas Pophale) SiO2 
 PCOD8143934
Probable space group: C 2/C
;
_chemical_formula_sum "Si O2"
_cell_formula_units_Z 56
_cell_length_a 27.630146
_cell_length_b 17.450335
_cell_length_c 10.850306
_cell_angle_alpha 90.000000
_cell_angle_beta 32.277618
_cell_angle_gamma 90.000000
_cell_volume 2793.754101
_symmetry_space_group_name_H-M "C 2/C"
_symmetry_group_IT_number 15
_symmetry_cell_setting 'monoclinic'
loop_
_space_group_symop_operation_xyz
x,y,z
-x,y,1/2-z
-x,-y,-z
x,-y,1/2+z
1/2+x,1/2+y,z
1/2-x,1/2+y,1/2-z
1/2-x,1/2-y,-z
1/2+x,1/2-y,1/2+z
loop_
_atom_site_type_symbol
_atom_site_label
_atom_site_fract_x
_atom_site_fract_y
_atom_site_fract_z
Si Si1 0.500000 0.995813 0.750000
Si Si2 0.636188 0.187415 0.798505
Si Si3 0.646922 0.374531 0.424968
Si Si4 0.000000 0.249619 0.250000
Si Si5 0.553877 0.515075 0.510809
Si Si6 0.159980 0.145974 0.173449
Si Si7 0.858620 0.373760 0.959996
Si Si8 0.486988 0.125642 0.972847
O O1 0.526998 0.048388 0.574582
O O2 0.410176 0.949246 0.901996
O O3 0.733108 0.157884 0.543462
O O4 0.612524 0.271749 0.798039
O O5 0.628750 0.192043 0.963456
O O6 0.566849 0.120904 0.902982
O O7 0.591592 0.296420 0.518541
O O8 0.603882 0.436550 0.429569
O O9 0.632687 0.389835 0.600465
O O10 0.752037 0.378401 0.165953
O O11 0.020747 0.303661 0.319752
O O12 0.500000 0.537793 0.750000
O O13 0.500000 0.500000 0.500000
O O14 0.625551 0.584215 0.345326
O O15 0.896649 0.353023 0.743561
#
# Coordination Sequence:
#
# PCOD8143934 Si02
#       8
#     4   8   8   4   8   8   8   8
#     4  11  24  40  62  93 130 172 204 269 336 388
#     4  10  21  41  67  91 127 172 209 269 327 378
#     4  11  23  43  66  90 134 175 209 275 334 385
#     4  11  22  44  66  83 128 176 210 263 338 392
#     4  12  24  43  66  98 130 179 223 272 338 385
#     4  10  22  41  65  94 129 170 222 262 324 403
#     4  11  24  40  64  98 129 163 222 275 319 394
#     4  11  23  40  65  92 125 169 216 263 331 386
#
# _framework density 20.044715
#
# number of rings (size 3 to 8) (size 9 to 14) (size 15 to 20)
#    0.000    1.143    5.000    0.429    2.000    2.857 
#    0.000    0.000    0.000    0.000    0.000    0.000 
#    0.000    0.000    0.000    0.000    0.000    0.000 
#
# Total GULP energy -346943.330097 kJ/mol
# GULP energy per Si atom -12390.833218 kJ/mol
# Density = 1.999909 g / cm^3
# Si number density = 20.044715 Si / 1000 Ang^3
#
#
#
# Elastic Constant Matrix: (Units=GPa)
#
#
# Indices 1 2 3 4 5 6 
#
# 1 88.1078 37.6354 44.0993 0.0000 5.3428 0.0000
# 2 37.6354 99.6285 45.3582 0.0000 -3.9510 0.0000
# 3 44.0993 45.3582 115.8499 0.0000 6.3861 0.0000
# 4 0.0000 0.0000 0.0000 14.5806 0.0000 -9.1689
# 5 5.3428 -3.9510 6.3861 0.0000 35.3610 0.0000
# 6 0.0000 0.0000 0.0000 -9.1689 0.0000 18.1893
#
#
#
# Elastic Compliance Matrix: (Units=1/GPa)
#
#
# Indices 1 2 3 4 5 6 
#
# 1 0.015230 -0.003946 -0.004142 0.000000 -0.001994 0.000000
# 2 -0.003946 0.013417 -0.003905 0.000000 0.002801 0.000000
# 3 -0.004142 -0.003905 0.011845 0.000000 -0.001950 0.000000
# 4 0.000000 0.000000 0.000000 0.100415 0.000000 0.050617
# 5 -0.001994 0.002801 -0.001950 0.000000 0.029246 0.000000
# 6 0.000000 0.000000 0.000000 0.050617 0.000000 0.080493
#
#
# Mechanical properties :
#
#
# Convention : Reuss Voigt Hill
#
# Bulk Modulus (GPa) = 60.59127 61.97467 61.28297
# Shear Modulus (GPa) = 17.84857 25.39239 21.62048
#
# Velocity S-wave (km/s) = 2.98726 3.56306 3.28779
# Velocity P-wave (km/s) = 6.49553 6.92189 6.71210
#
# Compressibility (1/GPa) = 0.01650403
#
# Stress axis : x y z
#
# Youngs Moduli (GPa) = 65.66166 74.53182 84.42250
#
# Poissons Ratio (x) = 0.29412 0.34970
# Poissons Ratio (y) = 0.25912 0.32970
# Poissons Ratio (z) = 0.27199 0.29107
#
# Static dielectric constant tensor:
#      x y z
#    x 3.783830 0.000000 0.154330 
#    y 0.000000 3.650440 0.000000 
#    z 0.154330 0.000000 3.973160 
# 
# 
# High freq. dielectric constant tensor:
#      x y z
#    x 1.795360 0.000000 0.004710 
#    y 0.000000 1.775820 0.000000 
#    z 0.004710 0.000000 1.786640 
# 
# From -- ./inp_files/127010.got.cif
#   From: 2010.06.25/outbox.cif.g09.slc.cpg/sg15_64_cif.got.tgz:127010.got - 2010.06.28 07:06:18.
