data_PCOD8143762
_publ_section_title
;
Structure prediction by ZEFSAII (Michael W. Deem and Ramdas Pophale) SiO2 
 PCOD8143762
Probable space group: C 2/C
;
_chemical_formula_sum "Si O2"
_cell_formula_units_Z 56
_cell_length_a 13.530039
_cell_length_b 14.108467
_cell_length_c 14.722204
_cell_angle_alpha 90.000000
_cell_angle_beta 80.013857
_cell_angle_gamma 90.000000
_cell_volume 2767.716945
_symmetry_space_group_name_H-M "C 2/C"
_symmetry_group_IT_number 15
_symmetry_cell_setting 'monoclinic'
loop_
_space_group_symop_operation_xyz
x,y,z
-x,y,1/2-z
-x,-y,-z
x,-y,1/2+z
1/2+x,1/2+y,z
1/2-x,1/2+y,1/2-z
1/2-x,1/2-y,-z
1/2+x,1/2-y,1/2+z
loop_
_atom_site_type_symbol
_atom_site_label
_atom_site_fract_x
_atom_site_fract_y
_atom_site_fract_z
Si Si1 0.798280 0.946390 0.439009
Si Si2 0.870894 0.141865 0.464302
Si Si3 0.197472 0.324196 0.119727
Si Si4 0.085575 0.676702 0.164701
Si Si5 0.911985 0.208875 0.019208
Si Si6 0.407382 0.995043 0.446250
Si Si7 0.734565 0.797375 0.319027
O O1 0.837277 0.878389 0.513105
O O2 0.686832 0.978601 0.478008
O O3 0.797487 0.887720 0.345463
O O4 0.869080 0.038328 0.417731
O O5 0.818386 0.215830 0.405716
O O6 0.806879 0.139760 0.568281
O O7 0.985191 0.167922 0.460236
O O8 0.108724 0.389611 0.092162
O O9 0.193183 0.326558 0.228383
O O10 0.082026 0.565434 0.141234
O O11 0.191562 0.706279 0.193447
O O12 0.000000 0.702018 0.250000
O O13 0.065787 0.733042 0.075133
O O14 0.860487 0.277264 0.100977
O O15 0.500000 0.000000 0.500000
#
# Coordination Sequence:
#
# PCOD8143762 Si02
#       7
#     8   8   8   8   8   8   8
#     4  10  21  41  64  91 124 167 206 260 315 385
#     4  10  22  42  63  90 128 163 212 257 319 373
#     4  10  24  40  63  93 127 167 210 262 316 379
#     4  11  22  39  64  93 124 167 214 255 320 382
#     4  11  20  41  68  91 126 167 207 265 321 378
#     4  11  22  40  62  92 124 167 213 258 319 376
#     4  11  22  40  66  92 130 162 210 267 319 381
#
# _framework density 20.233283
#
# number of rings (size 3 to 8) (size 9 to 14) (size 15 to 20)
#    0.000    1.429    2.857    3.000    0.000    5.143 
#    0.000    0.000    9.429    0.000    0.000    0.000 
#    0.000    0.000    0.000    0.000    0.000    0.000 
#
# Total GULP energy -347264.284258 kJ/mol
# GULP energy per Si atom -12402.295866 kJ/mol
# Density = 2.018723 g / cm^3
# Si number density = 20.233283 Si / 1000 Ang^3
#
#
#
# Elastic Constant Matrix: (Units=GPa)
#
#
# Indices 1 2 3 4 5 6 
#
# 1 93.0290 19.7378 43.4056 0.0000 4.0822 0.0000
# 2 19.7378 123.3384 45.4973 0.0000 5.3878 0.0000
# 3 43.4056 45.4973 124.8930 0.0000 1.9916 0.0000
# 4 0.0000 0.0000 0.0000 20.3470 0.0000 2.9341
# 5 4.0822 5.3878 1.9916 0.0000 30.6854 0.0000
# 6 0.0000 0.0000 0.0000 2.9341 0.0000 31.2608
#
#
#
# Elastic Compliance Matrix: (Units=1/GPa)
#
#
# Indices 1 2 3 4 5 6 
#
# 1 0.012910 -0.000415 -0.004314 0.000000 -0.001365 0.000000
# 2 -0.000415 0.009442 -0.003273 0.000000 -0.001390 0.000000
# 3 -0.004314 -0.003273 0.010691 0.000000 0.000455 0.000000
# 4 0.000000 0.000000 0.000000 0.049822 0.000000 -0.004676
# 5 -0.001365 -0.001390 0.000455 0.000000 0.032985 0.000000
# 6 0.000000 0.000000 0.000000 -0.004676 0.000000 0.032428
#
#
# Mechanical properties :
#
#
# Convention : Reuss Voigt Hill
#
# Bulk Modulus (GPa) = 58.68810 62.06020 60.37415
# Shear Modulus (GPa) = 29.41825 31.96660 30.69242
#
# Velocity S-wave (km/s) = 3.81721 3.97911 3.89900
# Velocity P-wave (km/s) = 6.96397 7.20069 7.08332
#
# Compressibility (1/GPa) = 0.01703923
#
# Stress axis : x y z
#
# Youngs Moduli (GPa) = 77.45911 105.90512 93.53408
#
# Poissons Ratio (x) = 0.04396 0.40349
# Poissons Ratio (y) = 0.03215 0.30617
# Poissons Ratio (z) = 0.33414 0.34666
#
# Static dielectric constant tensor:
#      x y z
#    x 3.659060 0.000000 -0.001030 
#    y 0.000000 4.086930 0.000000 
#    z -0.001030 0.000000 3.440250 
# 
# 
# High freq. dielectric constant tensor:
#      x y z
#    x 1.793890 0.000000 0.002560 
#    y 0.000000 1.803900 0.000000 
#    z 0.002560 0.000000 1.772690 
# 
# From -- ./inp_files/144225.got.cif
#   From: 2010.06.25/outbox.cif.g09.slc.cpg/sg15_73_cif.got.tgz:144225.got - 2010.06.28 07:06:18.
