data_PCOD8143563
_publ_section_title
;
Structure prediction by ZEFSAII (Michael W. Deem and Ramdas Pophale) SiO2 
 PCOD8143563
Probable space group: C 2/C
;
_chemical_formula_sum "Si O2"
_cell_formula_units_Z 56
_cell_length_a 16.641673
_cell_length_b 7.116661
_cell_length_c 22.253717
_cell_angle_alpha 90.000000
_cell_angle_beta 121.760812
_cell_angle_gamma 90.000000
_cell_volume 2240.907608
_symmetry_space_group_name_H-M "C 2/C"
_symmetry_group_IT_number 15
_symmetry_cell_setting 'monoclinic'
loop_
_space_group_symop_operation_xyz
x,y,z
-x,y,1/2-z
-x,-y,-z
x,-y,1/2+z
1/2+x,1/2+y,z
1/2-x,1/2+y,1/2-z
1/2-x,1/2-y,-z
1/2+x,1/2-y,1/2+z
loop_
_atom_site_type_symbol
_atom_site_label
_atom_site_fract_x
_atom_site_fract_y
_atom_site_fract_z
Si Si1 0.905902 0.338306 0.326175
Si Si2 0.453056 0.410937 0.039638
Si Si3 0.234500 0.759946 0.330224
Si Si4 0.131413 0.226686 0.673300
Si Si5 0.802964 0.386073 0.475723
Si Si6 0.690164 0.151748 0.830568
Si Si7 0.878431 0.257129 0.069162
O O1 0.837498 0.210584 0.341389
O O2 0.877389 0.552066 0.324357
O O3 0.886957 0.284701 0.249365
O O4 0.012824 0.314600 0.387338
O O5 0.532291 0.374396 0.121548
O O6 0.373449 0.551505 0.036353
O O7 0.500000 0.500000 0.000000
O O8 0.404119 0.214194 0.002676
O O9 0.171033 0.854722 0.252504
O O10 0.246274 0.904063 0.390360
O O11 0.185690 0.573732 0.337850
O O12 0.203357 0.198201 0.646868
O O13 0.750000 0.250000 0.500000
O O14 0.816985 0.596364 0.506009
O O15 0.664062 0.256045 0.881412
#
# Coordination Sequence:
#
# PCOD8143563 Si02
#       7
#     8   8   8   8   8   8   8
#     4  10  21  40  72 100 136 188 236 296 361 431
#     4  12  28  47  74 106 147 186 247 296 356 440
#     4  10  22  43  71  97 144 186 241 293 360 438
#     4  10  22  44  71 106 138 192 240 296 358 438
#     4  12  26  47  70 107 143 189 238 302 366 422
#     4  10  21  42  67 102 143 179 237 303 361 427
#     4  12  25  44  73 102 146 186 232 300 367 420
#
# _framework density 24.989874
#
# number of rings (size 3 to 8) (size 9 to 14) (size 15 to 20)
#    0.000    1.143    2.857    3.000    2.000    4.000 
#    0.000    2.143    0.000    0.000    0.000    0.000 
#    0.000    0.000    0.000    0.000    0.000    0.000 
#
# Total GULP energy -347310.273171 kJ/mol
# GULP energy per Si atom -12403.938328 kJ/mol
# Density = 2.493300 g / cm^3
# Si number density = 24.989874 Si / 1000 Ang^3
#
#
#
# Elastic Constant Matrix: (Units=GPa)
#
#
# Indices 1 2 3 4 5 6 
#
# 1 65.1673 13.9455 25.4112 0.0000 -18.6082 0.0000
# 2 13.9455 78.6728 16.1861 0.0000 -13.7126 0.0000
# 3 25.4112 16.1861 126.6214 0.0000 -12.0681 0.0000
# 4 0.0000 0.0000 0.0000 25.5509 0.0000 2.2852
# 5 -18.6082 -13.7126 -12.0681 0.0000 50.9548 0.0000
# 6 0.0000 0.0000 0.0000 2.2852 0.0000 43.0560
#
#
#
# Elastic Compliance Matrix: (Units=1/GPa)
#
#
# Indices 1 2 3 4 5 6 
#
# 1 0.018454 -0.001690 -0.002955 0.000000 0.005584 0.000000
# 2 -0.001690 0.013736 -0.001149 0.000000 0.002807 0.000000
# 3 -0.002955 -0.001149 0.008702 0.000000 0.000672 0.000000
# 4 0.000000 0.000000 0.000000 0.039324 0.000000 -0.002087
# 5 0.005584 0.002807 0.000672 0.000000 0.022579 0.000000
# 6 0.000000 0.000000 0.000000 -0.002087 0.000000 0.023336
#
#
# Mechanical properties :
#
#
# Convention : Reuss Voigt Hill
#
# Bulk Modulus (GPa) = 34.12597 42.39411 38.26004
# Shear Modulus (GPa) = 33.90125 38.24028 36.07076
#
# Velocity S-wave (km/s) = 3.68720 3.91606 3.80335
# Velocity P-wave (km/s) = 5.64029 6.11954 5.88479
#
# Compressibility (1/GPa) = 0.02930320
#
# Stress axis : x y z
#
# Youngs Moduli (GPa) = 54.18985 72.80065 114.92123
#
# Poissons Ratio (x) = 0.12301 0.33961
# Poissons Ratio (y) = 0.09157 0.13207
# Poissons Ratio (z) = 0.16014 0.08366
#
# Static dielectric constant tensor:
#      x y z
#    x 4.443270 0.000000 0.133720 
#    y 0.000000 4.634840 0.000000 
#    z 0.133720 0.000000 4.927530 
# 
# 
# High freq. dielectric constant tensor:
#      x y z
#    x 1.989340 0.000000 0.002420 
#    y 0.000000 2.001690 0.000000 
#    z 0.002420 0.000000 2.010870 
# 
# From -- ./inp_files/273259.got.cif
#   From: 2010.06.25/outbox.cif.g09.slc.cpg/sg15_137_cif.got.tgz:273259.got - 2010.06.28 07:06:18.
