data_PCOD8143955
_publ_section_title
;
Structure prediction by ZEFSAII (Michael W. Deem and Ramdas Pophale) SiO2 
 PCOD8143955
Probable space group: C 2/C
;
_chemical_formula_sum "Si O2"
_cell_formula_units_Z 40
_cell_length_a 11.904801
_cell_length_b 23.648634
_cell_length_c 8.066356
_cell_angle_alpha 90.000000
_cell_angle_beta 129.765709
_cell_angle_gamma 90.000000
_cell_volume 1745.595169
_symmetry_space_group_name_H-M "C 2/C"
_symmetry_group_IT_number 15
_symmetry_cell_setting 'monoclinic'
loop_
_space_group_symop_operation_xyz
x,y,z
-x,y,1/2-z
-x,-y,-z
x,-y,1/2+z
1/2+x,1/2+y,z
1/2-x,1/2+y,1/2-z
1/2-x,1/2-y,-z
1/2+x,1/2-y,1/2+z
loop_
_atom_site_type_symbol
_atom_site_label
_atom_site_fract_x
_atom_site_fract_y
_atom_site_fract_z
Si Si1 0.134736 0.145415 0.757505
Si Si2 0.986932 0.238664 0.427408
Si Si3 0.182662 0.446749 0.247868
Si Si4 0.153283 0.432313 0.601784
Si Si5 0.292714 0.813464 0.703507
O O1 0.079150 0.181764 0.548933
O O2 0.204904 0.088396 0.756302
O O3 0.000000 0.129962 0.750000
O O4 0.251684 0.184354 0.969646
O O5 0.046273 0.288843 0.604594
O O6 0.000000 0.258397 0.250000
O O7 0.817723 0.227847 0.303840
O O8 0.200863 0.432229 0.456461
O O9 0.217629 0.512734 0.254240
O O10 0.020424 0.431432 0.034596
O O11 0.224112 0.377726 0.751007
#
# Coordination Sequence:
#
# PCOD8143955 Si02
#       5
#     8   8   8   8   8
#     4  10  23  43  64  96 133 171 215 264 324 391
#     4  11  24  41  64  92 132 174 221 267 322 385
#     4  10  21  41  67  96 131 166 215 267 328 382
#     4  10  22  39  67  98 126 169 215 269 323 387
#     4  11  24  41  63  96 133 170 221 264 325 384
#
# _framework density 22.914818
#
# number of rings (size 3 to 8) (size 9 to 14) (size 15 to 20)
#    0.000    1.600    0.000    3.600    5.600    2.400 
#    0.000   10.000    0.000    0.000    0.000    0.000 
#    0.000    0.000    0.000    0.000    0.000    0.000 
#
# Total GULP energy -248075.109204 kJ/mol
# GULP energy per Si atom -12403.755460 kJ/mol
# Density = 2.286266 g / cm^3
# Si number density = 22.914818 Si / 1000 Ang^3
#
#
#
# Elastic Constant Matrix: (Units=GPa)
#
#
# Indices 1 2 3 4 5 6 
#
# 1 80.8433 47.3609 18.1152 0.0000 3.9566 0.0000
# 2 47.3609 90.5149 8.9156 0.0000 13.0515 0.0000
# 3 18.1152 8.9156 74.7138 0.0000 5.1496 0.0000
# 4 0.0000 0.0000 0.0000 37.4036 0.0000 3.3226
# 5 3.9566 13.0515 5.1496 0.0000 17.6707 0.0000
# 6 0.0000 0.0000 0.0000 3.3226 0.0000 36.3051
#
#
#
# Elastic Compliance Matrix: (Units=1/GPa)
#
#
# Indices 1 2 3 4 5 6 
#
# 1 0.018942 -0.010176 -0.003678 0.000000 0.004346 0.000000
# 2 -0.010176 0.017886 0.001109 0.000000 -0.011255 0.000000
# 3 -0.003678 0.001109 0.014433 0.000000 -0.004201 0.000000
# 4 0.000000 0.000000 0.000000 0.026955 0.000000 -0.002467
# 5 0.004346 -0.011255 -0.004201 0.000000 0.065155 0.000000
# 6 0.000000 0.000000 0.000000 -0.002467 0.000000 0.027770
#
#
# Mechanical properties :
#
#
# Convention : Reuss Voigt Hill
#
# Bulk Modulus (GPa) = 38.80273 43.87284 41.33779
# Shear Modulus (GPa) = 24.36376 29.72122 27.04249
#
# Velocity S-wave (km/s) = 3.26426 3.60534 3.43903
# Velocity P-wave (km/s) = 5.58367 6.04309 5.81792
#
# Compressibility (1/GPa) = 0.02577138
#
# Stress axis : x y z
#
# Youngs Moduli (GPa) = 52.79145 55.90960 69.28333
#
# Poissons Ratio (x) = 0.56893 0.25483
# Poissons Ratio (y) = 0.53720 -0.07681
# Poissons Ratio (z) = 0.19417 -0.06198
#
# Static dielectric constant tensor:
#      x y z
#    x 3.899550 0.000000 0.036860 
#    y 0.000000 4.077140 0.000000 
#    z 0.036860 0.000000 4.197420 
# 
# 
# High freq. dielectric constant tensor:
#      x y z
#    x 1.896570 0.000000 -0.003600 
#    y 0.000000 1.911470 0.000000 
#    z -0.003600 0.000000 1.910440 
# 
# From -- ./inp_files/41857.got.cif
#   From: 2010.06.25/outbox.cif.g09.slc.cpg/sg15_21_cif.got.tgz:41857.got - 2010.06.28 07:06:18.
