data_PCOD8143506
_publ_section_title
;
Structure prediction by ZEFSAII (Michael W. Deem and Ramdas Pophale) SiO2 
 PCOD8143506
Probable space group: C 2/C
;
_chemical_formula_sum "Si O2"
_cell_formula_units_Z 40
_cell_length_a 8.630322
_cell_length_b 17.736112
_cell_length_c 11.596921
_cell_angle_alpha 90.000000
_cell_angle_beta 93.407040
_cell_angle_gamma 90.000000
_cell_volume 1771.984182
_symmetry_space_group_name_H-M "C 2/C"
_symmetry_group_IT_number 15
_symmetry_cell_setting 'monoclinic'
loop_
_space_group_symop_operation_xyz
x,y,z
-x,y,1/2-z
-x,-y,-z
x,-y,1/2+z
1/2+x,1/2+y,z
1/2-x,1/2+y,1/2-z
1/2-x,1/2-y,-z
1/2+x,1/2-y,1/2+z
loop_
_atom_site_type_symbol
_atom_site_label
_atom_site_fract_x
_atom_site_fract_y
_atom_site_fract_z
Si Si1 0.466849 0.804055 0.485771
Si Si2 0.921163 0.984807 0.869494
Si Si3 0.145210 0.227413 0.683204
Si Si4 0.308614 0.321314 0.856483
Si Si5 0.864663 0.589641 0.657090
O O1 0.586689 0.748197 0.554423
O O2 0.417386 0.752253 0.375866
O O3 0.313765 0.829113 0.545872
O O4 0.550511 0.881955 0.455141
O O5 0.911862 0.895378 0.854393
O O6 0.000000 0.013900 0.750000
O O7 0.749147 0.019819 0.870792
O O8 0.000000 0.000000 0.000000
O O9 0.214226 0.305945 0.735325
O O10 0.267222 0.160505 0.697541
O O11 0.000000 0.198135 0.750000
O O12 0.000000 0.563909 0.750000
#
# Coordination Sequence:
#
# PCOD8143506 Si02
#       5
#     8   8   8   8   8
#     4  10  22  40  73 102 139 181 250 311 364 440
#     4  12  31  50  74 105 159 204 248 307 390 454
#     4  10  21  40  69 100 137 184 245 304 372 441
#     4  10  23  44  70 106 141 189 252 311 366 451
#     4  12  25  42  72 105 145 191 247 311 371 442
#
# _framework density 22.573564999999999
#
# number of rings (size 3 to 8) (size 9 to 14) (size 15 to 20)
#    0.000    1.200    2.000    2.400    8.400    3.200 
#    0.000    0.000    0.000    0.000    0.000    0.000 
#    0.000    0.000    0.000    0.000    0.000    0.000 
#
# Total GULP energy -247794.272782 kJ/mol
# GULP energy per Si atom -12389.713639 kJ/mol
# Density = 2.252219 g / cm^3
# Si number density = 22.573565 Si / 1000 Ang^3
#
#
#
# Elastic Constant Matrix: (Units=GPa)
#
#
# Indices 1 2 3 4 5 6 
#
# 1 107.0164 16.3050 42.5108 0.0000 14.2052 0.0000
# 2 16.3050 57.9095 8.9714 0.0000 3.8262 0.0000
# 3 42.5108 8.9714 100.6447 0.0000 13.3402 0.0000
# 4 0.0000 0.0000 0.0000 26.2648 0.0000 1.4578
# 5 14.2052 3.8262 13.3402 0.0000 36.7357 0.0000
# 6 0.0000 0.0000 0.0000 1.4578 0.0000 55.8128
#
#
#
# Elastic Compliance Matrix: (Units=1/GPa)
#
#
# Indices 1 2 3 4 5 6 
#
# 1 0.011837 -0.002469 -0.004420 0.000000 -0.002715 0.000000
# 2 -0.002469 0.018086 -0.000469 0.000000 -0.000759 0.000000
# 3 -0.004420 -0.000469 0.012199 0.000000 -0.002672 0.000000
# 4 0.000000 0.000000 0.000000 0.038129 0.000000 -0.000996
# 5 -0.002715 -0.000759 -0.002672 0.000000 0.029321 0.000000
# 6 0.000000 0.000000 0.000000 -0.000996 0.000000 0.017943
#
#
# Mechanical properties :
#
#
# Convention : Reuss Voigt Hill
#
# Bulk Modulus (GPa) = 36.48694 44.57167 40.52930
# Shear Modulus (GPa) = 33.03292 36.94821 34.99057
#
# Velocity S-wave (km/s) = 3.82952 4.05012 3.94136
# Velocity P-wave (km/s) = 5.97932 6.45439 6.22139
#
# Compressibility (1/GPa) = 0.02740707
#
# Stress axis : x y z
#
# Youngs Moduli (GPa) = 84.48441 55.29085 81.97590
#
# Poissons Ratio (x) = 0.13649 0.36231
# Poissons Ratio (y) = 0.20856 0.03844
# Poissons Ratio (z) = 0.37339 0.02593
#
# Static dielectric constant tensor:
#      x y z
#    x 4.434490 0.000000 0.029710 
#    y 0.000000 3.768920 0.000000 
#    z 0.029710 0.000000 4.150250 
# 
# 
# High freq. dielectric constant tensor:
#      x y z
#    x 1.911080 0.000000 0.003900 
#    y 0.000000 1.871700 0.000000 
#    z 0.003900 0.000000 1.894130 
# 
# From -- ./inp_files/76676.got.cif
#   From: 2010.06.25/outbox.cif.g09.slc.cpg/sg15_39_cif.got.tgz:76676.got - 2010.06.28 07:06:18.
