data_PCOD8143235
_publ_section_title
;
Structure prediction by ZEFSAII (Michael W. Deem and Ramdas Pophale) SiO2 
 PCOD8143235
Probable space group: C 2/C
;
_chemical_formula_sum "Si O2"
_cell_formula_units_Z 32
_cell_length_a 7.898532
_cell_length_b 10.704337
_cell_length_c 28.218431
_cell_angle_alpha 90.000000
_cell_angle_beta 148.515936
_cell_angle_gamma 90.000000
_cell_volume 1246.025534
_symmetry_space_group_name_H-M "C 2/C"
_symmetry_group_IT_number 15
_symmetry_cell_setting 'monoclinic'
loop_
_space_group_symop_operation_xyz
x,y,z
-x,y,1/2-z
-x,-y,-z
x,-y,1/2+z
1/2+x,1/2+y,z
1/2-x,1/2+y,1/2-z
1/2-x,1/2-y,-z
1/2+x,1/2-y,1/2+z
loop_
_atom_site_type_symbol
_atom_site_label
_atom_site_fract_x
_atom_site_fract_y
_atom_site_fract_z
Si Si1 0.839504 0.811625 0.161809
Si Si2 0.753407 0.527757 0.519853
Si Si3 0.854110 0.316115 0.847512
Si Si4 0.349991 0.458648 0.340255
O O1 0.000000 0.781533 0.250000
O O2 0.908679 0.694262 0.142838
O O3 0.998554 0.935455 0.175528
O O4 0.458591 0.844994 0.077718
O O5 0.500000 0.500000 0.500000
O O6 0.583110 0.544430 0.427917
O O7 0.990171 0.406666 0.576338
O O8 0.500000 0.370474 0.750000
O O9 0.806067 0.175694 0.857138
O O10 0.000000 0.524014 0.250000
#
# Coordination Sequence:
#
# PCOD8143235 Si02
#       4
#     8   8   8   8
#     4  10  21  40  64  91 129 165 213 262 310 388
#     4  12  23  37  65 100 126 166 216 261 322 387
#     4   9  22  42  65  86 125 173 204 263 327 375
#     4   9  20  41  62  86 128 169 209 265 318 377
#
# _framework density 25.681654999999999
#
# number of rings (size 3 to 8) (size 9 to 14) (size 15 to 20)
#    1.500    0.500    0.000    3.750    0.000    1.000 
#    0.000    6.250    0.000    0.000    0.000    0.000 
#    0.000    0.000    0.000    0.000    0.000    0.000 
#
# Total GULP energy -198250.186761 kJ/mol
# GULP energy per Si atom -12390.636673 kJ/mol
# Density = 2.562320 g / cm^3
# Si number density = 25.681655 Si / 1000 Ang^3
#
#
#
# Elastic Constant Matrix: (Units=GPa)
#
#
# Indices 1 2 3 4 5 6 
#
# 1 91.9387 0.9297 13.4528 0.0001 7.5063 0.0000
# 2 0.9297 46.8994 28.8632 0.0000 5.9777 0.0000
# 3 13.4528 28.8632 164.8770 -0.0002 3.9867 0.0001
# 4 0.0001 0.0000 -0.0002 -8.0114 0.0001 -7.9289
# 5 7.5063 5.9777 3.9867 0.0001 48.2575 0.0001
# 6 0.0000 0.0000 0.0001 -7.9289 0.0001 23.8855
#
#
#
# Elastic Compliance Matrix: (Units=1/GPa)
#
#
# Indices 1 2 3 4 5 6 
#
# 1 0.011154 0.000598 -0.000973 0.000000 -0.001729 0.000000
# 2 0.000598 0.024264 -0.004230 0.000000 -0.002749 0.000000
# 3 -0.000973 -0.004230 0.006882 0.000000 0.000107 0.000000
# 4 0.000000 0.000000 0.000000 -0.093955 0.000000 -0.031189
# 5 -0.001729 -0.002749 0.000107 0.000000 0.021323 0.000000
# 6 0.000000 0.000000 0.000000 -0.031189 0.000000 0.031513
#
#
# Mechanical properties :
#
#
# Convention : Reuss Voigt Hill
#
# Bulk Modulus (GPa) = 30.21981 43.35627 36.78804
# Shear Modulus (GPa) = 233.40766 30.19096 131.79931
#
# Velocity S-wave (km/s) = 9.54370 3.43240 7.17160
# Velocity P-wave (km/s) = 11.54278 5.71203 9.10667
#
# Compressibility (1/GPa) = 0.03309088
#
# Stress axis : x y z
#
# Youngs Moduli (GPa) = 89.65166 41.21334 145.29761
#
# Poissons Ratio (x) = -0.02465 0.14137
# Poissons Ratio (y) = -0.05362 0.61460
# Poissons Ratio (z) = 0.08723 0.17433
#
# Static dielectric constant tensor:
#      x y z
#    x 4.392490 0.000000 0.324090 
#    y 0.000000 4.195070 0.000000 
#    z 0.324090 0.000000 4.563870 
# 
# 
# High freq. dielectric constant tensor:
#      x y z
#    x 2.013910 0.000000 0.019680 
#    y 0.000000 2.005950 0.000000 
#    z 0.019680 0.000000 2.025200 
# 
# From -- ./inp_files/188596.got.cif
#   From: 2010.06.25/outbox.cif.g09.slc.cpg/sg15_95_cif.got.tgz:188596.got - 2010.06.28 07:06:18.
