data_PCOD8143410
_publ_section_title
;
Structure prediction by ZEFSAII (Michael W. Deem and Ramdas Pophale) SiO2 
 PCOD8143410
Probable space group: C 2/C
;
_chemical_formula_sum "Si O2"
_cell_formula_units_Z 60
_cell_length_a 19.175610
_cell_length_b 25.853865
_cell_length_c 10.961118
_cell_angle_alpha 90.000000
_cell_angle_beta 148.624959
_cell_angle_gamma 90.000000
_cell_volume 2829.209984
_symmetry_space_group_name_H-M "C 2/C"
_symmetry_group_IT_number 15
_symmetry_cell_setting 'monoclinic'
loop_
_space_group_symop_operation_xyz
x,y,z
-x,y,1/2-z
-x,-y,-z
x,-y,1/2+z
1/2+x,1/2+y,z
1/2-x,1/2+y,1/2-z
1/2-x,1/2-y,-z
1/2+x,1/2-y,1/2+z
loop_
_atom_site_type_symbol
_atom_site_label
_atom_site_fract_x
_atom_site_fract_y
_atom_site_fract_z
Si Si1 0.261779 0.551111 0.751676
Si Si2 0.000000 0.588514 0.250000
Si Si3 0.708351 0.567017 0.215013
Si Si4 0.569947 0.621682 0.666513
Si Si5 0.229370 0.613010 0.942173
Si Si6 0.055994 0.197054 0.199147
Si Si7 0.488655 0.189873 0.877323
Si Si8 0.681563 0.865334 0.814965
O O1 0.313498 0.493088 0.844284
O O2 0.352122 0.575132 0.781646
O O3 0.290279 0.581601 0.920201
O O4 0.104495 0.552602 0.480594
O O5 0.916268 0.624643 0.216860
O O6 0.773057 0.574782 0.445748
O O7 0.813753 0.586244 0.271215
O O8 0.568721 0.598099 0.990956
O O9 0.551357 0.669039 0.546464
O O10 0.665314 0.644825 0.914301
O O11 0.088319 0.637970 0.692835
O O12 0.309455 0.664286 0.101662
O O13 0.080096 0.255704 0.186863
O O14 0.000000 0.200570 0.250000
O O15 0.500000 0.186617 0.750000
O O16 0.630604 0.184473 0.160590
#
# Coordination Sequence:
#
# PCOD8143410 Si02
#       8
#     8   4   8   8   8   8   8   8
#     4  11  23  40  64  93 129 173 220 262 322 386
#     4  10  24  40  62  88 130 166 210 270 320 380
#     4  11  25  40  65  93 126 175 215 268 320 380
#     4  10  23  44  62  92 133 168 217 264 319 388
#     4  11  22  41  64  96 129 166 215 271 320 383
#     4  10  21  40  66  96 125 169 213 268 324 381
#     4  11  22  41  68  94 128 167 213 273 328 377
#     4  11  23  43  63  92 132 167 211 269 319 390
#
# _framework density 21.207332999999998
#
# number of rings (size 3 to 8) (size 9 to 14) (size 15 to 20)
#    0.000    1.333    4.000    1.200    3.733    2.133 
#    4.800    0.000    5.867    0.000    0.000    0.000 
#    0.000    0.000    0.000    0.000    0.000    0.000 
#
# Total GULP energy -371925.702765 kJ/mol
# GULP energy per Si atom -12397.523425 kJ/mol
# Density = 2.115906 g / cm^3
# Si number density = 21.207333 Si / 1000 Ang^3
#
#
#
# Elastic Constant Matrix: (Units=GPa)
#
#
# Indices 1 2 3 4 5 6 
#
# 1 81.9291 32.8341 24.2266 0.0000 -4.5434 0.0000
# 2 32.8341 134.3532 46.3324 0.0000 -7.1083 0.0000
# 3 24.2266 46.3324 118.8394 0.0000 -16.1416 0.0000
# 4 0.0000 0.0000 0.0000 27.1023 0.0000 16.9922
# 5 -4.5434 -7.1083 -16.1416 0.0000 30.1012 0.0000
# 6 0.0000 0.0000 0.0000 16.9922 0.0000 81.0517
#
#
#
# Elastic Compliance Matrix: (Units=1/GPa)
#
#
# Indices 1 2 3 4 5 6 
#
# 1 0.013842 -0.002780 -0.001665 0.000000 0.000540 0.000000
# 2 -0.002780 0.009159 -0.002985 0.000000 0.000143 0.000000
# 3 -0.001665 -0.002985 0.010557 0.000000 0.004705 0.000000
# 4 0.000000 0.000000 0.000000 0.042481 0.000000 -0.008906
# 5 0.000540 0.000143 0.004705 0.000000 0.035860 0.000000
# 6 0.000000 0.000000 0.000000 -0.008906 0.000000 0.014205
#
#
# Mechanical properties :
#
#
# Convention : Reuss Voigt Hill
#
# Bulk Modulus (GPa) = 53.47865 60.21202 56.84534
# Shear Modulus (GPa) = 33.96831 43.09960 38.53395
#
# Velocity S-wave (km/s) = 4.00650 4.51299 4.26727
# Velocity P-wave (km/s) = 6.83187 7.45720 7.15137
#
# Compressibility (1/GPa) = 0.01869905
#
# Stress axis : x y z
#
# Youngs Moduli (GPa) = 72.24372 109.17737 94.72544
#
# Poissons Ratio (x) = 0.30354 0.15767
# Poissons Ratio (y) = 0.20085 0.28274
# Poissons Ratio (z) = 0.12025 0.32588
#
# Static dielectric constant tensor:
#      x y z
#    x 3.816390 0.000000 -0.084160 
#    y 0.000000 3.811010 0.000000 
#    z -0.084160 0.000000 4.094890 
# 
# 
# High freq. dielectric constant tensor:
#      x y z
#    x 1.832110 0.000000 -0.007620 
#    y 0.000000 1.817240 0.000000 
#    z -0.007620 0.000000 1.843920 
# 
# From -- ./inp_files/114835.got.cif
#   From: 2010.06.25/outbox.cif.g09.slc.cpg/sg15_58_cif.got.tgz:114835.got - 2010.06.28 07:06:18.
