data_PCOD8143746
_publ_section_title
;
Structure prediction by ZEFSAII (Michael W. Deem and Ramdas Pophale) SiO2 
 PCOD8143746
Probable space group: C 2/C
;
_chemical_formula_sum "Si O2"
_cell_formula_units_Z 64
_cell_length_a 13.321145
_cell_length_b 12.072215
_cell_length_c 28.736352
_cell_angle_alpha 90.000000
_cell_angle_beta 42.598187
_cell_angle_gamma 90.000000
_cell_volume 3127.910391
_symmetry_space_group_name_H-M "C 2/C"
_symmetry_group_IT_number 15
_symmetry_cell_setting 'monoclinic'
loop_
_space_group_symop_operation_xyz
x,y,z
-x,y,1/2-z
-x,-y,-z
x,-y,1/2+z
1/2+x,1/2+y,z
1/2-x,1/2+y,1/2-z
1/2-x,1/2-y,-z
1/2+x,1/2-y,1/2+z
loop_
_atom_site_type_symbol
_atom_site_label
_atom_site_fract_x
_atom_site_fract_y
_atom_site_fract_z
Si Si1 0.158804 0.888260 0.533956
Si Si2 0.814796 0.729236 0.116315
Si Si3 0.689247 0.833851 0.329601
Si Si4 0.166089 0.604448 0.209717
Si Si5 0.019275 0.221087 0.168083
Si Si6 0.762203 0.071097 0.278513
Si Si7 0.071407 0.679178 0.516228
Si Si8 0.571070 0.472035 0.425953
O O1 0.123505 0.808920 0.502061
O O2 0.334488 0.905601 0.482129
O O3 0.118178 0.814425 0.591656
O O4 0.062181 0.999278 0.564648
O O5 0.639508 0.758091 0.166011
O O6 0.829496 0.657165 0.158085
O O7 0.897354 0.844891 0.094828
O O8 0.900264 0.655210 0.047988
O O9 0.807336 0.736038 0.296329
O O10 0.592784 0.813986 0.314822
O O11 0.595476 0.835402 0.409601
O O12 0.773096 0.950067 0.297648
O O13 0.184467 0.556555 0.255194
O O14 0.284103 0.547345 0.134136
O O15 0.000000 0.578524 0.250000
O O16 0.929151 0.115846 0.217657
O O17 0.500000 0.500000 0.500000
#
# Coordination Sequence:
#
# PCOD8143746 Si02
#       8
#     8   8   8   8   8   8   8   8
#     4   9  16  33  60  89 124 156 198 255 311 376
#     4  11  23  35  64  95 122 157 210 264 309 372
#     4  10  21  41  64  85 129 168 204 257 316 383
#     4  11  26  42  60  92 128 170 210 261 334 383
#     4   9  20  39  58  90 119 159 209 252 311 371
#     4  11  24  39  60  90 125 163 211 261 308 380
#     4   9  17  36  59  91 121 159 209 247 312 379
#     4  12  22  38  65  99 128 160 211 276 316 369
#
# _framework density 20.460944999999999
#
# number of rings (size 3 to 8) (size 9 to 14) (size 15 to 20)
#    0.000    1.750    5.000    1.125    5.250    1.500 
#    0.000    1.250    0.000    3.750    0.000    0.000 
#    0.000    0.000    0.000    0.000    0.000    0.000 
#
# Total GULP energy -396470.230673 kJ/mol
# GULP energy per Si atom -12389.694709 kJ/mol
# Density = 2.041438 g / cm^3
# Si number density = 20.460945 Si / 1000 Ang^3
#
#
#
# Elastic Constant Matrix: (Units=GPa)
#
#
# Indices 1 2 3 4 5 6 
#
# 1 66.1293 17.1763 24.1847 0.0000 -3.4595 0.0000
# 2 17.1763 102.1024 32.1513 0.0000 -2.3597 0.0000
# 3 24.1847 32.1513 96.3301 0.0000 3.8277 0.0000
# 4 0.0000 0.0000 0.0000 28.8536 0.0000 -2.6551
# 5 -3.4595 -2.3597 3.8277 0.0000 23.3092 0.0000
# 6 0.0000 0.0000 0.0000 -2.6551 0.0000 18.6645
#
#
#
# Elastic Compliance Matrix: (Units=1/GPa)
#
#
# Indices 1 2 3 4 5 6 
#
# 1 0.017113 -0.001585 -0.003887 0.000000 0.003018 0.000000
# 2 -0.001585 0.011160 -0.003384 0.000000 0.001450 0.000000
# 3 -0.003887 -0.003384 0.012605 0.000000 -0.002990 0.000000
# 4 0.000000 0.000000 0.000000 0.035117 0.000000 0.004996
# 5 0.003018 0.001450 -0.002990 0.000000 0.043987 0.000000
# 6 0.000000 0.000000 0.000000 0.004996 0.000000 0.054288
#
#
# Mechanical properties :
#
#
# Convention : Reuss Voigt Hill
#
# Bulk Modulus (GPa) = 43.16897 45.73181 44.45039
# Shear Modulus (GPa) = 25.03672 26.90208 25.96940
#
# Velocity S-wave (km/s) = 3.50184 3.62995 3.56647
# Velocity P-wave (km/s) = 6.12328 6.32203 6.22345
#
# Compressibility (1/GPa) = 0.02316479
#
# Stress axis : x y z
#
# Youngs Moduli (GPa) = 58.43466 89.60579 79.33160
#
# Poissons Ratio (x) = 0.14203 0.30839
# Poissons Ratio (y) = 0.09262 0.26849
# Poissons Ratio (z) = 0.22715 0.30327
#
# Static dielectric constant tensor:
#      x y z
#    x 3.892040 0.000000 0.074410 
#    y 0.000000 3.512670 0.000000 
#    z 0.074410 0.000000 3.955320 
# 
# 
# High freq. dielectric constant tensor:
#      x y z
#    x 1.775010 0.000000 0.005910 
#    y 0.000000 1.777550 0.000000 
#    z 0.005910 0.000000 1.819010 
# 
# From -- ./inp_files/313581.got.cif
#   From: 2010.06.25/outbox.cif.g09.slc.cpg/sg15_157_cif.got.tgz:313581.got - 2010.06.28 07:06:18.
