data_PCOD8143607
_publ_section_title
;
Structure prediction by ZEFSAII (Michael W. Deem and Ramdas Pophale) SiO2 
 PCOD8143607
Probable space group: C 2/C
;
_chemical_formula_sum "Si O2"
_cell_formula_units_Z 60
_cell_length_a 17.604039
_cell_length_b 11.806718
_cell_length_c 20.170004
_cell_angle_alpha 90.000000
_cell_angle_beta 136.930389
_cell_angle_gamma 90.000000
_cell_volume 2862.832676
_symmetry_space_group_name_H-M "C 2/C"
_symmetry_group_IT_number 15
_symmetry_cell_setting 'monoclinic'
loop_
_space_group_symop_operation_xyz
x,y,z
-x,y,1/2-z
-x,-y,-z
x,-y,1/2+z
1/2+x,1/2+y,z
1/2-x,1/2+y,1/2-z
1/2-x,1/2-y,-z
1/2+x,1/2-y,1/2+z
loop_
_atom_site_type_symbol
_atom_site_label
_atom_site_fract_x
_atom_site_fract_y
_atom_site_fract_z
Si Si1 0.884151 0.252695 0.653409
Si Si2 0.000000 0.237787 0.250000
Si Si3 0.904589 0.700593 0.926553
Si Si4 0.842298 0.291457 0.880968
Si Si5 0.779586 0.627144 0.205405
Si Si6 0.157295 0.379097 0.251563
Si Si7 0.779259 0.146874 0.065961
Si Si8 0.806426 0.596360 0.996400
O O1 0.835697 0.284986 0.692797
O O2 0.892567 0.359101 0.607629
O O3 0.811726 0.158644 0.570349
O O4 0.000000 0.199577 0.750000
O O5 0.071030 0.318045 0.246232
O O6 0.086264 0.152889 0.341917
O O7 0.847227 0.824080 0.876585
O O8 0.898077 0.622059 0.856781
O O9 0.856656 0.622537 0.955844
O O10 0.030887 0.734013 0.021171
O O11 0.833778 0.373283 0.812548
O O12 0.778258 0.176948 0.822159
O O13 0.777881 0.348569 0.899653
O O14 0.806028 0.501201 0.196780
O O15 0.726705 0.031239 0.004666
O O16 0.750000 0.250000 0.000000
#
# Coordination Sequence:
#
# PCOD8143607 Si02
#       8
#     8   4   8   8   8   8   8   8
#     4  10  22  38  62  90 120 164 205 257 307 354
#     4  10  24  40  60  92 124 166 202 252 316 364
#     4  10  21  41  61  87 124 162 203 253 305 364
#     4  10  22  39  60  88 122 160 202 245 308 369
#     4  10  22  38  62  89 120 158 206 253 304 361
#     4  10  22  39  61  91 123 159 207 256 299 367
#     4  11  24  40  62  92 124 163 204 250 306 371
#     4  10  23  40  60  92 125 157 212 253 301 373
#
# _framework density 20.958262999999999
#
# number of rings (size 3 to 8) (size 9 to 14) (size 15 to 20)
#    0.000    1.867    0.000    2.400    5.600    4.800 
#    0.000    0.000   11.733    0.000    0.000    0.000 
#    0.000    0.000    0.000    0.000    0.000    0.000 
#
# Total GULP energy -371680.499133 kJ/mol
# GULP energy per Si atom -12389.349971 kJ/mol
# Density = 2.091056 g / cm^3
# Si number density = 20.958263 Si / 1000 Ang^3
#
#
#
# Elastic Constant Matrix: (Units=GPa)
#
#
# Indices 1 2 3 4 5 6 
#
# 1 78.7257 26.4044 33.3451 0.0000 -2.5668 0.0000
# 2 26.4044 82.8562 20.6185 0.0000 1.9115 0.0000
# 3 33.3451 20.6185 125.0552 0.0000 18.2456 0.0000
# 4 0.0000 0.0000 0.0000 16.6153 0.0000 -5.1279
# 5 -2.5668 1.9115 18.2456 0.0000 40.0919 0.0000
# 6 0.0000 0.0000 0.0000 -5.1279 0.0000 16.4564
#
#
#
# Elastic Compliance Matrix: (Units=1/GPa)
#
#
# Indices 1 2 3 4 5 6 
#
# 1 0.015881 -0.004137 -0.003995 0.000000 0.003032 0.000000
# 2 -0.004137 0.013668 -0.001089 0.000000 -0.000421 0.000000
# 3 -0.003995 -0.001089 0.009930 0.000000 -0.004723 0.000000
# 4 0.000000 0.000000 0.000000 0.066589 0.000000 0.020749
# 5 0.003032 -0.000421 -0.004723 0.000000 0.027306 0.000000
# 6 0.000000 0.000000 0.000000 0.020749 0.000000 0.067232
#
#
# Mechanical properties :
#
#
# Convention : Reuss Voigt Hill
#
# Bulk Modulus (GPa) = 47.53319 49.70810 48.62064
# Shear Modulus (GPa) = 22.11795 28.38399 25.25097
#
# Velocity S-wave (km/s) = 3.25211 3.68409 3.47482
# Velocity P-wave (km/s) = 6.06884 6.47038 6.27282
#
# Compressibility (1/GPa) = 0.02103793
#
# Stress axis : x y z
#
# Youngs Moduli (GPa) = 62.96974 73.16307 100.70169
#
# Poissons Ratio (x) = 0.30265 0.40228
# Poissons Ratio (y) = 0.26048 0.10968
# Poissons Ratio (z) = 0.25155 0.07968
#
# Static dielectric constant tensor:
#      x y z
#    x 4.078200 0.000000 0.065190 
#    y 0.000000 3.630030 0.000000 
#    z 0.065190 0.000000 4.160230 
# 
# 
# High freq. dielectric constant tensor:
#      x y z
#    x 1.827490 0.000000 -0.005320 
#    y 0.000000 1.804550 0.000000 
#    z -0.005320 0.000000 1.835860 
# 
# From -- ./inp_files/248779.got.cif
#   From: 2010.06.25/outbox.cif.g09.slc.cpg/sg15_125_cif.got.tgz:248779.got - 2010.06.28 07:06:18.
