data_PCOD8143604
_publ_section_title
;
Structure prediction by ZEFSAII (Michael W. Deem and Ramdas Pophale) SiO2 
 PCOD8143604
Probable space group: C 2/C
;
_chemical_formula_sum "Si O2"
_cell_formula_units_Z 52
_cell_length_a 18.960262
_cell_length_b 28.325773
_cell_length_c 9.314629
_cell_angle_alpha 90.000000
_cell_angle_beta 31.790813
_cell_angle_gamma 90.000000
_cell_volume 2635.442346
_symmetry_space_group_name_H-M "C 2/C"
_symmetry_group_IT_number 15
_symmetry_cell_setting 'monoclinic'
loop_
_space_group_symop_operation_xyz
x,y,z
-x,y,1/2-z
-x,-y,-z
x,-y,1/2+z
1/2+x,1/2+y,z
1/2-x,1/2+y,1/2-z
1/2-x,1/2-y,-z
1/2+x,1/2-y,1/2+z
loop_
_atom_site_type_symbol
_atom_site_label
_atom_site_fract_x
_atom_site_fract_y
_atom_site_fract_z
Si Si1 0.000000 0.358759 0.750000
Si Si2 0.289677 0.100274 0.084882
Si Si3 0.070804 0.216836 0.269222
Si Si4 0.098077 0.499420 0.700407
Si Si5 0.777463 0.591499 0.444066
Si Si6 0.628996 0.184165 0.751499
Si Si7 0.002330 0.865302 0.078580
O O1 0.108938 0.388383 0.649031
O O2 0.077661 0.327935 0.498584
O O3 0.308503 0.105116 0.224353
O O4 0.133892 0.104388 0.308227
O O5 0.374838 0.140612 0.854836
O O6 0.343191 0.050194 0.940324
O O7 0.039943 0.272389 0.346191
O O8 0.000000 0.198580 0.250000
O O9 0.007472 0.187388 0.508842
O O10 0.224934 0.205238 0.983098
O O11 0.220708 0.464759 0.529657
O O12 0.000000 0.478593 0.750000
O O13 0.000000 0.500000 0.000000
O O14 0.630913 0.608573 0.745977
O O15 0.000000 0.858590 0.250000
#
# Coordination Sequence:
#
# PCOD8143604 Si02
#       7
#     4   8   8   8   8   8   8
#     4  12  24  36  60  92 122 152 202 254 292 358
#     4  10  23  42  63  86 123 165 202 249 305 364
#     4  10  21  41  61  85 122 160 201 249 302 360
#     4  12  23  38  61  91 123 156 200 250 304 362
#     4  11  23  40  63  91 122 160 202 252 306 361
#     4  10  24  39  59  91 120 159 204 247 305 360
#     4   9  21  43  65  86 119 163 207 249 300 360
#
# _framework density 19.731033
#
# number of rings (size 3 to 8) (size 9 to 14) (size 15 to 20)
#    0.000    1.538    2.308    1.846    3.231    0.615 
#    0.000    1.538    0.000    0.000    0.000    0.000 
#    0.000    0.000    0.000    0.000    0.000    0.000 
#
# Total GULP energy -322276.005451 kJ/mol
# GULP energy per Si atom -12395.230979 kJ/mol
# Density = 1.968612 g / cm^3
# Si number density = 19.731033 Si / 1000 Ang^3
#
#
#
# Elastic Constant Matrix: (Units=GPa)
#
#
# Indices 1 2 3 4 5 6 
#
# 1 104.4613 45.1674 40.4408 0.0000 -5.7806 0.0000
# 2 45.1674 129.3986 64.1569 0.0000 -8.4072 0.0000
# 3 40.4408 64.1569 113.0937 0.0000 4.6451 0.0000
# 4 0.0000 0.0000 0.0000 2.2240 0.0000 0.9392
# 5 -5.7806 -8.4072 4.6451 0.0000 29.1304 0.0000
# 6 0.0000 0.0000 0.0000 0.9392 0.0000 22.2693
#
#
#
# Elastic Compliance Matrix: (Units=1/GPa)
#
#
# Indices 1 2 3 4 5 6 
#
# 1 0.011926 -0.002604 -0.002872 0.000000 0.002073 0.000000
# 2 -0.002604 0.011831 -0.005938 0.000000 0.003845 0.000000
# 3 -0.002872 -0.005938 0.013420 0.000000 -0.004424 0.000000
# 4 0.000000 0.000000 0.000000 0.457791 0.000000 -0.019306
# 5 0.002073 0.003845 -0.004424 0.000000 0.036555 0.000000
# 6 0.000000 0.000000 0.000000 -0.019306 0.000000 0.045719
#
#
# Mechanical properties :
#
#
# Convention : Reuss Voigt Hill
#
# Bulk Modulus (GPa) = 69.70075 71.83155 70.76615
# Shear Modulus (GPa) = 8.26646 23.87063 16.06854
#
# Velocity S-wave (km/s) = 2.04907 3.48199 2.85683
# Velocity P-wave (km/s) = 6.40315 7.25604 6.84290
#
# Compressibility (1/GPa) = 0.01434705
#
# Stress axis : x y z
#
# Youngs Moduli (GPa) = 83.85381 84.52311 74.51616
#
# Poissons Ratio (x) = 0.22008 0.21404
# Poissons Ratio (y) = 0.21834 0.44251
# Poissons Ratio (z) = 0.24086 0.50194
#
# Static dielectric constant tensor:
#      x y z
#    x 3.777010 0.000000 -0.092930 
#    y 0.000000 3.231400 0.000000 
#    z -0.092930 0.000000 3.736770 
# 
# 
# High freq. dielectric constant tensor:
#      x y z
#    x 1.780230 0.000000 0.003170 
#    y 0.000000 1.773340 0.000000 
#    z 0.003170 0.000000 1.772970 
# 
# From -- ./inp_files/52136.got.cif
#   From: 2010.06.25/outbox.cif.g09.slc.cpg/sg15_27_cif.got.tgz:52136.got - 2010.06.28 07:06:18.
