data_PCOD8143262
_publ_section_title
;
Structure prediction by ZEFSAII (Michael W. Deem and Ramdas Pophale) SiO2 
 PCOD8143262
Probable space group: C 2/C
;
_chemical_formula_sum "Si O2"
_cell_formula_units_Z 56
_cell_length_a 16.813024
_cell_length_b 9.407080
_cell_length_c 25.906769
_cell_angle_alpha 90.000000
_cell_angle_beta 138.598595
_cell_angle_gamma 90.000000
_cell_volume 2709.769295
_symmetry_space_group_name_H-M "C 2/C"
_symmetry_group_IT_number 15
_symmetry_cell_setting 'monoclinic'
loop_
_space_group_symop_operation_xyz
x,y,z
-x,y,1/2-z
-x,-y,-z
x,-y,1/2+z
1/2+x,1/2+y,z
1/2-x,1/2+y,1/2-z
1/2-x,1/2-y,-z
1/2+x,1/2-y,1/2+z
loop_
_atom_site_type_symbol
_atom_site_label
_atom_site_fract_x
_atom_site_fract_y
_atom_site_fract_z
Si Si1 0.406866 0.878569 0.544726
Si Si2 0.663226 0.420764 0.476308
Si Si3 0.560898 0.559351 0.332357
Si Si4 0.118017 0.209989 0.180061
Si Si5 0.317531 0.096398 0.419103
Si Si6 0.452533 0.369330 0.509896
Si Si7 0.835907 0.474336 0.813052
O O1 0.391695 0.714189 0.519141
O O2 0.305671 0.904663 0.538708
O O3 0.535839 0.899768 0.633608
O O4 0.393742 0.987042 0.490983
O O5 0.592027 0.429736 0.386534
O O6 0.646170 0.566057 0.499124
O O7 0.500000 0.501111 0.250000
O O8 0.472225 0.670676 0.317124
O O9 0.688383 0.633799 0.381007
O O10 0.161898 0.369751 0.210503
O O11 0.233589 0.109665 0.232966
O O12 0.057550 0.200142 0.094722
O O13 0.391148 0.243444 0.447061
O O14 0.300080 0.022358 0.355737
O O15 0.500000 0.500000 0.500000
#
# Coordination Sequence:
#
# PCOD8143262 Si02
#       7
#     8   8   8   8   8   8   8
#     4  10  21  40  64  95 129 165 209 266 321 386
#     4   9  22  38  66  96 126 166 216 266 319 381
#     4  10  21  42  66  92 128 171 219 259 330 393
#     4  11  27  41  64  97 129 173 213 272 326 391
#     4  11  23  40  70  92 124 176 214 263 321 393
#     4  11  24  41  66  96 131 168 224 265 322 394
#     4  12  25  41  65  93 131 166 217 266 332 382
#
# _framework density 20.665966000000001
#
# number of rings (size 3 to 8) (size 9 to 14) (size 15 to 20)
#    0.000    1.429    2.857    1.286   10.000    1.714 
#    0.000    0.000    0.000    0.000    0.000    0.000 
#    0.000    0.000    0.000    0.000    0.000    0.000 
#
# Total GULP energy -347206.820839 kJ/mol
# GULP energy per Si atom -12400.243601 kJ/mol
# Density = 2.061893 g / cm^3
# Si number density = 20.665966 Si / 1000 Ang^3
#
#
#
# Elastic Constant Matrix: (Units=GPa)
#
#
# Indices 1 2 3 4 5 6 
#
# 1 77.6793 39.2748 32.1700 0.0000 17.4779 0.0000
# 2 39.2748 115.5595 20.9865 0.0000 14.0899 0.0000
# 3 32.1700 20.9865 73.4087 0.0000 16.2917 0.0000
# 4 0.0000 0.0000 0.0000 30.0070 0.0000 2.1212
# 5 17.4779 14.0899 16.2917 0.0000 35.9051 0.0000
# 6 0.0000 0.0000 0.0000 2.1212 0.0000 32.4444
#
#
#
# Elastic Compliance Matrix: (Units=1/GPa)
#
#
# Indices 1 2 3 4 5 6 
#
# 1 0.018721 -0.004743 -0.005825 0.000000 -0.004609 0.000000
# 2 -0.004743 0.010564 -0.000594 0.000000 -0.001568 0.000000
# 3 -0.005825 -0.000594 0.017418 0.000000 -0.004835 0.000000
# 4 0.000000 0.000000 0.000000 0.033480 0.000000 -0.002189
# 5 -0.004609 -0.001568 -0.004835 0.000000 0.032903 0.000000
# 6 0.000000 0.000000 0.000000 -0.002189 0.000000 0.030965
#
#
# Mechanical properties :
#
#
# Convention : Reuss Voigt Hill
#
# Bulk Modulus (GPa) = 41.01872 50.16780 45.59326
# Shear Modulus (GPa) = 28.65290 31.28571 29.96931
#
# Velocity S-wave (km/s) = 3.72758 3.89508 3.81225
# Velocity P-wave (km/s) = 6.19823 6.67511 6.44108
#
# Compressibility (1/GPa) = 0.02437912
#
# Stress axis : x y z
#
# Youngs Moduli (GPa) = 53.41647 94.65720 57.41199
#
# Poissons Ratio (x) = 0.44893 0.33445
# Poissons Ratio (y) = 0.25334 0.03410
# Poissons Ratio (z) = 0.31117 0.05622
#
# Static dielectric constant tensor:
#      x y z
#    x 3.886130 0.000000 0.169880 
#    y 0.000000 3.801280 0.000000 
#    z 0.169880 0.000000 3.746760 
# 
# 
# High freq. dielectric constant tensor:
#      x y z
#    x 1.819310 0.000000 0.016510 
#    y 0.000000 1.805540 0.000000 
#    z 0.016510 0.000000 1.801680 
# 
# From -- ./inp_files/298586.got.cif
#   From: 2010.06.25/outbox.cif.g09.slc.cpg/sg15_150_cif.got.tgz:298586.got - 2010.06.28 07:06:18.
