data_PCOD8143930
_publ_section_title
;
Structure prediction by ZEFSAII (Michael W. Deem and Ramdas Pophale) SiO2 
 PCOD8143930
Probable space group: C 2/C
;
_chemical_formula_sum "Si O2"
_cell_formula_units_Z 64
_cell_length_a 31.995890
_cell_length_b 8.958035
_cell_length_c 24.377533
_cell_angle_alpha 90.000000
_cell_angle_beta 154.320708
_cell_angle_gamma 90.000000
_cell_volume 3027.741920
_symmetry_space_group_name_H-M "C 2/C"
_symmetry_group_IT_number 15
_symmetry_cell_setting 'monoclinic'
loop_
_space_group_symop_operation_xyz
x,y,z
-x,y,1/2-z
-x,-y,-z
x,-y,1/2+z
1/2+x,1/2+y,z
1/2-x,1/2+y,1/2-z
1/2-x,1/2-y,-z
1/2+x,1/2-y,1/2+z
loop_
_atom_site_type_symbol
_atom_site_label
_atom_site_fract_x
_atom_site_fract_y
_atom_site_fract_z
Si Si1 0.960221 0.367385 0.837981
Si Si2 0.401593 0.386213 0.505339
Si Si3 0.333726 0.441959 0.314236
Si Si4 0.812782 0.213885 0.126223
Si Si5 0.148432 0.718664 0.626279
Si Si6 0.697905 0.930423 0.293533
Si Si7 0.095313 0.058054 0.724918
Si Si8 0.992848 0.638493 0.676254
O O1 0.007496 0.468933 0.846525
O O2 0.872879 0.447273 0.765924
O O3 0.905676 0.222158 0.749211
O O4 0.043637 0.301387 0.975401
O O5 0.391956 0.343852 0.429035
O O6 0.306167 0.487042 0.406693
O O7 0.494262 0.487062 0.623322
O O8 0.404099 0.234783 0.546085
O O9 0.229689 0.361107 0.184157
O O10 0.326258 0.609733 0.329895
O O11 0.391045 0.437929 0.324838
O O12 0.772878 0.295301 0.131968
O O13 0.918169 0.275888 0.243039
O O14 0.818125 0.036176 0.144462
O O15 0.750000 0.250000 0.000000
O O16 0.141728 0.631557 0.675162
O O17 0.000000 0.636267 0.750000
#
# Coordination Sequence:
#
# PCOD8143930 Si02
#       8
#     8   8   8   8   8   8   8   8
#     4  11  25  39  65  97 134 171 217 279 339 393
#     4  10  22  40  65  92 129 175 225 265 322 403
#     4  11  24  39  65  99 139 173 222 265 337 401
#     4  10  21  41  67  91 120 171 227 270 322 389
#     4  11  24  40  62  98 136 178 217 268 336 404
#     4  10  22  41  61  95 132 173 224 266 330 402
#     4  11  23  41  64  96 135 173 214 281 332 389
#     4  10  23  43  65  91 124 170 221 276 328 393
#
# _framework density 21.137865000000001
#
# number of rings (size 3 to 8) (size 9 to 14) (size 15 to 20)
#    0.000    1.500    2.500    1.500    7.000    1.000 
#    0.000    6.250    0.000    0.000    0.000    0.000 
#    0.000    0.000    0.000    0.000    0.000    0.000 
#
# Total GULP energy -396451.474959 kJ/mol
# GULP energy per Si atom -12389.108592 kJ/mol
# Density = 2.108975 g / cm^3
# Si number density = 21.137865 Si / 1000 Ang^3
#
#
#
# Elastic Constant Matrix: (Units=GPa)
#
#
# Indices 1 2 3 4 5 6 
#
# 1 78.3387 38.7765 19.8968 0.0000 -5.5806 0.0000
# 2 38.7765 149.0861 41.8460 -0.0001 -2.3424 0.0000
# 3 19.8968 41.8460 82.3665 0.0000 -3.3663 0.0000
# 4 0.0000 -0.0001 0.0000 56.4121 0.0000 -10.4020
# 5 -5.5806 -2.3424 -3.3663 0.0000 35.5414 0.0000
# 6 0.0000 0.0000 0.0000 -10.4020 0.0000 30.8521
#
#
#
# Elastic Compliance Matrix: (Units=1/GPa)
#
#
# Indices 1 2 3 4 5 6 
#
# 1 0.015038 -0.003363 -0.001844 0.000000 0.001965 0.000000
# 2 -0.003363 0.008576 -0.003557 0.000000 -0.000300 0.000000
# 3 -0.001844 -0.003557 0.014428 0.000000 0.000843 0.000000
# 4 0.000000 0.000000 0.000000 0.018902 0.000000 0.006373
# 5 0.001965 -0.000300 0.000843 0.000000 0.028505 0.000000
# 6 0.000000 0.000000 0.000000 0.006373 0.000000 0.034561
#
#
# Mechanical properties :
#
#
# Convention : Reuss Voigt Hill
#
# Bulk Modulus (GPa) = 48.74614 56.75889 52.75252
# Shear Modulus (GPa) = 34.63212 38.51260 36.57236
#
# Velocity S-wave (km/s) = 4.05210 4.27309 4.16406
# Velocity P-wave (km/s) = 6.70849 7.15931 6.93756
#
# Compressibility (1/GPa) = 0.02051444
#
# Stress axis : x y z
#
# Youngs Moduli (GPa) = 66.49845 116.60676 69.31103
#
# Poissons Ratio (x) = 0.39214 0.12780
# Poissons Ratio (y) = 0.22363 0.24653
# Poissons Ratio (z) = 0.12261 0.41475
#
# Static dielectric constant tensor:
#      x y z
#    x 3.698660 0.000000 0.200150 
#    y 0.000000 4.139110 0.000000 
#    z 0.200150 0.000000 3.793180 
# 
# 
# High freq. dielectric constant tensor:
#      x y z
#    x 1.828300 0.000000 0.015730 
#    y 0.000000 1.829670 0.000000 
#    z 0.015730 0.000000 1.825030 
# 
# From -- ./inp_files/284438.got.cif
#   From: 2010.06.25/outbox.cif.g09.slc.cpg/sg15_143_cif.got.tgz:284438.got - 2010.06.28 07:06:18.
