data_PCOD8143565
_publ_section_title
;
Structure prediction by ZEFSAII (Michael W. Deem and Ramdas Pophale) SiO2 
 PCOD8143565
Probable space group: C 2/C
;
_chemical_formula_sum "Si O2"
_cell_formula_units_Z 40
_cell_length_a 18.640448
_cell_length_b 15.524031
_cell_length_c 10.184373
_cell_angle_alpha 90.000000
_cell_angle_beta 146.410610
_cell_angle_gamma 90.000000
_cell_volume 1630.446666
_symmetry_space_group_name_H-M "C 2/C"
_symmetry_group_IT_number 15
_symmetry_cell_setting 'monoclinic'
loop_
_space_group_symop_operation_xyz
x,y,z
-x,y,1/2-z
-x,-y,-z
x,-y,1/2+z
1/2+x,1/2+y,z
1/2-x,1/2+y,1/2-z
1/2-x,1/2-y,-z
1/2+x,1/2-y,1/2+z
loop_
_atom_site_type_symbol
_atom_site_label
_atom_site_fract_x
_atom_site_fract_y
_atom_site_fract_z
Si Si1 0.724019 0.884454 0.820102
Si Si2 0.006848 0.712424 0.112828
Si Si3 0.640275 0.491905 0.278269
Si Si4 0.821536 0.178251 0.192125
Si Si5 0.615029 0.961754 0.026041
O O1 0.654146 0.815620 0.807918
O O2 0.752682 0.839009 0.726731
O O3 0.620851 0.963398 0.645146
O O4 0.851598 0.924346 0.087625
O O5 0.000000 0.749756 0.250000
O O6 0.964908 0.785925 0.945869
O O7 0.907482 0.632173 0.946178
O O8 0.671787 0.589059 0.378212
O O9 0.744957 0.462608 0.330806
O O10 0.500000 0.500000 0.000000
O O11 0.750000 0.250000 0.000000
O O12 0.500000 0.983576 0.750000
#
# Coordination Sequence:
#
# PCOD8143565 Si02
#       5
#     8   8   8   8   8
#     4  11  24  44  76 100 152 198 252 308 378 454
#     4  11  23  42  74 108 145 192 255 308 382 445
#     4  11  25  46  72 106 150 204 250 305 381 461
#     4  11  28  45  70 113 152 185 254 319 384 445
#     4  10  21  40  72 106 139 192 258 297 361 460
#
# _framework density 24.533155000000001
#
# number of rings (size 3 to 8) (size 9 to 14) (size 15 to 20)
#    0.000    1.200    4.000    1.800    8.400    4.800 
#    0.000    4.000    0.000    0.000    0.000    0.000 
#    0.000    0.000    0.000    0.000    0.000    0.000 
#
# Total GULP energy -247920.852417 kJ/mol
# GULP energy per Si atom -12396.042621 kJ/mol
# Density = 2.447732 g / cm^3
# Si number density = 24.533155 Si / 1000 Ang^3
#
#
#
# Elastic Constant Matrix: (Units=GPa)
#
#
# Indices 1 2 3 4 5 6 
#
# 1 81.8392 37.8977 40.9649 0.0000 -9.2365 0.0000
# 2 37.8977 104.1440 31.2583 0.0000 -3.8675 0.0000
# 3 40.9649 31.2583 123.6779 0.0000 5.0670 0.0000
# 4 0.0000 0.0000 0.0000 56.8881 0.0000 -15.8941
# 5 -9.2365 -3.8675 5.0670 0.0000 35.1115 0.0000
# 6 0.0000 0.0000 0.0000 -15.8941 0.0000 37.7755
#
#
#
# Elastic Compliance Matrix: (Units=1/GPa)
#
#
# Indices 1 2 3 4 5 6 
#
# 1 0.017297 -0.004698 -0.004735 0.000000 0.004716 0.000000
# 2 -0.004698 0.011749 -0.001424 0.000000 0.000264 0.000000
# 3 -0.004735 -0.001424 0.010131 0.000000 -0.002865 0.000000
# 4 0.000000 0.000000 0.000000 0.019920 0.000000 0.008381
# 5 0.004716 0.000264 -0.002865 0.000000 0.030164 0.000000
# 6 0.000000 0.000000 0.000000 0.008381 0.000000 0.029999
#
#
# Mechanical properties :
#
#
# Convention : Reuss Voigt Hill
#
# Bulk Modulus (GPa) = 57.26463 58.87810 58.07137
# Shear Modulus (GPa) = 34.06117 39.25770 36.65943
#
# Velocity S-wave (km/s) = 3.73013 4.00458 3.86979
# Velocity P-wave (km/s) = 6.47644 6.74045 6.60976
#
# Compressibility (1/GPa) = 0.01746278
#
# Stress axis : x y z
#
# Youngs Moduli (GPa) = 57.81355 85.11423 98.70550
#
# Poissons Ratio (x) = 0.39987 0.46737
# Poissons Ratio (y) = 0.27161 0.14057
# Poissons Ratio (z) = 0.27375 0.12121
#
# Static dielectric constant tensor:
#      x y z
#    x 4.245070 0.000000 -0.081080 
#    y 0.000000 4.942010 0.000000 
#    z -0.081080 0.000000 4.501560 
# 
# 
# High freq. dielectric constant tensor:
#      x y z
#    x 1.959430 0.000000 -0.003650 
#    y 0.000000 1.990650 0.000000 
#    z -0.003650 0.000000 1.977280 
# 
# From -- ./inp_files/113741.got.cif
#   From: 2010.06.25/outbox.cif.g09.slc.cpg/sg15_57_cif.got.tgz:113741.got - 2010.06.28 07:06:18.
