data_PCOD8143689
_publ_section_title
;
Structure prediction by ZEFSAII (Michael W. Deem and Ramdas Pophale) SiO2 
 PCOD8143689
Probable space group: C 2/C
;
_chemical_formula_sum "Si O2"
_cell_formula_units_Z 52
_cell_length_a 20.916777
_cell_length_b 8.370743
_cell_length_c 28.618667
_cell_angle_alpha 90.000000
_cell_angle_beta 31.816966
_cell_angle_gamma 90.000000
_cell_volume 2641.737757
_symmetry_space_group_name_H-M "C 2/C"
_symmetry_group_IT_number 15
_symmetry_cell_setting 'monoclinic'
loop_
_space_group_symop_operation_xyz
x,y,z
-x,y,1/2-z
-x,-y,-z
x,-y,1/2+z
1/2+x,1/2+y,z
1/2-x,1/2+y,1/2-z
1/2-x,1/2-y,-z
1/2+x,1/2-y,1/2+z
loop_
_atom_site_type_symbol
_atom_site_label
_atom_site_fract_x
_atom_site_fract_y
_atom_site_fract_z
Si Si1 0.492686 0.250074 0.517370
Si Si2 0.500000 0.342397 0.250000
Si Si3 0.201854 0.422374 0.076852
Si Si4 0.213669 0.942058 0.578311
Si Si5 0.546729 0.073069 0.294476
Si Si6 0.025839 0.532861 0.057670
Si Si7 0.699073 0.506753 0.393532
O O1 0.517357 0.148055 0.456116
O O2 0.612326 0.355426 0.446690
O O3 0.368287 0.346054 0.588863
O O4 0.477789 0.144593 0.573718
O O5 0.398796 0.458020 0.333596
O O6 0.550608 0.236039 0.261683
O O7 0.205665 0.244631 0.096294
O O8 0.264545 0.542155 0.075033
O O9 0.060975 0.462504 0.157644
O O10 0.279372 0.447664 0.982160
O O11 0.329312 0.024275 0.529845
O O12 0.528079 0.103183 0.361018
O O13 0.673662 0.978089 0.211997
#
# Coordination Sequence:
#
# PCOD8143689 Si02
#       7
#     8   4   8   8   8   8   8
#     4  10  23  39  64  83 120 173 205 244 303 362
#     4  12  24  36  60 104 118 160 198 266 322 366
#     4  10  21  41  63  89 123 167 196 260 316 369
#     4  10  23  38  63  91 124 158 210 253 319 365
#     4  11  24  39  63  92 126 153 205 263 318 357
#     4  10  22  42  60  88 122 164 204 252 303 370
#     4  11  21  40  62  89 122 160 209 252 297 371
#
# _framework density 19.684014999999999
#
# number of rings (size 3 to 8) (size 9 to 14) (size 15 to 20)
#    0.000    1.538    3.077    0.923    4.308    2.462 
#    0.000    0.000    0.000    0.000    0.000    0.000 
#    0.000    0.000    0.000    0.000    0.000    0.000 
#
# Total GULP energy -322319.497787 kJ/mol
# GULP energy per Si atom -12396.903761 kJ/mol
# Density = 1.963921 g / cm^3
# Si number density = 19.684015 Si / 1000 Ang^3
#
#
#
# Elastic Constant Matrix: (Units=GPa)
#
#
# Indices 1 2 3 4 5 6 
#
# 1 104.2180 31.4917 53.1901 0.0003 1.6090 0.0057
# 2 31.4917 71.6385 47.5848 -0.0005 11.7901 0.0134
# 3 53.1901 47.5848 134.8674 0.0012 -5.3033 0.0003
# 4 0.0003 -0.0005 0.0012 25.3143 -0.0017 3.2097
# 5 1.6090 11.7901 -5.3033 -0.0017 28.2391 0.0006
# 6 0.0057 0.0134 0.0003 3.2097 0.0006 24.9821
#
#
#
# Elastic Compliance Matrix: (Units=1/GPa)
#
#
# Indices 1 2 3 4 5 6 
#
# 1 0.012457 -0.002823 -0.003927 0.000000 -0.000269 -0.000001
# 2 -0.002823 0.021390 -0.006829 0.000001 -0.010052 -0.000011
# 3 -0.003927 -0.006829 0.011579 -0.000001 0.005250 0.000004
# 4 0.000000 0.000001 -0.000001 0.040157 0.000002 -0.005160
# 5 -0.000269 -0.010052 0.005250 0.000002 0.040610 0.000004
# 6 -0.000001 -0.000011 0.000004 -0.005160 0.000004 0.040692
#
#
# Mechanical properties :
#
#
# Convention : Reuss Voigt Hill
#
# Bulk Modulus (GPa) = 54.74069 63.91745 59.32907
# Shear Modulus (GPa) = 24.98325 27.60426 26.29376
#
# Velocity S-wave (km/s) = 3.56647 3.74889 3.65881
# Velocity P-wave (km/s) = 6.69550 7.16108 6.93220
#
# Compressibility (1/GPa) = 0.01826795
#
# Stress axis : x y z
#
# Youngs Moduli (GPa) = 80.27692 46.74995 86.35964
#
# Poissons Ratio (x) = 0.13198 0.33917
# Poissons Ratio (y) = 0.22662 0.58975
# Poissons Ratio (z) = 0.31528 0.31926
#
# Static dielectric constant tensor:
#      x y z
#    x 3.852390 -0.000010 -0.010210 
#    y -0.000010 3.697670 0.000010 
#    z -0.010210 0.000010 3.506910 
# 
# 
# High freq. dielectric constant tensor:
#      x y z
#    x 1.783000 0.000000 -0.006240 
#    y 0.000000 1.764960 0.000000 
#    z -0.006240 0.000000 1.762370 
# 
# From -- ./inp_files/166283.got.cif
#   From: 2010.06.25/outbox.cif.g09.slc.cpg/sg15_84_cif.got.tgz:166283.got - 2010.06.28 07:06:18.
