data_PCOD8143559
_publ_section_title
;
Structure prediction by ZEFSAII (Michael W. Deem and Ramdas Pophale) SiO2 
 PCOD8143559
Probable space group: C 2/C
;
_chemical_formula_sum "Si O2"
_cell_formula_units_Z 36
_cell_length_a 7.408772
_cell_length_b 18.379320
_cell_length_c 17.725011
_cell_angle_alpha 90.000000
_cell_angle_beta 142.531916
_cell_angle_gamma 90.000000
_cell_volume 1468.229188
_symmetry_space_group_name_H-M "C 2/C"
_symmetry_group_IT_number 15
_symmetry_cell_setting 'monoclinic'
loop_
_space_group_symop_operation_xyz
x,y,z
-x,y,1/2-z
-x,-y,-z
x,-y,1/2+z
1/2+x,1/2+y,z
1/2-x,1/2+y,1/2-z
1/2-x,1/2-y,-z
1/2+x,1/2-y,1/2+z
loop_
_atom_site_type_symbol
_atom_site_label
_atom_site_fract_x
_atom_site_fract_y
_atom_site_fract_z
Si Si1 0.796246 0.115127 0.304485
Si Si2 0.444455 0.707680 0.984141
Si Si3 0.947811 0.647758 0.046147
Si Si4 0.000000 0.621159 0.750000
Si Si5 0.529368 0.534130 0.848735
O O1 0.500000 0.089831 0.250000
O O2 0.718395 0.136408 0.193281
O O3 0.946879 0.183314 0.396965
O O4 0.032113 0.049145 0.379297
O O5 0.436858 0.796060 0.980037
O O6 0.128110 0.672707 0.858870
O O7 0.666725 0.681484 0.993843
O O8 0.842618 0.571042 0.975833
O O9 0.749289 0.571937 0.704228
O O10 0.500000 0.538776 0.750000
#
# Coordination Sequence:
#
# PCOD8143559 Si02
#       5
#     8   8   8   4   8
#     4  10  21  40  71  96 136 180 226 273 341 397
#     4   9  20  40  67  96 132 181 223 277 334 404
#     4   9  21  40  65  98 138 173 226 274 341 397
#     4  10  22  42  70  98 132 180 230 272 334 404
#     4  11  24  41  68 100 137 177 222 282 335 400
#
# _framework density 24.519333
#
# number of rings (size 3 to 8) (size 9 to 14) (size 15 to 20)
#    0.000    2.222    1.111    0.000    3.111    9.778 
#    2.000    2.222    0.000    0.000    0.000    0.000 
#    0.000    0.000    0.000    0.000    0.000    0.000 
#
# Total GULP energy -223186.056581 kJ/mol
# GULP energy per Si atom -12399.225366 kJ/mol
# Density = 2.446353 g / cm^3
# Si number density = 24.519333 Si / 1000 Ang^3
#
#
#
# Elastic Constant Matrix: (Units=GPa)
#
#
# Indices 1 2 3 4 5 6 
#
# 1 78.9730 35.2753 32.5001 0.0006 -16.0195 -0.0006
# 2 35.2753 189.0762 84.0959 -0.0001 -34.4360 -0.0004
# 3 32.5001 84.0959 162.0272 0.0009 -42.2086 -0.0008
# 4 0.0006 -0.0001 0.0009 16.4473 0.0007 -34.8041
# 5 -16.0195 -34.4360 -42.2086 0.0007 34.4304 -0.0005
# 6 -0.0006 -0.0004 -0.0008 -34.8041 -0.0005 -10.8030
#
#
#
# Elastic Compliance Matrix: (Units=1/GPa)
#
#
# Indices 1 2 3 4 5 6 
#
# 1 0.014592 -0.001511 -0.001128 0.000000 0.003895 0.000000
# 2 -0.001511 0.007365 -0.002621 0.000000 0.003450 0.000000
# 3 -0.001128 -0.002621 0.010194 0.000000 0.009352 0.000000
# 4 0.000000 0.000000 0.000000 0.007777 -0.000001 -0.025057
# 5 0.003895 0.003450 0.009352 -0.000001 0.045771 0.000001
# 6 0.000000 0.000000 0.000000 -0.025057 0.000001 -0.011841
#
#
# Mechanical properties :
#
#
# Convention : Reuss Voigt Hill
#
# Bulk Modulus (GPa) = 46.22896 81.53544 63.88220
# Shear Modulus (GPa) = 54.59205 26.56196 40.57700
#
# Velocity S-wave (km/s) = 4.72369 3.29493 4.07246
# Velocity P-wave (km/s) = 6.97467 6.91384 6.94432
#
# Compressibility (1/GPa) = 0.02163146
#
# Stress axis : x y z
#
# Youngs Moduli (GPa) = 68.53139 135.78163 98.09451
#
# Poissons Ratio (x) = 0.20521 0.11063
# Poissons Ratio (y) = 0.10357 0.25706
# Poissons Ratio (z) = 0.07729 0.35582
#
# Static dielectric constant tensor:
#      x y z
#    x 4.356080 0.000000 0.105470 
#    y 0.000000 4.709370 0.000000 
#    z 0.105470 0.000000 4.375590 
# 
# 
# High freq. dielectric constant tensor:
#      x y z
#    x 1.984290 0.000000 0.007140 
#    y 0.000000 1.979430 0.000000 
#    z 0.007140 0.000000 1.973160 
# 
# From -- ./inp_files/190140.got.cif
#   From: 2010.06.25/outbox.cif.g09.slc.cpg/sg15_96_cif.got.tgz:190140.got - 2010.06.28 07:06:18.
