data_PCOD8143624
_publ_section_title
;
Structure prediction by ZEFSAII (Michael W. Deem and Ramdas Pophale) SiO2 
 PCOD8143624
Probable space group: C 2/C
;
_chemical_formula_sum "Si O2"
_cell_formula_units_Z 52
_cell_length_a 16.473296
_cell_length_b 9.177787
_cell_length_c 26.401402
_cell_angle_alpha 90.000000
_cell_angle_beta 138.862475
_cell_angle_gamma 90.000000
_cell_volume 2625.939104
_symmetry_space_group_name_H-M "C 2/C"
_symmetry_group_IT_number 15
_symmetry_cell_setting 'monoclinic'
loop_
_space_group_symop_operation_xyz
x,y,z
-x,y,1/2-z
-x,-y,-z
x,-y,1/2+z
1/2+x,1/2+y,z
1/2-x,1/2+y,1/2-z
1/2-x,1/2-y,-z
1/2+x,1/2-y,1/2+z
loop_
_atom_site_type_symbol
_atom_site_label
_atom_site_fract_x
_atom_site_fract_y
_atom_site_fract_z
Si Si1 0.395699 0.317207 0.798767
Si Si2 0.293598 0.002532 0.101820
Si Si3 0.143331 0.727542 0.563695
Si Si4 0.500000 0.176384 0.750000
Si Si5 0.079842 0.533291 0.441730
Si Si6 0.192027 0.551086 0.683322
Si Si7 0.076192 0.789169 0.971799
O O1 0.468814 0.279501 0.782328
O O2 0.311482 0.456659 0.750250
O O3 0.313064 0.180987 0.778118
O O4 0.495463 0.357698 0.888463
O O5 0.383465 0.924661 0.183438
O O6 0.231855 0.134185 0.102731
O O7 0.368570 0.066259 0.089596
O O8 0.193015 0.888153 0.035682
O O9 0.135025 0.652450 0.505320
O O10 0.201127 0.615226 0.631023
O O11 0.007263 0.779242 0.516949
O O12 0.121759 0.372202 0.478511
O O13 0.931591 0.545730 0.370483
#
# Coordination Sequence:
#
# PCOD8143624 Si02
#       7
#     8   8   8   4   8   8   8
#     4  10  24  41  65  91 126 166 213 257 318 366
#     4  12  24  40  65  90 133 161 211 256 309 382
#     4  10  23  39  64  96 124 168 209 255 316 359
#     4  12  26  40  62  94 124 172 198 264 328 356
#     4  10  21  41  61  93 123 168 204 264 314 355
#     4  10  22  43  63  92 127 166 212 262 304 381
#     4  10  22  42  63  94 122 167 215 253 306 378
#
# _framework density 19.802440000000001
#
# number of rings (size 3 to 8) (size 9 to 14) (size 15 to 20)
#    0.000    1.846    3.077    3.231    8.615    1.231 
#    0.000    3.846    0.000    0.000    0.000    0.000 
#    0.000    0.000    0.000    0.000    0.000    0.000 
#
# Total GULP energy -322491.089552 kJ/mol
# GULP energy per Si atom -12403.503444 kJ/mol
# Density = 1.975737 g / cm^3
# Si number density = 19.802440 Si / 1000 Ang^3
#
#
#
# Elastic Constant Matrix: (Units=GPa)
#
#
# Indices 1 2 3 4 5 6 
#
# 1 61.4986 8.7321 11.0412 0.0000 -5.8625 0.0000
# 2 8.7321 39.1793 32.8411 0.0000 17.2076 0.0000
# 3 11.0412 32.8411 98.8399 0.0000 13.4287 0.0000
# 4 0.0000 0.0000 0.0000 31.9802 0.0000 13.3096
# 5 -5.8625 17.2076 13.4287 0.0000 28.9618 0.0000
# 6 0.0000 0.0000 0.0000 13.3096 0.0000 8.0839
#
#
#
# Elastic Compliance Matrix: (Units=1/GPa)
#
#
# Indices 1 2 3 4 5 6 
#
# 1 0.018179 -0.006953 -0.000834 0.000000 0.008198 0.000000
# 2 -0.006953 0.047540 -0.011730 0.000000 -0.024215 0.000000
# 3 -0.000834 -0.011730 0.014070 0.000000 0.000276 0.000000
# 4 0.000000 0.000000 0.000000 0.099335 0.000000 -0.163548
# 5 0.008198 -0.024215 0.000276 0.000000 0.050447 0.000000
# 6 0.000000 0.000000 0.000000 -0.163548 0.000000 0.392973
#
#
# Mechanical properties :
#
#
# Convention : Reuss Voigt Hill
#
# Bulk Modulus (GPa) = 24.53581 33.86075 29.19828
# Shear Modulus (GPa) = 7.40562 23.59874 15.50218
#
# Velocity S-wave (km/s) = 1.93594 3.45586 2.80097
# Velocity P-wave (km/s) = 4.17305 5.74981 5.02368
#
# Compressibility (1/GPa) = 0.04075675
#
# Stress axis : x y z
#
# Youngs Moduli (GPa) = 55.00856 21.03470 71.07131
#
# Poissons Ratio (x) = 0.14625 0.05930
# Poissons Ratio (y) = 0.38246 0.83363
# Poissons Ratio (z) = 0.04590 0.24673
#
# Static dielectric constant tensor:
#      x y z
#    x 3.721320 0.000000 -0.066880 
#    y 0.000000 3.445640 0.000000 
#    z -0.066880 0.000000 3.543950 
# 
# 
# High freq. dielectric constant tensor:
#      x y z
#    x 1.785030 0.000000 -0.007540 
#    y 0.000000 1.762990 0.000000 
#    z -0.007540 0.000000 1.772080 
# 
# From -- ./inp_files/298434.got.cif
#   From: 2010.06.25/outbox.cif.g09.slc.cpg/sg15_150_cif.got.tgz:298434.got - 2010.06.28 07:06:18.
