data_PCOD8143932
_publ_section_title
;
Structure prediction by ZEFSAII (Michael W. Deem and Ramdas Pophale) SiO2 
 PCOD8143932
Probable space group: C 2/C
;
_chemical_formula_sum "Si O2"
_cell_formula_units_Z 48
_cell_length_a 17.310773
_cell_length_b 27.665507
_cell_length_c 10.070013
_cell_angle_alpha 90.000000
_cell_angle_beta 30.288314
_cell_angle_gamma 90.000000
_cell_volume 2432.307375
_symmetry_space_group_name_H-M "C 2/C"
_symmetry_group_IT_number 15
_symmetry_cell_setting 'monoclinic'
loop_
_space_group_symop_operation_xyz
x,y,z
-x,y,1/2-z
-x,-y,-z
x,-y,1/2+z
1/2+x,1/2+y,z
1/2-x,1/2+y,1/2-z
1/2-x,1/2-y,-z
1/2+x,1/2-y,1/2+z
loop_
_atom_site_type_symbol
_atom_site_label
_atom_site_fract_x
_atom_site_fract_y
_atom_site_fract_z
Si Si1 0.559387 0.874904 0.451030
Si Si2 0.417782 0.030709 0.734576
Si Si3 0.900043 0.980944 0.268126
Si Si4 0.742021 0.118354 0.942508
Si Si5 0.826555 0.269274 0.253879
Si Si6 0.145570 0.222236 0.759017
O O1 0.572433 0.912639 0.311854
O O2 0.662125 0.892973 0.420975
O O3 0.616522 0.823932 0.310095
O O4 0.383801 0.871174 0.757759
O O5 0.500000 0.018896 0.750000
O O6 0.500000 0.000000 0.500000
O O7 0.242025 0.016490 0.004823
O O8 0.847655 0.926249 0.323504
O O9 0.000000 0.983216 0.250000
O O10 0.000000 0.000000 0.000000
O O11 0.848696 0.165105 0.774153
O O12 0.750000 0.250000 0.500000
O O13 0.701718 0.265275 0.323464
O O14 0.970348 0.236717 0.999787
O O15 0.250000 0.250000 0.500000
#
# Coordination Sequence:
#
# PCOD8143932 Si02
#       6
#     8   8   8   8   8   8
#     4  10  21  41  67  93 123 169 219 258 307 379
#     4  12  24  42  70  94 123 171 216 256 314 386
#     4  12  26  42  63  97 133 161 206 269 324 366
#     4  10  21  41  67  91 125 171 217 256 308 384
#     4  11  24  41  64  96 132 163 208 271 320 364
#     4  11  22  41  67  92 124 172 215 253 316 383
#
# _framework density 19.734345999999999
#
# number of rings (size 3 to 8) (size 9 to 14) (size 15 to 20)
#    0.000    1.000    3.333    4.000    0.000    4.000 
#    0.000    1.667    0.000    0.000    0.000    0.000 
#    0.000    0.000    0.000    0.000    0.000    0.000 
#
# Total GULP energy -297750.451975 kJ/mol
# GULP energy per Si atom -12406.268832 kJ/mol
# Density = 1.968943 g / cm^3
# Si number density = 19.734346 Si / 1000 Ang^3
#
#
#
# Elastic Constant Matrix: (Units=GPa)
#
#
# Indices 1 2 3 4 5 6 
#
# 1 112.9616 54.8540 47.5437 -0.0045 5.3318 0.0103
# 2 54.8540 111.4876 48.9119 -0.0002 7.2957 0.0009
# 3 47.5437 48.9119 138.1368 -0.0045 7.3453 0.0104
# 4 -0.0045 -0.0002 -0.0045 38.7342 0.0056 9.6565
# 5 5.3318 7.2957 7.3453 0.0056 38.3251 -0.0131
# 6 0.0103 0.0009 0.0104 9.6565 -0.0131 16.9864
#
#
#
# Elastic Compliance Matrix: (Units=1/GPa)
#
#
# Indices 1 2 3 4 5 6 
#
# 1 0.012311 -0.004956 -0.002467 0.000003 -0.000297 -0.000008
# 2 -0.004956 0.012680 -0.002720 -0.000002 -0.001203 0.000004
# 3 -0.002467 -0.002720 0.009098 0.000002 -0.000883 -0.000006
# 4 0.000003 -0.000002 0.000002 0.030080 -0.000011 -0.017100
# 5 -0.000297 -0.001203 -0.000883 -0.000011 0.026532 0.000027
# 6 -0.000008 0.000004 -0.000006 -0.017100 0.000027 0.068592
#
#
# Mechanical properties :
#
#
# Convention : Reuss Voigt Hill
#
# Bulk Modulus (GPa) = 72.44119 73.91168 73.17644
# Shear Modulus (GPa) = 27.14733 32.89425 30.02079
#
# Velocity S-wave (km/s) = 3.71298 4.08714 3.90455
# Velocity P-wave (km/s) = 7.42762 7.73354 7.58212
#
# Compressibility (1/GPa) = 0.01380430
#
# Stress axis : x y z
#
# Youngs Moduli (GPa) = 81.22626 78.86409 109.91051
#
# Poissons Ratio (x) = 0.39083 0.27112
# Poissons Ratio (y) = 0.40254 0.29897
# Poissons Ratio (z) = 0.20037 0.21452
#
# Static dielectric constant tensor:
#      x y z
#    x 3.891520 0.000010 -0.012350 
#    y 0.000010 3.675480 0.000000 
#    z -0.012350 0.000000 3.599920 
# 
# 
# High freq. dielectric constant tensor:
#      x y z
#    x 1.775270 0.000000 0.000350 
#    y 0.000000 1.783930 0.000000 
#    z 0.000350 0.000000 1.777040 
# 
# From -- ./inp_files/52743.got.cif
#   From: 2010.06.25/outbox.cif.g09.slc.cpg/sg15_27_cif.got.tgz:52743.got - 2010.06.28 07:06:18.
