data_PCOD8143850
_publ_section_title
;
Structure prediction by ZEFSAII (Michael W. Deem and Ramdas Pophale) SiO2 
 PCOD8143850
Probable space group: C 2/C
;
_chemical_formula_sum "Si O2"
_cell_formula_units_Z 48
_cell_length_a 12.370433
_cell_length_b 20.865415
_cell_length_c 12.042509
_cell_angle_alpha 90.000000
_cell_angle_beta 43.887498
_cell_angle_gamma 90.000000
_cell_volume 2154.841818
_symmetry_space_group_name_H-M "C 2/C"
_symmetry_group_IT_number 15
_symmetry_cell_setting 'monoclinic'
loop_
_space_group_symop_operation_xyz
x,y,z
-x,y,1/2-z
-x,-y,-z
x,-y,1/2+z
1/2+x,1/2+y,z
1/2-x,1/2+y,1/2-z
1/2-x,1/2-y,-z
1/2+x,1/2-y,1/2+z
loop_
_atom_site_type_symbol
_atom_site_label
_atom_site_fract_x
_atom_site_fract_y
_atom_site_fract_z
Si Si1 0.174583 0.202595 0.148211
Si Si2 0.619347 0.326107 0.260584
Si Si3 0.375544 0.263967 0.568922
Si Si4 0.853713 0.419721 0.602087
Si Si5 0.699403 0.940057 0.387839
Si Si6 0.332254 0.126339 0.358844
O O1 0.150196 0.240238 0.281095
O O2 0.285970 0.140884 0.084062
O O3 0.000000 0.178453 0.250000
O O4 0.250000 0.250000 0.000000
O O5 0.500000 0.330494 0.250000
O O6 0.557992 0.273917 0.399199
O O7 0.788388 0.299837 0.088145
O O8 0.662653 0.397449 0.273965
O O9 0.304592 0.323954 0.557332
O O10 0.762269 0.484584 0.637311
O O11 0.835553 0.416624 0.746929
O O12 0.038659 0.425957 0.440130
O O13 0.702569 0.920229 0.514077
O O14 0.500000 0.161795 0.250000
#
# Coordination Sequence:
#
# PCOD8143850 Si02
#       6
#     8   8   8   8   8   8
#     4  11  25  47  68  95 130 180 225 281 340 399
#     4  12  24  37  66 100 133 170 214 275 339 398
#     4  11  24  40  61  99 133 169 219 276 333 399
#     4   9  22  43  67  93 134 175 227 280 333 403
#     4  10  21  41  65  98 132 179 223 271 342 409
#     4   9  18  37  63  89 128 170 215 272 329 391
#
# _framework density 22.275417000000001
#
# number of rings (size 3 to 8) (size 9 to 14) (size 15 to 20)
#    0.000    1.667    1.667    2.000    9.333    0.667 
#    6.000    2.500    0.000    0.000    0.000    0.000 
#    0.000    0.000    0.000    0.000    0.000    0.000 
#
# Total GULP energy -297328.126144 kJ/mol
# GULP energy per Si atom -12388.671923 kJ/mol
# Density = 2.222472 g / cm^3
# Si number density = 22.275417 Si / 1000 Ang^3
#
#
#
# Elastic Constant Matrix: (Units=GPa)
#
#
# Indices 1 2 3 4 5 6 
#
# 1 93.4526 39.2018 30.9301 -0.0001 2.0447 0.0000
# 2 39.2018 115.3411 29.6066 0.0000 -1.9342 0.0000
# 3 30.9301 29.6066 87.4962 -0.0001 -5.9446 0.0001
# 4 -0.0001 0.0000 -0.0001 26.7046 0.0001 -8.1231
# 5 2.0447 -1.9342 -5.9446 0.0001 25.7125 -0.0001
# 6 0.0000 0.0000 0.0001 -8.1231 -0.0001 34.2329
#
#
#
# Elastic Compliance Matrix: (Units=1/GPa)
#
#
# Indices 1 2 3 4 5 6 
#
# 1 0.013512 -0.003685 -0.003679 0.000000 -0.002202 0.000000
# 2 -0.003685 0.010500 -0.002211 0.000000 0.000572 0.000000
# 3 -0.003679 -0.002211 0.013702 0.000000 0.003294 0.000000
# 4 0.000000 0.000000 0.000000 0.040360 0.000000 0.009577
# 5 -0.002202 0.000572 0.003294 0.000000 0.039871 0.000000
# 6 0.000000 0.000000 0.000000 0.009577 0.000000 0.031484
#
#
# Mechanical properties :
#
#
# Convention : Reuss Voigt Hill
#
# Bulk Modulus (GPa) = 53.87250 55.08523 54.47886
# Shear Modulus (GPa) = 28.60938 30.43344 29.52141
#
# Velocity S-wave (km/s) = 3.58767 3.70027 3.64440
# Velocity P-wave (km/s) = 6.43421 6.56040 6.49761
#
# Compressibility (1/GPa) = 0.01856235
#
# Stress axis : x y z
#
# Youngs Moduli (GPa) = 74.00625 95.24178 72.98324
#
# Poissons Ratio (x) = 0.35097 0.26853
# Poissons Ratio (y) = 0.27272 0.16139
# Poissons Ratio (z) = 0.27230 0.21061
#
# Static dielectric constant tensor:
#      x y z
#    x 4.368360 0.000000 -0.324800 
#    y 0.000000 4.004830 0.000000 
#    z -0.324800 0.000000 4.543370 
# 
# 
# High freq. dielectric constant tensor:
#      x y z
#    x 1.886410 0.000000 -0.010640 
#    y 0.000000 1.868040 0.000000 
#    z -0.010640 0.000000 1.875660 
# 
# From -- ./inp_files/89414.got.cif
#   From: 2010.06.25/outbox.cif.g09.slc.cpg/sg15_45_cif.got.tgz:89414.got - 2010.06.28 07:06:18.
