data_PCOD8144638
_publ_section_title
;
Structure prediction by ZEFSAII (Michael W. Deem and Ramdas Pophale) SiO2 
 PCOD8144638
Probable space group: C 2/C
;
_chemical_formula_sum "Si O2"
_cell_formula_units_Z 36
_cell_length_a 9.231835
_cell_length_b 22.123387
_cell_length_c 8.437859
_cell_angle_alpha 90.000000
_cell_angle_beta 67.184577
_cell_angle_gamma 90.000000
_cell_volume 1588.507279
_symmetry_space_group_name_H-M "C 2/C"
_symmetry_group_IT_number 15
_symmetry_cell_setting 'monoclinic'
loop_
_space_group_symop_operation_xyz
x,y,z
-x,y,1/2-z
-x,-y,-z
x,-y,1/2+z
1/2+x,1/2+y,z
1/2-x,1/2+y,1/2-z
1/2-x,1/2-y,-z
1/2+x,1/2-y,1/2+z
loop_
_atom_site_type_symbol
_atom_site_label
_atom_site_fract_x
_atom_site_fract_y
_atom_site_fract_z
Si Si1 0.500000 0.644426 0.750000
Si Si2 0.963100 0.630206 0.944103
Si Si3 0.236855 0.438527 0.468368
Si Si4 0.065352 0.257606 0.565099
Si Si5 0.816361 0.068033 0.301258
O O1 0.653423 0.603220 0.688691
O O2 0.493351 0.689037 0.596895
O O3 0.000000 0.610368 0.750000
O O4 0.060871 0.585590 0.018363
O O5 0.780906 0.621361 0.069924
O O6 0.012726 0.700963 0.940507
O O7 0.255508 0.506710 0.405742
O O8 0.286908 0.432457 0.627732
O O9 0.250000 0.250000 0.500000
O O10 0.000000 0.292122 0.750000
O O11 0.000000 0.078779 0.250000
#
# Coordination Sequence:
#
# PCOD8144638 Si02
#       5
#     4   8   8   8   8
#     4  10  24  40  80  94 144 190 240 284 372 410
#     4  12  26  45  73 109 148 191 243 300 361 433
#     4  12  24  48  72 104 150 193 242 300 358 439
#     4  10  21  43  70  98 133 187 236 287 355 415
#     4  12  27  43  75 109 146 190 244 297 373 426
#
# _framework density 22.662787999999999
#
# number of rings (size 3 to 8) (size 9 to 14) (size 15 to 20)
#    0.667    0.000    3.333    4.667    3.111    0.000 
#    0.000    5.556    0.000    0.000    0.000    0.000 
#    0.000    0.000    0.000    0.000    0.000    0.000 
#
# Total GULP energy -223131.731404 kJ/mol
# GULP energy per Si atom -12396.207300 kJ/mol
# Density = 2.261121 g / cm^3
# Si number density = 22.662788 Si / 1000 Ang^3
#
#
#
# Elastic Constant Matrix: (Units=GPa)
#
#
# Indices 1 2 3 4 5 6 
#
# 1 111.7480 32.8408 52.2157 0.0000 -9.1693 0.0000
# 2 32.8408 97.6188 14.4313 0.0000 -10.3248 0.0000
# 3 52.2157 14.4313 103.5426 0.0000 -3.9525 0.0000
# 4 0.0000 0.0000 0.0000 59.7991 0.0000 -6.6426
# 5 -9.1693 -10.3248 -3.9525 0.0000 46.4967 0.0000
# 6 0.0000 0.0000 0.0000 -6.6426 0.0000 37.3496
#
#
#
# Elastic Compliance Matrix: (Units=1/GPa)
#
#
# Indices 1 2 3 4 5 6 
#
# 1 0.012801 -0.003291 -0.005947 0.000000 0.001288 0.000000
# 2 -0.003291 0.011536 0.000125 0.000000 0.001923 0.000000
# 3 -0.005947 0.000125 0.012637 0.000000 -0.000071 0.000000
# 4 0.000000 0.000000 0.000000 0.017060 0.000000 0.003034
# 5 0.001288 0.001923 -0.000071 0.000000 0.022182 0.000000
# 6 0.000000 0.000000 0.000000 0.003034 0.000000 0.027314
#
#
# Mechanical properties :
#
#
# Convention : Reuss Voigt Hill
#
# Bulk Modulus (GPa) = 53.34128 56.87611 55.10870
# Shear Modulus (GPa) = 39.06129 42.95717 41.00923
#
# Velocity S-wave (km/s) = 4.15611 4.35845 4.25848
# Velocity P-wave (km/s) = 6.82782 7.10488 6.96773
#
# Compressibility (1/GPa) = 0.01874721
#
# Stress axis : x y z
#
# Youngs Moduli (GPa) = 78.12192 86.68543 79.13316
#
# Poissons Ratio (x) = 0.28527 0.47063
# Poissons Ratio (y) = 0.25709 -0.00990
# Poissons Ratio (z) = 0.46462 -0.01085
#
# Static dielectric constant tensor:
#      x y z
#    x 4.036320 0.000000 -0.304820 
#    y 0.000000 4.272250 0.000000 
#    z -0.304820 0.000000 4.148670 
# 
# 
# High freq. dielectric constant tensor:
#      x y z
#    x 1.887320 0.000000 -0.024400 
#    y 0.000000 1.899300 0.000000 
#    z -0.024400 0.000000 1.898710 
# 
# From -- ./inp_files/23347.got.cif
#   From: 2010.06.25/outbox.cif.g09.slc.cpg/sg15_12_cif.got.tgz:23347.got - 2010.06.28 07:06:18.
