data_PCOD8144574
_publ_section_title
;
Structure prediction by ZEFSAII (Michael W. Deem and Ramdas Pophale) SiO2 
 PCOD8144574
Probable space group: C 2/C
;
_chemical_formula_sum "Si O2"
_cell_formula_units_Z 44
_cell_length_a 12.606008
_cell_length_b 25.349312
_cell_length_c 5.484783
_cell_angle_alpha 90.000000
_cell_angle_beta 80.294308
_cell_angle_gamma 90.000000
_cell_volume 1727.595694
_symmetry_space_group_name_H-M "C 2/C"
_symmetry_group_IT_number 15
_symmetry_cell_setting 'monoclinic'
loop_
_space_group_symop_operation_xyz
x,y,z
-x,y,1/2-z
-x,-y,-z
x,-y,1/2+z
1/2+x,1/2+y,z
1/2-x,1/2+y,1/2-z
1/2-x,1/2-y,-z
1/2+x,1/2-y,1/2+z
loop_
_atom_site_type_symbol
_atom_site_label
_atom_site_fract_x
_atom_site_fract_y
_atom_site_fract_z
Si Si1 0.628427 0.024823 0.581561
Si Si2 0.000000 0.377994 0.250000
Si Si3 0.118090 0.866197 0.088719
Si Si4 0.342762 0.266558 0.149513
Si Si5 0.000000 0.815505 0.750000
Si Si6 0.363442 0.484294 0.434151
Si Si7 0.000000 0.313514 0.750000
O O1 0.603654 0.085692 0.650202
O O2 0.579641 0.006502 0.337987
O O3 0.756777 0.019184 0.513916
O O4 0.014977 0.345187 0.492321
O O5 0.189261 0.819776 0.187961
O O6 0.173513 0.923176 0.075084
O O7 0.000000 0.872260 0.250000
O O8 0.098843 0.850741 0.813503
O O9 0.384802 0.218360 0.298411
O O10 0.250000 0.250000 0.000000
O O11 0.455307 0.277820 0.973553
O O12 0.427901 0.496732 0.663606
#
# Coordination Sequence:
#
# PCOD8144574 Si02
#       7
#     8   4   8   8   4   8   4
#     4  10  21  43  67  97 145 193 241 298 369 440
#     4  12  25  43  74 106 152 203 240 315 378 440
#     4  10  23  44  74 102 148 196 244 319 381 442
#     4  11  25  48  75 109 149 201 255 319 382 451
#     4  10  21  48  72  99 153 186 254 311 386 440
#     4  10  24  42  66 105 144 185 246 301 365 458
#     4  12  26  49  74 115 153 193 264 310 374 464
#
# _framework density 25.468923
#
# number of rings (size 3 to 8) (size 9 to 14) (size 15 to 20)
#    0.000    1.455    2.727    2.182    5.091    4.364 
#    9.818    0.000    0.000    0.000    0.000    0.000 
#    0.000    0.000    0.000    0.000    0.000    0.000 
#
# Total GULP energy -272545.593250 kJ/mol
# GULP energy per Si atom -12388.436057 kJ/mol
# Density = 2.541095 g / cm^3
# Si number density = 25.468923 Si / 1000 Ang^3
#
#
#
# Elastic Constant Matrix: (Units=GPa)
#
#
# Indices 1 2 3 4 5 6 
#
# 1 80.2647 40.0960 38.1983 0.0000 32.2574 0.0000
# 2 40.0960 178.4861 73.0738 0.0000 34.7658 0.0000
# 3 38.1983 73.0738 214.3561 0.0000 28.2367 0.0000
# 4 0.0000 0.0000 0.0000 103.6278 0.0000 10.3374
# 5 32.2574 34.7658 28.2367 0.0000 47.9899 0.0000
# 6 0.0000 0.0000 0.0000 10.3374 0.0000 20.0546
#
#
#
# Elastic Compliance Matrix: (Units=1/GPa)
#
#
# Indices 1 2 3 4 5 6 
#
# 1 0.017938 -0.001496 -0.001345 0.000000 -0.010183 0.000000
# 2 -0.001496 0.007303 -0.001798 0.000000 -0.003228 0.000000
# 3 -0.001345 -0.001798 0.005666 0.000000 -0.001127 0.000000
# 4 0.000000 0.000000 0.000000 0.010173 0.000000 -0.005244
# 5 -0.010183 -0.003228 -0.001127 0.000000 0.030684 0.000000
# 6 0.000000 0.000000 0.000000 -0.005244 0.000000 0.052567
#
#
# Mechanical properties :
#
#
# Convention : Reuss Voigt Hill
#
# Bulk Modulus (GPa) = 46.23183 86.20477 66.21830
# Shear Modulus (GPa) = 35.50631 55.78369 45.64500
#
# Velocity S-wave (km/s) = 3.73782 4.68510 4.23801
# Velocity P-wave (km/s) = 6.06795 7.94905 7.07133
#
# Compressibility (1/GPa) = 0.02163012
#
# Stress axis : x y z
#
# Youngs Moduli (GPa) = 55.74607 136.92091 176.48147
#
# Poissons Ratio (x) = 0.20477 0.23745
# Poissons Ratio (y) = 0.08337 0.31733
# Poissons Ratio (z) = 0.07500 0.24619
#
# Static dielectric constant tensor:
#      x y z
#    x 4.341580 0.000000 0.431880 
#    y 0.000000 4.867390 0.000000 
#    z 0.431880 0.000000 5.662950 
# 
# 
# High freq. dielectric constant tensor:
#      x y z
#    x 2.011220 0.000000 0.019970 
#    y 0.000000 2.012820 0.000000 
#    z 0.019970 0.000000 2.048020 
# 
# From -- ./inp_files/7597.got.cif
#   From: 2010.06.25/outbox.cif.g09.slc.cpg/sg15_4_cif.got.tgz:7597.got - 2010.06.28 07:06:18.
