data_PCOD8144458
_publ_section_title
;
Structure prediction by ZEFSAII (Michael W. Deem and Ramdas Pophale) SiO2 
 PCOD8144458
Probable space group: C 2/C
;
_chemical_formula_sum "Si O2"
_cell_formula_units_Z 48
_cell_length_a 23.664916
_cell_length_b 5.249492
_cell_length_c 17.210501
_cell_angle_alpha 90.000000
_cell_angle_beta 74.652766
_cell_angle_gamma 90.000000
_cell_volume 2061.796224
_symmetry_space_group_name_H-M "C 2/C"
_symmetry_group_IT_number 15
_symmetry_cell_setting 'monoclinic'
loop_
_space_group_symop_operation_xyz
x,y,z
-x,y,1/2-z
-x,-y,-z
x,-y,1/2+z
1/2+x,1/2+y,z
1/2-x,1/2+y,1/2-z
1/2-x,1/2-y,-z
1/2+x,1/2-y,1/2+z
loop_
_atom_site_type_symbol
_atom_site_label
_atom_site_fract_x
_atom_site_fract_y
_atom_site_fract_z
Si Si1 0.169195 0.862655 0.012390
Si Si2 0.080735 0.652551 0.150879
Si Si3 0.611632 0.682671 0.367578
Si Si4 0.721001 0.255605 0.731224
Si Si5 0.188682 0.364295 0.075268
Si Si6 0.552825 0.815128 0.837957
O O1 0.113467 0.879110 0.092125
O O2 0.210241 0.625734 0.025587
O O3 0.201318 0.134363 0.010184
O O4 0.148890 0.827271 0.932234
O O5 0.118732 0.395718 0.120381
O O6 0.080986 0.706929 0.242480
O O7 0.015801 0.628486 0.141455
O O8 0.655991 0.661550 0.279417
O O9 0.566139 0.447650 0.378405
O O10 0.578365 0.950755 0.377664
O O11 0.761922 0.502686 0.726898
O O12 0.725152 0.179521 0.640010
#
# Coordination Sequence:
#
# PCOD8144458 Si02
#       6
#     8   8   8   8   8   8
#     4  10  22  39  64  88 136 167 193 254 319 364
#     4   9  23  38  65  91 128 174 206 238 317 366
#     4  12  24  42  60  97 129 156 212 266 305 363
#     4  12  25  44  70  90 117 164 218 270 321 365
#     4  10  21  43  62  88 127 163 206 252 309 374
#     4  11  23  37  66  93 128 168 212 248 294 379
#
# _framework density 23.280669
#
# number of rings (size 3 to 8) (size 9 to 14) (size 15 to 20)
#    1.000    0.333    1.667    4.000    2.333    2.667 
#    0.000    5.000    0.000    0.000    0.000    0.000 
#    0.000    0.000    0.000    0.000    0.000    0.000 
#
# Total GULP energy -297542.265628 kJ/mol
# GULP energy per Si atom -12397.594401 kJ/mol
# Density = 2.322768 g / cm^3
# Si number density = 23.280669 Si / 1000 Ang^3
#
#
#
# Elastic Constant Matrix: (Units=GPa)
#
#
# Indices 1 2 3 4 5 6 
#
# 1 61.4819 64.5295 17.4204 0.0000 13.0599 0.0000
# 2 64.5295 181.4200 48.5939 0.0000 20.7185 0.0000
# 3 17.4204 48.5939 75.1231 0.0000 19.2502 0.0000
# 4 0.0000 0.0000 0.0000 33.3394 0.0000 3.6626
# 5 13.0599 20.7185 19.2502 0.0000 39.3976 0.0000
# 6 0.0000 0.0000 0.0000 3.6626 0.0000 36.2620
#
#
#
# Elastic Compliance Matrix: (Units=1/GPa)
#
#
# Indices 1 2 3 4 5 6 
#
# 1 0.026605 -0.009204 0.000919 0.000000 -0.004428 0.000000
# 2 -0.009204 0.009940 -0.004273 0.000000 -0.000089 0.000000
# 3 0.000919 -0.004273 0.017564 0.000000 -0.006639 0.000000
# 4 0.000000 0.000000 0.000000 0.030331 0.000000 -0.003064
# 5 -0.004428 -0.000089 -0.006639 0.000000 0.030141 0.000000
# 6 0.000000 0.000000 0.000000 -0.003064 0.000000 0.027887
#
#
# Mechanical properties :
#
#
# Convention : Reuss Voigt Hill
#
# Bulk Modulus (GPa) = 34.49074 64.34583 49.41828
# Shear Modulus (GPa) = 28.20907 34.29857 31.25382
#
# Velocity S-wave (km/s) = 3.48472 3.84248 3.66796
# Velocity P-wave (km/s) = 5.57121 6.88370 6.26194
#
# Compressibility (1/GPa) = 0.02899329
#
# Stress axis : x y z
#
# Youngs Moduli (GPa) = 37.58688 100.60005 56.93524
#
# Poissons Ratio (x) = 0.92587 -0.05230
# Poissons Ratio (y) = 0.34593 0.24329
# Poissons Ratio (z) = -0.03453 0.42987
#
# Static dielectric constant tensor:
#      x y z
#    x 4.127920 0.000000 -0.088120 
#    y 0.000000 4.247230 0.000000 
#    z -0.088120 0.000000 4.044580 
# 
# 
# High freq. dielectric constant tensor:
#      x y z
#    x 1.930210 0.000000 -0.004450 
#    y 0.000000 1.929680 0.000000 
#    z -0.004450 0.000000 1.923200 
# 
# From -- ./inp_files/220647.got.cif
#   From: 2010.06.25/outbox.cif.g09.slc.cpg/sg15_111_cif.got.tgz:220647.got - 2010.06.28 07:06:18.
