data_PCOD8144837
_publ_section_title
;
Structure prediction by ZEFSAII (Michael W. Deem and Ramdas Pophale) SiO2 
 PCOD8144837
Probable space group: C 2/C
;
_chemical_formula_sum "Si O2"
_cell_formula_units_Z 52
_cell_length_a 11.833845
_cell_length_b 19.618571
_cell_length_c 14.181063
_cell_angle_alpha 90.000000
_cell_angle_beta 135.260738
_cell_angle_gamma 90.000000
_cell_volume 2317.403479
_symmetry_space_group_name_H-M "C 2/C"
_symmetry_group_IT_number 15
_symmetry_cell_setting 'monoclinic'
loop_
_space_group_symop_operation_xyz
x,y,z
-x,y,1/2-z
-x,-y,-z
x,-y,1/2+z
1/2+x,1/2+y,z
1/2-x,1/2+y,1/2-z
1/2-x,1/2-y,-z
1/2+x,1/2-y,1/2+z
loop_
_atom_site_type_symbol
_atom_site_label
_atom_site_fract_x
_atom_site_fract_y
_atom_site_fract_z
Si Si1 0.798789 0.523768 0.688018
Si Si2 0.880543 0.728742 0.447089
Si Si3 0.500000 0.171241 0.250000
Si Si4 0.103544 0.550242 0.420765
Si Si5 0.659810 0.162619 0.893983
Si Si6 0.748217 0.763436 0.175701
Si Si7 0.842084 0.919291 0.218454
O O1 0.773764 0.462311 0.596960
O O2 0.813415 0.588307 0.629456
O O3 0.659826 0.536975 0.684308
O O4 0.967973 0.508884 0.841608
O O5 0.818872 0.794049 0.468155
O O6 0.864204 0.662603 0.506096
O O7 0.775001 0.723374 0.290179
O O8 0.066779 0.739081 0.532952
O O9 0.520186 0.124083 0.355123
O O10 0.345843 0.220360 0.157248
O O11 0.194176 0.550704 0.572261
O O12 0.500000 0.194828 0.750000
O O13 0.815943 0.840141 0.226898
O O14 0.000000 0.931464 0.250000
#
# Coordination Sequence:
#
# PCOD8144837 Si02
#       7
#     8   8   4   8   8   8   8
#     4  10  21  45  71  95 132 184 230 293 338 413
#     4  11  24  36  67 101 135 186 223 290 351 427
#     4  10  24  42  64 104 136 180 236 286 354 424
#     4  10  24  44  72  97 135 188 242 281 344 431
#     4  11  19  40  67  99 135 177 232 279 359 415
#     4  12  24  42  65 102 147 183 228 298 355 425
#     4  12  25  42  70 101 135 188 234 286 360 417
#
# _framework density 22.438905999999999
#
# number of rings (size 3 to 8) (size 9 to 14) (size 15 to 20)
#    0.000    1.231    5.385    1.385    2.154    1.846 
#    5.538    1.538    0.000    0.000    0.000    0.000 
#    0.000    0.000    0.000    0.000    0.000    0.000 
#
# Total GULP energy -322150.572620 kJ/mol
# GULP energy per Si atom -12390.406639 kJ/mol
# Density = 2.238783 g / cm^3
# Si number density = 22.438906 Si / 1000 Ang^3
#
#
#
# Elastic Constant Matrix: (Units=GPa)
#
#
# Indices 1 2 3 4 5 6 
#
# 1 115.3395 31.0490 4.7116 0.0000 2.2210 0.0000
# 2 31.0490 73.3098 9.6569 0.0000 -6.1007 0.0000
# 3 4.7116 9.6569 59.5584 -0.0001 -14.1968 -0.0001
# 4 0.0000 0.0000 -0.0001 29.0441 -0.0001 2.3001
# 5 2.2210 -6.1007 -14.1968 -0.0001 31.6020 0.0000
# 6 0.0000 0.0000 -0.0001 2.3001 0.0000 21.2272
#
#
#
# Elastic Compliance Matrix: (Units=1/GPa)
#
#
# Indices 1 2 3 4 5 6 
#
# 1 0.009871 -0.004259 -0.000506 0.000000 -0.001743 0.000000
# 2 -0.004259 0.015876 -0.001608 0.000000 0.002642 0.000000
# 3 -0.000506 -0.001608 0.019067 0.000000 0.008291 0.000000
# 4 0.000000 0.000000 0.000000 0.034728 0.000000 -0.003763
# 5 -0.001743 0.002642 0.008291 0.000000 0.036001 0.000000
# 6 0.000000 0.000000 0.000000 -0.003763 0.000000 0.047517
#
#
# Mechanical properties :
#
#
# Convention : Reuss Voigt Hill
#
# Bulk Modulus (GPa) = 31.18228 37.67142 34.42685
# Shear Modulus (GPa) = 26.81041 29.89401 28.35221
#
# Velocity S-wave (km/s) = 3.46036 3.65395 3.55847
# Velocity P-wave (km/s) = 5.46737 5.88444 5.67974
#
# Compressibility (1/GPa) = 0.03206950
#
# Stress axis : x y z
#
# Youngs Moduli (GPa) = 101.30891 62.98742 52.44617
#
# Poissons Ratio (x) = 0.26826 0.02653
# Poissons Ratio (y) = 0.43148 0.08431
# Poissons Ratio (z) = 0.05124 0.10125
#
# Static dielectric constant tensor:
#      x y z
#    x 4.249650 0.000000 -0.117270 
#    y 0.000000 3.981890 0.000000 
#    z -0.117270 0.000000 3.939240 
# 
# 
# High freq. dielectric constant tensor:
#      x y z
#    x 1.889340 0.000000 -0.015690 
#    y 0.000000 1.873570 0.000000 
#    z -0.015690 0.000000 1.871590 
# 
# From -- ./inp_files/147217.got.cif
#   From: 2010.06.25/outbox.cif.g09.slc.cpg/sg15_74_cif.got.tgz:147217.got - 2010.06.28 07:06:18.
