data_PCOD8144727
_publ_section_title
;
Structure prediction by ZEFSAII (Michael W. Deem and Ramdas Pophale) SiO2 
 PCOD8144727
Probable space group: C 2/C
;
_chemical_formula_sum "Si O2"
_cell_formula_units_Z 40
_cell_length_a 26.648700
_cell_length_b 8.583192
_cell_length_c 12.991324
_cell_angle_alpha 90.000000
_cell_angle_beta 144.844817
_cell_angle_gamma 90.000000
_cell_volume 1710.978784
_symmetry_space_group_name_H-M "C 2/C"
_symmetry_group_IT_number 15
_symmetry_cell_setting 'monoclinic'
loop_
_space_group_symop_operation_xyz
x,y,z
-x,y,1/2-z
-x,-y,-z
x,-y,1/2+z
1/2+x,1/2+y,z
1/2-x,1/2+y,1/2-z
1/2-x,1/2-y,-z
1/2+x,1/2-y,1/2+z
loop_
_atom_site_type_symbol
_atom_site_label
_atom_site_fract_x
_atom_site_fract_y
_atom_site_fract_z
Si Si1 0.075198 0.372111 0.620167
Si Si2 0.749485 0.540904 0.203226
Si Si3 0.583983 0.665519 0.820545
Si Si4 0.794259 0.722214 0.465473
Si Si5 0.033617 0.156077 0.196233
O O1 0.161377 0.435406 0.710138
O O2 0.098519 0.315970 0.773460
O O3 0.000000 0.500000 0.500000
O O4 0.040989 0.219935 0.502088
O O5 0.764359 0.570195 0.351083
O O6 0.720298 0.363638 0.138748
O O7 0.671299 0.652697 0.035281
O O8 0.500000 0.700734 0.750000
O O9 0.573665 0.511415 0.728584
O O10 0.750000 0.750000 0.500000
O O11 0.895167 0.707945 0.666787
O O12 0.000000 0.104409 0.250000
#
# Coordination Sequence:
#
# PCOD8144727 Si02
#       5
#     8   8   8   8   8
#     4  12  25  42  69 104 141 178 232 302 360 407
#     4  11  26  46  70 101 143 187 234 294 353 423
#     4  10  25  44  68  98 133 190 239 279 347 436
#     4  11  25  45  71 104 139 184 238 289 352 422
#     4  10  21  44  67  93 132 180 227 278 346 425
#
# _framework density 23.378430000000002
#
# number of rings (size 3 to 8) (size 9 to 14) (size 15 to 20)
#    0.000    1.200    2.000    2.400    5.600    7.200 
#    0.000    0.000    0.000    0.000    0.000    0.000 
#    0.000    0.000    0.000    0.000    0.000    0.000 
#
# Total GULP energy -247905.710486 kJ/mol
# GULP energy per Si atom -12395.285524 kJ/mol
# Density = 2.332522 g / cm^3
# Si number density = 23.378430 Si / 1000 Ang^3
#
#
#
# Elastic Constant Matrix: (Units=GPa)
#
#
# Indices 1 2 3 4 5 6 
#
# 1 99.6382 5.5329 25.8079 0.0000 5.3544 0.0000
# 2 5.5329 37.1782 3.5617 0.0000 -10.6088 0.0000
# 3 25.8079 3.5617 95.2537 0.0000 20.0338 0.0000
# 4 0.0000 0.0000 0.0000 23.5291 0.0000 12.0194
# 5 5.3544 -10.6088 20.0338 0.0000 44.9379 0.0000
# 6 0.0000 0.0000 0.0000 12.0194 0.0000 6.9466
#
#
#
# Elastic Compliance Matrix: (Units=1/GPa)
#
#
# Indices 1 2 3 4 5 6 
#
# 1 0.010865 -0.001458 -0.002808 0.000000 -0.000387 0.000000
# 2 -0.001458 0.029714 -0.002458 0.000000 0.008285 0.000000
# 3 -0.002808 -0.002458 0.012582 0.000000 -0.005855 0.000000
# 4 0.000000 0.000000 0.000000 0.365955 0.000000 -0.633193
# 5 -0.000387 0.008285 -0.005855 0.000000 0.026865 0.000000
# 6 0.000000 0.000000 0.000000 -0.633193 0.000000 1.239536
#
#
# Mechanical properties :
#
#
# Convention : Reuss Voigt Hill
#
# Bulk Modulus (GPa) = 25.18100 33.54169 29.36135
# Shear Modulus (GPa) = 2.92021 28.22723 15.57372
#
# Velocity S-wave (km/s) = 1.11885 3.47854 2.58380
# Velocity P-wave (km/s) = 3.53037 5.52378 4.63549
#
# Compressibility (1/GPa) = 0.03971248
#
# Stress axis : x y z
#
# Youngs Moduli (GPa) = 92.03534 33.65415 79.47594
#
# Poissons Ratio (x) = 0.04908 0.22316
# Poissons Ratio (y) = 0.13423 0.19538
# Poissons Ratio (z) = 0.25843 0.08273
#
# Static dielectric constant tensor:
#      x y z
#    x 4.004190 0.000000 0.005390 
#    y 0.000000 4.320010 0.000000 
#    z 0.005390 0.000000 4.384530 
# 
# 
# High freq. dielectric constant tensor:
#      x y z
#    x 1.919920 0.000000 0.005630 
#    y 0.000000 1.920950 0.000000 
#    z 0.005630 0.000000 1.940430 
# 
# From -- ./inp_files/102860.got.cif
#   From: 2010.06.25/outbox.cif.g09.slc.cpg/sg15_52_cif.got.tgz:102860.got - 2010.06.28 07:06:18.
