data_PCOD8144437
_publ_section_title
;
Structure prediction by ZEFSAII (Michael W. Deem and Ramdas Pophale) SiO2 
 PCOD8144437
Probable space group: C 2/C
;
_chemical_formula_sum "Si O2"
_cell_formula_units_Z 40
_cell_length_a 11.172058
_cell_length_b 9.147673
_cell_length_c 17.657935
_cell_angle_alpha 90.000000
_cell_angle_beta 73.425135
_cell_angle_gamma 90.000000
_cell_volume 1729.625967
_symmetry_space_group_name_H-M "C 2/C"
_symmetry_group_IT_number 15
_symmetry_cell_setting 'monoclinic'
loop_
_space_group_symop_operation_xyz
x,y,z
-x,y,1/2-z
-x,-y,-z
x,-y,1/2+z
1/2+x,1/2+y,z
1/2-x,1/2+y,1/2-z
1/2-x,1/2-y,-z
1/2+x,1/2-y,1/2+z
loop_
_atom_site_type_symbol
_atom_site_label
_atom_site_fract_x
_atom_site_fract_y
_atom_site_fract_z
Si Si1 0.214731 0.718957 0.689879
Si Si2 0.141996 0.963649 0.213279
Si Si3 0.822734 0.104958 0.964556
Si Si4 0.613927 0.051731 0.576689
Si Si5 0.957324 0.286045 0.555002
O O1 0.148195 0.864645 0.733182
O O2 0.265751 0.625591 0.749800
O O3 0.115333 0.622299 0.659981
O O4 0.322254 0.768626 0.613662
O O5 0.000000 0.908399 0.250000
O O6 0.192432 0.934523 0.120433
O O7 0.968709 0.130940 0.957457
O O8 0.750000 0.250000 0.000000
O O9 0.758537 0.975430 0.024421
O O10 0.548392 0.163379 0.530795
O O11 0.533741 0.902906 0.592715
#
# Coordination Sequence:
#
# PCOD8144437 Si02
#       5
#     8   8   8   8   8
#     4  12  27  44  69  97 142 182 230 283 346 413
#     4  12  28  47  65 105 142 186 231 285 352 414
#     4  10  22  43  73 100 135 178 232 282 344 409
#     4  10  23  43  69 105 129 176 234 284 336 415
#     4  10  21  42  72  96 135 174 225 284 344 403
#
# _framework density 23.126386
#
# number of rings (size 3 to 8) (size 9 to 14) (size 15 to 20)
#    0.000    1.200    4.000    0.600    5.600    4.000 
#    0.000    0.000    0.000    0.000    0.000    0.000 
#    0.000    0.000    0.000    0.000    0.000    0.000 
#
# Total GULP energy -248044.409134 kJ/mol
# GULP energy per Si atom -12402.220457 kJ/mol
# Density = 2.307375 g / cm^3
# Si number density = 23.126386 Si / 1000 Ang^3
#
#
#
# Elastic Constant Matrix: (Units=GPa)
#
#
# Indices 1 2 3 4 5 6 
#
# 1 66.6617 24.8518 -1.9045 0.0000 21.6737 0.0000
# 2 24.8518 103.2638 41.4803 0.0000 28.0539 0.0000
# 3 -1.9045 41.4803 60.8446 0.0000 16.1250 0.0000
# 4 0.0000 0.0000 0.0000 41.6291 0.0000 4.0356
# 5 21.6737 28.0539 16.1250 0.0000 35.8081 0.0000
# 6 0.0000 0.0000 0.0000 4.0356 0.0000 36.0469
#
#
#
# Elastic Compliance Matrix: (Units=1/GPa)
#
#
# Indices 1 2 3 4 5 6 
#
# 1 0.020851 -0.004487 0.006955 0.000000 -0.012237 0.000000
# 2 -0.004487 0.016174 -0.009684 0.000000 -0.005594 0.000000
# 3 0.006955 -0.009684 0.025390 0.000000 -0.008056 0.000000
# 4 0.000000 0.000000 0.000000 0.024285 0.000000 -0.002719
# 5 -0.012237 -0.005594 -0.008056 0.000000 0.043344 0.000000
# 6 0.000000 0.000000 0.000000 -0.002719 0.000000 0.028046
#
#
# Mechanical properties :
#
#
# Convention : Reuss Voigt Hill
#
# Bulk Modulus (GPa) = 20.84111 39.95835 30.39973
# Shear Modulus (GPa) = 26.52264 33.78632 30.15448
#
# Velocity S-wave (km/s) = 3.39020 3.82637 3.61487
# Velocity P-wave (km/s) = 4.93518 6.06937 5.53142
#
# Compressibility (1/GPa) = 0.04798210
#
# Stress axis : x y z
#
# Youngs Moduli (GPa) = 47.95837 61.82839 39.38523
#
# Poissons Ratio (x) = 0.27745 -0.27393
# Poissons Ratio (y) = 0.21521 0.38142
# Poissons Ratio (z) = -0.33355 0.59876
#
# Static dielectric constant tensor:
#      x y z
#    x 4.646900 0.000000 -0.106250 
#    y 0.000000 4.530370 0.000000 
#    z -0.106250 0.000000 3.928860 
# 
# 
# High freq. dielectric constant tensor:
#      x y z
#    x 1.923930 0.000000 0.002530 
#    y 0.000000 1.919440 0.000000 
#    z 0.002530 0.000000 1.899100 
# 
# From -- ./inp_files/142386.got.cif
#   From: 2010.06.25/outbox.cif.g09.slc.cpg/sg15_72_cif.got.tgz:142386.got - 2010.06.28 07:06:18.
