data_PCOD8144881
_publ_section_title
;
Structure prediction by ZEFSAII (Michael W. Deem and Ramdas Pophale) SiO2 
 PCOD8144881
Probable space group: C 2/C
;
_chemical_formula_sum "Si O2"
_cell_formula_units_Z 52
_cell_length_a 19.880509
_cell_length_b 9.155119
_cell_length_c 13.585637
_cell_angle_alpha 90.000000
_cell_angle_beta 126.578031
_cell_angle_gamma 90.000000
_cell_volume 1985.692235
_symmetry_space_group_name_H-M "C 2/C"
_symmetry_group_IT_number 15
_symmetry_cell_setting 'monoclinic'
loop_
_space_group_symop_operation_xyz
x,y,z
-x,y,1/2-z
-x,-y,-z
x,-y,1/2+z
1/2+x,1/2+y,z
1/2-x,1/2+y,1/2-z
1/2-x,1/2-y,-z
1/2+x,1/2-y,1/2+z
loop_
_atom_site_type_symbol
_atom_site_label
_atom_site_fract_x
_atom_site_fract_y
_atom_site_fract_z
Si Si1 0.426113 0.153366 0.928154
Si Si2 0.849578 0.443693 0.714210
Si Si3 0.817480 0.481957 0.972412
Si Si4 0.854836 0.119161 0.649880
Si Si5 0.830657 0.920406 0.896471
Si Si6 0.410728 0.280849 0.490726
Si Si7 0.000000 0.911715 0.750000
O O1 0.418887 0.037424 0.832435
O O2 0.371167 0.298959 0.860816
O O3 0.523998 0.197584 0.024677
O O4 0.393770 0.082633 0.001019
O O5 0.826130 0.532963 0.596691
O O6 0.876515 0.278073 0.712764
O O7 0.767489 0.438852 0.713453
O O8 0.727278 0.552292 0.867448
O O9 0.829132 0.320126 0.937073
O O10 0.839674 0.127813 0.519185
O O11 0.931849 0.014817 0.743043
O O12 0.879720 0.069699 0.915072
O O13 0.458318 0.306846 0.634274
#
# Coordination Sequence:
#
# PCOD8144881 Si02
#       7
#     8   8   8   8   8   8   4
#     4  12  24  43  70 104 142 179 235 285 342 415
#     4  11  23  43  76 100 133 186 236 288 344 412
#     4  11  23  47  72  99 141 181 235 278 349 411
#     4  10  21  46  74  98 137 185 229 290 346 414
#     4  10  22  46  70  97 141 185 229 284 353 409
#     4  11  25  42  66 105 143 185 226 287 344 411
#     4  10  24  42  70 104 138 178 236 284 356 406
#
# _framework density 26.187342000000001
#
# number of rings (size 3 to 8) (size 9 to 14) (size 15 to 20)
#    0.000    1.231    3.077    2.769    0.000   10.462 
#    8.308    0.000    0.000    0.000    0.000    0.000 
#    0.000    0.000    0.000    0.000    0.000    0.000 
#
# Total GULP energy -322476.414159 kJ/mol
# GULP energy per Si atom -12402.939006 kJ/mol
# Density = 2.612774 g / cm^3
# Si number density = 26.187342 Si / 1000 Ang^3
#
#
#
# Elastic Constant Matrix: (Units=GPa)
#
#
# Indices 1 2 3 4 5 6 
#
# 1 121.8490 67.0811 14.2238 0.0000 18.6224 0.0000
# 2 67.0811 180.4140 34.4465 0.0000 6.6340 0.0000
# 3 14.2238 34.4465 34.9764 0.0000 1.8431 0.0000
# 4 0.0000 0.0000 0.0000 45.9271 0.0000 4.1824
# 5 18.6224 6.6340 1.8431 0.0000 16.6762 0.0000
# 6 0.0000 0.0000 0.0000 4.1824 0.0000 58.5597
#
#
#
# Elastic Compliance Matrix: (Units=1/GPa)
#
#
# Indices 1 2 3 4 5 6 
#
# 1 0.012346 -0.004074 -0.000369 0.000000 -0.012125 0.000000
# 2 -0.004074 0.008237 -0.006560 0.000000 0.001998 0.000000
# 3 -0.000369 -0.006560 0.035248 0.000000 -0.000873 0.000000
# 4 0.000000 0.000000 0.000000 0.021916 0.000000 -0.001565
# 5 -0.012125 0.001998 -0.000873 0.000000 0.072808 0.000000
# 6 0.000000 0.000000 0.000000 -0.001565 0.000000 0.017188
#
#
# Mechanical properties :
#
#
# Convention : Reuss Voigt Hill
#
# Bulk Modulus (GPa) = 29.56580 63.19358 46.37969
# Shear Modulus (GPa) = 24.87250 38.99847 31.93549
#
# Velocity S-wave (km/s) = 3.08521 3.86322 3.49592
# Velocity P-wave (km/s) = 4.89959 6.63950 5.83477
#
# Compressibility (1/GPa) = 0.03382286
#
# Stress axis : x y z
#
# Youngs Moduli (GPa) = 80.99777 121.40733 28.37041
#
# Poissons Ratio (x) = 0.49462 0.01048
# Poissons Ratio (y) = 0.32999 0.18612
# Poissons Ratio (z) = 0.02992 0.79648
#
# Static dielectric constant tensor:
#      x y z
#    x 4.891750 0.000000 0.087340 
#    y 0.000000 4.901100 0.000000 
#    z 0.087340 0.000000 4.381440 
# 
# 
# High freq. dielectric constant tensor:
#      x y z
#    x 2.055000 0.000000 0.000780 
#    y 0.000000 2.067220 0.000000 
#    z 0.000780 0.000000 2.035250 
# 
# From -- ./inp_files/214329.got.cif
#   From: 2010.06.25/outbox.cif.g09.slc.cpg/sg15_108_cif.got.tgz:214329.got - 2010.06.28 07:06:18.
