data_PCOD8144699
_publ_section_title
;
Structure prediction by ZEFSAII (Michael W. Deem and Ramdas Pophale) SiO2 
 PCOD8144699
Probable space group: C 2/C
;
_chemical_formula_sum "Si O2"
_cell_formula_units_Z 64
_cell_length_a 13.626639
_cell_length_b 20.086758
_cell_length_c 27.193861
_cell_angle_alpha 90.000000
_cell_angle_beta 154.691046
_cell_angle_gamma 90.000000
_cell_volume 3182.033314
_symmetry_space_group_name_H-M "C 2/C"
_symmetry_group_IT_number 15
_symmetry_cell_setting 'monoclinic'
loop_
_space_group_symop_operation_xyz
x,y,z
-x,y,1/2-z
-x,-y,-z
x,-y,1/2+z
1/2+x,1/2+y,z
1/2-x,1/2+y,1/2-z
1/2-x,1/2-y,-z
1/2+x,1/2-y,1/2+z
loop_
_atom_site_type_symbol
_atom_site_label
_atom_site_fract_x
_atom_site_fract_y
_atom_site_fract_z
Si Si1 0.816263 0.458985 0.028308
Si Si2 0.668810 0.898709 0.117275
Si Si3 0.521098 0.617636 0.064454
Si Si4 0.969153 0.795180 0.105652
Si Si5 0.711372 0.748733 0.810737
Si Si6 0.241889 0.867490 0.151976
Si Si7 0.111424 0.927343 0.379236
Si Si8 0.127114 0.499275 0.755702
O O1 0.943377 0.426862 0.039867
O O2 0.963213 0.503748 0.133588
O O3 0.698349 0.396061 0.000879
O O4 0.624486 0.507055 0.918423
O O5 0.672681 0.818362 0.116260
O O6 0.683350 0.925346 0.068100
O O7 0.874127 0.926881 0.243026
O O8 0.602920 0.692971 0.107114
O O9 0.717862 0.566004 0.169706
O O10 0.431761 0.607939 0.968874
O O11 0.863032 0.864679 0.074048
O O12 0.131923 0.761838 0.219390
O O13 0.125735 0.804920 0.127567
O O14 0.750000 0.750000 0.000000
O O15 0.500000 0.769732 0.750000
O O16 0.500000 0.848240 0.250000
O O17 0.242073 0.929760 0.190398
O O18 0.000000 0.506181 0.750000
#
# Coordination Sequence:
#
# PCOD8144699 Si02
#       8
#     8   8   8   8   8   8   8   8
#     4  12  23  39  65  95 128 168 210 265 332 374
#     4  10  21  44  65  91 124 166 215 264 320 375
#     4  12  25  38  63  96 129 166 211 263 320 391
#     4  11  23  40  65  90 122 166 214 262 318 383
#     4  11  22  43  64  91 122 164 219 264 314 385
#     4  11  23  42  62  90 132 172 206 258 332 389
#     4  10  22  40  68  89 122 164 215 262 311 381
#     4  11  23  40  59  93 132 168 210 257 319 391
#
# _framework density 20.112926000000002
#
# number of rings (size 3 to 8) (size 9 to 14) (size 15 to 20)
#    0.000    1.000    5.000    4.875    3.500    0.500 
#    0.000    0.000    0.000    0.000    0.000    0.000 
#    0.000    0.000    0.000    0.000    0.000    0.000 
#
# Total GULP energy -396725.857786 kJ/mol
# GULP energy per Si atom -12397.683056 kJ/mol
# Density = 2.006715 g / cm^3
# Si number density = 20.112926 Si / 1000 Ang^3
#
#
#
# Elastic Constant Matrix: (Units=GPa)
#
#
# Indices 1 2 3 4 5 6 
#
# 1 97.7962 34.2785 26.3636 0.0048 3.3420 -0.0019
# 2 34.2785 87.2739 50.3772 -0.0008 -3.9292 -0.0011
# 3 26.3636 50.3772 65.4014 0.0081 3.0038 -0.0021
# 4 0.0048 -0.0008 0.0081 30.2229 0.0027 7.3495
# 5 3.3420 -3.9292 3.0038 0.0027 22.1341 0.0001
# 6 -0.0019 -0.0011 -0.0021 7.3495 0.0001 26.5227
#
#
#
# Elastic Compliance Matrix: (Units=1/GPa)
#
#
# Indices 1 2 3 4 5 6 
#
# 1 0.012134 -0.003787 -0.001870 -0.000002 -0.002251 0.000001
# 2 -0.003787 0.022597 -0.016190 0.000005 0.006780 -0.000002
# 3 -0.001870 -0.016190 0.028814 -0.000008 -0.006502 0.000004
# 4 -0.000002 0.000005 -0.000008 0.035478 -0.000002 -0.009831
# 5 -0.002251 0.006780 -0.006502 -0.000002 0.047605 0.000000
# 6 0.000001 -0.000002 0.000004 -0.009831 0.000000 0.040428
#
#
# Mechanical properties :
#
#
# Convention : Reuss Voigt Hill
#
# Bulk Modulus (GPa) = 50.38315 52.50112 51.44214
# Shear Modulus (GPa) = 21.06434 25.07276 23.06855
#
# Velocity S-wave (km/s) = 3.23972 3.53455 3.39034
# Velocity P-wave (km/s) = 6.25291 6.54349 6.39985
#
# Compressibility (1/GPa) = 0.01984790
#
# Stress axis : x y z
#
# Youngs Moduli (GPa) = 82.41273 44.25449 34.70556
#
# Poissons Ratio (x) = 0.16761 0.06492
# Poissons Ratio (y) = 0.31214 0.56189
# Poissons Ratio (z) = 0.15415 0.71649
#
# Static dielectric constant tensor:
#      x y z
#    x 3.893300 -0.000140 0.064640 
#    y -0.000140 3.727640 0.000180 
#    z 0.064640 0.000180 3.522500 
# 
# 
# High freq. dielectric constant tensor:
#      x y z
#    x 1.803800 0.000000 -0.001950 
#    y 0.000000 1.777490 0.000000 
#    z -0.001950 0.000000 1.775970 
# 
# From -- ./inp_files/314525.got.cif
#   From: 2010.06.25/outbox.cif.g09.slc.cpg/sg15_158_cif.got.tgz:314525.got - 2010.06.28 07:06:18.
