data_PCOD8144564
_publ_section_title
;
Structure prediction by ZEFSAII (Michael W. Deem and Ramdas Pophale) SiO2 
 PCOD8144564
Probable space group: C 2/C
;
_chemical_formula_sum "Si O2"
_cell_formula_units_Z 60
_cell_length_a 15.845484
_cell_length_b 12.773228
_cell_length_c 21.195688
_cell_angle_alpha 90.000000
_cell_angle_beta 140.483372
_cell_angle_gamma 90.000000
_cell_volume 2729.713504
_symmetry_space_group_name_H-M "C 2/C"
_symmetry_group_IT_number 15
_symmetry_cell_setting 'monoclinic'
loop_
_space_group_symop_operation_xyz
x,y,z
-x,y,1/2-z
-x,-y,-z
x,-y,1/2+z
1/2+x,1/2+y,z
1/2-x,1/2+y,1/2-z
1/2-x,1/2-y,-z
1/2+x,1/2-y,1/2+z
loop_
_atom_site_type_symbol
_atom_site_label
_atom_site_fract_x
_atom_site_fract_y
_atom_site_fract_z
Si Si1 0.290386 0.994293 0.950160
Si Si2 0.589351 0.273108 0.088245
Si Si3 0.742126 0.574494 0.290009
Si Si4 0.889144 0.693365 0.069813
Si Si5 0.958069 0.885833 0.655757
Si Si6 0.500000 0.937729 0.750000
Si Si7 0.684042 0.928611 0.273083
Si Si8 0.530749 0.799530 0.420045
O O1 0.277446 0.001844 0.867856
O O2 0.146296 0.981438 0.899820
O O3 0.373114 0.896976 0.022034
O O4 0.366001 0.099167 0.008879
O O5 0.704558 0.188736 0.163975
O O6 0.491649 0.271630 0.093051
O O7 0.668605 0.383503 0.127009
O O8 0.507597 0.249509 0.976689
O O9 0.584412 0.575771 0.189070
O O10 0.809354 0.530292 0.267000
O O11 0.945565 0.642756 0.166252
O O12 0.750000 0.750000 0.000000
O O13 0.898987 0.786351 0.584500
O O14 0.000000 0.848750 0.750000
O O15 0.386077 0.020095 0.706219
O O16 0.605053 0.836269 0.191559
#
# Coordination Sequence:
#
# PCOD8144564 Si02
#       8
#     8   8   8   8   8   4   8   8
#     4  10  22  41  67  99 133 179 230 275 349 417
#     4  11  25  45  69 105 132 188 236 281 352 426
#     4  10  21  43  67  93 134 186 232 275 349 425
#     4  12  28  48  68  98 143 184 234 282 350 425
#     4  10  22  37  64 104 138 173 226 290 344 411
#     4  12  28  48  72 106 140 182 240 296 360 408
#     4  12  25  43  74  99 145 183 234 297 346 407
#     4  11  22  40  72  98 138 176 225 285 357 408
#
# _framework density 21.980329000000001
#
# number of rings (size 3 to 8) (size 9 to 14) (size 15 to 20)
#    0.000    1.067    4.000    1.200    4.667    5.333 
#    1.200    1.333    0.000    0.000    0.000    0.000 
#    0.000    0.000    0.000    0.000    0.000    0.000 
#
# Total GULP energy -371896.796388 kJ/mol
# GULP energy per Si atom -12396.559880 kJ/mol
# Density = 2.193030 g / cm^3
# Si number density = 21.980329 Si / 1000 Ang^3
#
#
#
# Elastic Constant Matrix: (Units=GPa)
#
#
# Indices 1 2 3 4 5 6 
#
# 1 133.3644 33.5471 35.6047 0.0000 7.4118 0.0000
# 2 33.5471 63.4695 28.0113 0.0000 -10.9548 0.0000
# 3 35.6047 28.0113 80.7502 0.0001 4.3425 0.0000
# 4 0.0000 0.0000 0.0001 29.3419 0.0000 8.1357
# 5 7.4118 -10.9548 4.3425 0.0000 27.6787 0.0000
# 6 0.0000 0.0000 0.0000 8.1357 0.0000 33.7073
#
#
#
# Elastic Compliance Matrix: (Units=1/GPa)
#
#
# Indices 1 2 3 4 5 6 
#
# 1 0.009533 -0.004696 -0.002357 0.000000 -0.004042 0.000000
# 2 -0.004696 0.023106 -0.006559 0.000000 0.011432 0.000000
# 3 -0.002357 -0.006559 0.015939 0.000000 -0.004465 0.000000
# 4 0.000000 0.000000 0.000000 0.036525 0.000000 -0.008816
# 5 -0.004042 0.011432 -0.004465 0.000000 0.042436 0.000000
# 6 0.000000 0.000000 0.000000 -0.008816 0.000000 0.031795
#
#
# Mechanical properties :
#
#
# Convention : Reuss Voigt Hill
#
# Bulk Modulus (GPa) = 46.83248 52.43449 49.63348
# Shear Modulus (GPa) = 25.81618 30.17364 27.99491
#
# Velocity S-wave (km/s) = 3.43083 3.70909 3.57267
# Velocity P-wave (km/s) = 6.08662 6.50001 6.29671
#
# Compressibility (1/GPa) = 0.02135270
#
# Stress axis : x y z
#
# Youngs Moduli (GPa) = 104.89333 43.27933 62.74081
#
# Poissons Ratio (x) = 0.20325 0.14789
# Poissons Ratio (y) = 0.49261 0.41153
# Poissons Ratio (z) = 0.24724 0.28387
#
# Static dielectric constant tensor:
#      x y z
#    x 4.044910 0.000000 -0.001040 
#    y 0.000000 2.367930 0.000000 
#    z -0.001040 0.000000 4.163230 
# 
# 
# High freq. dielectric constant tensor:
#      x y z
#    x 1.871070 0.000000 0.000840 
#    y 0.000000 1.853500 0.000000 
#    z 0.000840 0.000000 1.867480 
# 
# From -- ./inp_files/244719.got.cif
#   From: 2010.06.25/outbox.cif.g09.slc.cpg/sg15_123_cif.got.tgz:244719.got - 2010.06.28 07:06:18.
