data_PCOD8144621
_publ_section_title
;
Structure prediction by ZEFSAII (Michael W. Deem and Ramdas Pophale) SiO2 
 PCOD8144621
Probable space group: C 2/C
;
_chemical_formula_sum "Si O2"
_cell_formula_units_Z 48
_cell_length_a 13.373368
_cell_length_b 26.877745
_cell_length_c 10.564488
_cell_angle_alpha 90.000000
_cell_angle_beta 144.876672
_cell_angle_gamma 90.000000
_cell_volume 2184.768248
_symmetry_space_group_name_H-M "C 2/C"
_symmetry_group_IT_number 15
_symmetry_cell_setting 'monoclinic'
loop_
_space_group_symop_operation_xyz
x,y,z
-x,y,1/2-z
-x,-y,-z
x,-y,1/2+z
1/2+x,1/2+y,z
1/2-x,1/2+y,1/2-z
1/2-x,1/2-y,-z
1/2+x,1/2-y,1/2+z
loop_
_atom_site_type_symbol
_atom_site_label
_atom_site_fract_x
_atom_site_fract_y
_atom_site_fract_z
Si Si1 0.207736 0.148742 0.967274
Si Si2 0.314325 0.022264 0.830100
Si Si3 0.812048 0.361061 0.297686
Si Si4 0.485378 0.704201 0.094194
Si Si5 0.349013 0.804028 0.850862
Si Si6 0.305401 0.460759 0.021131
O O1 0.282010 0.160026 0.906526
O O2 0.277625 0.093940 0.085416
O O3 0.000000 0.154637 0.750000
O O4 0.299032 0.188165 0.153134
O O5 0.305042 0.079781 0.785896
O O6 0.272213 0.011923 0.934476
O O7 0.193184 0.993605 0.604398
O O8 0.500000 0.000000 0.000000
O O9 0.998553 0.341055 0.442639
O O10 0.652775 0.341035 0.047443
O O11 0.500000 0.726263 0.250000
O O12 0.675083 0.684788 0.250525
O O13 0.415156 0.747662 0.930904
O O14 0.500000 0.446884 0.250000
#
# Coordination Sequence:
#
# PCOD8144621 Si02
#       6
#     8   8   8   8   8   8
#     4  10  21  43  70 101 135 173 221 281 339 396
#     4  11  23  44  67 101 139 175 227 278 334 402
#     4  11  25  45  69 102 135 178 222 280 337 397
#     4  12  27  47  66  97 136 179 226 280 333 397
#     4  12  24  45  72  93 134 178 222 275 341 396
#     4  10  22  42  69  97 139 176 221 278 340 397
#
# _framework density 21.970292000000001
#
# number of rings (size 3 to 8) (size 9 to 14) (size 15 to 20)
#    0.000    1.000    3.333    3.000    0.000    4.000 
#   15.000    0.000    0.000    0.000    0.000    0.000 
#    0.000    0.000    0.000    0.000    0.000    0.000 
#
# Total GULP energy -297588.078892 kJ/mol
# GULP energy per Si atom -12399.503287 kJ/mol
# Density = 2.192029 g / cm^3
# Si number density = 21.970292 Si / 1000 Ang^3
#
#
#
# Elastic Constant Matrix: (Units=GPa)
#
#
# Indices 1 2 3 4 5 6 
#
# 1 106.3038 29.4578 49.0067 0.0000 -3.1739 0.0000
# 2 29.4578 94.3304 47.7922 0.0000 -14.3438 0.0000
# 3 49.0067 47.7922 103.2593 0.0000 9.8797 0.0000
# 4 0.0000 0.0000 0.0000 42.3801 0.0000 -3.1779
# 5 -3.1739 -14.3438 9.8797 0.0000 47.1553 0.0000
# 6 0.0000 0.0000 0.0000 -3.1779 0.0000 30.2365
#
#
#
# Elastic Compliance Matrix: (Units=1/GPa)
#
#
# Indices 1 2 3 4 5 6 
#
# 1 0.012268 -0.000677 -0.005682 0.000000 0.001810 0.000000
# 2 -0.000677 0.015549 -0.007473 0.000000 0.006250 0.000000
# 3 -0.005682 -0.007473 0.016424 0.000000 -0.006097 0.000000
# 4 0.000000 0.000000 0.000000 0.023783 0.000000 0.002500
# 5 0.001810 0.006250 -0.006097 0.000000 0.024507 0.000000
# 6 0.000000 0.000000 0.000000 0.002500 0.000000 0.033335
#
#
# Mechanical properties :
#
#
# Convention : Reuss Voigt Hill
#
# Bulk Modulus (GPa) = 60.33031 61.82298 61.07665
# Shear Modulus (GPa) = 31.43520 35.79682 33.61601
#
# Velocity S-wave (km/s) = 3.78670 4.04087 3.91585
# Velocity P-wave (km/s) = 6.82923 7.06909 6.95019
#
# Compressibility (1/GPa) = 0.01657542
#
# Stress axis : x y z
#
# Youngs Moduli (GPa) = 81.51120 64.31198 60.88825
#
# Poissons Ratio (x) = 0.04353 0.34599
# Poissons Ratio (y) = 0.05518 0.45505
# Poissons Ratio (z) = 0.46318 0.48063
#
# Static dielectric constant tensor:
#      x y z
#    x 3.833140 0.000000 0.292080 
#    y 0.000000 2.527190 0.000000 
#    z 0.292080 0.000000 4.038120 
# 
# 
# High freq. dielectric constant tensor:
#      x y z
#    x 1.866110 0.000000 0.010440 
#    y 0.000000 1.858280 0.000000 
#    z 0.010440 0.000000 1.878840 
# 
# From -- ./inp_files/101391.got.cif
#   From: 2010.06.25/outbox.cif.g09.slc.cpg/sg15_51_cif.got.tgz:101391.got - 2010.06.28 07:06:18.
