data_PCOD8144670
_publ_section_title
;
Structure prediction by ZEFSAII (Michael W. Deem and Ramdas Pophale) SiO2 
 PCOD8144670
Probable space group: C 2/C
;
_chemical_formula_sum "Si O2"
_cell_formula_units_Z 40
_cell_length_a 10.571945
_cell_length_b 18.266664
_cell_length_c 15.932102
_cell_angle_alpha 90.000000
_cell_angle_beta 147.655402
_cell_angle_gamma 90.000000
_cell_volume 1646.073464
_symmetry_space_group_name_H-M "C 2/C"
_symmetry_group_IT_number 15
_symmetry_cell_setting 'monoclinic'
loop_
_space_group_symop_operation_xyz
x,y,z
-x,y,1/2-z
-x,-y,-z
x,-y,1/2+z
1/2+x,1/2+y,z
1/2-x,1/2+y,1/2-z
1/2-x,1/2-y,-z
1/2+x,1/2-y,1/2+z
loop_
_atom_site_type_symbol
_atom_site_label
_atom_site_fract_x
_atom_site_fract_y
_atom_site_fract_z
Si Si1 0.361172 0.927996 0.397740
Si Si2 0.165004 0.404968 0.420586
Si Si3 0.071289 0.297323 0.954453
Si Si4 0.101323 0.826761 0.589798
Si Si5 0.916343 0.956738 0.034776
O O1 0.525089 0.880915 0.425346
O O2 0.312690 0.874929 0.450743
O O3 0.116771 0.950123 0.217575
O O4 0.500000 0.000000 0.500000
O O5 0.409691 0.361340 0.545987
O O6 0.207170 0.493054 0.455082
O O7 0.000000 0.387296 0.250000
O O8 0.837859 0.314562 0.773093
O O9 0.250000 0.250000 0.000000
O O10 0.005641 0.249804 0.000023
O O11 0.164362 0.877486 0.543819
O O12 0.000000 0.000000 0.000000
#
# Coordination Sequence:
#
# PCOD8144670 Si02
#       5
#     8   8   8   8   8
#     4  12  26  47  77 116 151 201 259 313 392 459
#     4  11  24  46  78 108 151 200 257 324 378 462
#     4  12  29  50  74 110 153 202 255 317 388 471
#     4  11  25  48  74 107 149 201 256 312 395 451
#     4  10  21  43  73 111 150 195 252 315 388 453
#
# _framework density 24.300252
#
# number of rings (size 3 to 8) (size 9 to 14) (size 15 to 20)
#    0.000    0.800    4.000    4.200    2.800    4.000 
#    0.000    0.000    0.000    0.000    0.000    0.000 
#    0.000    0.000    0.000    0.000    0.000    0.000 
#
# Total GULP energy -248011.013300 kJ/mol
# GULP energy per Si atom -12400.550665 kJ/mol
# Density = 2.424494 g / cm^3
# Si number density = 24.300252 Si / 1000 Ang^3
#
#
#
# Elastic Constant Matrix: (Units=GPa)
#
#
# Indices 1 2 3 4 5 6 
#
# 1 83.9393 13.1318 30.4641 -0.0062 -1.5637 0.0011
# 2 13.1318 129.1740 54.0412 -0.0111 -16.2803 0.0012
# 3 30.4641 54.0412 205.4733 -0.0448 -20.8509 -0.0060
# 4 -0.0062 -0.0111 -0.0448 50.0550 -0.0121 -9.6089
# 5 -1.5637 -16.2803 -20.8509 -0.0121 38.9879 0.0005
# 6 0.0011 0.0012 -0.0060 -9.6089 0.0005 45.8777
#
#
#
# Elastic Compliance Matrix: (Units=1/GPa)
#
#
# Indices 1 2 3 4 5 6 
#
# 1 0.012645 -0.000630 -0.001781 0.000000 -0.000708 -0.000001
# 2 -0.000630 0.008976 -0.001998 0.000001 0.002654 0.000000
# 3 -0.001781 -0.001998 0.005884 0.000006 0.002241 0.000002
# 4 0.000000 0.000001 0.000006 0.020815 0.000010 0.004360
# 5 -0.000708 0.002654 0.002241 0.000010 0.027927 0.000002
# 6 -0.000001 0.000000 0.000002 0.004360 0.000002 0.022710
#
#
# Mechanical properties :
#
#
# Convention : Reuss Voigt Hill
#
# Bulk Modulus (GPa) = 53.51227 68.20675 60.85951
# Shear Modulus (GPa) = 43.85815 48.38076 46.11946
#
# Velocity S-wave (km/s) = 4.25295 4.46686 4.36122
# Velocity P-wave (km/s) = 6.79602 7.39817 7.10348
#
# Compressibility (1/GPa) = 0.01868730
#
# Stress axis : x y z
#
# Youngs Moduli (GPa) = 79.08213 111.40893 169.95863
#
# Poissons Ratio (x) = 0.07015 0.30271
# Poissons Ratio (y) = 0.04979 0.33958
# Poissons Ratio (z) = 0.14085 0.22260
#
# Static dielectric constant tensor:
#      x y z
#    x 6.121460 0.000000 0.870940 
#    y 0.000000 5.263330 0.000040 
#    z 0.870940 0.000040 5.036890 
# 
# 
# High freq. dielectric constant tensor:
#      x y z
#    x 1.975850 0.000000 -0.010610 
#    y 0.000000 1.978260 0.000000 
#    z -0.010610 0.000000 1.969110 
# 
# From -- ./inp_files/199749.got.cif
#   From: 2010.06.25/outbox.cif.g09.slc.cpg/sg15_100_cif.got.tgz:199749.got - 2010.06.28 07:06:18.
