data_PCOD8144150
_publ_section_title
;
Structure prediction by ZEFSAII (Michael W. Deem and Ramdas Pophale) SiO2 
 PCOD8144150
Probable space group: C 2/C
;
_chemical_formula_sum "Si O2"
_cell_formula_units_Z 44
_cell_length_a 12.702041
_cell_length_b 18.096760
_cell_length_c 13.407288
_cell_angle_alpha 90.000000
_cell_angle_beta 44.405673
_cell_angle_gamma 90.000000
_cell_volume 2156.494234
_symmetry_space_group_name_H-M "C 2/C"
_symmetry_group_IT_number 15
_symmetry_cell_setting 'monoclinic'
loop_
_space_group_symop_operation_xyz
x,y,z
-x,y,1/2-z
-x,-y,-z
x,-y,1/2+z
1/2+x,1/2+y,z
1/2-x,1/2+y,1/2-z
1/2-x,1/2-y,-z
1/2+x,1/2-y,1/2+z
loop_
_atom_site_type_symbol
_atom_site_label
_atom_site_fract_x
_atom_site_fract_y
_atom_site_fract_z
Si Si1 0.737820 0.337333 0.010132
Si Si2 0.000000 0.428012 0.750000
Si Si3 0.256829 0.671143 0.776373
Si Si4 0.490465 0.562824 0.139010
Si Si5 0.540604 0.697417 0.471260
Si Si6 0.746958 0.520249 0.822657
O O1 0.898636 0.375929 0.887943
O O2 0.629770 0.356565 0.989697
O O3 0.750000 0.250000 0.000000
O O4 0.677231 0.358057 0.161559
O O5 0.899719 0.478418 0.745771
O O6 0.383341 0.717165 0.631160
O O7 0.117453 0.725752 0.890218
O O8 0.204354 0.601661 0.746713
O O9 0.500000 0.558835 0.250000
O O10 0.482960 0.648542 0.111089
O O11 0.339975 0.520596 0.207578
O O12 0.638932 0.524554 0.992482
#
# Coordination Sequence:
#
# PCOD8144150 Si02
#       6
#     8   4   8   8   8   8
#     4  10  23  36  65  95 128 166 207 274 332 375
#     4  12  24  44  60 100 136 164 212 286 316 392
#     4  10  23  39  66  96 128 176 214 270 328 389
#     4  10  22  43  65  89 126 182 213 266 324 391
#     4  10  21  42  63  95 133 165 226 268 321 393
#     4  10  24  43  64  95 133 165 227 261 328 401
#
# _framework density 20.403486000000001
#
# number of rings (size 3 to 8) (size 9 to 14) (size 15 to 20)
#    0.000    1.818    1.818    0.545   12.727    0.727 
#    4.909    1.818    0.000    0.000    0.000    0.000 
#    0.000    0.000    0.000    0.000    0.000    0.000 
#
# Total GULP energy -272773.757541 kJ/mol
# GULP energy per Si atom -12398.807161 kJ/mol
# Density = 2.035705 g / cm^3
# Si number density = 20.403486 Si / 1000 Ang^3
#
#
#
# Elastic Constant Matrix: (Units=GPa)
#
#
# Indices 1 2 3 4 5 6 
#
# 1 115.6964 57.2991 63.5702 -0.0001 10.7892 0.0003
# 2 57.2991 106.7619 70.2674 0.0000 -6.9594 0.0001
# 3 63.5702 70.2674 129.8891 -0.0001 11.7161 0.0002
# 4 -0.0001 0.0000 -0.0001 36.1258 0.0001 -9.8724
# 5 10.7892 -6.9594 11.7161 0.0001 39.5652 -0.0002
# 6 0.0003 0.0001 0.0002 -9.8724 -0.0002 36.7832
#
#
#
# Elastic Compliance Matrix: (Units=1/GPa)
#
#
# Indices 1 2 3 4 5 6 
#
# 1 0.013433 -0.005162 -0.003462 0.000000 -0.003546 0.000000
# 2 -0.005162 0.017570 -0.007587 0.000000 0.006745 0.000000
# 3 -0.003462 -0.007587 0.013904 0.000000 -0.004508 0.000000
# 4 0.000000 0.000000 0.000000 0.029872 0.000000 0.008017
# 5 -0.003546 0.006745 -0.004508 0.000000 0.028763 0.000000
# 6 0.000000 0.000000 0.000000 0.008017 0.000000 0.029338
#
#
# Mechanical properties :
#
#
# Convention : Reuss Voigt Hill
#
# Bulk Modulus (GPa) = 80.09449 81.62452 80.85951
# Shear Modulus (GPa) = 29.50470 33.24221 31.37345
#
# Velocity S-wave (km/s) = 3.80684 4.04077 3.92554
# Velocity P-wave (km/s) = 7.65919 7.86527 7.76291
#
# Compressibility (1/GPa) = 0.01248525
#
# Stress axis : x y z
#
# Youngs Moduli (GPa) = 74.44592 56.91363 71.91994
#
# Poissons Ratio (x) = 0.29379 0.24897
# Poissons Ratio (y) = 0.38429 0.54568
# Poissons Ratio (z) = 0.25772 0.43182
#
# Static dielectric constant tensor:
#      x y z
#    x 3.938810 0.000000 0.200100 
#    y 0.000000 3.625840 0.000000 
#    z 0.200100 0.000000 3.796310 
# 
# 
# High freq. dielectric constant tensor:
#      x y z
#    x 1.781360 0.000000 0.004010 
#    y 0.000000 1.803390 0.000000 
#    z 0.004010 0.000000 1.802480 
# 
# From -- ./inp_files/88721.got.cif
#   From: 2010.06.25/outbox.cif.g09.slc.cpg/sg15_45_cif.got.tgz:88721.got - 2010.06.28 07:06:18.
