data_PCOD8144170
_publ_section_title
;
Structure prediction by ZEFSAII (Michael W. Deem and Ramdas Pophale) SiO2 
 PCOD8144170
Probable space group: C 2/C
;
_chemical_formula_sum "Si O2"
_cell_formula_units_Z 48
_cell_length_a 12.119614
_cell_length_b 8.026454
_cell_length_c 24.237844
_cell_angle_alpha 90.000000
_cell_angle_beta 68.422799
_cell_angle_gamma 90.000000
_cell_volume 2192.569839
_symmetry_space_group_name_H-M "C 2/C"
_symmetry_group_IT_number 15
_symmetry_cell_setting 'monoclinic'
loop_
_space_group_symop_operation_xyz
x,y,z
-x,y,1/2-z
-x,-y,-z
x,-y,1/2+z
1/2+x,1/2+y,z
1/2-x,1/2+y,1/2-z
1/2-x,1/2-y,-z
1/2+x,1/2-y,1/2+z
loop_
_atom_site_type_symbol
_atom_site_label
_atom_site_fract_x
_atom_site_fract_y
_atom_site_fract_z
Si Si1 0.897037 0.315809 0.727569
Si Si2 0.588174 0.317654 0.568886
Si Si3 0.288747 0.988296 0.977157
Si Si4 0.624899 0.756393 0.450912
Si Si5 0.534073 0.489530 0.683801
Si Si6 0.219955 0.597166 0.825931
O O1 0.855786 0.464254 0.695649
O O2 0.777206 0.246224 0.778858
O O3 0.000000 0.384116 0.750000
O O4 0.959373 0.158583 0.685025
O O5 0.690123 0.451906 0.538943
O O6 0.504695 0.327716 0.529792
O O7 0.512438 0.361469 0.637944
O O8 0.645187 0.135869 0.566421
O O9 0.231121 0.874240 0.940379
O O10 0.381567 0.884328 0.996903
O O11 0.632548 0.837096 0.388855
O O12 0.500000 0.413936 0.750000
O O13 0.674768 0.512728 0.659253
#
# Coordination Sequence:
#
# PCOD8144170 Si02
#       6
#     8   8   8   8   8   8
#     4   9  22  42  61  90 129 164 206 257 317 380
#     4  11  22  42  65  94 121 169 211 255 319 376
#     4  10  24  44  61  90 130 161 214 264 310 376
#     4  11  23  41  64  91 122 167 208 263 317 370
#     4   9  21  41  63  91 128 160 202 258 314 376
#     4  10  21  42  64  90 127 164 206 259 316 371
#
# _framework density 21.892120999999999
#
# number of rings (size 3 to 8) (size 9 to 14) (size 15 to 20)
#    0.000    2.333    1.667    1.000    4.667    4.000 
#    6.000    0.000    0.000    0.000    0.000    0.000 
#    0.000    0.000    0.000    0.000    0.000    0.000 
#
# Total GULP energy -297446.076131 kJ/mol
# GULP energy per Si atom -12393.586505 kJ/mol
# Density = 2.184229 g / cm^3
# Si number density = 21.892121 Si / 1000 Ang^3
#
#
#
# Elastic Constant Matrix: (Units=GPa)
#
#
# Indices 1 2 3 4 5 6 
#
# 1 81.5827 31.7260 21.0422 0.0000 18.5162 0.0000
# 2 31.7260 90.3697 50.7110 0.0000 24.3520 0.0000
# 3 21.0422 50.7110 86.5964 0.0000 14.3076 0.0000
# 4 0.0000 0.0000 0.0000 19.8651 0.0000 16.4317
# 5 18.5162 24.3520 14.3076 0.0000 25.5637 0.0000
# 6 0.0000 0.0000 0.0000 16.4317 0.0000 21.5053
#
#
#
# Elastic Compliance Matrix: (Units=1/GPa)
#
#
# Indices 1 2 3 4 5 6 
#
# 1 0.015368 -0.002799 -0.000767 0.000000 -0.008035 0.000000
# 2 -0.002799 0.020641 -0.009359 0.000000 -0.012397 0.000000
# 3 -0.000767 -0.009359 0.017245 0.000000 -0.000181 0.000000
# 4 0.000000 0.000000 0.000000 0.136800 0.000000 -0.104526
# 5 -0.008035 -0.012397 -0.000181 0.000000 0.056848 0.000000
# 6 0.000000 0.000000 0.000000 -0.104526 0.000000 0.126366
#
#
# Mechanical properties :
#
#
# Convention : Reuss Voigt Hill
#
# Bulk Modulus (GPa) = 36.49369 51.72304 44.10837
# Shear Modulus (GPa) = 12.24733 23.72478 17.98606
#
# Velocity S-wave (km/s) = 2.36781 3.29555 2.86943
# Velocity P-wave (km/s) = 4.91746 6.17726 5.58300
#
# Compressibility (1/GPa) = 0.02740200
#
# Stress axis : x y z
#
# Youngs Moduli (GPa) = 65.07177 48.44806 57.98898
#
# Poissons Ratio (x) = 0.13562 0.04450
# Poissons Ratio (y) = 0.18216 0.54271
# Poissons Ratio (z) = 0.04994 0.45342
#
# Static dielectric constant tensor:
#      x y z
#    x 4.155940 0.000000 -0.007930 
#    y 0.000000 3.828700 0.000000 
#    z -0.007930 0.000000 3.666810 
# 
# 
# High freq. dielectric constant tensor:
#      x y z
#    x 1.880070 0.000000 0.000360 
#    y 0.000000 1.851120 0.000000 
#    z 0.000360 0.000000 1.846820 
# 
# From -- ./inp_files/268027.got.cif
#   From: 2010.06.25/outbox.cif.g09.slc.cpg/sg15_135_cif.got.tgz:268027.got - 2010.06.28 07:06:18.
