data_PCOD8144627
_publ_section_title
;
Structure prediction by ZEFSAII (Michael W. Deem and Ramdas Pophale) SiO2 
 PCOD8144627
Probable space group: C 2/C
;
_chemical_formula_sum "Si O2"
_cell_formula_units_Z 48
_cell_length_a 21.626017
_cell_length_b 11.641501
_cell_length_c 9.475703
_cell_angle_alpha 90.000000
_cell_angle_beta 71.795242
_cell_angle_gamma 90.000000
_cell_volume 2266.187966
_symmetry_space_group_name_H-M "C 2/C"
_symmetry_group_IT_number 15
_symmetry_cell_setting 'monoclinic'
loop_
_space_group_symop_operation_xyz
x,y,z
-x,y,1/2-z
-x,-y,-z
x,-y,1/2+z
1/2+x,1/2+y,z
1/2-x,1/2+y,1/2-z
1/2-x,1/2-y,-z
1/2+x,1/2-y,1/2+z
loop_
_atom_site_type_symbol
_atom_site_label
_atom_site_fract_x
_atom_site_fract_y
_atom_site_fract_z
Si Si1 0.073704 0.276889 0.946028
Si Si2 0.000000 0.177429 0.250000
Si Si3 0.000000 0.386633 0.750000
Si Si4 0.325591 0.583405 0.599070
Si Si5 0.377444 0.007017 0.948666
Si Si6 0.137453 0.883262 0.733883
Si Si7 0.681830 0.128185 0.767315
O O1 0.038861 0.303208 0.825184
O O2 0.115766 0.163262 0.891057
O O3 0.121915 0.378946 0.956607
O O4 0.020584 0.258906 0.106267
O O5 0.939481 0.098398 0.242701
O O6 0.048604 0.466999 0.627832
O O7 0.338573 0.456344 0.650273
O O8 0.321861 0.576388 0.432080
O O9 0.259366 0.637487 0.705311
O O10 0.342411 0.031621 0.825553
O O11 0.338317 0.908770 0.060617
O O12 0.149285 0.749387 0.754364
#
# Coordination Sequence:
#
# PCOD8144627 Si02
#       7
#     8   4   4   8   8   8   8
#     4  11  24  42  66  99 134 174 218 277 336 397
#     4  10  21  43  70  92 134 173 221 268 334 394
#     4  12  25  39  70 106 138 161 229 280 346 400
#     4  11  26  44  68  95 136 184 226 268 334 396
#     4  12  24  42  69 103 132 177 214 282 341 392
#     4  11  25  44  68  97 134 180 224 280 329 395
#     4  12  25  44  71  97 138 175 227 277 333 398
#
# _framework density 21.180944
#
# number of rings (size 3 to 8) (size 9 to 14) (size 15 to 20)
#    0.000    0.667    5.000    3.500    2.333    6.000 
#    0.000    2.500    0.000    0.000    0.000    0.000 
#    0.000    0.000    0.000    0.000    0.000    0.000 
#
# Total GULP energy -297767.010841 kJ/mol
# GULP energy per Si atom -12406.958785 kJ/mol
# Density = 2.113274 g / cm^3
# Si number density = 21.180944 Si / 1000 Ang^3
#
#
#
# Elastic Constant Matrix: (Units=GPa)
#
#
# Indices 1 2 3 4 5 6 
#
# 1 83.2205 28.4208 26.8295 0.0000 -14.8683 0.0000
# 2 28.4208 89.0963 56.7544 0.0000 0.8453 0.0000
# 3 26.8295 56.7544 103.8983 0.0000 -10.9604 0.0000
# 4 0.0000 0.0000 0.0000 35.1831 0.0000 7.2211
# 5 -14.8683 0.8453 -10.9604 0.0000 44.7575 0.0000
# 6 0.0000 0.0000 0.0000 7.2211 0.0000 27.1184
#
#
#
# Elastic Compliance Matrix: (Units=1/GPa)
#
#
# Indices 1 2 3 4 5 6 
#
# 1 0.014562 -0.003997 -0.001087 0.000000 0.004647 0.000000
# 2 -0.003997 0.018634 -0.009571 0.000000 -0.004023 0.000000
# 3 -0.001087 -0.009571 0.015515 0.000000 0.003619 0.000000
# 4 0.000000 0.000000 0.000000 0.030066 0.000000 -0.008006
# 5 0.004647 -0.004023 0.003619 0.000000 0.024849 0.000000
# 6 0.000000 0.000000 0.000000 -0.008006 0.000000 0.039007
#
#
# Mechanical properties :
#
#
# Convention : Reuss Voigt Hill
#
# Bulk Modulus (GPa) = 51.54219 55.58050 53.56134
# Shear Modulus (GPa) = 28.02551 32.35915 30.19233
#
# Velocity S-wave (km/s) = 3.64146 3.91288 3.77961
# Velocity P-wave (km/s) = 6.48593 6.83462 6.66256
#
# Compressibility (1/GPa) = 0.01940158
#
# Stress axis : x y z
#
# Youngs Moduli (GPa) = 68.67282 53.66640 64.45231
#
# Poissons Ratio (x) = 0.21450 0.07005
# Poissons Ratio (y) = 0.27448 0.61687
# Poissons Ratio (z) = 0.07463 0.51364
#
# Static dielectric constant tensor:
#      x y z
#    x 3.825880 0.000000 -0.065200 
#    y 0.000000 3.610560 0.000000 
#    z -0.065200 0.000000 3.943600 
# 
# 
# High freq. dielectric constant tensor:
#      x y z
#    x 1.836570 0.000000 -0.004930 
#    y 0.000000 1.821410 0.000000 
#    z -0.004930 0.000000 1.840020 
# 
# From -- ./inp_files/60575.got.cif
#   From: 2010.06.25/outbox.cif.g09.slc.cpg/sg15_31_cif.got.tgz:60575.got - 2010.06.28 07:06:18.
