data_PCOD8144590
_publ_section_title
;
Structure prediction by ZEFSAII (Michael W. Deem and Ramdas Pophale) SiO2 
 PCOD8144590
Probable space group: C 2/C
;
_chemical_formula_sum "Si O2"
_cell_formula_units_Z 56
_cell_length_a 20.236091
_cell_length_b 26.876167
_cell_length_c 8.970102
_cell_angle_alpha 90.000000
_cell_angle_beta 32.670715
_cell_angle_gamma 90.000000
_cell_volume 2633.494236
_symmetry_space_group_name_H-M "C 2/C"
_symmetry_group_IT_number 15
_symmetry_cell_setting 'monoclinic'
loop_
_space_group_symop_operation_xyz
x,y,z
-x,y,1/2-z
-x,-y,-z
x,-y,1/2+z
1/2+x,1/2+y,z
1/2-x,1/2+y,1/2-z
1/2-x,1/2-y,-z
1/2+x,1/2-y,1/2+z
loop_
_atom_site_type_symbol
_atom_site_label
_atom_site_fract_x
_atom_site_fract_y
_atom_site_fract_z
Si Si1 0.361686 0.152846 0.499037
Si Si2 0.794205 0.194493 0.451046
Si Si3 0.143702 0.861859 0.960462
Si Si4 0.500000 0.113000 0.750000
Si Si5 0.796783 0.546846 0.214811
Si Si6 0.141315 0.689566 0.301674
Si Si7 0.500000 0.269660 0.750000
Si Si8 0.865897 0.453820 0.925555
O O1 0.352275 0.195355 0.388845
O O2 0.300633 0.099754 0.574617
O O3 0.312589 0.173591 0.744737
O O4 0.500000 0.137202 0.250000
O O5 0.750000 0.250000 0.500000
O O6 0.807566 0.155528 0.292883
O O7 0.925404 0.195114 0.281586
O O8 0.172431 0.919763 0.948126
O O9 0.220111 0.825632 0.922955
O O10 0.000000 0.851838 0.250000
O O11 0.614587 0.077564 0.566755
O O12 0.540131 0.147132 0.533403
O O13 0.861543 0.539154 0.253713
O O14 0.775529 0.493783 0.176327
O O15 0.099466 0.738982 0.465628
O O16 0.000000 0.460458 0.750000
#
# Coordination Sequence:
#
# PCOD8144590 Si02
#       8
#     8   8   8   4   8   8   4   8
#     4  11  25  40  67 102 141 172 226 274 343 411
#     4  12  27  45  67 103 135 180 223 285 343 405
#     4  11  26  47  70  91 137 185 230 271 342 404
#     4   9  18  34  64  92 136 172 204 274 341 398
#     4  11  23  39  67  99 142 176 225 276 345 403
#     4  10  21  43  68  94 134 175 223 279 336 403
#     4  11  24  42  72  98 132 172 234 276 343 400
#     4  11  23  37  66 108 136 174 219 281 345 402
#
# _framework density 21.264523000000001
#
# number of rings (size 3 to 8) (size 9 to 14) (size 15 to 20)
#    0.000    1.143    5.000    1.286    8.000    2.286 
#    0.000    0.714    1.571    0.000    0.000    0.000 
#    0.000    0.000    0.000    0.000    0.000    0.000 
#
# Total GULP energy -346905.403110 kJ/mol
# GULP energy per Si atom -12389.478682 kJ/mol
# Density = 2.121612 g / cm^3
# Si number density = 21.264523 Si / 1000 Ang^3
#
#
#
# Elastic Constant Matrix: (Units=GPa)
#
#
# Indices 1 2 3 4 5 6 
#
# 1 106.5760 29.2722 33.3254 0.0006 12.4125 0.0001
# 2 29.2722 76.3868 28.9364 0.0001 11.6640 0.0000
# 3 33.3254 28.9364 110.4668 0.0008 10.6298 0.0000
# 4 0.0006 0.0001 0.0008 90.5017 -0.0007 8.5963
# 5 12.4125 11.6640 10.6298 -0.0007 37.6094 -0.0001
# 6 0.0001 0.0000 0.0000 8.5963 -0.0001 32.5744
#
#
#
# Elastic Compliance Matrix: (Units=1/GPa)
#
#
# Indices 1 2 3 4 5 6 
#
# 1 0.011214 -0.003080 -0.002376 0.000000 -0.002074 0.000000
# 2 -0.003080 0.015849 -0.002927 0.000000 -0.003072 0.000000
# 3 -0.002376 -0.002927 0.010663 0.000000 -0.001322 0.000000
# 4 0.000000 0.000000 0.000000 0.011334 0.000000 -0.002991
# 5 -0.002074 -0.003072 -0.001322 0.000000 0.028600 0.000000
# 6 0.000000 0.000000 0.000000 -0.002991 0.000000 0.031488
#
#
# Mechanical properties :
#
#
# Convention : Reuss Voigt Hill
#
# Bulk Modulus (GPa) = 47.71190 52.94418 50.32804
# Shear Modulus (GPa) = 37.62180 45.59680 41.60930
#
# Velocity S-wave (km/s) = 4.21078 4.63565 4.42831
# Velocity P-wave (km/s) = 6.79168 7.32149 7.06156
#
# Compressibility (1/GPa) = 0.02095913
#
# Stress axis : x y z
#
# Youngs Moduli (GPa) = 89.17700 63.09379 93.77958
#
# Poissons Ratio (x) = 0.19434 0.22287
# Poissons Ratio (y) = 0.27469 0.27448
# Poissons Ratio (z) = 0.21193 0.18467
#
# Static dielectric constant tensor:
#      x y z
#    x 9.958610 0.000030 -4.653270 
#    y 0.000030 4.068730 -0.000020 
#    z -4.653270 -0.000020 7.283040 
# 
# 
# High freq. dielectric constant tensor:
#      x y z
#    x 1.833770 0.000000 0.014260 
#    y 0.000000 1.834310 0.000000 
#    z 0.014260 0.000000 1.814290 
# 
# From -- ./inp_files/59355.got.cif
#   From: 2010.06.25/outbox.cif.g09.slc.cpg/sg15_30_cif.got.tgz:59355.got - 2010.06.28 07:06:18.
