data_PCOD8144043
_publ_section_title
;
Structure prediction by ZEFSAII (Michael W. Deem and Ramdas Pophale) SiO2 
 PCOD8144043
Probable space group: C 2/C
;
_chemical_formula_sum "Si O2"
_cell_formula_units_Z 56
_cell_length_a 8.999776
_cell_length_b 14.272932
_cell_length_c 25.645175
_cell_angle_alpha 90.000000
_cell_angle_beta 127.400224
_cell_angle_gamma 90.000000
_cell_volume 2616.956442
_symmetry_space_group_name_H-M "C 2/C"
_symmetry_group_IT_number 15
_symmetry_cell_setting 'monoclinic'
loop_
_space_group_symop_operation_xyz
x,y,z
-x,y,1/2-z
-x,-y,-z
x,-y,1/2+z
1/2+x,1/2+y,z
1/2-x,1/2+y,1/2-z
1/2-x,1/2-y,-z
1/2+x,1/2-y,1/2+z
loop_
_atom_site_type_symbol
_atom_site_label
_atom_site_fract_x
_atom_site_fract_y
_atom_site_fract_z
Si Si1 0.623149 0.478124 0.976226
Si Si2 0.677488 0.767253 0.251058
Si Si3 0.657078 0.125928 0.145140
Si Si4 0.837517 0.652378 0.003829
Si Si5 0.023718 0.648915 0.935128
Si Si6 0.543036 0.668781 0.378352
Si Si7 0.222029 0.930854 0.295438
O O1 0.502264 0.416890 0.909302
O O2 0.500000 0.500000 0.000000
O O3 0.677351 0.575347 0.958954
O O4 0.813282 0.427097 0.034312
O O5 0.500000 0.770373 0.250000
O O6 0.844342 0.719243 0.319214
O O7 0.640022 0.700446 0.192862
O O8 0.721941 0.873621 0.244549
O O9 0.451442 0.113620 0.078164
O O10 0.797212 0.135368 0.126663
O O11 0.717709 0.039223 0.194923
O O12 0.750000 0.750000 0.000000
O O13 0.976125 0.667183 0.985098
O O14 0.107000 0.742300 0.926472
O O15 0.830775 0.613990 0.867648
O O16 0.000000 0.921637 0.250000
#
# Coordination Sequence:
#
# PCOD8144043 Si02
#       7
#     8   8   8   8   8   8   8
#     4  12  24  41  66 100 136 183 223 273 346 407
#     4   9  22  44  66  96 128 175 228 277 336 401
#     4  11  22  44  68  94 137 175 222 275 338 404
#     4  12  26  41  67 101 138 174 223 283 339 406
#     4  11  23  44  66 101 137 172 224 282 333 404
#     4  10  21  41  70  94 131 179 221 275 339 404
#     4  11  23  42  70  96 129 179 223 276 339 403
#
# _framework density 21.398903000000001
#
# number of rings (size 3 to 8) (size 9 to 14) (size 15 to 20)
#    0.000    1.143    2.857    3.857    4.000    0.000 
#    0.000    0.714    0.000    0.000    0.000    0.000 
#    0.000    0.000    0.000    0.000    0.000    0.000 
#
# Total GULP energy -347126.078525 kJ/mol
# GULP energy per Si atom -12397.359947 kJ/mol
# Density = 2.135020 g / cm^3
# Si number density = 21.398903 Si / 1000 Ang^3
#
#
#
# Elastic Constant Matrix: (Units=GPa)
#
#
# Indices 1 2 3 4 5 6 
#
# 1 87.4431 57.0438 39.8391 0.0000 -9.2720 0.0000
# 2 57.0438 155.3253 37.1632 0.0000 -19.3095 0.0000
# 3 39.8391 37.1632 90.0605 0.0000 -9.0406 0.0000
# 4 0.0000 0.0000 0.0000 43.3920 0.0000 -7.5398
# 5 -9.2720 -19.3095 -9.0406 0.0000 32.1770 0.0000
# 6 0.0000 0.0000 0.0000 -7.5398 0.0000 37.6506
#
#
#
# Elastic Compliance Matrix: (Units=1/GPa)
#
#
# Indices 1 2 3 4 5 6 
#
# 1 0.017234 -0.004950 -0.005537 0.000000 0.000440 0.000000
# 2 -0.004950 0.008984 -0.001152 0.000000 0.003641 0.000000
# 3 -0.005537 -0.001152 0.014199 0.000000 0.001703 0.000000
# 4 0.000000 0.000000 0.000000 0.023877 0.000000 0.004781
# 5 0.000440 0.003641 0.001703 0.000000 0.033869 0.000000
# 6 0.000000 0.000000 0.000000 0.004781 0.000000 0.027517
#
#
# Mechanical properties :
#
#
# Convention : Reuss Voigt Hill
#
# Bulk Modulus (GPa) = 58.34364 66.76900 62.55632
# Shear Modulus (GPa) = 32.32640 35.89610 34.11125
#
# Velocity S-wave (km/s) = 3.89093 4.10014 3.99691
# Velocity P-wave (km/s) = 6.89273 7.32698 7.11317
#
# Compressibility (1/GPa) = 0.01713983
#
# Stress axis : x y z
#
# Youngs Moduli (GPa) = 58.02334 111.30486 70.42565
#
# Poissons Ratio (x) = 0.55095 0.38995
# Poissons Ratio (y) = 0.28721 0.08114
# Poissons Ratio (z) = 0.32128 0.12824
#
# Static dielectric constant tensor:
#      x y z
#    x 3.648780 0.000000 -0.070800 
#    y 0.000000 4.053100 0.000000 
#    z -0.070800 0.000000 4.147940 
# 
# 
# High freq. dielectric constant tensor:
#      x y z
#    x 1.815790 0.000000 -0.002330 
#    y 0.000000 1.855130 0.000000 
#    z -0.002330 0.000000 1.850760 
# 
# From -- ./inp_files/264814.got.cif
#   From: 2010.06.25/outbox.cif.g09.slc.cpg/sg15_133_cif.got.tgz:264814.got - 2010.06.28 07:06:18.
