data_PCOD8144262
_publ_section_title
;
Structure prediction by ZEFSAII (Michael W. Deem and Ramdas Pophale) SiO2 
 PCOD8144262
Probable space group: C 2/C
;
_chemical_formula_sum "Si O2"
_cell_formula_units_Z 64
_cell_length_a 16.663539
_cell_length_b 16.910997
_cell_length_c 13.940233
_cell_angle_alpha 90.000000
_cell_angle_beta 49.647371
_cell_angle_gamma 90.000000
_cell_volume 2993.667587
_symmetry_space_group_name_H-M "C 2/C"
_symmetry_group_IT_number 15
_symmetry_cell_setting 'monoclinic'
loop_
_space_group_symop_operation_xyz
x,y,z
-x,y,1/2-z
-x,-y,-z
x,-y,1/2+z
1/2+x,1/2+y,z
1/2-x,1/2+y,1/2-z
1/2-x,1/2-y,-z
1/2+x,1/2-y,1/2+z
loop_
_atom_site_type_symbol
_atom_site_label
_atom_site_fract_x
_atom_site_fract_y
_atom_site_fract_z
Si Si1 0.225958 0.664466 0.982093
Si Si2 0.321898 0.612268 0.285093
Si Si3 0.749619 0.333821 0.249090
Si Si4 0.554531 0.768603 0.307014
Si Si5 0.610857 0.810166 0.900424
Si Si6 0.299739 0.498538 0.136073
Si Si7 0.616740 0.523385 0.624427
Si Si8 0.404472 0.920669 0.766151
O O1 0.189781 0.666830 0.899431
O O2 0.326185 0.607215 0.912797
O O3 0.250000 0.750000 0.000000
O O4 0.132952 0.638296 0.122440
O O5 0.416025 0.675650 0.222497
O O6 0.206505 0.650167 0.384967
O O7 0.334778 0.573796 0.170685
O O8 0.325458 0.544970 0.361807
O O9 0.836170 0.316300 0.264071
O O10 0.656137 0.269571 0.317315
O O11 0.695271 0.418269 0.307566
O O12 0.500000 0.794900 0.250000
O O13 0.479299 0.787111 0.454752
O O14 0.567356 0.870248 0.851938
O O15 0.180324 0.511696 0.191331
O O16 0.382665 0.493182 0.985473
O O17 0.500000 0.536546 0.750000
O O18 0.500000 0.963137 0.750000
#
# Coordination Sequence:
#
# PCOD8144262 Si02
#       8
#     8   8   8   8   8   8   8   8
#     4  11  22  43  65  98 134 166 217 273 335 393
#     4  10  23  45  64  93 138 170 219 275 330 398
#     4  11  23  43  66  95 131 175 221 272 332 390
#     4  11  26  41  65  96 129 175 229 269 325 395
#     4  10  23  42  65  94 131 177 218 274 333 388
#     4  10  24  43  65  94 131 172 215 272 331 388
#     4  11  25  41  67 100 129 177 218 271 332 394
#     4  10  21  42  66  94 129 168 214 275 330 385
#
# _framework density 21.37846
#
# number of rings (size 3 to 8) (size 9 to 14) (size 15 to 20)
#    0.000    1.500    2.500    1.125    7.000    3.500 
#    2.250    1.875    0.000    0.000    0.000    0.000 
#    0.000    0.000    0.000    0.000    0.000    0.000 
#
# Total GULP energy -396748.885881 kJ/mol
# GULP energy per Si atom -12398.402684 kJ/mol
# Density = 2.132980 g / cm^3
# Si number density = 21.378460 Si / 1000 Ang^3
#
#
#
# Elastic Constant Matrix: (Units=GPa)
#
#
# Indices 1 2 3 4 5 6 
#
# 1 66.7148 7.7570 14.8972 0.0000 10.9883 0.0000
# 2 7.7570 98.0856 24.2614 0.0000 2.0093 0.0000
# 3 14.8972 24.2614 113.3925 0.0000 12.4365 0.0000
# 4 0.0000 0.0000 0.0000 32.0193 0.0000 4.7001
# 5 10.9883 2.0093 12.4365 0.0000 32.7541 0.0000
# 6 0.0000 0.0000 0.0000 4.7001 0.0000 14.7316
#
#
#
# Elastic Compliance Matrix: (Units=1/GPa)
#
#
# Indices 1 2 3 4 5 6 
#
# 1 0.016201 -0.000831 -0.001419 0.000000 -0.004845 0.000000
# 2 -0.000831 0.010809 -0.002255 0.000000 0.000472 0.000000
# 3 -0.001419 -0.002255 0.009830 0.000000 -0.003118 0.000000
# 4 0.000000 0.000000 0.000000 0.032766 0.000000 -0.010454
# 5 -0.004845 0.000472 -0.003118 0.000000 0.033311 0.000000
# 6 0.000000 0.000000 0.000000 -0.010454 0.000000 0.071217
#
#
# Mechanical properties :
#
#
# Convention : Reuss Voigt Hill
#
# Bulk Modulus (GPa) = 35.93405 41.33602 38.63503
# Shear Modulus (GPa) = 25.98483 31.31949 28.65216
#
# Velocity S-wave (km/s) = 3.49014 3.83169 3.66489
# Velocity P-wave (km/s) = 5.75208 6.24124 6.00165
#
# Compressibility (1/GPa) = 0.02782876
#
# Stress axis : x y z
#
# Youngs Moduli (GPa) = 61.72563 92.51490 101.73067
#
# Poissons Ratio (x) = 0.07687 0.14438
# Poissons Ratio (y) = 0.05129 0.22943
# Poissons Ratio (z) = 0.08760 0.20865
#
# Static dielectric constant tensor:
#      x y z
#    x 4.006230 0.000000 0.202490 
#    y 0.000000 3.831820 0.000000 
#    z 0.202490 0.000000 3.819450 
# 
# 
# High freq. dielectric constant tensor:
#      x y z
#    x 1.840700 0.000000 0.011130 
#    y 0.000000 1.842400 0.000000 
#    z 0.011130 0.000000 1.841630 
# 
# From -- ./inp_files/162523.got.cif
#   From: 2010.06.25/outbox.cif.g09.slc.cpg/sg15_82_cif.got.tgz:162523.got - 2010.06.28 07:06:18.
