data_PCOD8144995
_publ_section_title
;
Structure prediction by ZEFSAII (Michael W. Deem and Ramdas Pophale) SiO2 
 PCOD8144995
Probable space group: C 2/C
;
_chemical_formula_sum "Si O2"
_cell_formula_units_Z 52
_cell_length_a 11.305049
_cell_length_b 9.023035
_cell_length_c 25.185115
_cell_angle_alpha 90.000000
_cell_angle_beta 81.237243
_cell_angle_gamma 90.000000
_cell_volume 2539.042438
_symmetry_space_group_name_H-M "C 2/C"
_symmetry_group_IT_number 15
_symmetry_cell_setting 'monoclinic'
loop_
_space_group_symop_operation_xyz
x,y,z
-x,y,1/2-z
-x,-y,-z
x,-y,1/2+z
1/2+x,1/2+y,z
1/2-x,1/2+y,1/2-z
1/2-x,1/2-y,-z
1/2+x,1/2-y,1/2+z
loop_
_atom_site_type_symbol
_atom_site_label
_atom_site_fract_x
_atom_site_fract_y
_atom_site_fract_z
Si Si1 0.764903 0.591681 0.582987
Si Si2 0.061647 0.343169 0.885973
Si Si3 0.000000 0.860978 0.250000
Si Si4 0.032240 0.330556 0.497272
Si Si5 0.844293 0.672261 0.330352
Si Si6 0.873672 0.961422 0.157895
Si Si7 0.461918 0.566560 0.446221
O O1 0.858721 0.483725 0.605770
O O2 0.829766 0.682656 0.531087
O O3 0.715314 0.704692 0.628783
O O4 0.665087 0.490450 0.563542
O O5 0.143784 0.211438 0.856558
O O6 0.961144 0.395743 0.851101
O O7 0.989565 0.270635 0.941399
O O8 0.888249 0.756306 0.274385
O O9 0.955777 0.966873 0.205167
O O10 0.000000 0.500000 0.500000
O O11 0.951049 0.242450 0.459860
O O12 0.753563 0.539583 0.322292
O O13 0.939269 0.047003 0.106021
O O14 0.500000 0.500000 0.500000
#
# Coordination Sequence:
#
# PCOD8144995 Si02
#       7
#     8   8   4   8   8   8   8
#     4  11  23  39  65  95 138 173 209 265 315 390
#     4  10  23  40  61  99 132 171 210 255 319 384
#     4  10  24  46  62  98 122 162 222 274 338 366
#     4  10  22  36  58  99 137 169 210 253 311 385
#     4  11  23  44  69  89 124 166 218 274 322 383
#     4  11  23  44  70  93 129 171 214 274 322 392
#     4  12  22  39  66  99 130 178 215 252 330 389
#
# _framework density 20.480160999999999
#
# number of rings (size 3 to 8) (size 9 to 14) (size 15 to 20)
#    0.000    1.231    6.154    0.000    2.154    8.615 
#    0.000    0.000    0.000    0.000    0.000    0.000 
#    0.000    0.000    0.000    0.000    0.000    0.000 
#
# Total GULP energy -322293.872368 kJ/mol
# GULP energy per Si atom -12395.918168 kJ/mol
# Density = 2.043355 g / cm^3
# Si number density = 20.480161 Si / 1000 Ang^3
#
#
#
# Elastic Constant Matrix: (Units=GPa)
#
#
# Indices 1 2 3 4 5 6 
#
# 1 113.2882 53.7390 33.9785 0.0000 1.4028 0.0000
# 2 53.7390 94.8983 31.5380 0.0000 6.7627 0.0000
# 3 33.9785 31.5380 100.0264 0.0000 -1.7657 0.0000
# 4 0.0000 0.0000 0.0000 27.1202 0.0000 -4.2767
# 5 1.4028 6.7627 -1.7657 0.0000 35.5569 0.0000
# 6 0.0000 0.0000 0.0000 -4.2767 0.0000 50.2454
#
#
#
# Elastic Compliance Matrix: (Units=1/GPa)
#
#
# Indices 1 2 3 4 5 6 
#
# 1 0.012520 -0.006394 -0.002226 0.000000 0.000611 0.000000
# 2 -0.006394 0.015249 -0.002685 0.000000 -0.002781 0.000000
# 3 -0.002226 -0.002685 0.011621 0.000000 0.001176 0.000000
# 4 0.000000 0.000000 0.000000 0.037375 0.000000 0.003181
# 5 0.000611 -0.002781 0.001176 0.000000 0.028687 0.000000
# 6 0.000000 0.000000 0.000000 0.003181 0.000000 0.020173
#
#
# Mechanical properties :
#
#
# Convention : Reuss Voigt Hill
#
# Bulk Modulus (GPa) = 59.59561 60.74708 60.17135
# Shear Modulus (GPa) = 32.50390 35.18166 33.84278
#
# Velocity S-wave (km/s) = 3.98815 4.14918 4.06946
# Velocity P-wave (km/s) = 7.09715 7.25811 7.17808
#
# Compressibility (1/GPa) = 0.01677976
#
# Stress axis : x y z
#
# Youngs Moduli (GPa) = 79.87204 65.57950 86.05114
#
# Poissons Ratio (x) = 0.41928 0.19158
# Poissons Ratio (y) = 0.51066 0.23106
# Poissons Ratio (z) = 0.17782 0.17609
#
# Static dielectric constant tensor:
#      x y z
#    x 2.864010 0.000000 -0.116140 
#    y 0.000000 2.456780 0.000000 
#    z -0.116140 0.000000 4.286910 
# 
# 
# High freq. dielectric constant tensor:
#      x y z
#    x 1.793520 0.000000 -0.008370 
#    y 0.000000 1.802560 0.000000 
#    z -0.008370 0.000000 1.809860 
# 
# From -- ./inp_files/291171.got.cif
#   From: 2010.06.25/outbox.cif.g09.slc.cpg/sg15_146_cif.got.tgz:291171.got - 2010.06.28 07:06:18.
