data_PCOD8144826
_publ_section_title
;
Structure prediction by ZEFSAII (Michael W. Deem and Ramdas Pophale) SiO2 
 PCOD8144826
Probable space group: C 2/C
;
_chemical_formula_sum "Si O2"
_cell_formula_units_Z 44
_cell_length_a 7.106593
_cell_length_b 11.466466
_cell_length_c 25.075112
_cell_angle_alpha 90.000000
_cell_angle_beta 56.492214
_cell_angle_gamma 90.000000
_cell_volume 1703.732605
_symmetry_space_group_name_H-M "C 2/C"
_symmetry_group_IT_number 15
_symmetry_cell_setting 'monoclinic'
loop_
_space_group_symop_operation_xyz
x,y,z
-x,y,1/2-z
-x,-y,-z
x,-y,1/2+z
1/2+x,1/2+y,z
1/2-x,1/2+y,1/2-z
1/2-x,1/2-y,-z
1/2+x,1/2-y,1/2+z
loop_
_atom_site_type_symbol
_atom_site_label
_atom_site_fract_x
_atom_site_fract_y
_atom_site_fract_z
Si Si1 0.710363 0.535661 0.096769
Si Si2 0.819253 0.218153 0.616258
Si Si3 0.219997 0.714599 0.901038
Si Si4 0.244802 0.613044 0.199189
Si Si5 0.863364 0.890071 0.002586
Si Si6 0.500000 0.741709 0.250000
O O1 0.783161 0.642392 0.122229
O O2 0.838047 0.422085 0.100286
O O3 0.431295 0.524899 0.143425
O O4 0.786394 0.565080 0.023704
O O5 0.729112 0.159776 0.575128
O O6 0.655660 0.173473 0.689150
O O7 0.081477 0.197975 0.586114
O O8 0.295987 0.778657 0.835357
O O9 0.012720 0.779728 0.960929
O O10 0.338282 0.660746 0.239966
O O11 0.000000 0.554989 0.250000
O O12 0.000000 0.000000 0.000000
#
# Coordination Sequence:
#
# PCOD8144826 Si02
#       6
#     8   8   8   8   8   4
#     4  10  24  43  66 103 139 178 238 290 349 421
#     4  11  22  43  68  97 137 182 229 285 349 411
#     4  11  23  45  68 102 142 180 232 301 344 412
#     4  10  21  45  69  98 143 185 236 288 351 419
#     4  11  23  43  70 100 143 182 232 292 354 413
#     4  10  22  44  70 100 140 178 240 280 342 432
#
# _framework density 25.825648000000001
#
# number of rings (size 3 to 8) (size 9 to 14) (size 15 to 20)
#    0.000    1.455    3.636    1.091    0.000    0.727 
#   18.000    0.000    0.000    0.000    0.000    0.000 
#    0.000    0.000    0.000    0.000    0.000    0.000 
#
# Total GULP energy -272696.368936 kJ/mol
# GULP energy per Si atom -12395.289497 kJ/mol
# Density = 2.576687 g / cm^3
# Si number density = 25.825648 Si / 1000 Ang^3
#
#
#
# Elastic Constant Matrix: (Units=GPa)
#
#
# Indices 1 2 3 4 5 6 
#
# 1 71.6850 -7.8833 19.9632 -0.0002 16.7415 0.0001
# 2 -7.8833 121.9284 22.7923 -0.0001 4.9200 0.0001
# 3 19.9632 22.7923 144.4338 -0.0003 23.0856 0.0002
# 4 -0.0002 -0.0001 -0.0003 20.2362 0.0001 -4.0999
# 5 16.7415 4.9200 23.0856 0.0001 33.3746 -0.0001
# 6 0.0001 0.0001 0.0002 -4.0999 -0.0001 35.7706
#
#
#
# Elastic Compliance Matrix: (Units=1/GPa)
#
#
# Indices 1 2 3 4 5 6 
#
# 1 0.016234 0.001594 -0.001300 0.000000 -0.007479 0.000000
# 2 0.001594 0.008611 -0.001404 0.000000 -0.001098 0.000000
# 3 -0.001300 -0.001404 0.008081 0.000000 -0.004731 0.000000
# 4 0.000000 0.000000 0.000000 0.050591 0.000000 0.005799
# 5 -0.007479 -0.001098 -0.004731 0.000000 0.037149 0.000000
# 6 0.000000 0.000000 0.000000 0.005799 0.000000 0.028621
#
#
# Mechanical properties :
#
#
# Convention : Reuss Voigt Hill
#
# Bulk Modulus (GPa) = 32.56517 45.31018 38.93767
# Shear Modulus (GPa) = 30.91355 38.08794 34.50075
#
# Velocity S-wave (km/s) = 3.46354 3.84449 3.65898
# Velocity P-wave (km/s) = 5.35087 6.10652 5.74114
#
# Compressibility (1/GPa) = 0.03070766
#
# Stress axis : x y z
#
# Youngs Moduli (GPa) = 61.59914 116.12593 123.74854
#
# Poissons Ratio (x) = -0.18515 0.16087
# Poissons Ratio (y) = -0.09822 0.17371
# Poissons Ratio (z) = 0.08008 0.16301
#
# Static dielectric constant tensor:
#      x y z
#    x 4.699850 0.000000 -0.038470 
#    y 0.000000 4.570750 0.000000 
#    z -0.038470 0.000000 5.115030 
# 
# 
# High freq. dielectric constant tensor:
#      x y z
#    x 2.033210 0.000000 0.004340 
#    y 0.000000 2.027370 0.000000 
#    z 0.004340 0.000000 2.043270 
# 
# From -- ./inp_files/287871.got.cif
#   From: 2010.06.25/outbox.cif.g09.slc.cpg/sg15_144_cif.got.tgz:287871.got - 2010.06.28 07:06:18.
