data_PCOD8144492
_publ_section_title
;
Structure prediction by ZEFSAII (Michael W. Deem and Ramdas Pophale) SiO2 
 PCOD8144492
Probable space group: C 2/C
;
_chemical_formula_sum "Si O2"
_cell_formula_units_Z 64
_cell_length_a 15.516430
_cell_length_b 8.861029
_cell_length_c 28.576725
_cell_angle_alpha 90.000000
_cell_angle_beta 44.380304
_cell_angle_gamma 90.000000
_cell_volume 2748.052552
_symmetry_space_group_name_H-M "C 2/C"
_symmetry_group_IT_number 15
_symmetry_cell_setting 'monoclinic'
loop_
_space_group_symop_operation_xyz
x,y,z
-x,y,1/2-z
-x,-y,-z
x,-y,1/2+z
1/2+x,1/2+y,z
1/2-x,1/2+y,1/2-z
1/2-x,1/2-y,-z
1/2+x,1/2-y,1/2+z
loop_
_atom_site_type_symbol
_atom_site_label
_atom_site_fract_x
_atom_site_fract_y
_atom_site_fract_z
Si Si1 0.764836 0.267676 0.665798
Si Si2 0.591740 0.914581 0.608250
Si Si3 0.832427 0.295876 0.740567
Si Si4 0.638838 0.441001 0.197752
Si Si5 0.255607 0.828154 0.064022
Si Si6 0.661952 0.137873 0.506414
Si Si7 0.360717 0.987928 0.811187
Si Si8 0.482080 0.321378 0.017147
O O1 0.746850 0.277823 0.728764
O O2 0.741043 0.429765 0.652461
O O3 0.652520 0.164564 0.692537
O O4 0.894663 0.200468 0.596682
O O5 0.455118 0.870303 0.673080
O O6 0.674599 0.771989 0.557767
O O7 0.577144 0.049490 0.576776
O O8 0.675278 0.964342 0.620746
O O9 0.851430 0.131309 0.754643
O O10 0.777770 0.400749 0.804021
O O11 0.500000 0.503866 0.250000
O O12 0.671855 0.319655 0.144350
O O13 0.390365 0.760088 0.020545
O O14 0.259520 0.004464 0.048600
O O15 0.750000 0.250000 0.500000
O O16 0.578587 0.234880 0.503437
O O17 0.500000 0.930419 0.750000
O O18 0.500000 0.500000 0.000000
#
# Coordination Sequence:
#
# PCOD8144492 Si02
#       8
#     8   8   8   8   8   8   8   8
#     4  12  25  43  69 101 142 180 241 296 363 423
#     4  11  23  44  74  98 143 190 237 295 368 430
#     4  11  23  43  69 104 132 185 239 291 361 433
#     4  12  24  46  73 102 140 188 234 296 369 435
#     4  12  24  47  74 101 150 190 239 305 372 431
#     4  12  26  45  72 110 143 193 253 296 364 441
#     4  10  21  43  64  95 139 183 226 295 357 419
#     4  12  28  49  72 106 150 198 246 310 369 433
#
# _framework density 23.28922
#
# number of rings (size 3 to 8) (size 9 to 14) (size 15 to 20)
#    0.000    0.500    3.750    5.250    1.750    1.000 
#    0.000    0.000    0.000    0.000    0.000    0.000 
#    0.000    0.000    0.000    0.000    0.000    0.000 
#
# Total GULP energy -396595.797626 kJ/mol
# GULP energy per Si atom -12393.618676 kJ/mol
# Density = 2.323621 g / cm^3
# Si number density = 23.289220 Si / 1000 Ang^3
#
#
#
# Elastic Constant Matrix: (Units=GPa)
#
#
# Indices 1 2 3 4 5 6 
#
# 1 56.6321 32.7410 -3.9881 0.0006 4.7021 -0.0004
# 2 32.7410 137.1778 21.6879 0.0036 8.2493 -0.0001
# 3 -3.9881 21.6879 73.7385 -0.0007 6.2227 -0.0001
# 4 0.0006 0.0036 -0.0007 -40.0738 0.0001 13.6538
# 5 4.7021 8.2493 6.2227 0.0001 34.8206 -0.0002
# 6 -0.0004 -0.0001 -0.0001 13.6538 -0.0002 42.4367
#
#
#
# Elastic Compliance Matrix: (Units=1/GPa)
#
#
# Indices 1 2 3 4 5 6 
#
# 1 0.021147 -0.005380 0.002903 0.000000 -0.002100 0.000000
# 2 -0.005380 0.009085 -0.002886 0.000001 -0.000910 0.000000
# 3 0.002903 -0.002886 0.014765 0.000000 -0.002347 0.000000
# 4 0.000000 0.000001 0.000000 -0.022489 0.000000 0.007236
# 5 -0.002100 -0.000910 -0.002347 0.000000 0.029637 0.000000
# 6 0.000000 0.000000 0.000000 0.007236 0.000000 0.021236
#
#
# Mechanical properties :
#
#
# Convention : Reuss Voigt Hill
#
# Bulk Modulus (GPa) = 29.17880 40.93666 35.05773
# Shear Modulus (GPa) = 52.33842 21.91053 37.12447
#
# Velocity S-wave (km/s) = 4.74574 3.07058 3.99690
# Velocity P-wave (km/s) = 6.52575 5.49426 6.03210
#
# Compressibility (1/GPa) = 0.03427146
#
# Stress axis : x y z
#
# Youngs Moduli (GPa) = 47.28798 110.07247 67.72585
#
# Poissons Ratio (x) = 0.59219 -0.19663
# Poissons Ratio (y) = 0.25441 0.19547
# Poissons Ratio (z) = -0.13729 0.31769
#
# Static dielectric constant tensor:
#      x y z
#    x 4.390660 0.000000 0.353150 
#    y 0.000000 4.369450 0.000000 
#    z 0.353150 0.000000 4.654100 
# 
# 
# High freq. dielectric constant tensor:
#      x y z
#    x 1.917790 0.000000 0.022680 
#    y 0.000000 1.938280 0.000000 
#    z 0.022680 0.000000 1.925580 
# 
# From -- ./inp_files/313126.got.cif
#   From: 2010.06.25/outbox.cif.g09.slc.cpg/sg15_157_cif.got.tgz:313126.got - 2010.06.28 07:06:18.
