data_PCOD8144301
_publ_section_title
;
Structure prediction by ZEFSAII (Michael W. Deem and Ramdas Pophale) SiO2 
 PCOD8144301
Probable space group: C 2/C
;
_chemical_formula_sum "Si O2"
_cell_formula_units_Z 52
_cell_length_a 8.319911
_cell_length_b 14.793251
_cell_length_c 21.928471
_cell_angle_alpha 90.000000
_cell_angle_beta 122.383206
_cell_angle_gamma 90.000000
_cell_volume 2279.200699
_symmetry_space_group_name_H-M "C 2/C"
_symmetry_group_IT_number 15
_symmetry_cell_setting 'monoclinic'
loop_
_space_group_symop_operation_xyz
x,y,z
-x,y,1/2-z
-x,-y,-z
x,-y,1/2+z
1/2+x,1/2+y,z
1/2-x,1/2+y,1/2-z
1/2-x,1/2-y,-z
1/2+x,1/2-y,1/2+z
loop_
_atom_site_type_symbol
_atom_site_label
_atom_site_fract_x
_atom_site_fract_y
_atom_site_fract_z
Si Si1 0.500000 0.705213 0.250000
Si Si2 0.909507 0.479217 0.122730
Si Si3 0.798386 0.342126 0.293385
Si Si4 0.564585 0.662586 0.861040
Si Si5 0.901019 0.343063 0.881010
Si Si6 0.227646 0.353051 0.515098
Si Si7 0.988261 0.997772 0.924943
O O1 0.431231 0.762720 0.294318
O O2 0.315248 0.648874 0.189708
O O3 0.735257 0.489388 0.135232
O O4 0.085803 0.434208 0.192202
O O5 0.966277 0.579210 0.116790
O O6 0.859991 0.414683 0.055563
O O7 0.610252 0.360815 0.217702
O O8 0.748381 0.321968 0.354682
O O9 0.509010 0.750691 0.887523
O O10 0.603476 0.579155 0.915231
O O11 0.910366 0.352026 0.955355
O O12 0.250000 0.250000 0.500000
O O13 0.426157 0.400611 0.577586
O O14 0.000000 0.000000 0.000000
#
# Coordination Sequence:
#
# PCOD8144301 Si02
#       7
#     4   8   8   8   8   8   8
#     4  10  22  42  64  90 126 170 212 264 322 386
#     4  11  23  39  62  95 127 165 212 262 315 381
#     4  10  21  42  67  94 127 168 215 265 322 383
#     4  10  22  42  67  95 131 168 212 269 323 383
#     4  11  23  39  62  94 128 167 211 258 318 378
#     4  11  23  42  64  87 124 170 214 263 318 378
#     4  10  22  42  64  92 126 165 214 263 317 379
#
# _framework density 22.815014999999999
#
# number of rings (size 3 to 8) (size 9 to 14) (size 15 to 20)
#    0.000    1.538    0.000    6.000    0.000    6.154 
#    0.000   12.308    0.000    0.000    0.000    0.000 
#    0.000    0.000    0.000    0.000    0.000    0.000 
#
# Total GULP energy -322250.300171 kJ/mol
# GULP energy per Si atom -12394.242314 kJ/mol
# Density = 2.276309 g / cm^3
# Si number density = 22.815015 Si / 1000 Ang^3
#
#
#
# Elastic Constant Matrix: (Units=GPa)
#
#
# Indices 1 2 3 4 5 6 
#
# 1 142.7746 57.8862 22.4896 0.0000 -12.6082 0.0000
# 2 57.8862 160.1683 37.9594 0.0000 0.2770 0.0000
# 3 22.4896 37.9594 32.9626 0.0000 -14.1803 0.0000
# 4 0.0000 0.0000 0.0000 38.7413 0.0000 8.6070
# 5 -12.6082 0.2770 -14.1803 0.0000 34.7186 0.0000
# 6 0.0000 0.0000 0.0000 8.6070 0.0000 37.8317
#
#
#
# Elastic Compliance Matrix: (Units=1/GPa)
#
#
# Indices 1 2 3 4 5 6 
#
# 1 0.008583 -0.002707 -0.001684 0.000000 0.002451 0.000000
# 2 -0.002707 0.010216 -0.012587 0.000000 -0.006205 0.000000
# 3 -0.001684 -0.012587 0.055516 0.000000 0.022163 0.000000
# 4 0.000000 0.000000 0.000000 0.027186 0.000000 -0.006185
# 5 0.002451 -0.006205 0.022163 0.000000 0.038795 0.000000
# 6 0.000000 0.000000 0.000000 -0.006185 0.000000 0.027840
#
#
# Mechanical properties :
#
#
# Convention : Reuss Voigt Hill
#
# Bulk Modulus (GPa) = 24.77811 63.61957 44.19884
# Shear Modulus (GPa) = 23.19702 36.76300 29.98001
#
# Velocity S-wave (km/s) = 3.19210 4.01852 3.62891
# Velocity P-wave (km/s) = 4.94672 7.03398 6.08058
#
# Compressibility (1/GPa) = 0.04035821
#
# Stress axis : x y z
#
# Youngs Moduli (GPa) = 116.50434 97.89014 18.01291
#
# Poissons Ratio (x) = 0.26500 0.03034
# Poissons Ratio (y) = 0.31539 0.22672
# Poissons Ratio (z) = 0.19625 1.23210
#
# Static dielectric constant tensor:
#      x y z
#    x 4.850680 0.000000 0.396980 
#    y 0.000000 4.113830 0.000000 
#    z 0.396980 0.000000 3.957770 
# 
# 
# High freq. dielectric constant tensor:
#      x y z
#    x 1.923180 0.000000 -0.003310 
#    y 0.000000 1.897790 0.000000 
#    z -0.003310 0.000000 1.892100 
# 
# From -- ./inp_files/288120.got.cif
#   From: 2010.06.25/outbox.cif.g09.slc.cpg/sg15_145_cif.got.tgz:288120.got - 2010.06.28 07:06:18.
