data_PCOD8144841
_publ_section_title
;
Structure prediction by ZEFSAII (Michael W. Deem and Ramdas Pophale) SiO2 
 PCOD8144841
Probable space group: C 2/C
;
_chemical_formula_sum "Si O2"
_cell_formula_units_Z 64
_cell_length_a 29.908541
_cell_length_b 9.033463
_cell_length_c 14.722777
_cell_angle_alpha 90.000000
_cell_angle_beta 45.173209
_cell_angle_gamma 90.000000
_cell_volume 2821.195449
_symmetry_space_group_name_H-M "C 2/C"
_symmetry_group_IT_number 15
_symmetry_cell_setting 'monoclinic'
loop_
_space_group_symop_operation_xyz
x,y,z
-x,y,1/2-z
-x,-y,-z
x,-y,1/2+z
1/2+x,1/2+y,z
1/2-x,1/2+y,1/2-z
1/2-x,1/2-y,-z
1/2+x,1/2-y,1/2+z
loop_
_atom_site_type_symbol
_atom_site_label
_atom_site_fract_x
_atom_site_fract_y
_atom_site_fract_z
Si Si1 0.088672 0.678924 0.284264
Si Si2 0.740231 0.573528 0.179412
Si Si3 0.907829 0.707067 0.020102
Si Si4 0.005023 0.060802 0.391987
Si Si5 0.034972 0.234668 0.611492
Si Si6 0.128256 0.447120 0.548999
Si Si7 0.799544 0.891954 0.099767
Si Si8 0.143186 0.004233 0.666860
O O1 0.110007 0.637103 0.355599
O O2 0.108326 0.554391 0.183655
O O3 0.012428 0.707081 0.399899
O O4 0.126041 0.822907 0.193654
O O5 0.754388 0.748545 0.153531
O O6 0.731253 0.523435 0.296818
O O7 0.678992 0.541797 0.207109
O O8 0.797080 0.470624 0.061141
O O9 0.860761 0.840597 0.066568
O O10 0.977094 0.776349 0.922670
O O11 0.907187 0.586082 0.943497
O O12 0.076857 0.081709 0.257644
O O13 0.963619 0.944056 0.391162
O O14 0.000000 0.000000 0.500000
O O15 0.105278 0.304934 0.519929
O O16 0.000000 0.295385 0.750000
O O17 0.814652 0.961300 0.979977
#
# Coordination Sequence:
#
# PCOD8144841 Si02
#       8
#     8   8   8   8   8   8   8   8
#     4  10  21  45  71  99 141 183 233 290 359 432
#     4  11  25  47  68 103 139 189 242 296 352 423
#     4  11  23  45  69 105 143 174 240 296 361 423
#     4  11  21  41  71 105 129 184 232 290 353 424
#     4   9  20  40  62  98 137 172 233 271 346 425
#     4  10  25  42  68 102 139 190 224 292 355 425
#     4  11  26  45  70 104 140 184 240 300 353 423
#     4  11  24  45  74 102 141 186 243 297 351 429
#
# _framework density 22.685417999999999
#
# number of rings (size 3 to 8) (size 9 to 14) (size 15 to 20)
#    0.000    1.500    3.750    0.375    7.000    4.000 
#   13.500    0.000    0.000    0.000    0.000    0.000 
#    0.000    0.000    0.000    0.000    0.000    0.000 
#
# Total GULP energy -396592.589618 kJ/mol
# GULP energy per Si atom -12393.518426 kJ/mol
# Density = 2.263379 g / cm^3
# Si number density = 22.685418 Si / 1000 Ang^3
#
#
#
# Elastic Constant Matrix: (Units=GPa)
#
#
# Indices 1 2 3 4 5 6 
#
# 1 83.2372 36.0594 19.6486 -0.0001 1.1765 0.0000
# 2 36.0594 83.3680 44.2373 -0.0003 -1.8357 -0.0001
# 3 19.6486 44.2373 91.9750 -0.0001 10.7511 0.0000
# 4 -0.0001 -0.0003 -0.0001 42.3976 0.0000 0.8525
# 5 1.1765 -1.8357 10.7511 0.0000 34.7669 0.0000
# 6 0.0000 -0.0001 0.0000 0.8525 0.0000 38.2145
#
#
#
# Elastic Compliance Matrix: (Units=1/GPa)
#
#
# Indices 1 2 3 4 5 6 
#
# 1 0.014809 -0.006442 0.000035 0.000000 -0.000852 0.000000
# 2 -0.006442 0.019297 -0.008352 0.000000 0.003819 0.000000
# 3 0.000035 -0.008352 0.015494 0.000000 -0.005233 0.000000
# 4 0.000000 0.000000 0.000000 0.023597 0.000000 -0.000526
# 5 -0.000852 0.003819 -0.005233 0.000000 0.030612 0.000000
# 6 0.000000 0.000000 0.000000 -0.000526 0.000000 0.026180
#
#
# Mechanical properties :
#
#
# Convention : Reuss Voigt Hill
#
# Bulk Modulus (GPa) = 49.79852 50.94121 50.36986
# Shear Modulus (GPa) = 30.08417 33.65146 31.86782
#
# Velocity S-wave (km/s) = 3.64558 3.85567 3.75209
# Velocity P-wave (km/s) = 6.30236 6.50583 6.40490
#
# Compressibility (1/GPa) = 0.02008092
#
# Stress axis : x y z
#
# Youngs Moduli (GPa) = 67.52818 51.82092 64.54217
#
# Poissons Ratio (x) = 0.33385 -0.00223
# Poissons Ratio (y) = 0.43504 0.53903
# Poissons Ratio (z) = -0.00234 0.43279
#
# Static dielectric constant tensor:
#      x y z
#    x 4.443560 0.000000 -0.022680 
#    y 0.000000 4.002940 0.000000 
#    z -0.022680 0.000000 4.100210 
# 
# 
# High freq. dielectric constant tensor:
#      x y z
#    x 1.908820 0.000000 0.007990 
#    y 0.000000 1.880840 0.000000 
#    z 0.007990 0.000000 1.886440 
# 
# From -- ./inp_files/181129.got.cif
#   From: 2010.06.25/outbox.cif.g09.slc.cpg/sg15_91_cif.got.tgz:181129.got - 2010.06.28 07:06:18.
