data_PCOD8144962
_publ_section_title
;
Structure prediction by ZEFSAII (Michael W. Deem and Ramdas Pophale) SiO2 
 PCOD8144962
Probable space group: C 2/C
;
_chemical_formula_sum "Si O2"
_cell_formula_units_Z 48
_cell_length_a 18.475411
_cell_length_b 19.239289
_cell_length_c 8.430155
_cell_angle_alpha 90.000000
_cell_angle_beta 133.682092
_cell_angle_gamma 90.000000
_cell_volume 2167.039982
_symmetry_space_group_name_H-M "C 2/C"
_symmetry_group_IT_number 15
_symmetry_cell_setting 'monoclinic'
loop_
_space_group_symop_operation_xyz
x,y,z
-x,y,1/2-z
-x,-y,-z
x,-y,1/2+z
1/2+x,1/2+y,z
1/2-x,1/2+y,1/2-z
1/2-x,1/2-y,-z
1/2+x,1/2-y,1/2+z
loop_
_atom_site_type_symbol
_atom_site_label
_atom_site_fract_x
_atom_site_fract_y
_atom_site_fract_z
Si Si1 0.594643 0.887480 0.472086
Si Si2 0.000000 0.481610 0.750000
Si Si3 0.000000 0.251354 0.750000
Si Si4 0.984943 0.836747 0.905986
Si Si5 0.854273 0.637494 0.117551
Si Si6 0.208342 0.077753 0.408375
Si Si7 0.328558 0.429885 0.292647
O O1 0.633184 0.843141 0.678805
O O2 0.684897 0.895215 0.486361
O O3 0.552135 0.964933 0.456178
O O4 0.500000 0.846212 0.250000
O O5 0.089258 0.435256 0.818915
O O6 0.098488 0.300398 0.914534
O O7 0.006402 0.210266 0.593523
O O8 0.871863 0.862744 0.752141
O O9 0.000000 0.802886 0.750000
O O10 0.058379 0.902942 0.027888
O O11 0.737289 0.625900 0.906247
O O12 0.222473 0.064995 0.614558
O O13 0.170679 0.006237 0.277026
#
# Coordination Sequence:
#
# PCOD8144962 Si02
#       7
#     8   4   4   8   8   8   8
#     4  10  22  35  64  98 140 168 211 282 350 401
#     4   9  20  34  62  90 140 167 208 280 348 403
#     4  11  28  46  72  90 140 195 234 270 332 405
#     4  10  26  50  67  96 137 183 239 282 330 403
#     4  11  23  40  65 101 133 177 231 274 335 412
#     4  11  23  40  70 105 136 173 216 289 356 404
#     4  11  23  41  70 103 135 172 223 289 349 400
#
# _framework density 22.150030000000001
#
# number of rings (size 3 to 8) (size 9 to 14) (size 15 to 20)
#    0.500    1.000    1.667    2.000    9.333    1.333 
#    0.000    1.667    0.000    0.000    0.000    0.000 
#    0.000    0.000    0.000    0.000    0.000    0.000 
#
# Total GULP energy -297387.049257 kJ/mol
# GULP energy per Si atom -12391.127052 kJ/mol
# Density = 2.209962 g / cm^3
# Si number density = 22.150030 Si / 1000 Ang^3
#
#
#
# Elastic Constant Matrix: (Units=GPa)
#
#
# Indices 1 2 3 4 5 6 
#
# 1 89.7080 26.4859 39.3977 0.0000 3.9216 0.0000
# 2 26.4859 55.8202 14.1583 0.0000 -6.1946 0.0000
# 3 39.3977 14.1583 110.1067 0.0000 -8.1592 0.0000
# 4 0.0000 0.0000 0.0000 66.9029 0.0000 0.3077
# 5 3.9216 -6.1946 -8.1592 0.0000 47.1048 0.0000
# 6 0.0000 0.0000 0.0000 0.3077 0.0000 22.9557
#
#
#
# Elastic Compliance Matrix: (Units=1/GPa)
#
#
# Indices 1 2 3 4 5 6 
#
# 1 0.015291 -0.006347 -0.004874 0.000000 -0.002952 0.000000
# 2 -0.006347 0.021350 -0.000230 0.000000 0.003296 0.000000
# 3 -0.004874 -0.000230 0.011025 0.000000 0.002285 0.000000
# 4 0.000000 0.000000 0.000000 0.014948 0.000000 -0.000200
# 5 -0.002952 0.003296 0.002285 0.000000 0.022304 0.000000
# 6 0.000000 0.000000 0.000000 -0.000200 0.000000 0.043565
#
#
# Mechanical properties :
#
#
# Convention : Reuss Voigt Hill
#
# Bulk Modulus (GPa) = 40.38030 46.19095 43.28563
# Shear Modulus (GPa) = 31.32071 39.09889 35.20980
#
# Velocity S-wave (km/s) = 3.76443 4.20597 3.99131
# Velocity P-wave (km/s) = 6.09627 6.66977 6.38946
#
# Compressibility (1/GPa) = 0.02476455
#
# Stress axis : x y z
#
# Youngs Moduli (GPa) = 65.39974 46.83799 90.70323
#
# Poissons Ratio (x) = 0.29726 0.44207
# Poissons Ratio (y) = 0.41506 0.02088
# Poissons Ratio (z) = 0.31875 0.01078
#
# Static dielectric constant tensor:
#      x y z
#    x 3.963610 0.000000 -0.061380 
#    y 0.000000 3.705330 0.000000 
#    z -0.061380 0.000000 4.120700 
# 
# 
# High freq. dielectric constant tensor:
#      x y z
#    x 1.878130 0.000000 0.002030 
#    y 0.000000 1.847690 0.000000 
#    z 0.002030 0.000000 1.882180 
# 
# From -- ./inp_files/58007.got.cif
#   From: 2010.06.25/outbox.cif.g09.slc.cpg/sg15_30_cif.got.tgz:58007.got - 2010.06.28 07:06:18.
