data_PCOD8144970
_publ_section_title
;
Structure prediction by ZEFSAII (Michael W. Deem and Ramdas Pophale) SiO2 
 PCOD8144970
Probable space group: C 2/C
;
_chemical_formula_sum "Si O2"
_cell_formula_units_Z 56
_cell_length_a 11.633678
_cell_length_b 20.533427
_cell_length_c 12.150625
_cell_angle_alpha 90.000000
_cell_angle_beta 105.985193
_cell_angle_gamma 90.000000
_cell_volume 2790.300003
_symmetry_space_group_name_H-M "C 2/C"
_symmetry_group_IT_number 15
_symmetry_cell_setting 'monoclinic'
loop_
_space_group_symop_operation_xyz
x,y,z
-x,y,1/2-z
-x,-y,-z
x,-y,1/2+z
1/2+x,1/2+y,z
1/2-x,1/2+y,1/2-z
1/2-x,1/2-y,-z
1/2+x,1/2-y,1/2+z
loop_
_atom_site_type_symbol
_atom_site_label
_atom_site_fract_x
_atom_site_fract_y
_atom_site_fract_z
Si Si1 0.880652 0.166546 0.147623
Si Si2 0.026464 0.725161 0.959796
Si Si3 0.910854 0.215094 0.627345
Si Si4 0.296691 0.229045 0.769275
Si Si5 0.121316 0.617099 0.847905
Si Si6 0.958533 0.927279 0.113331
Si Si7 0.827643 0.953629 0.495937
O O1 0.895289 0.210007 0.039829
O O2 0.778008 0.205922 0.190352
O O3 0.832374 0.097029 0.098038
O O4 0.000000 0.153895 0.250000
O O5 0.093930 0.657059 0.954430
O O6 0.934601 0.729521 0.835412
O O7 0.960410 0.728602 0.059906
O O8 0.781845 0.234000 0.641151
O O9 0.906109 0.144158 0.570061
O O10 0.000000 0.209541 0.750000
O O11 0.284379 0.161281 0.698667
O O12 0.000000 0.596818 0.750000
O O13 0.196562 0.552812 0.903185
O O14 0.000000 0.935402 0.250000
O O15 0.848555 0.975568 0.055046
O O16 0.071091 0.940767 0.066882
#
# Coordination Sequence:
#
# PCOD8144970 Si02
#       7
#     8   8   8   8   8   8   8
#     4   9  18  32  52  83 112 141 185 233 285 341
#     4   9  18  33  50  78 113 149 179 230 294 345
#     4  11  20  31  51  80 117 151 184 233 282 361
#     4   9  19  32  52  78 112 148 182 237 291 342
#     4   9  19  34  55  83 111 146 197 235 284 348
#     4  10  22  36  53  86 116 150 193 234 295 336
#     4  11  20  35  60  78 114 155 187 245 278 344
#
# _framework density 20.069527000000001
#
# number of rings (size 3 to 8) (size 9 to 14) (size 15 to 20)
#    0.000    2.286    1.429    4.286    2.000    1.143 
#    0.000    0.000    0.000    7.714    0.000    1.000 
#    0.000    0.000    0.000    0.000    0.000    0.000 
#
# Total GULP energy -346909.517318 kJ/mol
# GULP energy per Si atom -12389.625618 kJ/mol
# Density = 2.002385 g / cm^3
# Si number density = 20.069527 Si / 1000 Ang^3
#
#
#
# Elastic Constant Matrix: (Units=GPa)
#
#
# Indices 1 2 3 4 5 6 
#
# 1 74.8218 31.0075 28.5684 0.0000 -15.5953 0.0000
# 2 31.0075 66.0955 29.4424 0.0000 5.4741 0.0000
# 3 28.5684 29.4424 68.0568 0.0000 -11.6565 0.0000
# 4 0.0000 0.0000 0.0000 19.2270 0.0000 1.0679
# 5 -15.5953 5.4741 -11.6565 0.0000 41.0003 0.0000
# 6 0.0000 0.0000 0.0000 1.0679 0.0000 26.3143
#
#
#
# Elastic Compliance Matrix: (Units=1/GPa)
#
#
# Indices 1 2 3 4 5 6 
#
# 1 0.019718 -0.008404 -0.003326 0.000000 0.007677 0.000000
# 2 -0.008404 0.023375 -0.008059 0.000000 -0.008609 0.000000
# 3 -0.003326 -0.008059 0.020544 0.000000 0.005652 0.000000
# 4 0.000000 0.000000 0.000000 0.052128 0.000000 -0.002116
# 5 0.007677 -0.008609 0.005652 0.000000 0.030066 0.000000
# 6 0.000000 0.000000 0.000000 -0.002116 0.000000 0.038088
#
#
# Mechanical properties :
#
#
# Convention : Reuss Voigt Hill
#
# Bulk Modulus (GPa) = 41.56619 43.00118 42.28369
# Shear Modulus (GPa) = 21.59651 25.30538 23.45095
#
# Velocity S-wave (km/s) = 3.28393 3.55475 3.42202
# Velocity P-wave (km/s) = 5.92748 6.19039 6.06036
#
# Compressibility (1/GPa) = 0.02405801
#
# Stress axis : x y z
#
# Youngs Moduli (GPa) = 50.71459 42.78017 48.67504
#
# Poissons Ratio (x) = 0.35954 0.16192
# Poissons Ratio (y) = 0.42623 0.39228
# Poissons Ratio (z) = 0.16870 0.34477
#
# Static dielectric constant tensor:
#      x y z
#    x 3.047170 0.000000 0.289130 
#    y 0.000000 3.618420 0.000000 
#    z 0.289130 0.000000 3.458180 
# 
# 
# High freq. dielectric constant tensor:
#      x y z
#    x 1.773520 0.000000 0.000320 
#    y 0.000000 1.750640 0.000000 
#    z 0.000320 0.000000 1.788970 
# 
# From -- ./inp_files/89049.got.cif
#   From: 2010.06.25/outbox.cif.g09.slc.cpg/sg15_45_cif.got.tgz:89049.got - 2010.06.28 07:06:18.
