data_PCOD8144041
_publ_section_title
;
Structure prediction by ZEFSAII (Michael W. Deem and Ramdas Pophale) SiO2 
 PCOD8144041
Probable space group: C 2/C
;
_chemical_formula_sum "Si O2"
_cell_formula_units_Z 52
_cell_length_a 15.488764
_cell_length_b 18.078915
_cell_length_c 15.177576
_cell_angle_alpha 90.000000
_cell_angle_beta 36.543071
_cell_angle_gamma 90.000000
_cell_volume 2530.579553
_symmetry_space_group_name_H-M "C 2/C"
_symmetry_group_IT_number 15
_symmetry_cell_setting 'monoclinic'
loop_
_space_group_symop_operation_xyz
x,y,z
-x,y,1/2-z
-x,-y,-z
x,-y,1/2+z
1/2+x,1/2+y,z
1/2-x,1/2+y,1/2-z
1/2-x,1/2-y,-z
1/2+x,1/2-y,1/2+z
loop_
_atom_site_type_symbol
_atom_site_label
_atom_site_fract_x
_atom_site_fract_y
_atom_site_fract_z
Si Si1 0.876980 0.103530 0.562044
Si Si2 0.000000 0.410004 0.750000
Si Si3 0.426694 0.161819 0.722182
Si Si4 0.837289 0.963175 0.712180
Si Si5 0.424460 0.981813 0.469015
Si Si6 0.963598 0.752600 0.520872
Si Si7 0.686780 0.834543 0.724944
O O1 0.736176 0.131846 0.624106
O O2 0.941366 0.173598 0.559931
O O3 0.999643 0.065205 0.399338
O O4 0.831716 0.043004 0.670827
O O5 0.049840 0.456511 0.624979
O O6 0.133225 0.359092 0.672338
O O7 0.500000 0.194373 0.750000
O O8 0.521768 0.095007 0.610933
O O9 0.432747 0.227063 0.646189
O O10 0.748415 0.972908 0.875206
O O11 0.759424 0.903924 0.713450
O O12 0.500000 0.000000 0.500000
O O13 0.046450 0.690984 0.396468
O O14 0.803983 0.769678 0.612691
#
# Coordination Sequence:
#
# PCOD8144041 Si02
#       7
#     8   4   8   8   8   8   8
#     4  10  22  41  66  96 133 179 228 274 342 407
#     4  12  24  38  70 110 134 174 242 282 326 416
#     4  12  23  39  67  97 132 176 230 281 335 416
#     4  10  21  41  70  93 132 186 220 277 343 398
#     4  12  21  40  71  99 134 180 228 278 340 397
#     4  11  23  43  66  93 135 186 217 279 356 393
#     4  11  23  42  68  96 134 178 229 276 338 407
#
# _framework density 20.548653000000002
#
# number of rings (size 3 to 8) (size 9 to 14) (size 15 to 20)
#    0.000    0.923    6.923    0.000    0.000    1.231 
#    0.000    0.769    0.000    1.846    0.000    0.000 
#    0.000    0.000    0.000    0.000    0.000    0.000 
#
# Total GULP energy -322333.931847 kJ/mol
# GULP energy per Si atom -12397.458917 kJ/mol
# Density = 2.050188 g / cm^3
# Si number density = 20.548653 Si / 1000 Ang^3
#
#
#
# Elastic Constant Matrix: (Units=GPa)
#
#
# Indices 1 2 3 4 5 6 
#
# 1 115.7167 46.2316 65.4840 0.0034 -3.8196 0.0032
# 2 46.2316 99.0327 35.9681 -0.0121 -2.6655 -0.0139
# 3 65.4840 35.9681 135.6921 -0.0144 -20.3182 -0.0187
# 4 0.0034 -0.0121 -0.0144 -69.0485 0.0040 -107.7395
# 5 -3.8196 -2.6655 -20.3182 0.0040 30.5264 0.0075
# 6 0.0032 -0.0139 -0.0187 -107.7395 0.0075 -63.7998
#
#
#
# Elastic Compliance Matrix: (Units=1/GPa)
#
#
# Indices 1 2 3 4 5 6 
#
# 1 0.013541 -0.004292 -0.005775 0.000001 -0.002524 0.000001
# 2 -0.004292 0.012567 -0.001306 -0.000001 -0.000309 -0.000001
# 3 -0.005775 -0.001306 0.011527 -0.000001 0.006835 -0.000001
# 4 0.000001 -0.000001 -0.000001 0.008858 0.000002 -0.014959
# 5 -0.002524 -0.000309 0.006835 0.000002 0.036965 -0.000001
# 6 0.000001 -0.000001 -0.000001 -0.014959 -0.000001 0.009587
#
#
# Mechanical properties :
#
#
# Convention : Reuss Voigt Hill
#
# Bulk Modulus (GPa) = 67.16713 71.75657 69.46185
# Shear Modulus (GPa) = 41.40606 -6.94721 17.22942
#
# Velocity S-wave (km/s) = 4.49377 -1.84071 2.89878
# Velocity P-wave (km/s) = 7.72549 5.52074 6.71423
#
# Compressibility (1/GPa) = 0.01488823
#
# Stress axis : x y z
#
# Youngs Moduli (GPa) = 73.84725 79.57091 86.75647
#
# Poissons Ratio (x) = 0.34152 0.50105
# Poissons Ratio (y) = 0.31695 0.11333
# Poissons Ratio (z) = 0.42649 0.10394
#
# Static dielectric constant tensor:
#      x y z
#    x 2.686160 -0.000050 -0.895690 
#    y -0.000050 3.955550 -0.000030 
#    z -0.895690 -0.000030 3.869740 
# 
# 
# High freq. dielectric constant tensor:
#      x y z
#    x 1.777240 0.000000 -0.024670 
#    y 0.000000 1.819430 0.000000 
#    z -0.024670 0.000000 1.814140 
# 
# From -- ./inp_files/155422.got.cif
#   From: 2010.06.25/outbox.cif.g09.slc.cpg/sg15_78_cif.got.tgz:155422.got - 2010.06.28 07:06:18.
