data_PCOD8144589
_publ_section_title
;
Structure prediction by ZEFSAII (Michael W. Deem and Ramdas Pophale) SiO2 
 PCOD8144589
Probable space group: C 2/C
;
_chemical_formula_sum "Si O2"
_cell_formula_units_Z 60
_cell_length_a 9.805810
_cell_length_b 21.083102
_cell_length_c 20.752656
_cell_angle_alpha 90.000000
_cell_angle_beta 142.332572
_cell_angle_gamma 90.000000
_cell_volume 2621.728458
_symmetry_space_group_name_H-M "C 2/C"
_symmetry_group_IT_number 15
_symmetry_cell_setting 'monoclinic'
loop_
_space_group_symop_operation_xyz
x,y,z
-x,y,1/2-z
-x,-y,-z
x,-y,1/2+z
1/2+x,1/2+y,z
1/2-x,1/2+y,1/2-z
1/2-x,1/2-y,-z
1/2+x,1/2-y,1/2+z
loop_
_atom_site_type_symbol
_atom_site_label
_atom_site_fract_x
_atom_site_fract_y
_atom_site_fract_z
Si Si1 0.180841 0.047950 0.860407
Si Si2 0.500000 0.209652 0.250000
Si Si3 0.891571 0.278607 0.325965
Si Si4 0.120266 0.865862 0.552272
Si Si5 0.776380 0.496688 0.136122
Si Si6 0.859799 0.547551 0.525448
Si Si7 0.113462 0.118540 0.659387
Si Si8 0.817367 0.826428 0.552233
O O1 0.380753 0.066631 0.887004
O O2 0.000000 0.007609 0.750000
O O3 0.036504 0.107858 0.832492
O O4 0.291507 0.016317 0.964195
O O5 0.660573 0.254432 0.268892
O O6 0.633721 0.163043 0.347927
O O7 0.827817 0.336004 0.253861
O O8 0.031106 0.219293 0.344818
O O9 0.066723 0.301072 0.446327
O O10 0.113274 0.943153 0.561853
O O11 0.044795 0.848246 0.452154
O O12 0.950535 0.829529 0.534783
O O13 0.821813 0.457912 0.087332
O O14 0.687412 0.449000 0.157433
O O15 0.000000 0.526372 0.250000
O O16 0.708381 0.601367 0.433576
#
# Coordination Sequence:
#
# PCOD8144589 Si02
#       8
#     8   4   8   8   8   8   8   8
#     4  11  24  41  64 101 139 185 225 280 356 432
#     4  10  24  46  68  96 142 188 232 284 350 420
#     4  10  24  41  66  96 132 187 230 276 346 405
#     4  11  22  41  70 101 139 172 230 299 356 405
#     4  12  22  40  71 112 138 177 228 303 367 410
#     4  11  23  42  68 101 143 180 225 288 361 420
#     4  12  24  40  70 103 137 175 242 289 345 423
#     4  10  21  43  68  94 133 180 227 286 340 410
#
# _framework density 22.885663999999998
#
# number of rings (size 3 to 8) (size 9 to 14) (size 15 to 20)
#    0.000    1.067    3.333    3.600    2.800    0.533 
#    0.000    0.000   11.733    0.000    0.000    0.000 
#    0.000    0.000    0.000    0.000    0.000    0.000 
#
# Total GULP energy -371687.793170 kJ/mol
# GULP energy per Si atom -12389.593106 kJ/mol
# Density = 2.283357 g / cm^3
# Si number density = 22.885664 Si / 1000 Ang^3
#
#
#
# Elastic Constant Matrix: (Units=GPa)
#
#
# Indices 1 2 3 4 5 6 
#
# 1 87.9302 28.9100 36.8932 0.0002 16.5701 0.0001
# 2 28.9100 111.7597 42.0308 0.0000 9.1390 0.0003
# 3 36.8932 42.0308 135.8889 0.0001 16.5936 0.0025
# 4 0.0002 0.0000 0.0001 39.0095 -0.0004 7.5607
# 5 16.5701 9.1390 16.5936 -0.0004 30.5101 0.0008
# 6 0.0001 0.0003 0.0025 7.5607 0.0008 19.0328
#
#
#
# Elastic Compliance Matrix: (Units=1/GPa)
#
#
# Indices 1 2 3 4 5 6 
#
# 1 0.014233 -0.002290 -0.002459 0.000000 -0.005706 0.000001
# 2 -0.002290 0.010552 -0.002579 0.000000 -0.000514 0.000000
# 3 -0.002459 -0.002579 0.009176 0.000000 -0.002883 -0.000001
# 4 0.000000 0.000000 0.000000 0.027773 0.000001 -0.011033
# 5 -0.005706 -0.000514 -0.002883 0.000001 0.037597 -0.000001
# 6 0.000001 0.000000 -0.000001 -0.011033 -0.000001 0.056924
#
#
# Mechanical properties :
#
#
# Convention : Reuss Voigt Hill
#
# Bulk Modulus (GPa) = 51.80170 61.24962 56.52566
# Shear Modulus (GPa) = 28.19333 32.89345 30.54339
#
# Velocity S-wave (km/s) = 3.51368 3.79528 3.65719
# Velocity P-wave (km/s) = 6.25663 6.78432 6.52581
#
# Compressibility (1/GPa) = 0.01930438
#
# Stress axis : x y z
#
# Youngs Moduli (GPa) = 70.26056 94.76621 108.97625
#
# Poissons Ratio (x) = 0.21705 0.26796
# Poissons Ratio (y) = 0.16092 0.28108
# Poissons Ratio (z) = 0.17276 0.24443
#
# Static dielectric constant tensor:
#      x y z
#    x 3.921410 0.000000 0.336960 
#    y 0.000000 4.323980 0.000000 
#    z 0.336960 0.000000 4.488640 
# 
# 
# High freq. dielectric constant tensor:
#      x y z
#    x 1.884300 0.000000 0.027570 
#    y 0.000000 1.902900 0.000000 
#    z 0.027570 0.000000 1.919990 
# 
# From -- ./inp_files/234597.got.cif
#   From: 2010.06.25/outbox.cif.g09.slc.cpg/sg15_118_cif.got.tgz:234597.got - 2010.06.28 07:06:18.
