data_PCOD8144237
_publ_section_title
;
Structure prediction by ZEFSAII (Michael W. Deem and Ramdas Pophale) SiO2 
 PCOD8144237
Probable space group: C 2/C
;
_chemical_formula_sum "Si O2"
_cell_formula_units_Z 56
_cell_length_a 11.676672
_cell_length_b 25.532655
_cell_length_c 9.612186
_cell_angle_alpha 90.000000
_cell_angle_beta 103.805382
_cell_angle_gamma 90.000000
_cell_volume 2782.956938
_symmetry_space_group_name_H-M "C 2/C"
_symmetry_group_IT_number 15
_symmetry_cell_setting 'monoclinic'
loop_
_space_group_symop_operation_xyz
x,y,z
-x,y,1/2-z
-x,-y,-z
x,-y,1/2+z
1/2+x,1/2+y,z
1/2-x,1/2+y,1/2-z
1/2-x,1/2-y,-z
1/2+x,1/2-y,1/2+z
loop_
_atom_site_type_symbol
_atom_site_label
_atom_site_fract_x
_atom_site_fract_y
_atom_site_fract_z
Si Si1 0.702051 0.558933 0.488937
Si Si2 0.106207 0.724914 0.091468
Si Si3 0.191723 0.616869 0.619739
Si Si4 0.229913 0.831051 0.075711
Si Si5 0.633642 0.473339 0.264064
Si Si6 0.025361 0.452125 0.410430
Si Si7 0.660016 0.207494 0.420893
O O1 0.658422 0.619353 0.487804
O O2 0.657262 0.530929 0.335953
O O3 0.658385 0.523980 0.606617
O O4 0.841928 0.566461 0.533688
O O5 0.134477 0.785840 0.073257
O O6 0.156602 0.706426 0.254015
O O7 0.966056 0.719274 0.045840
O O8 0.164630 0.688924 0.991208
O O9 0.213545 0.651855 0.761834
O O10 0.281633 0.568346 0.636502
O O11 0.207431 0.651246 0.485938
O O12 0.057791 0.596813 0.580301
O O13 0.500000 0.455745 0.250000
O O14 0.000000 0.473528 0.250000
O O15 0.000000 0.500000 0.500000
O O16 0.750000 0.250000 0.500000
#
# Coordination Sequence:
#
# PCOD8144237 Si02
#       7
#     8   8   8   8   8   8   8
#     4  11  22  41  63  92 125 169 209 261 311 374
#     4  10  23  42  62  94 128 163 210 267 310 375
#     4  11  23  40  67  94 124 173 208 260 323 373
#     4  10  21  42  66  88 124 169 212 256 318 374
#     4  11  24  41  63  90 130 168 212 252 307 384
#     4  12  21  40  63  96 128 161 211 264 317 377
#     4  11  23  40  63  94 131 161 211 261 312 373
#
# _framework density 20.122481000000001
#
# number of rings (size 3 to 8) (size 9 to 14) (size 15 to 20)
#    0.000    1.143    5.714    1.286    0.000    3.429 
#    5.143    1.429    0.000    0.000    0.000    0.000 
#    0.000    0.000    0.000    0.000    0.000    0.000 
#
# Total GULP energy -347267.643736 kJ/mol
# GULP energy per Si atom -12402.415848 kJ/mol
# Density = 2.007668 g / cm^3
# Si number density = 20.122481 Si / 1000 Ang^3
#
#
#
# Elastic Constant Matrix: (Units=GPa)
#
#
# Indices 1 2 3 4 5 6 
#
# 1 89.1059 19.6745 17.6936 0.0000 4.5190 0.0000
# 2 19.6745 123.6666 52.4916 0.0000 -13.5229 0.0000
# 3 17.6936 52.4916 69.2607 0.0000 -8.3501 0.0000
# 4 0.0000 0.0000 0.0000 93.7187 0.0000 -27.7535
# 5 4.5190 -13.5229 -8.3501 0.0000 24.9795 0.0000
# 6 0.0000 0.0000 0.0000 -27.7535 0.0000 42.0648
#
#
#
# Elastic Compliance Matrix: (Units=1/GPa)
#
#
# Indices 1 2 3 4 5 6 
#
# 1 0.012209 -0.001234 -0.002637 0.000000 -0.003758 0.000000
# 2 -0.001234 0.012361 -0.008564 0.000000 0.004052 0.000000
# 3 -0.002637 -0.008564 0.021987 0.000000 0.003190 0.000000
# 4 0.000000 0.000000 0.000000 0.013261 0.000000 0.008750
# 5 -0.003758 0.004052 0.003190 0.000000 0.043973 0.000000
# 6 0.000000 0.000000 0.000000 0.008750 0.000000 0.029546
#
#
# Mechanical properties :
#
#
# Convention : Reuss Voigt Hill
#
# Bulk Modulus (GPa) = 46.11089 51.30585 48.70837
# Shear Modulus (GPa) = 30.22305 44.96417 37.59361
#
# Velocity S-wave (km/s) = 3.87971 4.73220 4.32700
# Velocity P-wave (km/s) = 6.56006 7.44382 7.01587
#
# Compressibility (1/GPa) = 0.02168685
#
# Stress axis : x y z
#
# Youngs Moduli (GPa) = 81.90481 80.90011 45.48100
#
# Poissons Ratio (x) = 0.09985 0.11992
# Poissons Ratio (y) = 0.10109 0.38951
# Poissons Ratio (z) = 0.21596 0.69286
#
# Static dielectric constant tensor:
#      x y z
#    x 3.704620 0.000000 -0.046490 
#    y 0.000000 3.738720 0.000000 
#    z -0.046490 0.000000 3.746980 
# 
# 
# High freq. dielectric constant tensor:
#      x y z
#    x 1.789300 0.000000 -0.006820 
#    y 0.000000 1.794640 0.000000 
#    z -0.006820 0.000000 1.784130 
# 
# From -- ./inp_files/34325.got.cif
#   From: 2010.06.25/outbox.cif.g09.slc.cpg/sg15_18_cif.got.tgz:34325.got - 2010.06.28 07:06:18.
