data_PCOD8144977
_publ_section_title
;
Structure prediction by ZEFSAII (Michael W. Deem and Ramdas Pophale) SiO2 
 PCOD8144977
Probable space group: C 2/C
;
_chemical_formula_sum "Si O2"
_cell_formula_units_Z 56
_cell_length_a 17.341160
_cell_length_b 14.848515
_cell_length_c 10.992951
_cell_angle_alpha 90.000000
_cell_angle_beta 88.068403
_cell_angle_gamma 90.000000
_cell_volume 2828.971775
_symmetry_space_group_name_H-M "C 2/C"
_symmetry_group_IT_number 15
_symmetry_cell_setting 'monoclinic'
loop_
_space_group_symop_operation_xyz
x,y,z
-x,y,1/2-z
-x,-y,-z
x,-y,1/2+z
1/2+x,1/2+y,z
1/2-x,1/2+y,1/2-z
1/2-x,1/2-y,-z
1/2+x,1/2-y,1/2+z
loop_
_atom_site_type_symbol
_atom_site_label
_atom_site_fract_x
_atom_site_fract_y
_atom_site_fract_z
Si Si1 0.302446 0.825091 0.339466
Si Si2 0.824438 0.186764 0.981909
Si Si3 0.705961 0.851490 0.884320
Si Si4 0.229575 0.546546 0.868071
Si Si5 0.432883 0.241839 0.674840
Si Si6 0.562283 0.078991 0.988739
Si Si7 0.416986 0.199469 0.293260
O O1 0.309087 0.866257 0.472418
O O2 0.261399 0.729271 0.346986
O O3 0.258173 0.895114 0.254744
O O4 0.386079 0.810611 0.280073
O O5 0.791996 0.086021 0.961916
O O6 0.872565 0.220012 0.863106
O O7 0.750000 0.250000 0.000000
O O8 0.878567 0.190216 0.099661
O O9 0.624250 0.833130 0.826952
O O10 0.747671 0.942834 0.835722
O O11 0.142768 0.548419 0.925163
O O12 0.500000 0.292437 0.750000
O O13 0.469358 0.165880 0.583890
O O14 0.577990 0.110140 0.125140
O O15 0.500000 0.000000 0.000000
O O16 0.500000 0.237449 0.250000
#
# Coordination Sequence:
#
# PCOD8144977 Si02
#       7
#     8   8   8   8   8   8   8
#     4  10  23  41  56  93 126 160 220 261 315 379
#     4  11  19  42  63  88 121 177 225 248 316 401
#     4  11  24  38  63  90 129 164 211 269 320 383
#     4  11  22  39  68  86 124 178 213 262 306 404
#     4  10  22  36  64  84 125 171 207 265 316 383
#     4  10  22  36  55  92 133 162 205 248 325 407
#     4  11  22  36  59  92 132 167 199 267 330 383
#
# _framework density 19.795179000000001
#
# number of rings (size 3 to 8) (size 9 to 14) (size 15 to 20)
#    0.000    1.429    5.714    0.857    8.000    1.714 
#    0.000    0.000    0.000    1.714    0.000    0.000 
#    0.000    0.000    0.000    0.000    0.000    0.000 
#
# Total GULP energy -347078.097322 kJ/mol
# GULP energy per Si atom -12395.646333 kJ/mol
# Density = 1.975012 g / cm^3
# Si number density = 19.795179 Si / 1000 Ang^3
#
#
#
# Elastic Constant Matrix: (Units=GPa)
#
#
# Indices 1 2 3 4 5 6 
#
# 1 94.5521 39.5447 49.0530 0.0000 22.0373 0.0000
# 2 39.5447 92.2369 33.0688 0.0000 8.1881 0.0000
# 3 49.0530 33.0688 105.0156 0.0000 12.1932 0.0000
# 4 0.0000 0.0000 0.0000 21.3869 0.0000 2.8904
# 5 22.0373 8.1881 12.1932 0.0000 45.8245 0.0000
# 6 0.0000 0.0000 0.0000 2.8904 0.0000 32.5625
#
#
#
# Elastic Compliance Matrix: (Units=1/GPa)
#
#
# Indices 1 2 3 4 5 6 
#
# 1 0.016833 -0.004653 -0.005731 0.000000 -0.005739 0.000000
# 2 -0.004653 0.013571 -0.002145 0.000000 0.000383 0.000000
# 3 -0.005731 -0.002145 0.012909 0.000000 -0.000295 0.000000
# 4 0.000000 0.000000 0.000000 0.047325 0.000000 -0.004201
# 5 -0.005739 0.000383 -0.000295 0.000000 0.024592 0.000000
# 6 0.000000 0.000000 0.000000 -0.004201 0.000000 0.031083
#
#
# Mechanical properties :
#
#
# Convention : Reuss Voigt Hill
#
# Bulk Modulus (GPa) = 54.77627 59.45974 57.11800
# Shear Modulus (GPa) = 28.17588 31.29732 29.73660
#
# Velocity S-wave (km/s) = 3.77685 3.98057 3.88005
# Velocity P-wave (km/s) = 6.83748 7.15746 6.99930
#
# Compressibility (1/GPa) = 0.01825608
#
# Stress axis : x y z
#
# Youngs Moduli (GPa) = 59.40738 73.68510 77.46414
#
# Poissons Ratio (x) = 0.34282 0.44397
# Poissons Ratio (y) = 0.27640 0.16614
# Poissons Ratio (z) = 0.34048 0.15804
#
# Static dielectric constant tensor:
#      x y z
#    x 3.593940 0.000000 0.129690 
#    y 0.000000 3.503120 0.000000 
#    z 0.129690 0.000000 3.938670 
# 
# 
# High freq. dielectric constant tensor:
#      x y z
#    x 1.763270 0.000000 0.004560 
#    y 0.000000 1.744220 0.000000 
#    z 0.004560 0.000000 1.790680 
# 
# From -- ./inp_files/97059.got.cif
#   From: 2010.06.25/outbox.cif.g09.slc.cpg/sg15_49_cif.got.tgz:97059.got - 2010.06.28 07:06:18.
