data_PCOD8144561
_publ_section_title
;
Structure prediction by ZEFSAII (Michael W. Deem and Ramdas Pophale) SiO2 
 PCOD8144561
Probable space group: C 2/C
;
_chemical_formula_sum "Si O2"
_cell_formula_units_Z 60
_cell_length_a 21.262775
_cell_length_b 17.066476
_cell_length_c 14.139138
_cell_angle_alpha 90.000000
_cell_angle_beta 148.028478
_cell_angle_gamma 90.000000
_cell_volume 2716.757035
_symmetry_space_group_name_H-M "C 2/C"
_symmetry_group_IT_number 15
_symmetry_cell_setting 'monoclinic'
loop_
_space_group_symop_operation_xyz
x,y,z
-x,y,1/2-z
-x,-y,-z
x,-y,1/2+z
1/2+x,1/2+y,z
1/2-x,1/2+y,1/2-z
1/2-x,1/2-y,-z
1/2+x,1/2-y,1/2+z
loop_
_atom_site_type_symbol
_atom_site_label
_atom_site_fract_x
_atom_site_fract_y
_atom_site_fract_z
Si Si1 0.271924 0.129894 0.993015
Si Si2 0.265235 0.609835 0.933303
Si Si3 0.862365 0.534626 0.555623
Si Si4 0.142457 0.733409 0.240084
Si Si5 0.221377 0.133667 0.240032
Si Si6 0.500000 0.288900 0.750000
Si Si7 0.085273 0.738116 0.663973
Si Si8 0.621631 0.543439 0.954568
O O1 0.201416 0.180707 0.825384
O O2 0.179236 0.098746 0.950554
O O3 0.360432 0.187002 0.163884
O O4 0.341740 0.059078 0.031715
O O5 0.219391 0.580308 0.975169
O O6 0.163784 0.660026 0.752274
O O7 0.382331 0.661022 0.091502
O O8 0.298881 0.532356 0.917607
O O9 0.818418 0.570194 0.399879
O O10 0.000000 0.552502 0.750000
O O11 0.211345 0.690226 0.245221
O O12 0.005543 0.741307 0.038110
O O13 0.166604 0.183953 0.256717
O O14 0.115010 0.089788 0.046008
O O15 0.517844 0.235813 0.679233
O O16 0.500000 0.515898 0.750000
#
# Coordination Sequence:
#
# PCOD8144561 Si02
#       8
#     8   8   8   8   8   4   8   8
#     4   9  22  43  66  96 130 180 228 276 343 396
#     4  11  24  42  65  95 136 176 223 267 348 397
#     4  11  24  42  65  97 138 180 222 279 334 406
#     4  10  22  43  67  94 136 173 228 287 330 402
#     4  11  24  40  64 100 130 173 231 274 339 407
#     4  12  24  42  64  94 140 178 220 286 328 408
#     4  12  25  40  66 101 133 178 227 279 340 405
#     4  10  21  43  67  93 133 174 220 288 336 395
#
# _framework density 22.085153999999999
#
# number of rings (size 3 to 8) (size 9 to 14) (size 15 to 20)
#    0.000    1.333    2.000    2.800    2.800    4.267 
#    0.000    8.000    0.000    0.000    0.000    0.000 
#    0.000    0.000    0.000    0.000    0.000    0.000 
#
# Total GULP energy -371914.984059 kJ/mol
# GULP energy per Si atom -12397.166135 kJ/mol
# Density = 2.203489 g / cm^3
# Si number density = 22.085154 Si / 1000 Ang^3
#
#
#
# Elastic Constant Matrix: (Units=GPa)
#
#
# Indices 1 2 3 4 5 6 
#
# 1 42.4853 45.1589 22.9547 0.0000 4.2807 0.0000
# 2 45.1589 143.2380 73.3956 0.0000 -4.5083 0.0000
# 3 22.9547 73.3956 145.9696 0.0000 0.9759 0.0000
# 4 0.0000 0.0000 0.0000 -23.3443 0.0000 -109.5927
# 5 4.2807 -4.5083 0.9759 0.0000 27.1570 0.0000
# 6 0.0000 0.0000 0.0000 -109.5927 0.0000 -147.3609
#
#
#
# Elastic Compliance Matrix: (Units=1/GPa)
#
#
# Indices 1 2 3 4 5 6 
#
# 1 0.036986 -0.012062 0.000301 0.000000 -0.007843 0.000000
# 2 -0.012062 0.013420 -0.004880 0.000000 0.004304 0.000000
# 3 0.000301 -0.004880 0.009265 0.000000 -0.001190 0.000000
# 4 0.000000 0.000000 0.000000 0.017194 0.000000 -0.012787
# 5 -0.007843 0.004304 -0.001190 0.000000 0.038817 0.000000
# 6 0.000000 0.000000 0.000000 -0.012787 0.000000 0.002724
#
#
# Mechanical properties :
#
#
# Convention : Reuss Voigt Hill
#
# Bulk Modulus (GPa) = 37.89328 68.30125 53.09727
# Shear Modulus (GPa) = 31.15599 -16.03072 7.56264
#
# Velocity S-wave (km/s) = 3.76003 -2.69710 1.85250
# Velocity P-wave (km/s) = 6.00379 4.61458 5.35443
#
# Compressibility (1/GPa) = 0.02638990
#
# Stress axis : x y z
#
# Youngs Moduli (GPa) = 27.03731 74.51581 107.93330
#
# Poissons Ratio (x) = 0.89879 -0.03248
# Poissons Ratio (y) = 0.32612 0.52669
# Poissons Ratio (z) = -0.00814 0.36362
#
# Static dielectric constant tensor:
#      x y z
#    x 3.955040 0.000000 -0.011320 
#    y 0.000000 4.240880 0.000000 
#    z -0.011320 0.000000 4.107100 
# 
# 
# High freq. dielectric constant tensor:
#      x y z
#    x 1.852860 0.000000 -0.000260 
#    y 0.000000 1.884610 0.000000 
#    z -0.000260 0.000000 1.873410 
# 
# From -- ./inp_files/174110.got.cif
#   From: 2010.06.25/outbox.cif.g09.slc.cpg/sg15_88_cif.got.tgz:174110.got - 2010.06.28 07:06:18.
