data_PCOD8144435
_publ_section_title
;
Structure prediction by ZEFSAII (Michael W. Deem and Ramdas Pophale) SiO2 
 PCOD8144435
Probable space group: C 2/C
;
_chemical_formula_sum "Si O2"
_cell_formula_units_Z 48
_cell_length_a 10.470148
_cell_length_b 18.322766
_cell_length_c 11.247750
_cell_angle_alpha 90.000000
_cell_angle_beta 82.206034
_cell_angle_gamma 90.000000
_cell_volume 2137.858259
_symmetry_space_group_name_H-M "C 2/C"
_symmetry_group_IT_number 15
_symmetry_cell_setting 'monoclinic'
loop_
_space_group_symop_operation_xyz
x,y,z
-x,y,1/2-z
-x,-y,-z
x,-y,1/2+z
1/2+x,1/2+y,z
1/2-x,1/2+y,1/2-z
1/2-x,1/2-y,-z
1/2+x,1/2-y,1/2+z
loop_
_atom_site_type_symbol
_atom_site_label
_atom_site_fract_x
_atom_site_fract_y
_atom_site_fract_z
Si Si1 0.948626 0.956499 0.889812
Si Si2 0.821057 0.727309 0.158937
Si Si3 0.550848 0.290424 0.571032
Si Si4 0.152899 0.568603 0.400585
Si Si5 0.798601 0.711879 0.611319
Si Si6 0.041535 0.581751 0.870859
O O1 0.990559 0.873835 0.908085
O O2 0.794718 0.960873 0.910684
O O3 0.000000 0.981541 0.750000
O O4 0.000000 0.000000 0.000000
O O5 0.682250 0.732384 0.115933
O O6 0.850055 0.641317 0.180759
O O7 0.815299 0.773154 0.280856
O O8 0.932464 0.766946 0.069084
O O9 0.431578 0.247151 0.641514
O O10 0.075673 0.503277 0.348832
O O11 0.083438 0.591716 0.531331
O O12 0.750000 0.750000 0.500000
O O13 0.833078 0.625694 0.593794
O O14 0.000000 0.614271 0.750000
#
# Coordination Sequence:
#
# PCOD8144435 Si02
#       6
#     8   8   8   8   8   8
#     4  11  26  44  72 102 143 188 236 296 360 430
#     4  10  21  42  72  91 131 176 233 278 347 419
#     4  10  21  43  66  95 125 181 228 280 341 420
#     4  10  24  45  69 103 134 187 229 294 349 424
#     4  12  26  40  66 102 137 173 227 295 347 416
#     4  11  25  44  73 101 139 184 237 288 356 430
#
# _framework density 22.452376000000001
#
# number of rings (size 3 to 8) (size 9 to 14) (size 15 to 20)
#    0.000    1.333    1.667    3.500    9.333    3.333 
#    0.000    0.000    0.000    0.000    0.000    0.000 
#    0.000    0.000    0.000    0.000    0.000    0.000 
#
# Total GULP energy -297447.863135 kJ/mol
# GULP energy per Si atom -12393.660964 kJ/mol
# Density = 2.240127 g / cm^3
# Si number density = 22.452376 Si / 1000 Ang^3
#
#
#
# Elastic Constant Matrix: (Units=GPa)
#
#
# Indices 1 2 3 4 5 6 
#
# 1 50.1428 17.3749 31.5888 0.0000 -10.6150 0.0000
# 2 17.3749 84.4681 46.6381 0.0000 -4.4775 0.0000
# 3 31.5888 46.6381 148.3438 0.0000 -13.7701 0.0000
# 4 0.0000 0.0000 0.0000 23.8622 0.0000 -7.1209
# 5 -10.6150 -4.4775 -13.7701 0.0000 34.5076 0.0000
# 6 0.0000 0.0000 0.0000 -7.1209 0.0000 29.7596
#
#
#
# Elastic Compliance Matrix: (Units=1/GPa)
#
#
# Indices 1 2 3 4 5 6 
#
# 1 0.024478 -0.002598 -0.003871 0.000000 0.005648 0.000000
# 2 -0.002598 0.014601 -0.004087 0.000000 -0.000536 0.000000
# 3 -0.003871 -0.004087 0.009025 0.000000 0.001880 0.000000
# 4 0.000000 0.000000 0.000000 0.045130 0.000000 0.010799
# 5 0.005648 -0.000536 0.001880 0.000000 0.031397 0.000000
# 6 0.000000 0.000000 0.000000 0.010799 0.000000 0.036186
#
#
# Mechanical properties :
#
#
# Convention : Reuss Voigt Hill
#
# Bulk Modulus (GPa) = 37.04915 52.68426 44.86671
# Shear Modulus (GPa) = 26.18793 30.11608 28.15200
#
# Velocity S-wave (km/s) = 3.41893 3.66639 3.54482
# Velocity P-wave (km/s) = 5.66767 6.43732 6.06472
#
# Compressibility (1/GPa) = 0.02699117
#
# Stress axis : x y z
#
# Youngs Moduli (GPa) = 40.85343 68.48638 110.80432
#
# Poissons Ratio (x) = 0.17794 0.42895
# Poissons Ratio (y) = 0.10614 0.45286
# Poissons Ratio (z) = 0.15815 0.27991
#
# Static dielectric constant tensor:
#      x y z
#    x 3.979210 0.000000 -0.387950 
#    y 0.000000 4.245620 0.000000 
#    z -0.387950 0.000000 4.387200 
# 
# 
# High freq. dielectric constant tensor:
#      x y z
#    x 1.875130 0.000000 -0.019940 
#    y 0.000000 1.892640 0.000000 
#    z -0.019940 0.000000 1.889410 
# 
# From -- ./inp_files/87784.got.cif
#   From: 2010.06.25/outbox.cif.g09.slc.cpg/sg15_44_cif.got.tgz:87784.got - 2010.06.28 07:06:18.
