data_PCOD8144906
_publ_section_title
;
Structure prediction by ZEFSAII (Michael W. Deem and Ramdas Pophale) SiO2 
 PCOD8144906
Probable space group: C 2/C
;
_chemical_formula_sum "Si O2"
_cell_formula_units_Z 48
_cell_length_a 21.746779
_cell_length_b 12.407298
_cell_length_c 24.403868
_cell_angle_alpha 90.000000
_cell_angle_beta 158.410392
_cell_angle_gamma 90.000000
_cell_volume 2422.850420
_symmetry_space_group_name_H-M "C 2/C"
_symmetry_group_IT_number 15
_symmetry_cell_setting 'monoclinic'
loop_
_space_group_symop_operation_xyz
x,y,z
-x,y,1/2-z
-x,-y,-z
x,-y,1/2+z
1/2+x,1/2+y,z
1/2-x,1/2+y,1/2-z
1/2-x,1/2-y,-z
1/2+x,1/2-y,1/2+z
loop_
_atom_site_type_symbol
_atom_site_label
_atom_site_fract_x
_atom_site_fract_y
_atom_site_fract_z
Si Si1 0.564001 0.037943 0.444180
Si Si2 0.343371 0.141791 0.763811
Si Si3 0.036945 0.151604 0.082300
Si Si4 0.294132 0.217164 0.206959
Si Si5 0.811456 0.193803 0.604559
Si Si6 0.735111 0.549553 0.783336
O O1 0.433550 0.135773 0.343868
O O2 0.713114 0.081410 0.529818
O O3 0.642724 0.006271 0.568231
O O4 0.477770 0.933720 0.342686
O O5 0.411925 0.261342 0.829530
O O6 0.343463 0.070855 0.819237
O O7 0.162478 0.148472 0.586848
O O8 0.119732 0.182465 0.092126
O O9 0.091359 0.035820 0.149847
O O10 0.280386 0.222794 0.129560
O O11 0.351018 0.337135 0.271919
O O12 0.750000 0.250000 0.500000
O O13 0.000000 0.160745 0.750000
#
# Coordination Sequence:
#
# PCOD8144906 Si02
#       6
#     8   8   8   8   8   8
#     4  11  22  38  58  85 123 157 201 252 304 357
#     4  11  23  35  56  83 125 164 205 236 296 362
#     4  11  23  37  57  89 130 169 198 236 291 385
#     4  10  23  34  61  89 129 159 201 245 298 365
#     4  11  23  41  60  87 121 162 207 259 312 351
#     4  10  22  33  55  85 124 165 197 234 300 360
#
# _framework density 19.811375999999999
#
# number of rings (size 3 to 8) (size 9 to 14) (size 15 to 20)
#    0.000    1.333    3.333    2.000   14.000    0.000 
#    0.000    0.000    0.000    0.000    0.000   10.500 
#   10.000    0.333    0.000    0.000    0.000    0.000 
#
# Total GULP energy -297465.397516 kJ/mol
# GULP energy per Si atom -12394.391563 kJ/mol
# Density = 1.976628 g / cm^3
# Si number density = 19.811376 Si / 1000 Ang^3
#
#
#
# Elastic Constant Matrix: (Units=GPa)
#
#
# Indices 1 2 3 4 5 6 
#
# 1 56.0839 24.8297 38.4164 -0.0027 -10.8054 -0.0032
# 2 24.8297 108.2447 44.5543 -0.0087 -7.6063 -0.0020
# 3 38.4164 44.5543 131.5232 -0.0143 1.3322 -0.0034
# 4 -0.0027 -0.0087 -0.0143 43.7136 -0.0029 4.1093
# 5 -10.8054 -7.6063 1.3322 -0.0029 27.4696 0.0005
# 6 -0.0032 -0.0020 -0.0034 4.1093 0.0005 17.1462
#
#
#
# Elastic Compliance Matrix: (Units=1/GPa)
#
#
# Indices 1 2 3 4 5 6 
#
# 1 0.025318 -0.002379 -0.006687 -0.000001 0.009625 0.000003
# 2 -0.002379 0.011238 -0.003136 0.000001 0.002328 0.000000
# 3 -0.006687 -0.003136 0.010659 0.000002 -0.004016 0.000000
# 4 -0.000001 0.000001 0.000002 0.023403 0.000003 -0.005609
# 5 0.009625 0.002328 -0.004016 0.000003 0.041029 -0.000001
# 6 0.000003 0.000000 0.000000 -0.005609 -0.000001 0.059666
#
#
# Mechanical properties :
#
#
# Convention : Reuss Voigt Hill
#
# Bulk Modulus (GPa) = 43.83488 56.82806 50.33147
# Shear Modulus (GPa) = 24.59148 30.20262 27.39705
#
# Velocity S-wave (km/s) = 3.52700 3.90873 3.72276
# Velocity P-wave (km/s) = 6.22579 7.00841 6.62866
#
# Compressibility (1/GPa) = 0.02281288
#
# Stress axis : x y z
#
# Youngs Moduli (GPa) = 39.49704 88.98121 93.81485
#
# Poissons Ratio (x) = 0.21169 0.62732
# Poissons Ratio (y) = 0.09396 0.29418
# Poissons Ratio (z) = 0.26411 0.27902
#
# Static dielectric constant tensor:
#      x y z
#    x 3.529280 0.000010 0.028010 
#    y 0.000010 3.771500 -0.000010 
#    z 0.028010 -0.000010 3.635070 
# 
# 
# High freq. dielectric constant tensor:
#      x y z
#    x 1.724860 0.000000 -0.002010 
#    y 0.000000 1.776310 0.000000 
#    z -0.002010 0.000000 1.791900 
# 
# From -- ./inp_files/302200.got.cif
#   From: 2010.06.25/outbox.cif.g09.slc.cpg/sg15_152_cif.got.tgz:302200.got - 2010.06.28 07:06:18.
