data_PCOD8144738
_publ_section_title
;
Structure prediction by ZEFSAII (Michael W. Deem and Ramdas Pophale) SiO2 
 PCOD8144738
Probable space group: C 2/C
;
_chemical_formula_sum "Si O2"
_cell_formula_units_Z 60
_cell_length_a 21.589595
_cell_length_b 19.762761
_cell_length_c 9.126861
_cell_angle_alpha 90.000000
_cell_angle_beta 47.841762
_cell_angle_gamma 90.000000
_cell_volume 2886.715864
_symmetry_space_group_name_H-M "C 2/C"
_symmetry_group_IT_number 15
_symmetry_cell_setting 'monoclinic'
loop_
_space_group_symop_operation_xyz
x,y,z
-x,y,1/2-z
-x,-y,-z
x,-y,1/2+z
1/2+x,1/2+y,z
1/2-x,1/2+y,1/2-z
1/2-x,1/2-y,-z
1/2+x,1/2-y,1/2+z
loop_
_atom_site_type_symbol
_atom_site_label
_atom_site_fract_x
_atom_site_fract_y
_atom_site_fract_z
Si Si1 0.896447 0.951778 0.665875
Si Si2 0.636778 0.021703 0.828136
Si Si3 0.573594 0.674621 0.531143
Si Si4 0.317892 0.306050 0.373944
Si Si5 0.468872 0.251672 0.963588
Si Si6 0.753687 0.544860 0.572715
Si Si7 0.500000 0.490910 0.750000
Si Si8 0.511345 0.904501 0.066521
O O1 0.871326 0.876889 0.655287
O O2 0.925949 0.947289 0.790066
O O3 0.827679 0.007329 0.737390
O O4 0.972043 0.964913 0.432482
O O5 0.670003 0.044452 0.933770
O O6 0.578320 0.084091 0.869842
O O7 0.718525 0.004442 0.603592
O O8 0.583505 0.953208 0.893607
O O9 0.500000 0.642222 0.750000
O O10 0.637189 0.706513 0.543402
O O11 0.537938 0.729501 0.474444
O O12 0.250000 0.250000 0.500000
O O13 0.274895 0.379744 0.426432
O O14 0.381961 0.291167 0.137108
O O15 0.500000 0.270208 0.750000
O O16 0.455712 0.171544 0.001911
O O17 0.500000 0.926307 0.250000
#
# Coordination Sequence:
#
# PCOD8144738 Si02
#       8
#     8   8   8   8   8   8   4   8
#     4  11  22  38  60  91 126 166 212 269 317 380
#     4  11  23  41  68  97 129 164 216 276 330 396
#     4  10  22  42  63  91 129 172 218 261 319 390
#     4  11  25  45  64  94 134 176 216 268 333 400
#     4  10  24  42  69  94 129 175 228 267 320 396
#     4  12  25  40  64  99 133 167 213 269 344 383
#     4  10  22  34  62  84 120 172 210 258 306 376
#     4  10  21  44  68  95 125 171 216 275 325 384
#
# _framework density 20.784863999999999
#
# number of rings (size 3 to 8) (size 9 to 14) (size 15 to 20)
#    0.000    1.333    2.000    3.200    8.400    1.067 
#    2.400    0.667    0.000    0.000    0.000    0.000 
#    0.000    0.000    0.000    0.000    0.000    0.000 
#
# Total GULP energy -371675.631822 kJ/mol
# GULP energy per Si atom -12389.187727 kJ/mol
# Density = 2.073756 g / cm^3
# Si number density = 20.784864 Si / 1000 Ang^3
#
#
#
# Elastic Constant Matrix: (Units=GPa)
#
#
# Indices 1 2 3 4 5 6 
#
# 1 145.6007 31.2752 39.7703 0.0000 8.5455 0.0000
# 2 31.2752 71.4197 24.0992 0.0000 -6.1603 0.0000
# 3 39.7703 24.0992 73.7811 0.0000 8.2541 0.0000
# 4 0.0000 0.0000 0.0000 7.5062 0.0000 12.1385
# 5 8.5455 -6.1603 8.2541 0.0000 34.6340 0.0000
# 6 0.0000 0.0000 0.0000 12.1385 0.0000 16.2076
#
#
#
# Elastic Compliance Matrix: (Units=1/GPa)
#
#
# Indices 1 2 3 4 5 6 
#
# 1 0.008508 -0.002690 -0.003512 0.000000 -0.001741 0.000000
# 2 -0.002690 0.017185 -0.004705 0.000000 0.004842 0.000000
# 3 -0.003512 -0.004705 0.017445 0.000000 -0.004128 0.000000
# 4 0.000000 0.000000 0.000000 -0.630999 0.000000 0.472580
# 5 -0.001741 0.004842 -0.004128 0.000000 0.031148 0.000000
# 6 0.000000 0.000000 0.000000 0.472580 0.000000 -0.292235
#
#
# Mechanical properties :
#
#
# Convention : Reuss Voigt Hill
#
# Bulk Modulus (GPa) = 46.89741 53.45454 50.17597
# Shear Modulus (GPa) = -6.09737 24.71334 9.30799
#
# Velocity S-wave (km/s) = -1.71462 3.45194 2.11848
# Velocity P-wave (km/s) = 4.32346 6.45459 5.49336
#
# Compressibility (1/GPa) = 0.02132314
#
# Stress axis : x y z
#
# Youngs Moduli (GPa) = 117.54253 58.19030 57.32208
#
# Poissons Ratio (x) = 0.15656 0.20133
# Poissons Ratio (y) = 0.31625 0.26967
# Poissons Ratio (z) = 0.41285 0.27376
#
# Static dielectric constant tensor:
#      x y z
#    x 4.512160 0.000000 0.257590 
#    y 0.000000 3.692970 0.000000 
#    z 0.257590 0.000000 3.920590 
# 
# 
# High freq. dielectric constant tensor:
#      x y z
#    x 1.824650 0.000000 0.007750 
#    y 0.000000 1.806960 0.000000 
#    z 0.007750 0.000000 1.814180 
# 
# From -- ./inp_files/58078.got.cif
#   From: 2010.06.25/outbox.cif.g09.slc.cpg/sg15_30_cif.got.tgz:58078.got - 2010.06.28 07:06:18.
