data_PCOD8144880
_publ_section_title
;
Structure prediction by ZEFSAII (Michael W. Deem and Ramdas Pophale) SiO2 
 PCOD8144880
Probable space group: C 2/C
;
_chemical_formula_sum "Si O2"
_cell_formula_units_Z 36
_cell_length_a 13.864071
_cell_length_b 5.632600
_cell_length_c 20.942843
_cell_angle_alpha 90.000000
_cell_angle_beta 122.592663
_cell_angle_gamma 90.000000
_cell_volume 1377.895409
_symmetry_space_group_name_H-M "C 2/C"
_symmetry_group_IT_number 15
_symmetry_cell_setting 'monoclinic'
loop_
_space_group_symop_operation_xyz
x,y,z
-x,y,1/2-z
-x,-y,-z
x,-y,1/2+z
1/2+x,1/2+y,z
1/2-x,1/2+y,1/2-z
1/2-x,1/2-y,-z
1/2+x,1/2-y,1/2+z
loop_
_atom_site_type_symbol
_atom_site_label
_atom_site_fract_x
_atom_site_fract_y
_atom_site_fract_z
Si Si1 0.682462 0.216249 0.219058
Si Si2 0.500000 0.393860 0.250000
Si Si3 0.007694 0.311498 0.057683
Si Si4 0.168802 0.081244 0.585756
Si Si5 0.572615 0.157209 0.834441
O O1 0.742182 0.962053 0.253079
O O2 0.579040 0.237964 0.231791
O O3 0.643900 0.212766 0.130401
O O4 0.421364 0.558793 0.175578
O O5 0.993239 0.411996 0.123995
O O6 0.901073 0.133294 0.004239
O O7 0.127801 0.171820 0.099261
O O8 0.000000 0.500000 0.000000
O O9 0.301782 0.047653 0.616834
O O10 0.500000 0.042340 0.750000
#
# Coordination Sequence:
#
# PCOD8144880 Si02
#       5
#     8   4   8   8   8
#     4  12  26  47  78 117 158 211 267 336 397 473
#     4  10  22  44  76 110 154 196 266 328 396 464
#     4  11  26  45  72 108 155 206 260 325 410 482
#     4  11  24  45  73 103 156 202 260 324 402 473
#     4  10  21  46  74 106 151 198 270 327 394 477
#
# _framework density 26.126801
#
# number of rings (size 3 to 8) (size 9 to 14) (size 15 to 20)
#    0.667    0.444    4.444    0.667    3.111    1.778 
#    6.000    0.000    0.000    0.000    0.000    0.000 
#    0.000    0.000    0.000    0.000    0.000    0.000 
#
# Total GULP energy -223089.611930 kJ/mol
# GULP energy per Si atom -12393.867329 kJ/mol
# Density = 2.606734 g / cm^3
# Si number density = 26.126801 Si / 1000 Ang^3
#
#
#
# Elastic Constant Matrix: (Units=GPa)
#
#
# Indices 1 2 3 4 5 6 
#
# 1 203.7806 47.0061 63.0093 0.0000 -8.7077 0.0000
# 2 47.0061 114.5736 40.6453 0.0000 -2.5627 -0.0001
# 3 63.0093 40.6453 132.9885 0.0000 -20.6908 0.0000
# 4 0.0000 0.0000 0.0000 44.5375 0.0000 -15.4263
# 5 -8.7077 -2.5627 -20.6908 0.0000 56.3402 0.0000
# 6 0.0000 -0.0001 0.0000 -15.4263 0.0000 8.9989
#
#
#
# Elastic Compliance Matrix: (Units=1/GPa)
#
#
# Indices 1 2 3 4 5 6 
#
# 1 0.006010 -0.001632 -0.002350 0.000000 -0.000008 0.000000
# 2 -0.001632 0.010258 -0.002470 0.000000 -0.000693 0.000000
# 3 -0.002350 -0.002470 0.009878 0.000000 0.003152 0.000000
# 4 0.000000 0.000000 0.000000 0.055270 0.000000 0.094747
# 5 -0.000008 -0.000693 0.003152 0.000000 0.018874 0.000000
# 6 0.000000 0.000000 0.000000 0.094747 0.000000 0.273546
#
#
# Mechanical properties :
#
#
# Convention : Reuss Voigt Hill
#
# Bulk Modulus (GPa) = 75.51355 83.62932 79.57144
# Shear Modulus (GPa) = 12.78268 42.02079 27.40174
#
# Velocity S-wave (km/s) = 2.21431 4.01476 3.24203
# Velocity P-wave (km/s) = 5.95844 7.31913 6.67355
#
# Compressibility (1/GPa) = 0.01324266
#
# Stress axis : x y z
#
# Youngs Moduli (GPa) = 166.38934 97.48203 101.23436
#
# Poissons Ratio (x) = 0.15912 0.23790
# Poissons Ratio (y) = 0.27159 0.25001
# Poissons Ratio (z) = 0.39101 0.24075
#
# Static dielectric constant tensor:
#      x y z
#    x 4.846820 0.000000 -0.221750 
#    y 0.000000 4.856500 0.000000 
#    z -0.221750 0.000000 5.754680 
# 
# 
# High freq. dielectric constant tensor:
#      x y z
#    x 2.050700 0.000000 -0.004090 
#    y 0.000000 2.068320 0.000000 
#    z -0.004090 0.000000 2.058310 
# 
# From -- ./inp_files/271777.got.cif
#   From: 2010.06.25/outbox.cif.g09.slc.cpg/sg15_136_cif.got.tgz:271777.got - 2010.06.28 07:06:18.
