data_PCOD8144195
_publ_section_title
;
Structure prediction by ZEFSAII (Michael W. Deem and Ramdas Pophale) SiO2 
 PCOD8144195
Probable space group: C 2/C
;
_chemical_formula_sum "Si O2"
_cell_formula_units_Z 44
_cell_length_a 25.068810
_cell_length_b 10.415211
_cell_length_c 12.708171
_cell_angle_alpha 90.000000
_cell_angle_beta 142.416939
_cell_angle_gamma 90.000000
_cell_volume 2023.723799
_symmetry_space_group_name_H-M "C 2/C"
_symmetry_group_IT_number 15
_symmetry_cell_setting 'monoclinic'
loop_
_space_group_symop_operation_xyz
x,y,z
-x,y,1/2-z
-x,-y,-z
x,-y,1/2+z
1/2+x,1/2+y,z
1/2-x,1/2+y,1/2-z
1/2-x,1/2-y,-z
1/2+x,1/2-y,1/2+z
loop_
_atom_site_type_symbol
_atom_site_label
_atom_site_fract_x
_atom_site_fract_y
_atom_site_fract_z
Si Si1 0.288910 0.847075 0.422236
Si Si2 0.472554 0.140103 0.492385
Si Si3 0.938042 0.779732 0.053762
Si Si4 0.784988 0.590633 0.137078
Si Si5 0.847491 0.953158 0.440147
Si Si6 0.500000 0.269682 0.750000
O O1 0.368714 0.837704 0.463554
O O2 0.285171 0.705420 0.467105
O O3 0.310913 0.940599 0.555928
O O4 0.196059 0.886712 0.228939
O O5 0.505747 0.246912 0.461502
O O6 0.367802 0.134593 0.335474
O O7 0.512004 0.178352 0.667370
O O8 0.500000 0.000000 0.500000
O O9 0.000000 0.790773 0.250000
O O10 0.890997 0.916642 0.964406
O O11 0.733553 0.470821 0.106057
O O12 0.916095 0.860062 0.603404
#
# Coordination Sequence:
#
# PCOD8144195 Si02
#       6
#     8   8   8   8   8   4
#     4  10  21  42  64  96 137 175 224 276 345 415
#     4  12  27  46  70  99 142 189 232 285 348 424
#     4  11  23  43  73 105 134 187 234 283 353 412
#     4  10  22  41  67  93 132 182 217 276 349 407
#     4  11  24  42  70 105 140 174 232 293 348 413
#     4  12  28  46  68 108 144 178 236 296 350 404
#
# _framework density 21.742097999999999
#
# number of rings (size 3 to 8) (size 9 to 14) (size 15 to 20)
#    0.000    1.091    4.545    1.091    3.818    2.182 
#    0.000    1.818    0.000    0.000    0.000    0.000 
#    0.000    0.000    0.000    0.000    0.000    0.000 
#
# Total GULP energy -272730.938602 kJ/mol
# GULP energy per Si atom -12396.860846 kJ/mol
# Density = 2.169261 g / cm^3
# Si number density = 21.742098 Si / 1000 Ang^3
#
#
#
# Elastic Constant Matrix: (Units=GPa)
#
#
# Indices 1 2 3 4 5 6 
#
# 1 102.2224 46.1120 39.8747 0.0000 -6.7841 0.0000
# 2 46.1120 94.7244 39.4515 0.0000 -4.3359 0.0000
# 3 39.8747 39.4515 133.4161 0.0000 -8.1502 0.0000
# 4 0.0000 0.0000 0.0000 29.2110 0.0000 9.7883
# 5 -6.7841 -4.3359 -8.1502 0.0000 43.3371 0.0000
# 6 0.0000 0.0000 0.0000 9.7883 0.0000 33.1763
#
#
#
# Elastic Compliance Matrix: (Units=1/GPa)
#
#
# Indices 1 2 3 4 5 6 
#
# 1 0.013188 -0.005424 -0.002271 0.000000 0.001095 0.000000
# 2 -0.005424 0.014283 -0.002597 0.000000 0.000092 0.000000
# 3 -0.002271 -0.002597 0.009008 0.000000 0.001079 0.000000
# 4 0.000000 0.000000 0.000000 0.037990 0.000000 -0.011208
# 5 0.001095 0.000092 0.001079 0.000000 0.023458 0.000000
# 6 0.000000 0.000000 0.000000 -0.011208 0.000000 0.033449
#
#
# Mechanical properties :
#
#
# Convention : Reuss Voigt Hill
#
# Bulk Modulus (GPa) = 62.91086 64.58217 63.74652
# Shear Modulus (GPa) = 31.79507 34.80653 33.30080
#
# Velocity S-wave (km/s) = 3.82825 4.00544 3.91785
# Velocity P-wave (km/s) = 6.96696 7.15260 7.06039
#
# Compressibility (1/GPa) = 0.01589551
#
# Stress axis : x y z
#
# Youngs Moduli (GPa) = 75.82807 70.01276 111.01477
#
# Poissons Ratio (x) = 0.37975 0.25208
# Poissons Ratio (y) = 0.41129 0.28829
# Poissons Ratio (z) = 0.17218 0.18181
#
# Static dielectric constant tensor:
#      x y z
#    x 4.251100 0.000000 0.141830 
#    y 0.000000 3.844160 0.000000 
#    z 0.141830 0.000000 4.020930 
# 
# 
# High freq. dielectric constant tensor:
#      x y z
#    x 1.858390 0.000000 0.007200 
#    y 0.000000 1.843440 0.000000 
#    z 0.007200 0.000000 1.864210 
# 
# From -- ./inp_files/103873.got.cif
#   From: 2010.06.25/outbox.cif.g09.slc.cpg/sg15_52_cif.got.tgz:103873.got - 2010.06.28 07:06:18.
