data_PCOD8144373
_publ_section_title
;
Structure prediction by ZEFSAII (Michael W. Deem and Ramdas Pophale) SiO2 
 PCOD8144373
Probable space group: C 2/C
;
_chemical_formula_sum "Si O2"
_cell_formula_units_Z 52
_cell_length_a 8.999366
_cell_length_b 21.004529
_cell_length_c 15.586388
_cell_angle_alpha 90.000000
_cell_angle_beta 53.718962
_cell_angle_gamma 90.000000
_cell_volume 2375.047420
_symmetry_space_group_name_H-M "C 2/C"
_symmetry_group_IT_number 15
_symmetry_cell_setting 'monoclinic'
loop_
_space_group_symop_operation_xyz
x,y,z
-x,y,1/2-z
-x,-y,-z
x,-y,1/2+z
1/2+x,1/2+y,z
1/2-x,1/2+y,1/2-z
1/2-x,1/2-y,-z
1/2+x,1/2-y,1/2+z
loop_
_atom_site_type_symbol
_atom_site_label
_atom_site_fract_x
_atom_site_fract_y
_atom_site_fract_z
Si Si1 0.711982 0.389986 0.980674
Si Si2 0.283399 0.354277 0.328896
Si Si3 0.500000 0.073341 0.250000
Si Si4 0.133468 0.977971 0.576449
Si Si5 0.135580 0.844634 0.490025
Si Si6 0.755220 0.506378 0.713570
Si Si7 0.017087 0.268409 0.150696
O O1 0.525089 0.350776 0.025549
O O2 0.857429 0.381127 0.851733
O O3 0.781365 0.365028 0.049739
O O4 0.666467 0.465163 0.997793
O O5 0.500000 0.337993 0.250000
O O6 0.245303 0.416910 0.284333
O O7 0.168380 0.296563 0.328124
O O8 0.577228 0.025528 0.294900
O O9 0.176177 0.911769 0.518800
O O10 0.270828 0.984475 0.609775
O O11 0.926085 0.979734 0.679940
O O12 0.079839 0.791237 0.575582
O O13 0.331497 0.823692 0.385689
O O14 0.000000 0.238114 0.250000
#
# Coordination Sequence:
#
# PCOD8144373 Si02
#       7
#     8   8   4   8   8   8   8
#     4  11  24  42  68 103 141 172 224 284 346 405
#     4  11  23  46  70 100 136 178 228 282 336 400
#     4  12  26  34  60 114 136 180 216 266 360 410
#     4  10  21  42  69  93 136 176 216 286 343 401
#     4  11  25  47  67  98 133 183 226 277 334 401
#     4  10  22  38  65 102 134 175 216 276 351 396
#     4  11  28  45  71  97 129 187 234 276 326 403
#
# _framework density 21.894299
#
# number of rings (size 3 to 8) (size 9 to 14) (size 15 to 20)
#    0.000    1.231    4.615    1.385    7.538    1.846 
#    4.154    0.000    0.000    0.000    0.000    0.000 
#    0.000    0.000    0.000    0.000    0.000    0.000 
#
# Total GULP energy -322354.251058 kJ/mol
# GULP energy per Si atom -12398.240425 kJ/mol
# Density = 2.184447 g / cm^3
# Si number density = 21.894299 Si / 1000 Ang^3
#
#
#
# Elastic Constant Matrix: (Units=GPa)
#
#
# Indices 1 2 3 4 5 6 
#
# 1 106.1056 16.4310 21.1063 0.0000 -3.9003 0.0000
# 2 16.4310 56.8463 5.4402 0.0000 4.4192 0.0000
# 3 21.1063 5.4402 77.7153 0.0000 -1.9109 0.0000
# 4 0.0000 0.0000 0.0000 20.7007 0.0000 -1.9992
# 5 -3.9003 4.4192 -1.9109 0.0000 29.7667 0.0000
# 6 0.0000 0.0000 0.0000 -1.9992 0.0000 26.4174
#
#
#
# Elastic Compliance Matrix: (Units=1/GPa)
#
#
# Indices 1 2 3 4 5 6 
#
# 1 0.010450 -0.002899 -0.002595 0.000000 0.001633 0.000000
# 2 -0.002899 0.018736 -0.000603 0.000000 -0.003200 0.000000
# 3 -0.002595 -0.000603 0.013630 0.000000 0.000624 0.000000
# 4 0.000000 0.000000 0.000000 0.048663 0.000000 0.003683
# 5 0.001633 -0.003200 0.000624 0.000000 0.034324 0.000000
# 6 0.000000 0.000000 0.000000 0.003683 0.000000 0.038133
#
#
# Mechanical properties :
#
#
# Convention : Reuss Voigt Hill
#
# Bulk Modulus (GPa) = 32.65671 36.29136 34.47404
# Shear Modulus (GPa) = 26.83333 28.55627 27.69480
#
# Velocity S-wave (km/s) = 3.50463 3.61540 3.56045
# Velocity P-wave (km/s) = 5.59684 5.83437 5.71684
#
# Compressibility (1/GPa) = 0.03062157
#
# Stress axis : x y z
#
# Youngs Moduli (GPa) = 95.69656 53.37406 73.36883
#
# Poissons Ratio (x) = 0.15473 0.19038
# Poissons Ratio (y) = 0.27743 0.04423
# Poissons Ratio (z) = 0.24832 0.03218
#
# Static dielectric constant tensor:
#      x y z
#    x 4.817820 0.000000 1.013140 
#    y 0.000000 3.763370 0.000000 
#    z 1.013140 0.000000 5.512490 
# 
# 
# High freq. dielectric constant tensor:
#      x y z
#    x 1.871510 0.000000 0.007050 
#    y 0.000000 1.844590 0.000000 
#    z 0.007050 0.000000 1.869850 
# 
# From -- ./inp_files/192479.got.cif
#   From: 2010.06.25/outbox.cif.g09.slc.cpg/sg15_97_cif.got.tgz:192479.got - 2010.06.28 07:06:18.
