data_PCOD8144000
_publ_section_title
;
Structure prediction by ZEFSAII (Michael W. Deem and Ramdas Pophale) SiO2 
 PCOD8144000
Probable space group: C 2/C
;
_chemical_formula_sum "Si O2"
_cell_formula_units_Z 44
_cell_length_a 11.599755
_cell_length_b 14.281098
_cell_length_c 12.289109
_cell_angle_alpha 90.000000
_cell_angle_beta 111.303410
_cell_angle_gamma 90.000000
_cell_volume 1896.674216
_symmetry_space_group_name_H-M "C 2/C"
_symmetry_group_IT_number 15
_symmetry_cell_setting 'monoclinic'
loop_
_space_group_symop_operation_xyz
x,y,z
-x,y,1/2-z
-x,-y,-z
x,-y,1/2+z
1/2+x,1/2+y,z
1/2-x,1/2+y,1/2-z
1/2-x,1/2-y,-z
1/2+x,1/2-y,1/2+z
loop_
_atom_site_type_symbol
_atom_site_label
_atom_site_fract_x
_atom_site_fract_y
_atom_site_fract_z
Si Si1 0.927914 0.368647 0.954844
Si Si2 0.442639 0.600268 0.503693
Si Si3 0.213594 0.510950 0.949494
Si Si4 0.916608 0.735093 0.829800
Si Si5 0.320168 0.685969 0.870197
Si Si6 0.000000 0.431072 0.750000
O O1 0.829047 0.284892 0.935885
O O2 0.974609 0.368190 0.847125
O O3 0.866274 0.468089 0.968600
O O4 0.039894 0.346862 0.074779
O O5 0.500000 0.500000 0.500000
O O6 0.306290 0.576151 0.505855
O O7 0.422024 0.662380 0.387554
O O8 0.537891 0.655665 0.617328
O O9 0.281510 0.607086 0.942819
O O10 0.122023 0.491662 0.816786
O O11 0.775441 0.702954 0.759835
O O12 0.000000 0.737494 0.750000
#
# Coordination Sequence:
#
# PCOD8144000 Si02
#       6
#     8   8   8   8   8   4
#     4  11  24  43  71  98 134 183 238 284 342 422
#     4   9  22  38  64 102 145 168 227 287 345 399
#     4  11  21  42  65 100 137 179 234 285 350 409
#     4  11  21  39  73 102 136 190 237 275 338 426
#     4  10  21  41  69 101 133 182 230 276 342 415
#     4  12  26  44  68 100 138 182 228 300 348 398
#
# _framework density 23.198502000000001
#
# number of rings (size 3 to 8) (size 9 to 14) (size 15 to 20)
#    0.000    1.455    1.818    3.273    5.091    0.000 
#    0.000   11.818   10.000    0.000    0.000    0.000 
#    0.000    0.000    0.000    0.000    0.000    0.000 
#
# Total GULP energy -272541.554399 kJ/mol
# GULP energy per Si atom -12388.252473 kJ/mol
# Density = 2.314570 g / cm^3
# Si number density = 23.198502 Si / 1000 Ang^3
#
#
#
# Elastic Constant Matrix: (Units=GPa)
#
#
# Indices 1 2 3 4 5 6 
#
# 1 124.9672 57.3249 97.7460 0.0000 27.7823 0.0000
# 2 57.3249 100.2347 68.1962 0.0000 8.4919 0.0000
# 3 97.7460 68.1962 154.0778 0.0000 22.3954 0.0000
# 4 0.0000 0.0000 0.0000 38.1460 0.0000 1.0811
# 5 27.7823 8.4919 22.3954 0.0000 49.1857 0.0000
# 6 0.0000 0.0000 0.0000 1.0811 0.0000 38.7704
#
#
#
# Elastic Compliance Matrix: (Units=1/GPa)
#
#
# Indices 1 2 3 4 5 6 
#
# 1 0.017873 -0.003697 -0.008918 0.000000 -0.005397 0.000000
# 2 -0.003697 0.015049 -0.004542 0.000000 0.001558 0.000000
# 3 -0.008918 -0.004542 0.014255 0.000000 -0.000669 0.000000
# 4 0.000000 0.000000 0.000000 0.026236 0.000000 -0.000732
# 5 -0.005397 0.001558 -0.000669 0.000000 0.023415 0.000000
# 6 0.000000 0.000000 0.000000 -0.000732 0.000000 0.025813
#
#
# Mechanical properties :
#
#
# Convention : Reuss Voigt Hill
#
# Bulk Modulus (GPa) = 77.73772 91.75709 84.74741
# Shear Modulus (GPa) = 31.00905 35.62127 33.31516
#
# Velocity S-wave (km/s) = 3.66003 3.92280 3.79369
# Velocity P-wave (km/s) = 7.17242 7.75607 7.46995
#
# Compressibility (1/GPa) = 0.01286377
#
# Stress axis : x y z
#
# Youngs Moduli (GPa) = 55.95010 66.44875 70.15004
#
# Poissons Ratio (x) = 0.24567 0.62558
# Poissons Ratio (y) = 0.20686 0.31862
# Poissons Ratio (z) = 0.49895 0.30180
#
# Static dielectric constant tensor:
#      x y z
#    x 4.592200 0.000000 0.584380 
#    y 0.000000 4.418760 0.000000 
#    z 0.584380 0.000000 4.128070 
# 
# 
# High freq. dielectric constant tensor:
#      x y z
#    x 1.912970 0.000000 0.036640 
#    y 0.000000 1.933330 0.000000 
#    z 0.036640 0.000000 1.901020 
# 
# From -- ./inp_files/87969.got.cif
#   From: 2010.06.25/outbox.cif.g09.slc.cpg/sg15_44_cif.got.tgz:87969.got - 2010.06.28 07:06:18.
