data_PCOD8144678
_publ_section_title
;
Structure prediction by ZEFSAII (Michael W. Deem and Ramdas Pophale) SiO2 
 PCOD8144678
Probable space group: C 2/C
;
_chemical_formula_sum "Si O2"
_cell_formula_units_Z 56
_cell_length_a 13.699545
_cell_length_b 12.447570
_cell_length_c 18.020175
_cell_angle_alpha 90.000000
_cell_angle_beta 119.550585
_cell_angle_gamma 90.000000
_cell_volume 2673.187023
_symmetry_space_group_name_H-M "C 2/C"
_symmetry_group_IT_number 15
_symmetry_cell_setting 'monoclinic'
loop_
_space_group_symop_operation_xyz
x,y,z
-x,y,1/2-z
-x,-y,-z
x,-y,1/2+z
1/2+x,1/2+y,z
1/2-x,1/2+y,1/2-z
1/2-x,1/2-y,-z
1/2+x,1/2-y,1/2+z
loop_
_atom_site_type_symbol
_atom_site_label
_atom_site_fract_x
_atom_site_fract_y
_atom_site_fract_z
Si Si1 0.391942 0.602161 0.317268
Si Si2 0.334116 0.306852 0.948747
Si Si3 0.620078 0.685623 0.877052
Si Si4 0.056811 0.288263 0.345411
Si Si5 0.014640 0.374535 0.487735
Si Si6 0.730962 0.782897 0.651682
Si Si7 0.881963 0.134129 0.780447
O O1 0.354173 0.616921 0.387431
O O2 0.499061 0.673566 0.338715
O O3 0.290438 0.624308 0.222073
O O4 0.427584 0.479093 0.326088
O O5 0.200229 0.289419 0.905345
O O6 0.404118 0.194405 0.967683
O O7 0.366843 0.369953 0.036893
O O8 0.488595 0.715392 0.819805
O O9 0.660607 0.616401 0.820461
O O10 0.039641 0.366050 0.409018
O O11 0.188237 0.264933 0.381668
O O12 0.000000 0.339879 0.250000
O O13 0.118580 0.326649 0.572730
O O14 0.000000 0.500000 0.500000
O O15 0.711993 0.684432 0.702170
#
# Coordination Sequence:
#
# PCOD8144678 Si02
#       7
#     8   8   8   8   8   8   8
#     4  10  23  40  67  91 119 166 208 259 305 364
#     4  10  21  44  60  93 131 160 200 265 316 361
#     4  10  22  39  65  88 128 162 206 261 306 366
#     4   9  22  43  64  87 125 161 205 255 308 358
#     4  11  24  41  64  92 122 166 203 248 313 379
#     4  11  22  42  59  93 129 159 200 264 299 368
#     4  11  23  40  64  96 120 165 214 254 307 368
#
# _framework density 20.948777
#
# number of rings (size 3 to 8) (size 9 to 14) (size 15 to 20)
#    0.000    1.714    2.857    0.429    8.000    0.571 
#    5.143    1.429    0.000    0.000    0.000    0.000 
#    0.000    0.000    0.000    0.000    0.000    0.000 
#
# Total GULP energy -346956.321798 kJ/mol
# GULP energy per Si atom -12391.297207 kJ/mol
# Density = 2.090110 g / cm^3
# Si number density = 20.948777 Si / 1000 Ang^3
#
#
#
# Elastic Constant Matrix: (Units=GPa)
#
#
# Indices 1 2 3 4 5 6 
#
# 1 115.5211 36.3742 57.0205 0.0000 -13.7265 0.0000
# 2 36.3742 82.8880 42.9740 0.0000 -7.9841 0.0000
# 3 57.0205 42.9740 138.2454 0.0000 -30.9054 0.0000
# 4 0.0000 0.0000 0.0000 24.9063 0.0000 -2.6615
# 5 -13.7265 -7.9841 -30.9054 0.0000 46.8271 0.0000
# 6 0.0000 0.0000 0.0000 -2.6615 0.0000 14.9703
#
#
#
# Elastic Compliance Matrix: (Units=1/GPa)
#
#
# Indices 1 2 3 4 5 6 
#
# 1 0.011501 -0.003094 -0.003691 0.000000 0.000408 0.000000
# 2 -0.003094 0.015229 -0.003613 0.000000 -0.000695 0.000000
# 3 -0.003691 -0.003613 0.011143 0.000000 0.005657 0.000000
# 4 0.000000 0.000000 0.000000 0.040928 0.000000 0.007276
# 5 0.000408 -0.000695 0.005657 0.000000 0.025090 0.000000
# 6 0.000000 0.000000 0.000000 0.007276 0.000000 0.068092
#
#
# Mechanical properties :
#
#
# Convention : Reuss Voigt Hill
#
# Bulk Modulus (GPa) = 58.55758 67.71021 63.13390
# Shear Modulus (GPa) = 25.19261 30.69313 27.94287
#
# Velocity S-wave (km/s) = 3.47159 3.83188 3.65618
# Velocity P-wave (km/s) = 6.63948 7.20900 6.93009
#
# Compressibility (1/GPa) = 0.01707721
#
# Stress axis : x y z
#
# Youngs Moduli (GPa) = 86.95027 65.66603 89.73926
#
# Poissons Ratio (x) = 0.20319 0.33119
# Poissons Ratio (y) = 0.26905 0.32422
# Poissons Ratio (z) = 0.32089 0.23725
#
# Static dielectric constant tensor:
#      x y z
#    x 4.027250 0.000000 -0.238570 
#    y 0.000000 3.249720 0.000000 
#    z -0.238570 0.000000 4.294570 
# 
# 
# High freq. dielectric constant tensor:
#      x y z
#    x 1.841810 0.000000 -0.012330 
#    y 0.000000 1.767480 0.000000 
#    z -0.012330 0.000000 1.845620 
# 
# From -- ./inp_files/204546.got.cif
#   From: 2010.06.25/outbox.cif.g09.slc.cpg/sg15_103_cif.got.tgz:204546.got - 2010.06.28 07:06:18.
