data_PCOD8144402
_publ_section_title
;
Structure prediction by ZEFSAII (Michael W. Deem and Ramdas Pophale) SiO2 
 PCOD8144402
Probable space group: C 2/C
;
_chemical_formula_sum "Si O2"
_cell_formula_units_Z 24
_cell_length_a 13.536848
_cell_length_b 8.173552
_cell_length_c 10.433186
_cell_angle_alpha 90.000000
_cell_angle_beta 126.870091
_cell_angle_gamma 90.000000
_cell_volume 923.494302
_symmetry_space_group_name_H-M "C 2/C"
_symmetry_group_IT_number 15
_symmetry_cell_setting 'monoclinic'
loop_
_space_group_symop_operation_xyz
x,y,z
-x,y,1/2-z
-x,-y,-z
x,-y,1/2+z
1/2+x,1/2+y,z
1/2-x,1/2+y,1/2-z
1/2-x,1/2-y,-z
1/2+x,1/2-y,1/2+z
loop_
_atom_site_type_symbol
_atom_site_label
_atom_site_fract_x
_atom_site_fract_y
_atom_site_fract_z
Si Si1 0.016205 0.713839 0.622745
Si Si2 0.184745 0.555252 0.179656
Si Si3 0.082167 0.873578 0.188672
O O1 0.904399 0.582346 0.513101
O O2 0.002988 0.859411 0.506882
O O3 0.000000 0.793531 0.750000
O O4 0.145362 0.615670 0.716355
O O5 0.167236 0.708751 0.263375
O O6 0.327702 0.533896 0.247421
O O7 0.000000 0.886205 0.250000
#
# Coordination Sequence:
#
# PCOD8144402 Si02
#       3
#     8   8   8
#     4   9  20  41  66  95 132 177 212 273 341 383
#     4   9  21  39  68  96 132 173 222 266 333 399
#     4  10  21  42  70  95 129 178 221 266 332 400
#
# _framework density 25.988250000000001
#
# number of rings (size 3 to 8) (size 9 to 14) (size 15 to 20)
#    2.000    0.667    0.000    1.000    0.000    2.667 
#    0.000    5.000    0.000    2.000    0.000    0.000 
#    0.000    0.000    0.000    0.000    0.000    0.000 
#
# Total GULP energy -148733.667328 kJ/mol
# GULP energy per Si atom -12394.472277 kJ/mol
# Density = 2.592910 g / cm^3
# Si number density = 25.988250 Si / 1000 Ang^3
#
#
#
# Elastic Constant Matrix: (Units=GPa)
#
#
# Indices 1 2 3 4 5 6 
#
# 1 221.1662 58.3889 81.0185 0.0000 -12.5768 0.0000
# 2 58.3889 131.3254 2.9961 0.0000 -2.6576 0.0000
# 3 81.0185 2.9961 100.1349 0.0000 -29.5688 0.0000
# 4 0.0000 0.0000 0.0000 -40.0644 0.0000 39.7462
# 5 -12.5768 -2.6576 -29.5688 0.0000 54.2290 0.0000
# 6 0.0000 0.0000 0.0000 39.7462 0.0000 34.5929
#
#
#
# Elastic Compliance Matrix: (Units=1/GPa)
#
#
# Indices 1 2 3 4 5 6 
#
# 1 0.007780 -0.003346 -0.006807 0.000000 -0.002071 0.000000
# 2 -0.003346 0.009063 0.002787 0.000000 0.001188 0.000000
# 3 -0.006807 0.002787 0.017860 0.000000 0.008296 0.000000
# 4 0.000000 0.000000 0.000000 -0.011664 0.000000 0.013402
# 5 -0.002071 0.001188 0.008296 0.000000 0.022542 0.000000
# 6 0.000000 0.000000 0.000000 0.013402 0.000000 0.013509
#
#
# Mechanical properties :
#
#
# Convention : Reuss Voigt Hill
#
# Bulk Modulus (GPa) = 50.07048 81.93706 66.00377
# Shear Modulus (GPa) = 62.12808 30.43301 46.28055
#
# Velocity S-wave (km/s) = 4.89470 3.42574 4.22456
# Velocity P-wave (km/s) = 7.15909 6.87347 7.01773
#
# Compressibility (1/GPa) = 0.01997185
#
# Stress axis : x y z
#
# Youngs Moduli (GPa) = 128.52730 110.34167 55.99077
#
# Poissons Ratio (x) = 0.36919 0.38110
# Poissons Ratio (y) = 0.43004 -0.15603
# Poissons Ratio (z) = 0.87482 -0.30749
#
# Static dielectric constant tensor:
#      x y z
#    x 4.347680 0.000000 0.264130 
#    y 0.000000 4.749230 0.000000 
#    z 0.264130 0.000000 4.197410 
# 
# 
# High freq. dielectric constant tensor:
#      x y z
#    x 2.031620 0.000000 0.025240 
#    y 0.000000 2.077580 0.000000 
#    z 0.025240 0.000000 2.014290 
# 
# From -- ./inp_files/83414.got.cif
#   From: 2010.06.25/outbox.cif.g09.slc.cpg/sg15_42_cif.got.tgz:83414.got - 2010.06.28 07:06:18.
