data_PCOD8144123
_publ_section_title
;
Structure prediction by ZEFSAII (Michael W. Deem and Ramdas Pophale) SiO2 
 PCOD8144123
Probable space group: C 2/C
;
_chemical_formula_sum "Si O2"
_cell_formula_units_Z 60
_cell_length_a 8.554765
_cell_length_b 27.775689
_cell_length_c 11.258737
_cell_angle_alpha 90.000000
_cell_angle_beta 98.821845
_cell_angle_gamma 90.000000
_cell_volume 2643.590945
_symmetry_space_group_name_H-M "C 2/C"
_symmetry_group_IT_number 15
_symmetry_cell_setting 'monoclinic'
loop_
_space_group_symop_operation_xyz
x,y,z
-x,y,1/2-z
-x,-y,-z
x,-y,1/2+z
1/2+x,1/2+y,z
1/2-x,1/2+y,1/2-z
1/2-x,1/2-y,-z
1/2+x,1/2-y,1/2+z
loop_
_atom_site_type_symbol
_atom_site_label
_atom_site_fract_x
_atom_site_fract_y
_atom_site_fract_z
Si Si1 0.329676 0.632703 0.056547
Si Si2 0.338676 0.729940 0.683705
Si Si3 0.372117 0.311280 0.926509
Si Si4 0.264186 0.055055 0.796992
Si Si5 0.835392 0.654128 0.696748
Si Si6 0.831067 0.613169 0.213143
Si Si7 0.989062 0.049186 0.933488
Si Si8 0.500000 0.020598 0.250000
O O1 0.189445 0.645600 0.947211
O O2 0.440810 0.591418 0.016404
O O3 0.445589 0.678756 0.089753
O O4 0.260028 0.614252 0.171633
O O5 0.500000 0.754401 0.750000
O O6 0.361414 0.705159 0.559936
O O7 0.201373 0.770031 0.666509
O O8 0.304503 0.688109 0.774657
O O9 0.269477 0.360063 0.898808
O O10 0.343976 0.105261 0.773341
O O11 0.143626 0.040616 0.680095
O O12 0.163080 0.061582 0.904265
O O13 0.402207 0.014274 0.828474
O O14 0.000000 0.680295 0.750000
O O15 0.000000 0.640064 0.250000
O O16 0.869409 0.557453 0.176094
O O17 0.000000 0.000000 0.000000
#
# Coordination Sequence:
#
# PCOD8144123 Si02
#       8
#     8   8   8   8   8   8   8   4
#     4  11  23  45  66 100 137 186 236 288 351 419
#     4  11  24  47  74 107 139 177 236 283 360 417
#     4  11  24  45  76 101 139 185 225 296 346 428
#     4  10  21  42  62  93 139 174 238 282 348 405
#     4  11  24  42  68  99 136 181 229 292 342 413
#     4  10  25  42  68  98 143 189 236 279 357 418
#     4  10  22  37  65  95 126 180 229 289 340 412
#     4  10  22  42  62  98 146 194 226 298 334 428
#
# _framework density 22.696401000000002
#
# number of rings (size 3 to 8) (size 9 to 14) (size 15 to 20)
#    0.400    1.067    2.000    2.400    5.600    1.067 
#    2.400    3.333    0.000    0.000    0.000    0.000 
#    0.000    0.000    0.000    0.000    0.000    0.000 
#
# Total GULP energy -371807.733888 kJ/mol
# GULP energy per Si atom -12393.591130 kJ/mol
# Density = 2.264474 g / cm^3
# Si number density = 22.696401 Si / 1000 Ang^3
#
#
#
# Elastic Constant Matrix: (Units=GPa)
#
#
# Indices 1 2 3 4 5 6 
#
# 1 134.2291 42.8715 45.7299 0.0000 -4.3231 0.0000
# 2 42.8715 103.1247 34.3786 0.0000 3.0831 0.0000
# 3 45.7299 34.3786 83.7061 0.0000 -3.0306 0.0000
# 4 0.0000 0.0000 0.0000 19.6383 0.0000 7.9197
# 5 -4.3231 3.0831 -3.0306 0.0000 35.2076 0.0000
# 6 0.0000 0.0000 0.0000 7.9197 0.0000 46.1503
#
#
#
# Elastic Compliance Matrix: (Units=1/GPa)
#
#
# Indices 1 2 3 4 5 6 
#
# 1 0.009775 -0.002698 -0.004193 0.000000 0.001076 0.000000
# 2 -0.002698 0.012048 -0.003535 0.000000 -0.001691 0.000000
# 3 -0.004193 -0.003535 0.015731 0.000000 0.001149 0.000000
# 4 0.000000 0.000000 0.000000 0.054707 0.000000 -0.009388
# 5 0.001076 -0.001691 0.001149 0.000000 0.028782 0.000000
# 6 0.000000 0.000000 0.000000 -0.009388 0.000000 0.023279
#
#
# Mechanical properties :
#
#
# Convention : Reuss Voigt Hill
#
# Bulk Modulus (GPa) = 59.87807 63.00223 61.44015
# Shear Modulus (GPa) = 29.28404 33.40456 31.34430
#
# Velocity S-wave (km/s) = 3.59590 3.84057 3.72025
# Velocity P-wave (km/s) = 6.60910 6.89098 6.75151
#
# Compressibility (1/GPa) = 0.01670061
#
# Stress axis : x y z
#
# Youngs Moduli (GPa) = 102.30357 83.00327 63.56904
#
# Poissons Ratio (x) = 0.22394 0.26655
# Poissons Ratio (y) = 0.27601 0.22474
# Poissons Ratio (z) = 0.42897 0.29345
#
# Static dielectric constant tensor:
#      x y z
#    x 5.182430 0.000000 -0.157940 
#    y 0.000000 4.074560 0.000000 
#    z -0.157940 0.000000 3.826270 
# 
# 
# High freq. dielectric constant tensor:
#      x y z
#    x 1.909800 0.000000 0.004560 
#    y 0.000000 1.897680 0.000000 
#    z 0.004560 0.000000 1.877160 
# 
# From -- ./inp_files/81379.got.cif
#   From: 2010.06.25/outbox.cif.g09.slc.cpg/sg15_41_cif.got.tgz:81379.got - 2010.06.28 07:06:18.
