data_PCOD8144060
_publ_section_title
;
Structure prediction by ZEFSAII (Michael W. Deem and Ramdas Pophale) SiO2 
 PCOD8144060
Probable space group: C 2/C
;
_chemical_formula_sum "Si O2"
_cell_formula_units_Z 64
_cell_length_a 20.571336
_cell_length_b 11.558101
_cell_length_c 20.749223
_cell_angle_alpha 90.000000
_cell_angle_beta 144.705030
_cell_angle_gamma 90.000000
_cell_volume 2850.478802
_symmetry_space_group_name_H-M "C 2/C"
_symmetry_group_IT_number 15
_symmetry_cell_setting 'monoclinic'
loop_
_space_group_symop_operation_xyz
x,y,z
-x,y,1/2-z
-x,-y,-z
x,-y,1/2+z
1/2+x,1/2+y,z
1/2-x,1/2+y,1/2-z
1/2-x,1/2-y,-z
1/2+x,1/2-y,1/2+z
loop_
_atom_site_type_symbol
_atom_site_label
_atom_site_fract_x
_atom_site_fract_y
_atom_site_fract_z
Si Si1 0.568872 0.720329 0.740541
Si Si2 0.908808 0.342721 0.126943
Si Si3 0.390483 0.371129 0.903463
Si Si4 0.997986 0.012397 0.602061
Si Si5 0.218820 0.555586 0.765499
Si Si6 0.294983 0.851348 0.376693
Si Si7 0.510860 0.046422 0.387468
Si Si8 0.806097 0.152624 0.961106
O O1 0.500000 0.740668 0.750000
O O2 0.541063 0.591174 0.694553
O O3 0.706545 0.712635 0.853958
O O4 0.532091 0.825465 0.665194
O O5 0.955149 0.469446 0.146298
O O6 0.793076 0.362441 0.069252
O O7 0.000000 0.284605 0.250000
O O8 0.883090 0.264121 0.042617
O O9 0.425071 0.402052 0.857519
O O10 0.277606 0.436793 0.834217
O O11 0.372266 0.236066 0.898031
O O12 0.491320 0.406884 0.033091
O O13 0.879261 0.962609 0.529403
O O14 0.267782 0.584030 0.733437
O O15 0.254731 0.656050 0.846355
O O16 0.085637 0.528113 0.654701
O O17 0.376375 0.939848 0.479152
#
# Coordination Sequence:
#
# PCOD8144060 Si02
#       8
#     8   8   8   8   8   8   8   8
#     4  12  27  44  69 103 143 189 239 293 358 437
#     4  11  24  48  71 106 144 186 240 296 356 436
#     4  10  21  41  71  91 136 176 227 294 356 420
#     4  10  22  44  66 100 131 179 228 290 356 421
#     4  11  23  45  69 103 139 186 237 302 363 421
#     4  12  26  44  68 105 142 188 250 300 360 433
#     4  12  26  45  71 104 146 193 243 300 363 425
#     4  10  25  44  75 100 139 190 237 288 367 427
#
# _framework density 22.452368
#
# number of rings (size 3 to 8) (size 9 to 14) (size 15 to 20)
#    0.000    1.000    5.000    0.750    3.500    2.000 
#    2.250    0.000    0.000    0.000    0.000    0.000 
#    0.000    0.000    0.000    0.000    0.000    0.000 
#
# Total GULP energy -396499.078157 kJ/mol
# GULP energy per Si atom -12390.596192 kJ/mol
# Density = 2.240127 g / cm^3
# Si number density = 22.452368 Si / 1000 Ang^3
#
#
#
# Elastic Constant Matrix: (Units=GPa)
#
#
# Indices 1 2 3 4 5 6 
#
# 1 97.3959 24.4292 29.9582 0.0000 3.6331 0.0000
# 2 24.4292 70.1286 27.3370 0.0000 0.5644 0.0000
# 3 29.9582 27.3370 108.3018 0.0000 -1.9283 0.0000
# 4 0.0000 0.0000 0.0000 32.7442 0.0000 4.4301
# 5 3.6331 0.5644 -1.9283 0.0000 32.0683 0.0000
# 6 0.0000 0.0000 0.0000 4.4301 0.0000 22.9339
#
#
#
# Elastic Compliance Matrix: (Units=1/GPa)
#
#
# Indices 1 2 3 4 5 6 
#
# 1 0.011885 -0.003147 -0.002519 0.000000 -0.001443 0.000000
# 2 -0.003147 0.016657 -0.003337 0.000000 -0.000137 0.000000
# 3 -0.002519 -0.003337 0.010790 0.000000 0.000993 0.000000
# 4 0.000000 0.000000 0.000000 0.031359 0.000000 -0.006058
# 5 -0.001443 -0.000137 0.000993 0.000000 0.031409 0.000000
# 6 0.000000 0.000000 0.000000 -0.006058 0.000000 0.044774
#
#
# Mechanical properties :
#
#
# Convention : Reuss Voigt Hill
#
# Bulk Modulus (GPa) = 46.88638 48.80836 47.84737
# Shear Modulus (GPa) = 29.07161 30.48939 29.78050
#
# Velocity S-wave (km/s) = 3.60225 3.68905 3.64591
# Velocity P-wave (km/s) = 6.18301 6.31912 6.25143
#
# Compressibility (1/GPa) = 0.02132815
#
# Stress axis : x y z
#
# Youngs Moduli (GPa) = 84.13754 60.03340 92.67682
#
# Poissons Ratio (x) = 0.18890 0.23346
# Poissons Ratio (y) = 0.26475 0.30923
# Poissons Ratio (z) = 0.21195 0.20031
#
# Static dielectric constant tensor:
#      x y z
#    x 4.016210 0.000000 0.130170 
#    y 0.000000 4.012770 0.000000 
#    z 0.130170 0.000000 4.139090 
# 
# 
# High freq. dielectric constant tensor:
#      x y z
#    x 1.888920 0.000000 0.019110 
#    y 0.000000 1.877510 0.000000 
#    z 0.019110 0.000000 1.880530 
# 
# From -- ./inp_files/252585.got.cif
#   From: 2010.06.25/outbox.cif.g09.slc.cpg/sg15_127_cif.got.tgz:252585.got - 2010.06.28 07:06:18.
