data_PCOD8144223
_publ_section_title
;
Structure prediction by ZEFSAII (Michael W. Deem and Ramdas Pophale) SiO2 
 PCOD8144223
Probable space group: C 2/C
;
_chemical_formula_sum "Si O2"
_cell_formula_units_Z 36
_cell_length_a 11.763576
_cell_length_b 12.001705
_cell_length_c 22.880205
_cell_angle_alpha 90.000000
_cell_angle_beta 149.302830
_cell_angle_gamma 90.000000
_cell_volume 1649.067179
_symmetry_space_group_name_H-M "C 2/C"
_symmetry_group_IT_number 15
_symmetry_cell_setting 'monoclinic'
loop_
_space_group_symop_operation_xyz
x,y,z
-x,y,1/2-z
-x,-y,-z
x,-y,1/2+z
1/2+x,1/2+y,z
1/2-x,1/2+y,1/2-z
1/2-x,1/2-y,-z
1/2+x,1/2-y,1/2+z
loop_
_atom_site_type_symbol
_atom_site_label
_atom_site_fract_x
_atom_site_fract_y
_atom_site_fract_z
Si Si1 0.147891 0.987297 0.366311
Si Si2 0.500000 0.043443 0.750000
Si Si3 0.692064 0.408195 0.701367
Si Si4 0.932438 0.343399 0.920542
Si Si5 0.923591 0.125910 0.979830
O O1 0.338192 0.910485 0.477024
O O2 0.000000 0.928479 0.250000
O O3 0.256434 0.101181 0.387977
O O4 0.976476 0.006577 0.342780
O O5 0.654916 0.122541 0.858934
O O6 0.364332 0.969392 0.735440
O O7 0.829157 0.338687 0.809773
O O8 0.529792 0.333018 0.588352
O O9 0.995848 0.216914 0.964033
O O10 0.000000 0.000000 0.000000
#
# Coordination Sequence:
#
# PCOD8144223 Si02
#       5
#     8   4   8   8   8
#     4   9  20  40  67  97 128 162 215 267 322 379
#     4  10  22  42  64  90 140 168 212 262 316 392
#     4  10  21  42  65  95 130 172 213 260 324 376
#     4  10  21  42  67  97 128 165 216 269 318 382
#     4  10  23  43  63  95 130 172 212 260 324 382
#
# _framework density 21.830524
#
# number of rings (size 3 to 8) (size 9 to 14) (size 15 to 20)
#    0.000    2.222    0.000    1.333    4.667    0.889 
#   32.000    8.889    0.000    0.000    0.000    0.000 
#    0.000    0.000    0.000    0.000    0.000    0.000 
#
# Total GULP energy -223004.639097 kJ/mol
# GULP energy per Si atom -12389.146617 kJ/mol
# Density = 2.178084 g / cm^3
# Si number density = 21.830524 Si / 1000 Ang^3
#
#
#
# Elastic Constant Matrix: (Units=GPa)
#
#
# Indices 1 2 3 4 5 6 
#
# 1 141.5571 40.6398 66.1196 -0.0001 -4.4672 0.0000
# 2 40.6398 102.0610 61.5427 -0.0005 -18.6104 -0.0001
# 3 66.1196 61.5427 229.4302 -0.0034 -41.4875 -0.0007
# 4 -0.0001 -0.0005 -0.0034 8.9024 -0.0003 -6.8385
# 5 -4.4672 -18.6104 -41.4875 -0.0003 47.8281 0.0000
# 6 0.0000 -0.0001 -0.0007 -6.8385 0.0000 12.4641
#
#
#
# Elastic Compliance Matrix: (Units=1/GPa)
#
#
# Indices 1 2 3 4 5 6 
#
# 1 0.008764 -0.002530 -0.002226 -0.000002 -0.002097 -0.000001
# 2 -0.002530 0.012612 -0.002146 0.000000 0.002810 0.000000
# 3 -0.002226 -0.002146 0.006390 0.000005 0.004500 0.000003
# 4 -0.000002 0.000000 0.000005 0.194163 0.000005 0.106529
# 5 -0.002097 0.002810 0.004500 0.000005 0.025709 0.000003
# 6 -0.000001 0.000000 0.000003 0.106529 0.000003 0.138679
#
#
# Mechanical properties :
#
#
# Convention : Reuss Voigt Hill
#
# Bulk Modulus (GPa) = 71.62566 89.96138 80.79352
# Shear Modulus (GPa) = 12.35259 34.15532 23.25395
#
# Velocity S-wave (km/s) = 2.38132 3.95975 3.26729
# Velocity P-wave (km/s) = 6.35940 7.88699 7.16403
#
# Compressibility (1/GPa) = 0.01396148
#
# Stress axis : x y z
#
# Youngs Moduli (GPa) = 114.09924 79.29168 156.50656
#
# Poissons Ratio (x) = 0.20059 0.34845
# Poissons Ratio (y) = 0.28864 0.33584
# Poissons Ratio (z) = 0.25403 0.17015
#
# Static dielectric constant tensor:
#      x y z
#    x 3.862790 0.000000 -0.254100 
#    y 0.000000 3.507560 0.000000 
#    z -0.254100 0.000000 5.136620 
# 
# 
# High freq. dielectric constant tensor:
#      x y z
#    x 1.849300 0.000000 -0.005330 
#    y 0.000000 1.818840 0.000000 
#    z -0.005330 0.000000 1.904240 
# 
# From -- ./inp_files/84390.got.cif
#   From: 2010.06.25/outbox.cif.g09.slc.cpg/sg15_43_cif.got.tgz:84390.got - 2010.06.28 07:06:18.
