data_PCOD8144116
_publ_section_title
;
Structure prediction by ZEFSAII (Michael W. Deem and Ramdas Pophale) SiO2 
 PCOD8144116
Probable space group: C 2/C
;
_chemical_formula_sum "Si O2"
_cell_formula_units_Z 56
_cell_length_a 10.781853
_cell_length_b 28.383798
_cell_length_c 13.890771
_cell_angle_alpha 90.000000
_cell_angle_beta 138.321228
_cell_angle_gamma 90.000000
_cell_volume 2826.712632
_symmetry_space_group_name_H-M "C 2/C"
_symmetry_group_IT_number 15
_symmetry_cell_setting 'monoclinic'
loop_
_space_group_symop_operation_xyz
x,y,z
-x,y,1/2-z
-x,-y,-z
x,-y,1/2+z
1/2+x,1/2+y,z
1/2-x,1/2+y,1/2-z
1/2-x,1/2-y,-z
1/2+x,1/2-y,1/2+z
loop_
_atom_site_type_symbol
_atom_site_label
_atom_site_fract_x
_atom_site_fract_y
_atom_site_fract_z
Si Si1 0.447912 0.878649 0.492903
Si Si2 0.432807 0.638682 0.486461
Si Si3 0.891575 0.968445 0.511660
Si Si4 0.177578 0.614585 0.794826
Si Si5 0.864210 0.109906 0.250751
Si Si6 0.653200 0.439073 0.421641
Si Si7 0.650714 0.799157 0.923577
O O1 0.347789 0.883608 0.333598
O O2 0.656670 0.896644 0.590213
O O3 0.348919 0.914340 0.509125
O O4 0.436723 0.825414 0.532805
O O5 0.649366 0.650443 0.589543
O O6 0.331091 0.642784 0.324704
O O7 0.426870 0.585329 0.526742
O O8 0.335798 0.672393 0.504418
O O9 0.730427 0.936995 0.368326
O O10 0.036432 0.938077 0.658413
O O11 0.798975 0.006098 0.531860
O O12 0.000000 0.000000 0.500000
O O13 0.000000 0.634289 0.750000
O O14 0.000000 0.133830 0.250000
O O15 0.500000 0.432190 0.250000
O O16 0.500000 0.796197 0.750000
O O17 0.750000 0.750000 0.000000
#
# Coordination Sequence:
#
# PCOD8144116 Si02
#       7
#     8   8   8   8   8   8   8
#     4  11  23  41  66  94 124 174 212 255 341 380
#     4  10  21  42  62  88 129 164 203 257 326 382
#     4  11  21  38  56  83 130 166 222 277 308 355
#     4  11  23  39  60  89 125 177 221 256 307 379
#     4  11  22  39  61  83 123 175 214 256 309 377
#     4  11  20  37  61  86 122 169 217 275 323 359
#     4  11  25  42  73 107 126 150 202 270 328 392
#
# _framework density 19.810998999999999
#
# number of rings (size 3 to 8) (size 9 to 14) (size 15 to 20)
#    0.000    1.143    5.714    2.143    2.000    1.143 
#    0.000    2.857    0.000    5.143    0.000    0.000 
#    0.000    0.000    0.000    0.000    0.000    0.000 
#
# Total GULP energy -346923.768013 kJ/mol
# GULP energy per Si atom -12390.134572 kJ/mol
# Density = 1.976591 g / cm^3
# Si number density = 19.810999 Si / 1000 Ang^3
#
#
#
# Elastic Constant Matrix: (Units=GPa)
#
#
# Indices 1 2 3 4 5 6 
#
# 1 101.6469 25.6303 25.0663 0.0000 10.9867 0.0000
# 2 25.6303 93.9023 35.7219 0.0000 1.6093 0.0000
# 3 25.0663 35.7219 95.8346 0.0000 2.8287 0.0000
# 4 0.0000 0.0000 0.0000 24.0311 0.0000 -1.3479
# 5 10.9867 1.6093 2.8287 0.0000 44.2749 0.0000
# 6 0.0000 0.0000 0.0000 -1.3479 0.0000 18.8780
#
#
#
# Elastic Compliance Matrix: (Units=1/GPa)
#
#
# Indices 1 2 3 4 5 6 
#
# 1 0.011176 -0.002241 -0.002012 0.000000 -0.002563 0.000000
# 2 -0.002241 0.012859 -0.004218 0.000000 0.000358 0.000000
# 3 -0.002012 -0.004218 0.012537 0.000000 -0.000148 0.000000
# 4 0.000000 0.000000 0.000000 0.041780 0.000000 0.002983
# 5 -0.002563 0.000358 -0.000148 0.000000 0.023219 0.000000
# 6 0.000000 0.000000 0.000000 0.002983 0.000000 0.053185
#
#
# Mechanical properties :
#
#
# Convention : Reuss Voigt Hill
#
# Bulk Modulus (GPa) = 50.93944 51.58009 51.25976
# Shear Modulus (GPa) = 28.05164 31.10114 29.57639
#
# Velocity S-wave (km/s) = 3.76701 3.96649 3.86803
# Velocity P-wave (km/s) = 6.68498 6.86075 6.77344
#
# Compressibility (1/GPa) = 0.01963116
#
# Stress axis : x y z
#
# Youngs Moduli (GPa) = 89.47450 77.76407 79.76105
#
# Poissons Ratio (x) = 0.17428 0.16050
# Poissons Ratio (y) = 0.20052 0.33641
# Poissons Ratio (z) = 0.18004 0.32798
#
# Static dielectric constant tensor:
#      x y z
#    x 3.844360 0.000000 -0.120730 
#    y 0.000000 3.544530 0.000000 
#    z -0.120730 0.000000 3.724150 
# 
# 
# High freq. dielectric constant tensor:
#      x y z
#    x 1.789500 0.000000 -0.004400 
#    y 0.000000 1.731570 0.000000 
#    z -0.004400 0.000000 1.786130 
# 
# From -- ./inp_files/148578.got.cif
#   From: 2010.06.25/outbox.cif.g09.slc.cpg/sg15_75_cif.got.tgz:148578.got - 2010.06.28 07:06:18.
