data_PCOD8144903
_publ_section_title
;
Structure prediction by ZEFSAII (Michael W. Deem and Ramdas Pophale) SiO2 
 PCOD8144903
Probable space group: C 2/C
;
_chemical_formula_sum "Si O2"
_cell_formula_units_Z 56
_cell_length_a 18.183548
_cell_length_b 18.675526
_cell_length_c 9.284793
_cell_angle_alpha 90.000000
_cell_angle_beta 63.071647
_cell_angle_gamma 90.000000
_cell_volume 2811.129565
_symmetry_space_group_name_H-M "C 2/C"
_symmetry_group_IT_number 15
_symmetry_cell_setting 'monoclinic'
loop_
_space_group_symop_operation_xyz
x,y,z
-x,y,1/2-z
-x,-y,-z
x,-y,1/2+z
1/2+x,1/2+y,z
1/2-x,1/2+y,1/2-z
1/2-x,1/2-y,-z
1/2+x,1/2-y,1/2+z
loop_
_atom_site_type_symbol
_atom_site_label
_atom_site_fract_x
_atom_site_fract_y
_atom_site_fract_z
Si Si1 0.000000 0.292417 0.250000
Si Si2 0.699413 0.349009 0.453232
Si Si3 0.500000 0.336228 0.250000
Si Si4 0.165923 0.910353 0.187256
Si Si5 0.414403 0.555863 0.265998
Si Si6 0.840824 0.684014 0.035936
Si Si7 0.582114 0.308018 0.902763
Si Si8 0.252989 0.316000 0.607933
O O1 0.054853 0.242974 0.301602
O O2 0.934425 0.338264 0.403886
O O3 0.716383 0.379276 0.278376
O O4 0.621891 0.393153 0.579419
O O5 0.778532 0.359253 0.486659
O O6 0.669297 0.268297 0.473801
O O7 0.573683 0.380812 0.255387
O O8 0.463535 0.286510 0.408761
O O9 0.153773 0.995765 0.211293
O O10 0.220329 0.888228 0.999519
O O11 0.500000 0.522275 0.250000
O O12 0.433165 0.606831 0.112000
O O13 0.827381 0.668178 0.220361
O O14 0.679624 0.294656 0.831038
O O15 0.250000 0.250000 0.500000
#
# Coordination Sequence:
#
# PCOD8144903 Si02
#       8
#     4   8   4   8   8   8   8   8
#     4  12  22  37  66  90 112 165 214 262 308 358
#     4  11  22  37  60  84 122 166 210 247 296 370
#     4  10  22  33  46  82 124 159 196 232 282 344
#     4  11  24  35  56  85 122 172 200 243 299 361
#     4  12  22  36  59  91 134 169 206 239 293 383
#     4  11  21  41  60  86 115 159 218 265 305 360
#     4  11  22  37  56  87 125 164 204 244 301 364
#     4  11  23  40  58  84 126 165 207 259 311 362
#
# _framework density 19.920818000000001
#
# number of rings (size 3 to 8) (size 9 to 14) (size 15 to 20)
#    0.000    0.857    5.714    2.571    6.000    1.143 
#    0.000    0.000    0.000    0.000    0.000    4.000 
#    0.000    0.000    0.000    0.000    0.000    0.000 
#
# Total GULP energy -347045.296866 kJ/mol
# GULP energy per Si atom -12394.474888 kJ/mol
# Density = 1.987548 g / cm^3
# Si number density = 19.920818 Si / 1000 Ang^3
#
#
#
# Elastic Constant Matrix: (Units=GPa)
#
#
# Indices 1 2 3 4 5 6 
#
# 1 73.3074 29.7227 52.0098 0.0000 1.6588 0.0000
# 2 29.7227 46.1890 21.1641 0.0000 0.2178 0.0000
# 3 52.0098 21.1641 152.9077 0.0000 -14.5864 0.0000
# 4 0.0000 0.0000 0.0000 14.6572 0.0000 -7.1254
# 5 1.6588 0.2178 -14.5864 0.0000 40.6530 0.0000
# 6 0.0000 0.0000 0.0000 -7.1254 0.0000 15.1122
#
#
#
# Elastic Compliance Matrix: (Units=1/GPa)
#
#
# Indices 1 2 3 4 5 6 
#
# 1 0.023186 -0.011905 -0.006547 0.000000 -0.003231 0.000000
# 2 -0.011905 0.029297 0.000027 0.000000 0.000338 0.000000
# 3 -0.006547 0.000027 0.009100 0.000000 0.003532 0.000000
# 4 0.000000 0.000000 0.000000 0.088514 0.000000 0.041734
# 5 -0.003231 0.000338 0.003532 0.000000 0.025996 0.000000
# 6 0.000000 0.000000 0.000000 0.041734 0.000000 0.085850
#
#
# Mechanical properties :
#
#
# Convention : Reuss Voigt Hill
#
# Bulk Modulus (GPa) = 40.43265 53.13302 46.78284
# Shear Modulus (GPa) = 16.28459 25.38498 20.83479
#
# Velocity S-wave (km/s) = 2.86224 3.57360 3.23752
# Velocity P-wave (km/s) = 5.59142 6.61494 6.12460
#
# Compressibility (1/GPa) = 0.02473249
#
# Stress axis : x y z
#
# Youngs Moduli (GPa) = 43.12903 34.13271 109.88982
#
# Poissons Ratio (x) = 0.40636 0.71944
# Poissons Ratio (y) = 0.51346 -0.00293
# Poissons Ratio (z) = 0.28236 -0.00091
#
# Static dielectric constant tensor:
#      x y z
#    x 4.611740 0.000000 -0.129130 
#    y 0.000000 3.291510 0.000000 
#    z -0.129130 0.000000 4.111330 
# 
# 
# High freq. dielectric constant tensor:
#      x y z
#    x 1.763050 0.000000 0.006700 
#    y 0.000000 1.722880 0.000000 
#    z 0.006700 0.000000 1.806190 
# 
# From -- ./inp_files/49067.got.cif
#   From: 2010.06.25/outbox.cif.g09.slc.cpg/sg15_25_cif.got.tgz:49067.got - 2010.06.28 07:06:18.
