data_PCOD8144696
_publ_section_title
;
Structure prediction by ZEFSAII (Michael W. Deem and Ramdas Pophale) SiO2 
 PCOD8144696
Probable space group: C 2/C
;
_chemical_formula_sum "Si O2"
_cell_formula_units_Z 56
_cell_length_a 6.178754
_cell_length_b 22.746592
_cell_length_c 19.253114
_cell_angle_alpha 90.000000
_cell_angle_beta 66.851680
_cell_angle_gamma 90.000000
_cell_volume 2488.085927
_symmetry_space_group_name_H-M "C 2/C"
_symmetry_group_IT_number 15
_symmetry_cell_setting 'monoclinic'
loop_
_space_group_symop_operation_xyz
x,y,z
-x,y,1/2-z
-x,-y,-z
x,-y,1/2+z
1/2+x,1/2+y,z
1/2-x,1/2+y,1/2-z
1/2-x,1/2-y,-z
1/2+x,1/2-y,1/2+z
loop_
_atom_site_type_symbol
_atom_site_label
_atom_site_fract_x
_atom_site_fract_y
_atom_site_fract_z
Si Si1 0.161075 0.169301 0.370772
Si Si2 0.000000 0.336583 0.250000
Si Si3 0.465225 0.918965 0.629253
Si Si4 0.465393 0.401993 0.176879
Si Si5 0.000000 0.880635 0.750000
Si Si6 0.649115 0.801973 0.377750
Si Si7 0.184814 0.975394 0.422868
Si Si8 0.306490 0.125709 0.003442
O O1 0.400075 0.134244 0.351314
O O2 0.074663 0.162754 0.302668
O O3 0.228334 0.235697 0.383698
O O4 0.959887 0.144037 0.446779
O O5 0.793556 0.378063 0.301597
O O6 0.927795 0.297937 0.192978
O O7 0.435892 0.904839 0.551777
O O8 0.212196 0.923511 0.698974
O O9 0.613469 0.978217 0.622981
O O10 0.500000 0.426319 0.250000
O O11 0.645231 0.349435 0.136688
O O12 0.477633 0.457092 0.122688
O O13 0.443732 0.817109 0.458391
O O14 0.316332 0.919696 0.438644
O O15 0.000000 0.000000 0.500000
#
# Coordination Sequence:
#
# PCOD8144696 Si02
#       8
#     8   4   8   8   4   8   8   8
#     4  11  24  45  68 104 139 181 226 284 352 412
#     4  10  21  44  64  98 132 182 227 280 344 394
#     4  11  25  45  70 102 136 187 227 288 351 408
#     4  10  24  44  67 103 133 180 232 286 345 407
#     4  10  25  48  66 104 138 180 241 278 354 426
#     4  11  23  41  72 101 140 177 230 287 344 419
#     4  12  23  48  73  96 140 181 232 288 346 413
#     4  11  24  44  69 103 134 181 233 281 349 411
#
# _framework density 22.507261
#
# number of rings (size 3 to 8) (size 9 to 14) (size 15 to 20)
#    0.000    1.143    2.857    2.571    0.000    6.286 
#    3.857    0.000    0.000    0.000    0.000    0.000 
#    0.000    0.000    0.000    0.000    0.000    0.000 
#
# Total GULP energy -347268.733230 kJ/mol
# GULP energy per Si atom -12402.454758 kJ/mol
# Density = 2.245603 g / cm^3
# Si number density = 22.507261 Si / 1000 Ang^3
#
#
#
# Elastic Constant Matrix: (Units=GPa)
#
#
# Indices 1 2 3 4 5 6 
#
# 1 118.6691 58.8224 50.1254 0.0000 -4.1782 0.0000
# 2 58.8224 141.0389 67.1107 0.0000 8.4434 0.0000
# 3 50.1254 67.1107 111.7808 0.0000 -6.7303 0.0000
# 4 0.0000 0.0000 0.0000 25.5692 0.0000 4.6962
# 5 -4.1782 8.4434 -6.7303 0.0000 41.0936 0.0000
# 6 0.0000 0.0000 0.0000 4.6962 0.0000 22.2743
#
#
#
# Elastic Compliance Matrix: (Units=1/GPa)
#
#
# Indices 1 2 3 4 5 6 
#
# 1 0.011438 -0.003432 -0.002985 0.000000 0.001379 0.000000
# 2 -0.003432 0.011348 -0.005490 0.000000 -0.003580 0.000000
# 3 -0.002985 -0.005490 0.013766 0.000000 0.003079 0.000000
# 4 0.000000 0.000000 0.000000 0.040685 0.000000 -0.008578
# 5 0.001379 -0.003580 0.003079 0.000000 0.025715 0.000000
# 6 0.000000 0.000000 0.000000 -0.008578 0.000000 0.046703
#
#
# Mechanical properties :
#
#
# Convention : Reuss Voigt Hill
#
# Bulk Modulus (GPa) = 78.50827 80.40065 79.45446
# Shear Modulus (GPa) = 28.13497 30.81611 29.47554
#
# Velocity S-wave (km/s) = 3.53943 3.70423 3.62277
# Velocity P-wave (km/s) = 7.18752 7.35492 7.27170
#
# Compressibility (1/GPa) = 0.01273751
#
# Stress axis : x y z
#
# Youngs Moduli (GPa) = 87.43046 88.11996 72.64323
#
# Poissons Ratio (x) = 0.30246 0.21685
# Poissons Ratio (y) = 0.30009 0.39878
# Poissons Ratio (z) = 0.26100 0.48374
#
# Static dielectric constant tensor:
#      x y z
#    x 4.212690 0.000000 0.061710 
#    y 0.000000 3.966110 0.000000 
#    z 0.061710 0.000000 4.403880 
# 
# 
# High freq. dielectric constant tensor:
#      x y z
#    x 1.894970 0.000000 0.000230 
#    y 0.000000 1.879050 0.000000 
#    z 0.000230 0.000000 1.903050 
# 
# From -- ./inp_files/228124.got.cif
#   From: 2010.06.25/outbox.cif.g09.slc.cpg/sg15_115_cif.got.tgz:228124.got - 2010.06.28 07:06:18.
