data_PCOD8144516
_publ_section_title
;
Structure prediction by ZEFSAII (Michael W. Deem and Ramdas Pophale) SiO2 
 PCOD8144516
Probable space group: C 2/C
;
_chemical_formula_sum "Si O2"
_cell_formula_units_Z 64
_cell_length_a 11.914308
_cell_length_b 8.845293
_cell_length_c 29.216827
_cell_angle_alpha 90.000000
_cell_angle_beta 75.254277
_cell_angle_gamma 90.000000
_cell_volume 2977.623168
_symmetry_space_group_name_H-M "C 2/C"
_symmetry_group_IT_number 15
_symmetry_cell_setting 'monoclinic'
loop_
_space_group_symop_operation_xyz
x,y,z
-x,y,1/2-z
-x,-y,-z
x,-y,1/2+z
1/2+x,1/2+y,z
1/2-x,1/2+y,1/2-z
1/2-x,1/2-y,-z
1/2+x,1/2-y,1/2+z
loop_
_atom_site_type_symbol
_atom_site_label
_atom_site_fract_x
_atom_site_fract_y
_atom_site_fract_z
Si Si1 0.402346 0.690845 0.389956
Si Si2 0.854254 0.670055 0.086918
Si Si3 0.092397 0.421679 0.353882
Si Si4 0.903608 0.185130 0.493992
Si Si5 0.575328 0.426640 0.357735
Si Si6 0.011217 0.673172 0.302642
Si Si7 0.246512 0.664265 0.137611
Si Si8 0.173858 0.859115 0.975181
O O1 0.277019 0.678619 0.379444
O O2 0.477443 0.821590 0.358565
O O3 0.387196 0.737157 0.444122
O O4 0.463797 0.529666 0.378468
O O5 0.912465 0.514244 0.097657
O O6 0.854158 0.681913 0.031966
O O7 0.925281 0.811832 0.099558
O O8 0.206327 0.316730 0.343103
O O9 0.097307 0.540291 0.311257
O O10 0.039108 0.180619 0.491337
O O11 0.825285 0.035051 0.510546
O O12 0.564153 0.335596 0.311192
O O13 0.692977 0.522966 0.343526
O O14 0.889781 0.652082 0.341282
O O15 0.000000 0.663665 0.250000
O O16 0.277289 0.661716 0.080960
O O17 0.250000 0.750000 0.000000
#
# Coordination Sequence:
#
# PCOD8144516 Si02
#       8
#     8   8   8   8   8   8   8   8
#     4  11  22  40  61  92 129 173 213 254 308 369
#     4  11  22  36  60  90 129 172 208 260 301 358
#     4  10  24  41  64  93 128 163 211 261 318 386
#     4  11  22  38  56  95 134 169 229 255 289 376
#     4  10  21  43  66  87 127 163 209 259 316 386
#     4  11  26  44  70  98 120 158 212 270 338 395
#     4  11  22  45  66  91 130 173 209 259 326 367
#     4  11  24  36  64  94 132 182 216 256 308 367
#
# _framework density 21.493652999999998
#
# number of rings (size 3 to 8) (size 9 to 14) (size 15 to 20)
#    0.000    1.250    3.750    2.625    7.000    1.500 
#    0.000    2.500    0.000    0.000    0.000    0.000 
#    0.000    0.000    0.000    0.000    0.000    0.000 
#
# Total GULP energy -396750.420480 kJ/mol
# GULP energy per Si atom -12398.450640 kJ/mol
# Density = 2.144473 g / cm^3
# Si number density = 21.493653 Si / 1000 Ang^3
#
#
#
# Elastic Constant Matrix: (Units=GPa)
#
#
# Indices 1 2 3 4 5 6 
#
# 1 88.2976 31.2128 15.4832 0.0000 3.7912 0.0000
# 2 31.2128 94.3165 32.9244 0.0000 7.2270 0.0000
# 3 15.4832 32.9244 75.0770 0.0000 24.0557 0.0000
# 4 0.0000 0.0000 0.0000 20.3795 0.0000 7.2426
# 5 3.7912 7.2270 24.0557 0.0000 21.5106 0.0000
# 6 0.0000 0.0000 0.0000 7.2426 0.0000 29.7766
#
#
#
# Elastic Compliance Matrix: (Units=1/GPa)
#
#
# Indices 1 2 3 4 5 6 
#
# 1 0.012881 -0.003932 -0.000978 0.000000 0.000145 0.000000
# 2 -0.003932 0.013846 -0.006222 0.000000 0.003000 0.000000
# 3 -0.000978 -0.006222 0.024195 0.000000 -0.024795 0.000000
# 4 0.000000 0.000000 0.000000 0.053712 0.000000 -0.013064
# 5 0.000145 0.003000 -0.024795 0.000000 0.073184 0.000000
# 6 0.000000 0.000000 0.000000 -0.013064 0.000000 0.036761
#
#
# Mechanical properties :
#
#
# Convention : Reuss Voigt Hill
#
# Bulk Modulus (GPa) = 34.89719 46.32576 40.61148
# Shear Modulus (GPa) = 20.29254 26.20471 23.24863
#
# Velocity S-wave (km/s) = 3.07598 3.49547 3.29241
# Velocity P-wave (km/s) = 5.37465 6.15557 5.77832
#
# Compressibility (1/GPa) = 0.02865560
#
# Stress axis : x y z
#
# Youngs Moduli (GPa) = 77.63546 72.22201 41.33134
#
# Poissons Ratio (x) = 0.28400 0.04044
# Poissons Ratio (y) = 0.30528 0.25718
# Poissons Ratio (z) = 0.07596 0.44939
#
# Static dielectric constant tensor:
#      x y z
#    x 4.111290 0.000000 0.172680 
#    y 0.000000 4.123440 0.000000 
#    z 0.172680 0.000000 3.516310 
# 
# 
# High freq. dielectric constant tensor:
#      x y z
#    x 1.857370 0.000000 0.017110 
#    y 0.000000 1.856270 0.000000 
#    z 0.017110 0.000000 1.806340 
# 
# From -- ./inp_files/310308.got.cif
#   From: 2010.06.25/outbox.cif.g09.slc.cpg/sg15_156_cif.got.tgz:310308.got - 2010.06.28 07:06:18.
