data_PCOD8144137
_publ_section_title
;
Structure prediction by ZEFSAII (Michael W. Deem and Ramdas Pophale) SiO2 
 PCOD8144137
Probable space group: C 2/C
;
_chemical_formula_sum "Si O2"
_cell_formula_units_Z 56
_cell_length_a 12.911696
_cell_length_b 21.891024
_cell_length_c 16.107703
_cell_angle_alpha 90.000000
_cell_angle_beta 145.187869
_cell_angle_gamma 90.000000
_cell_volume 2599.162609
_symmetry_space_group_name_H-M "C 2/C"
_symmetry_group_IT_number 15
_symmetry_cell_setting 'monoclinic'
loop_
_space_group_symop_operation_xyz
x,y,z
-x,y,1/2-z
-x,-y,-z
x,-y,1/2+z
1/2+x,1/2+y,z
1/2-x,1/2+y,1/2-z
1/2-x,1/2-y,-z
1/2+x,1/2-y,1/2+z
loop_
_atom_site_type_symbol
_atom_site_label
_atom_site_fract_x
_atom_site_fract_y
_atom_site_fract_z
Si Si1 0.164902 0.981116 0.796498
Si Si2 0.297675 0.383939 0.148577
Si Si3 0.777144 0.345873 0.225172
Si Si4 0.223541 0.711441 0.181568
Si Si5 0.518464 0.615913 0.423538
Si Si6 0.590713 0.199849 0.398945
Si Si7 0.160499 0.378172 0.495987
O O1 0.000000 0.986907 0.750000
O O2 0.086847 0.948581 0.661208
O O3 0.245997 0.048993 0.841372
O O4 0.322167 0.939032 0.937479
O O5 0.500000 0.376222 0.250000
O O6 0.259340 0.339534 0.200483
O O7 0.168429 0.364496 0.986661
O O8 0.795054 0.277688 0.200970
O O9 0.963918 0.380508 0.323575
O O10 0.611870 0.384105 0.075040
O O11 0.379540 0.671939 0.328139
O O12 0.060972 0.723566 0.138303
O O13 0.156733 0.680128 0.053579
O O14 0.673512 0.627410 0.457423
O O15 0.500000 0.187375 0.250000
O O16 0.750000 0.250000 0.500000
#
# Coordination Sequence:
#
# PCOD8144137 Si02
#       7
#     8   8   8   8   8   8   8
#     4   8  19  43  65  85 127 173 217 263 333 382
#     4  11  24  44  66  93 128 176 214 276 330 388
#     4  12  23  36  62  98 132 161 222 265 328 394
#     4  11  23  40  61  92 129 172 216 262 328 401
#     4  10  23  39  65  93 128 176 211 274 323 384
#     4  12  26  44  68  95 132 173 214 273 330 385
#     4  10  21  42  63  90 129 173 213 272 324 382
#
# _framework density 21.545400999999998
#
# number of rings (size 3 to 8) (size 9 to 14) (size 15 to 20)
#    0.000    1.429    1.429    4.714    4.000    4.571 
#    0.000    4.286    0.000    0.000    0.000    0.000 
#    0.000    0.000    0.000    0.000    0.000    0.000 
#
# Total GULP energy -347127.003807 kJ/mol
# GULP energy per Si atom -12397.392993 kJ/mol
# Density = 2.149636 g / cm^3
# Si number density = 21.545401 Si / 1000 Ang^3
#
#
#
# Elastic Constant Matrix: (Units=GPa)
#
#
# Indices 1 2 3 4 5 6 
#
# 1 81.9225 12.8136 25.4084 0.0000 4.9659 0.0000
# 2 12.8136 128.3485 61.6559 0.0000 -3.5464 0.0000
# 3 25.4084 61.6559 157.7335 0.0003 -5.6709 0.0000
# 4 0.0000 0.0000 0.0003 14.1411 0.0003 -0.4166
# 5 4.9659 -3.5464 -5.6709 0.0003 41.7162 0.0001
# 6 0.0000 0.0000 0.0000 -0.4166 0.0001 18.5302
#
#
#
# Elastic Compliance Matrix: (Units=1/GPa)
#
#
# Indices 1 2 3 4 5 6 
#
# 1 0.013003 -0.000383 -0.002011 0.000000 -0.001854 0.000000
# 2 -0.000383 0.009608 -0.003681 0.000000 0.000362 0.000000
# 3 -0.002011 -0.003681 0.008140 0.000000 0.001033 0.000000
# 4 0.000000 0.000000 0.000000 0.070763 -0.000001 0.001591
# 5 -0.001854 0.000362 0.001033 -0.000001 0.024363 0.000000
# 6 0.000000 0.000000 0.000000 0.001591 0.000000 0.054002
#
#
# Mechanical properties :
#
#
# Convention : Reuss Voigt Hill
#
# Bulk Modulus (GPa) = 53.76471 63.08448 58.42459
# Shear Modulus (GPa) = 25.22340 32.75262 28.98801
#
# Velocity S-wave (km/s) = 3.42527 3.90316 3.67200
# Velocity P-wave (km/s) = 6.37587 7.04672 6.71967
#
# Compressibility (1/GPa) = 0.01859956
#
# Stress axis : x y z
#
# Youngs Moduli (GPa) = 76.90650 104.08307 122.85416
#
# Poissons Ratio (x) = 0.03987 0.24711
# Poissons Ratio (y) = 0.02946 0.45220
# Poissons Ratio (z) = 0.15469 0.38311
#
# Static dielectric constant tensor:
#      x y z
#    x 3.740710 0.000000 0.036460 
#    y 0.000000 4.234420 0.000000 
#    z 0.036460 0.000000 4.195140 
# 
# 
# High freq. dielectric constant tensor:
#      x y z
#    x 1.838630 0.000000 0.010010 
#    y 0.000000 1.839400 0.000000 
#    z 0.010010 0.000000 1.858130 
# 
# From -- ./inp_files/206995.got.cif
#   From: 2010.06.25/outbox.cif.g09.slc.cpg/sg15_104_cif.got.tgz:206995.got - 2010.06.28 07:06:18.
