data_PCOD8144065
_publ_section_title
;
Structure prediction by ZEFSAII (Michael W. Deem and Ramdas Pophale) SiO2 
 PCOD8144065
Probable space group: C 2/C
;
_chemical_formula_sum "Si O2"
_cell_formula_units_Z 56
_cell_length_a 14.878396
_cell_length_b 17.738235
_cell_length_c 21.137044
_cell_angle_alpha 90.000000
_cell_angle_beta 151.582171
_cell_angle_gamma 90.000000
_cell_volume 2654.755732
_symmetry_space_group_name_H-M "C 2/C"
_symmetry_group_IT_number 15
_symmetry_cell_setting 'monoclinic'
loop_
_space_group_symop_operation_xyz
x,y,z
-x,y,1/2-z
-x,-y,-z
x,-y,1/2+z
1/2+x,1/2+y,z
1/2-x,1/2+y,1/2-z
1/2-x,1/2-y,-z
1/2+x,1/2-y,1/2+z
loop_
_atom_site_type_symbol
_atom_site_label
_atom_site_fract_x
_atom_site_fract_y
_atom_site_fract_z
Si Si1 0.201714 0.744579 0.896140
Si Si2 0.797761 0.852303 0.875769
Si Si3 0.490531 0.086077 0.097919
Si Si4 0.317476 0.587094 0.926113
Si Si5 0.764952 0.445537 0.268145
Si Si6 0.656154 0.554036 0.975793
Si Si7 0.556318 0.189102 0.549071
O O1 0.195104 0.657824 0.871423
O O2 0.000000 0.779360 0.750000
O O3 0.250000 0.750000 0.000000
O O4 0.352575 0.789935 0.949213
O O5 0.599578 0.881078 0.726111
O O6 0.818863 0.874072 0.962408
O O7 0.812181 0.762347 0.877778
O O8 0.960260 0.893132 0.934983
O O9 0.279405 0.063952 0.988983
O O10 0.594401 0.014665 0.129657
O O11 0.472954 0.151824 0.036595
O O12 0.260541 0.557792 0.822384
O O13 0.268670 0.520918 0.943916
O O14 0.848117 0.366645 0.342280
O O15 0.563830 0.456482 0.178778
#
# Coordination Sequence:
#
# PCOD8144065 Si02
#       7
#     8   8   8   8   8   8   8
#     4  11  26  42  70 108 138 182 235 288 362 424
#     4  10  22  43  67  96 135 172 229 279 337 405
#     4  12  25  43  70 100 135 177 228 281 347 412
#     4  10  21  41  71  97 129 177 227 291 332 413
#     4  11  23  47  68  96 141 174 231 282 343 412
#     4  11  23  42  70 102 121 183 235 279 334 411
#     4  11  28  44  66  97 144 181 212 291 355 404
#
# _framework density 21.094218999999999
#
# number of rings (size 3 to 8) (size 9 to 14) (size 15 to 20)
#    0.000    1.143    2.857    2.571   14.000    1.143 
#    2.571    0.000    0.000    0.000    0.000    0.000 
#    0.000    0.000    0.000    0.000    0.000    0.000 
#
# Total GULP energy -347338.909598 kJ/mol
# GULP energy per Si atom -12404.961057 kJ/mol
# Density = 2.104621 g / cm^3
# Si number density = 21.094219 Si / 1000 Ang^3
#
#
#
# Elastic Constant Matrix: (Units=GPa)
#
#
# Indices 1 2 3 4 5 6 
#
# 1 117.0202 46.1265 41.9405 -0.0019 23.4543 0.0020
# 2 46.1265 127.4174 39.3675 -0.0001 10.7330 0.0017
# 3 41.9405 39.3675 77.7552 -0.0107 21.4512 0.0003
# 4 -0.0019 -0.0001 -0.0107 19.8410 -0.0011 -9.9141
# 5 23.4543 10.7330 21.4512 -0.0011 30.2014 0.0005
# 6 0.0020 0.0017 0.0003 -9.9141 0.0005 34.6152
#
#
#
# Elastic Compliance Matrix: (Units=1/GPa)
#
#
# Indices 1 2 3 4 5 6 
#
# 1 0.012079 -0.002804 -0.003461 -0.000002 -0.005926 -0.000001
# 2 -0.002804 0.009955 -0.003921 -0.000003 0.001425 -0.000001
# 3 -0.003461 -0.003921 0.019385 0.000011 -0.009688 0.000004
# 4 -0.000002 -0.000003 0.000011 0.058818 -0.000004 0.016846
# 5 -0.005926 0.001425 -0.009688 -0.000004 0.044088 -0.000001
# 6 -0.000001 -0.000001 0.000004 0.016846 -0.000001 0.033714
#
#
# Mechanical properties :
#
#
# Convention : Reuss Voigt Hill
#
# Bulk Modulus (GPa) = 47.51053 64.11798 55.81426
# Shear Modulus (GPa) = 24.33967 29.91540 27.12754
#
# Velocity S-wave (km/s) = 3.40053 3.76996 3.59000
# Velocity P-wave (km/s) = 6.16361 7.02937 6.61068
#
# Compressibility (1/GPa) = 0.02104796
#
# Stress axis : x y z
#
# Youngs Moduli (GPa) = 82.78865 100.45502 51.58580
#
# Poissons Ratio (x) = 0.28171 0.17852
# Poissons Ratio (y) = 0.23217 0.20224
# Poissons Ratio (z) = 0.28650 0.39383
#
# Static dielectric constant tensor:
#      x y z
#    x 3.726040 0.000000 0.183520 
#    y 0.000000 3.977370 -0.000020 
#    z 0.183520 -0.000020 3.904730 
# 
# 
# High freq. dielectric constant tensor:
#      x y z
#    x 1.820730 0.000000 0.011300 
#    y 0.000000 1.837570 0.000000 
#    z 0.011300 0.000000 1.827060 
# 
# From -- ./inp_files/245172.got.cif
#   From: 2010.06.25/outbox.cif.g09.slc.cpg/sg15_123_cif.got.tgz:245172.got - 2010.06.28 07:06:18.
