data_PCOD8144896
_publ_section_title
;
Structure prediction by ZEFSAII (Michael W. Deem and Ramdas Pophale) SiO2 
 PCOD8144896
Probable space group: C 2/C
;
_chemical_formula_sum "Si O2"
_cell_formula_units_Z 64
_cell_length_a 24.513744
_cell_length_b 14.890049
_cell_length_c 9.322011
_cell_angle_alpha 90.000000
_cell_angle_beta 111.825854
_cell_angle_gamma 90.000000
_cell_volume 3158.727995
_symmetry_space_group_name_H-M "C 2/C"
_symmetry_group_IT_number 15
_symmetry_cell_setting 'monoclinic'
loop_
_space_group_symop_operation_xyz
x,y,z
-x,y,1/2-z
-x,-y,-z
x,-y,1/2+z
1/2+x,1/2+y,z
1/2-x,1/2+y,1/2-z
1/2-x,1/2-y,-z
1/2+x,1/2-y,1/2+z
loop_
_atom_site_type_symbol
_atom_site_label
_atom_site_fract_x
_atom_site_fract_y
_atom_site_fract_z
Si Si1 0.298430 0.616343 0.028155
Si Si2 0.432455 0.801151 0.687892
Si Si3 0.236455 0.353128 0.965386
Si Si4 0.629370 0.612736 0.903078
Si Si5 0.850301 0.999940 0.328584
Si Si6 0.832128 0.687673 0.596994
Si Si7 0.137720 0.603124 0.154177
Si Si8 0.639658 0.899558 0.096315
O O1 0.310908 0.562298 0.186688
O O2 0.336190 0.707567 0.063797
O O3 0.311302 0.563549 0.893432
O O4 0.231434 0.643505 0.961830
O O5 0.500000 0.772541 0.750000
O O6 0.391806 0.714416 0.619430
O O7 0.416391 0.846593 0.822458
O O8 0.417368 0.875395 0.553660
O O9 0.200239 0.366443 0.782939
O O10 0.250000 0.250000 0.000000
O O11 0.299487 0.400858 0.019348
O O12 0.198886 0.394960 0.058815
O O13 0.609159 0.562265 0.736772
O O14 0.607775 0.561261 0.026783
O O15 0.868570 0.632818 0.515487
O O16 0.860083 0.674838 0.779804
O O17 0.131691 0.496345 0.160174
#
# Coordination Sequence:
#
# PCOD8144896 Si02
#       8
#     8   8   8   8   8   8   8   8
#     4  10  22  32  51  85 124 171 193 224 300 376
#     4  11  25  48  70  83 116 174 225 267 309 362
#     4  11  22  36  60  89 135 168 201 240 312 386
#     4  11  21  39  60  95 124 165 208 248 318 378
#     4  10  22  34  57  86 126 160 199 246 304 380
#     4  11  22  34  54  85 127 155 199 245 302 368
#     4  11  24  39  61  97 127 163 206 256 313 377
#     4  11  24  39  61  97 127 163 206 256 313 377
#
# _framework density 20.261319
#
# number of rings (size 3 to 8) (size 9 to 14) (size 15 to 20)
#    0.000    1.250    2.500    4.500   14.000    0.500 
#    0.000    1.250    0.000    0.000    0.000    0.000 
#    0.000    0.000    0.000    0.000    0.000    0.000 
#
# Total GULP energy -396730.037895 kJ/mol
# GULP energy per Si atom -12397.813684 kJ/mol
# Density = 2.021520 g / cm^3
# Si number density = 20.261319 Si / 1000 Ang^3
#
#
#
# Elastic Constant Matrix: (Units=GPa)
#
#
# Indices 1 2 3 4 5 6 
#
# 1 66.9317 15.7196 29.0428 0.0000 5.4999 0.0000
# 2 15.7196 113.6264 27.6979 0.0000 -2.9851 0.0000
# 3 29.0428 27.6979 105.6344 0.0000 -18.7418 0.0000
# 4 0.0000 0.0000 0.0000 35.4822 0.0000 -10.5763
# 5 5.4999 -2.9851 -18.7418 0.0000 20.6122 0.0000
# 6 0.0000 0.0000 0.0000 -10.5763 0.0000 11.8588
#
#
#
# Elastic Compliance Matrix: (Units=1/GPa)
#
#
# Indices 1 2 3 4 5 6 
#
# 1 0.019256 -0.001255 -0.007046 0.000000 -0.011726 0.000000
# 2 -0.001255 0.009502 -0.002198 0.000000 -0.000287 0.000000
# 3 -0.007046 -0.002198 0.014615 0.000000 0.014850 0.000000
# 4 0.000000 0.000000 0.000000 0.038388 0.000000 0.034236
# 5 -0.011726 -0.000287 0.014850 0.000000 0.065105 0.000000
# 6 0.000000 0.000000 0.000000 0.034236 0.000000 0.114859
#
#
# Mechanical properties :
#
#
# Convention : Reuss Voigt Hill
#
# Bulk Modulus (GPa) = 44.68785 47.90145 46.29465
# Shear Modulus (GPa) = 17.23066 27.83946 22.53506
#
# Velocity S-wave (km/s) = 2.91936 3.71080 3.33862
# Velocity P-wave (km/s) = 5.78508 6.48484 6.14493
#
# Compressibility (1/GPa) = 0.02237745
#
# Stress axis : x y z
#
# Youngs Moduli (GPa) = 51.93163 105.23554 68.42408
#
# Poissons Ratio (x) = 0.13202 0.48210
# Poissons Ratio (y) = 0.06515 0.15037
# Poissons Ratio (z) = 0.36590 0.23127
#
# Static dielectric constant tensor:
#      x y z
#    x 3.287400 0.000000 -0.259840 
#    y 0.000000 3.972570 0.000000 
#    z -0.259840 0.000000 3.900180 
# 
# 
# High freq. dielectric constant tensor:
#      x y z
#    x 1.730000 0.000000 -0.029090 
#    y 0.000000 1.818090 0.000000 
#    z -0.029090 0.000000 1.804840 
# 
# From -- ./inp_files/66273.got.cif
#   From: 2010.06.25/outbox.cif.g09.slc.cpg/sg15_34_cif.got.tgz:66273.got - 2010.06.28 07:06:18.
