data_PCOD8144929
_publ_section_title
;
Structure prediction by ZEFSAII (Michael W. Deem and Ramdas Pophale) SiO2 
 PCOD8144929
Probable space group: C 2/C
;
_chemical_formula_sum "Si O2"
_cell_formula_units_Z 52
_cell_length_a 20.076927
_cell_length_b 13.432990
_cell_length_c 10.840338
_cell_angle_alpha 90.000000
_cell_angle_beta 53.501875
_cell_angle_gamma 90.000000
_cell_volume 2350.184695
_symmetry_space_group_name_H-M "C 2/C"
_symmetry_group_IT_number 15
_symmetry_cell_setting 'monoclinic'
loop_
_space_group_symop_operation_xyz
x,y,z
-x,y,1/2-z
-x,-y,-z
x,-y,1/2+z
1/2+x,1/2+y,z
1/2-x,1/2+y,1/2-z
1/2-x,1/2-y,-z
1/2+x,1/2-y,1/2+z
loop_
_atom_site_type_symbol
_atom_site_label
_atom_site_fract_x
_atom_site_fract_y
_atom_site_fract_z
Si Si1 0.238234 0.442586 0.099280
Si Si2 0.373712 0.826482 0.118728
Si Si3 0.394674 0.558535 0.584671
Si Si4 0.000000 0.897039 0.750000
Si Si5 0.691502 0.155265 0.071870
Si Si6 0.962247 0.753899 0.158328
Si Si7 0.651889 0.636598 0.222278
O O1 0.148622 0.403328 0.245654
O O2 0.304445 0.414089 0.131278
O O3 0.238959 0.560938 0.076379
O O4 0.263805 0.386398 0.944981
O O5 0.327925 0.721385 0.200141
O O6 0.339067 0.872387 0.031059
O O7 0.471443 0.804279 0.999975
O O8 0.458771 0.534347 0.402682
O O9 0.429831 0.647600 0.628090
O O10 0.385884 0.461378 0.675651
O O11 0.924485 0.827815 0.782364
O O12 0.613329 0.177956 0.243929
O O13 0.750000 0.250000 0.000000
O O14 0.000000 0.783451 0.250000
#
# Coordination Sequence:
#
# PCOD8144929 Si02
#       7
#     8   8   8   4   8   8   8
#     4  11  24  40  66  92 135 176 225 276 334 396
#     4  11  23  42  64  94 132 170 225 275 334 402
#     4  11  22  40  63 100 137 173 218 277 337 401
#     4  10  22  34  58  94 134 168 210 268 346 392
#     4  11  23  43  66  97 128 178 230 273 334 400
#     4  10  23  40  69  98 135 180 223 274 331 403
#     4  11  22  38  62  95 132 172 215 273 335 400
#
# _framework density 22.125919
#
# number of rings (size 3 to 8) (size 9 to 14) (size 15 to 20)
#    0.000    1.231    1.538    4.615    1.077    3.077 
#    0.000    3.077    5.077    0.000    0.000    0.000 
#    0.000    0.000    0.000    0.000    0.000    0.000 
#
# Total GULP energy -322338.977770 kJ/mol
# GULP energy per Si atom -12397.652991 kJ/mol
# Density = 2.207556 g / cm^3
# Si number density = 22.125919 Si / 1000 Ang^3
#
#
#
# Elastic Constant Matrix: (Units=GPa)
#
#
# Indices 1 2 3 4 5 6 
#
# 1 66.0303 33.3263 33.6907 0.0000 -5.9239 0.0000
# 2 33.3263 91.4603 65.3237 0.0000 -16.4365 0.0000
# 3 33.6907 65.3237 173.2946 0.0000 -14.4808 0.0000
# 4 0.0000 0.0000 0.0000 36.0706 0.0000 -4.9695
# 5 -5.9239 -16.4365 -14.4808 0.0000 23.9468 0.0000
# 6 0.0000 0.0000 0.0000 -4.9695 0.0000 25.8736
#
#
#
# Elastic Compliance Matrix: (Units=1/GPa)
#
#
# Indices 1 2 3 4 5 6 
#
# 1 0.018828 -0.005852 -0.001476 0.000000 -0.000251 0.000000
# 2 -0.005852 0.018069 -0.005011 0.000000 0.007924 0.000000
# 3 -0.001476 -0.005011 0.008035 0.000000 0.001054 0.000000
# 4 0.000000 0.000000 0.000000 0.028477 0.000000 0.005469
# 5 -0.000251 0.007924 0.001054 0.000000 0.047773 0.000000
# 6 0.000000 0.000000 0.000000 0.005469 0.000000 0.039700
#
#
# Mechanical properties :
#
#
# Convention : Reuss Voigt Hill
#
# Bulk Modulus (GPa) = 49.37178 66.16296 57.76737
# Shear Modulus (GPa) = 25.99939 30.40783 28.20361
#
# Velocity S-wave (km/s) = 3.43164 3.71119 3.57415
# Velocity P-wave (km/s) = 6.16960 6.95210 6.57251
#
# Compressibility (1/GPa) = 0.02025449
#
# Stress axis : x y z
#
# Youngs Moduli (GPa) = 53.11105 55.34189 124.46281
#
# Poissons Ratio (x) = 0.32386 0.18365
# Poissons Ratio (y) = 0.31080 0.62374
# Poissons Ratio (z) = 0.07837 0.27734
#
# Static dielectric constant tensor:
#      x y z
#    x 4.075340 0.000000 0.003020 
#    y 0.000000 3.623100 0.000000 
#    z 0.003020 0.000000 4.505630 
# 
# 
# High freq. dielectric constant tensor:
#      x y z
#    x 1.863060 0.000000 -0.002440 
#    y 0.000000 1.841850 0.000000 
#    z -0.002440 0.000000 1.899690 
# 
# From -- ./inp_files/117943.got.cif
#   From: 2010.06.25/outbox.cif.g09.slc.cpg/sg15_59_cif.got.tgz:117943.got - 2010.06.28 07:06:18.
