data_PCOD8144479
_publ_section_title
;
Structure prediction by ZEFSAII (Michael W. Deem and Ramdas Pophale) SiO2 
 PCOD8144479
Probable space group: C 2/C
;
_chemical_formula_sum "Si O2"
_cell_formula_units_Z 48
_cell_length_a 22.251920
_cell_length_b 10.295758
_cell_length_c 22.049015
_cell_angle_alpha 90.000000
_cell_angle_beta 28.257062
_cell_angle_gamma 90.000000
_cell_volume 2391.493291
_symmetry_space_group_name_H-M "C 2/C"
_symmetry_group_IT_number 15
_symmetry_cell_setting 'monoclinic'
loop_
_space_group_symop_operation_xyz
x,y,z
-x,y,1/2-z
-x,-y,-z
x,-y,1/2+z
1/2+x,1/2+y,z
1/2-x,1/2+y,1/2-z
1/2-x,1/2-y,-z
1/2+x,1/2-y,1/2+z
loop_
_atom_site_type_symbol
_atom_site_label
_atom_site_fract_x
_atom_site_fract_y
_atom_site_fract_z
Si Si1 0.416331 0.209070 0.767578
Si Si2 0.784901 0.232407 0.839949
Si Si3 0.495169 0.168962 0.063301
Si Si4 0.354629 0.044174 0.366423
Si Si5 0.459082 0.875868 0.461024
Si Si6 0.776194 0.964980 0.894288
O O1 0.500000 0.162702 0.750000
O O2 0.483460 0.215164 0.642813
O O3 0.371750 0.351120 0.827094
O O4 0.323410 0.082943 0.851360
O O5 0.790863 0.333475 0.889877
O O6 0.877017 0.266554 0.702551
O O7 0.841755 0.091817 0.807997
O O8 0.635166 0.220323 0.956510
O O9 0.476120 0.016993 0.094529
O O10 0.476613 0.198766 0.008614
O O11 0.500000 0.082482 0.250000
O O12 0.297632 0.018231 0.482625
O O13 0.311473 0.895800 0.578166
#
# Coordination Sequence:
#
# PCOD8144479 Si02
#       6
#     8   8   8   8   8   8
#     4  11  22  38  62  90 124 165 216 254 324 383
#     4  11  23  43  65  99 128 163 219 261 322 376
#     4  10  23  42  67  92 127 173 212 259 317 384
#     4  11  20  40  65  92 127 170 207 258 334 388
#     4  10  21  43  64  84 127 179 208 248 329 394
#     4  11  23  38  63  94 125 162 214 273 310 375
#
# _framework density 20.071142999999999
#
# number of rings (size 3 to 8) (size 9 to 14) (size 15 to 20)
#    0.000    1.333    5.000    2.000    2.333    2.000 
#    0.000    0.833    0.000    0.000    0.000    0.000 
#    0.000    0.000    0.000    0.000    0.000    0.000 
#
# Total GULP energy -297366.078939 kJ/mol
# GULP energy per Si atom -12390.253289 kJ/mol
# Density = 2.002546 g / cm^3
# Si number density = 20.071143 Si / 1000 Ang^3
#
#
#
# Elastic Constant Matrix: (Units=GPa)
#
#
# Indices 1 2 3 4 5 6 
#
# 1 107.2808 44.8133 41.1686 0.0001 15.9312 0.0000
# 2 44.8133 108.1928 38.4636 0.0003 -5.1018 -0.0002
# 3 41.1686 38.4636 105.6326 0.0004 9.9388 -0.0002
# 4 0.0001 0.0003 0.0004 13.2524 -0.0001 8.2396
# 5 15.9312 -5.1018 9.9388 -0.0001 22.3867 0.0000
# 6 0.0000 -0.0002 -0.0002 8.2396 0.0000 21.3794
#
#
#
# Elastic Compliance Matrix: (Units=1/GPa)
#
#
# Indices 1 2 3 4 5 6 
#
# 1 0.014054 -0.005384 -0.002568 0.000000 -0.010088 0.000000
# 2 -0.005384 0.013095 -0.003456 0.000000 0.008350 0.000000
# 3 -0.002568 -0.003456 0.012135 -0.000001 -0.004348 0.000000
# 4 0.000000 0.000000 -0.000001 0.099237 0.000001 -0.038246
# 5 -0.010088 0.008350 -0.004348 0.000001 0.055681 0.000000
# 6 0.000000 0.000000 0.000000 -0.038246 0.000000 0.061514
#
#
# Mechanical properties :
#
#
# Convention : Reuss Voigt Hill
#
# Bulk Modulus (GPa) = 60.71891 63.33300 62.02596
# Shear Modulus (GPa) = 17.60439 24.51443 21.05941
#
# Velocity S-wave (km/s) = 2.96480 3.49861 3.24271
# Velocity P-wave (km/s) = 6.48364 6.92410 6.70748
#
# Compressibility (1/GPa) = 0.01646933
#
# Stress axis : x y z
#
# Youngs Moduli (GPa) = 71.15563 76.36520 82.40781
#
# Poissons Ratio (x) = 0.41114 0.21159
# Poissons Ratio (y) = 0.38310 0.28476
# Poissons Ratio (z) = 0.18270 0.26388
#
# Static dielectric constant tensor:
#      x y z
#    x 3.763360 0.000000 0.091330 
#    y 0.000000 3.849650 0.000000 
#    z 0.091330 0.000000 3.495050 
# 
# 
# High freq. dielectric constant tensor:
#      x y z
#    x 1.784800 0.000000 0.016340 
#    y 0.000000 1.791200 0.000000 
#    z 0.016340 0.000000 1.771740 
# 
# From -- ./inp_files/252511.got.cif
#   From: 2010.06.25/outbox.cif.g09.slc.cpg/sg15_127_cif.got.tgz:252511.got - 2010.06.28 07:06:18.
