data_PCOD8144069
_publ_section_title
;
Structure prediction by ZEFSAII (Michael W. Deem and Ramdas Pophale) SiO2 
 PCOD8144069
Probable space group: C 2/C
;
_chemical_formula_sum "Si O2"
_cell_formula_units_Z 52
_cell_length_a 16.717253
_cell_length_b 16.250119
_cell_length_c 9.970018
_cell_angle_alpha 90.000000
_cell_angle_beta 117.138779
_cell_angle_gamma 90.000000
_cell_volume 2410.242266
_symmetry_space_group_name_H-M "C 2/C"
_symmetry_group_IT_number 15
_symmetry_cell_setting 'monoclinic'
loop_
_space_group_symop_operation_xyz
x,y,z
-x,y,1/2-z
-x,-y,-z
x,-y,1/2+z
1/2+x,1/2+y,z
1/2-x,1/2+y,1/2-z
1/2-x,1/2-y,-z
1/2+x,1/2-y,1/2+z
loop_
_atom_site_type_symbol
_atom_site_label
_atom_site_fract_x
_atom_site_fract_y
_atom_site_fract_z
Si Si1 0.000000 0.954888 0.250000
Si Si2 0.953550 0.185071 0.915546
Si Si3 0.595480 0.830088 0.804112
Si Si4 0.265585 0.326335 0.418421
Si Si5 0.690412 0.518164 0.390154
Si Si6 0.637041 0.240680 0.609890
Si Si7 0.759368 0.909586 0.839666
O O1 0.008969 0.899716 0.121442
O O2 0.082707 0.018542 0.322143
O O3 0.920652 0.240397 0.768597
O O4 0.867009 0.169849 0.940418
O O5 0.032551 0.233731 0.057639
O O6 0.500000 0.875929 0.750000
O O7 0.653582 0.888724 0.752521
O O8 0.646857 0.810329 0.980885
O O9 0.250000 0.250000 0.500000
O O10 0.256447 0.407098 0.501329
O O11 0.183685 0.322147 0.249811
O O12 0.720549 0.436418 0.491984
O O13 0.716966 0.519555 0.251905
O O14 0.690053 0.325796 0.653758
#
# Coordination Sequence:
#
# PCOD8144069 Si02
#       7
#     4   8   8   8   8   8   8
#     4  12  24  42  66 112 142 182 228 288 366 430
#     4  11  21  41  71 105 135 175 236 290 349 423
#     4  10  21  41  72 100 126 177 242 286 338 419
#     4  12  26  43  64  99 143 189 234 288 352 424
#     4  12  28  41  67 100 148 184 227 289 361 426
#     4  11  22  40  72  98 133 185 232 289 340 421
#     4  12  24  45  65 100 136 184 228 288 352 415
#
# _framework density 21.574594999999999
#
# number of rings (size 3 to 8) (size 9 to 14) (size 15 to 20)
#    0.000    0.615    6.923    1.385    6.462    1.846 
#    0.000    0.769    3.385    0.000    0.000    0.000 
#    0.000    0.000    0.000    0.000    0.000    0.000 
#
# Total GULP energy -322232.196584 kJ/mol
# GULP energy per Si atom -12393.546022 kJ/mol
# Density = 2.152549 g / cm^3
# Si number density = 21.574595 Si / 1000 Ang^3
#
#
#
# Elastic Constant Matrix: (Units=GPa)
#
#
# Indices 1 2 3 4 5 6 
#
# 1 91.1257 14.5558 45.9291 0.0000 -0.1557 0.0000
# 2 14.5558 50.8629 25.9722 0.0000 7.3946 0.0000
# 3 45.9291 25.9722 104.9383 0.0000 10.7189 0.0000
# 4 0.0000 0.0000 0.0000 -0.7371 0.0000 -6.3953
# 5 -0.1557 7.3946 10.7189 0.0000 32.3343 0.0000
# 6 0.0000 0.0000 0.0000 -6.3953 0.0000 39.1575
#
#
#
# Elastic Compliance Matrix: (Units=1/GPa)
#
#
# Indices 1 2 3 4 5 6 
#
# 1 0.014302 -0.001284 -0.006189 0.000000 0.002414 0.000000
# 2 -0.001284 0.022991 -0.004751 0.000000 -0.003689 0.000000
# 3 -0.006189 -0.004751 0.013772 0.000000 -0.003509 0.000000
# 4 0.000000 0.000000 0.000000 -0.561284 0.000000 -0.091670
# 5 0.002414 -0.003689 -0.003509 0.000000 0.032945 0.000000
# 6 0.000000 0.000000 0.000000 -0.091670 0.000000 0.010566
#
#
# Mechanical properties :
#
#
# Convention : Reuss Voigt Hill
#
# Bulk Modulus (GPa) = 37.56930 46.64900 42.10915
# Shear Modulus (GPa) = -11.53704 24.84891 6.65594
#
# Velocity S-wave (km/s) = -2.31498 3.39745 1.75835
# Velocity P-wave (km/s) = 3.21029 6.08764 4.86648
#
# Compressibility (1/GPa) = 0.02661748
#
# Stress axis : x y z
#
# Youngs Moduli (GPa) = 69.91932 43.49592 72.60903
#
# Poissons Ratio (x) = 0.05584 0.44935
# Poissons Ratio (y) = 0.08977 0.34500
# Poissons Ratio (z) = 0.43270 0.20667
#
# Static dielectric constant tensor:
#      x y z
#    x 7.474250 0.000000 -1.277180 
#    y 0.000000 4.025450 0.000000 
#    z -1.277180 0.000000 4.881790 
# 
# 
# High freq. dielectric constant tensor:
#      x y z
#    x 1.850540 0.000000 0.006180 
#    y 0.000000 1.830640 0.000000 
#    z 0.006180 0.000000 1.851480 
# 
# From -- ./inp_files/49218.got.cif
#   From: 2010.06.25/outbox.cif.g09.slc.cpg/sg15_25_cif.got.tgz:49218.got - 2010.06.28 07:06:18.
