data_PCOD8144975
_publ_section_title
;
Structure prediction by ZEFSAII (Michael W. Deem and Ramdas Pophale) SiO2 
 PCOD8144975
Probable space group: C 2/C
;
_chemical_formula_sum "Si O2"
_cell_formula_units_Z 36
_cell_length_a 14.252254
_cell_length_b 25.322239
_cell_length_c 14.644867
_cell_angle_alpha 90.000000
_cell_angle_beta 159.920965
_cell_angle_gamma 90.000000
_cell_volume 1814.534355
_symmetry_space_group_name_H-M "C 2/C"
_symmetry_group_IT_number 15
_symmetry_cell_setting 'monoclinic'
loop_
_space_group_symop_operation_xyz
x,y,z
-x,y,1/2-z
-x,-y,-z
x,-y,1/2+z
1/2+x,1/2+y,z
1/2-x,1/2+y,1/2-z
1/2-x,1/2-y,-z
1/2+x,1/2-y,1/2+z
loop_
_atom_site_type_symbol
_atom_site_label
_atom_site_fract_x
_atom_site_fract_y
_atom_site_fract_z
Si Si1 0.302334 0.419127 0.387817
Si Si2 0.938174 0.714545 0.296239
Si Si3 0.000000 0.941186 0.750000
Si Si4 0.041508 0.514598 0.391561
Si Si5 0.399547 0.889829 0.877171
O O1 0.328269 0.405518 0.520799
O O2 0.589615 0.409153 0.601685
O O3 0.212664 0.480785 0.301068
O O4 0.061968 0.383465 0.121975
O O5 0.889735 0.664652 0.315243
O O6 0.000000 0.695037 0.250000
O O7 0.177852 0.748187 0.559273
O O8 0.808780 0.977503 0.639856
O O9 0.000000 0.533294 0.250000
O O10 0.077996 0.566780 0.485321
#
# Coordination Sequence:
#
# PCOD8144975 Si02
#       5
#     8   8   4   8   8
#     4  11  23  37  56  85 122 157 193 239 277 349
#     4  10  22  43  62  86 120 152 190 242 291 342
#     4  10  22  40  52  82 128 160 190 230 288 336
#     4  10  22  36  55  84 128 160 189 231 281 350
#     4  12  23  36  61  89 112 158 200 237 286 339
#
# _framework density 19.839801000000001
#
# number of rings (size 3 to 8) (size 9 to 14) (size 15 to 20)
#    0.000    1.333    2.222    3.333    6.222    0.000 
#    6.000    0.000    0.000    0.000    0.000   15.556 
#    0.000    0.000    0.000    0.000    0.000    0.000 
#
# Total GULP energy -223116.992429 kJ/mol
# GULP energy per Si atom -12395.388468 kJ/mol
# Density = 1.979464 g / cm^3
# Si number density = 19.839801 Si / 1000 Ang^3
#
#
#
# Elastic Constant Matrix: (Units=GPa)
#
#
# Indices 1 2 3 4 5 6 
#
# 1 84.5153 75.1770 55.3892 0.0026 -1.9322 -0.0024
# 2 75.1770 113.7225 63.9290 0.0023 -14.3122 -0.0001
# 3 55.3892 63.9290 158.1854 0.0039 -9.5550 -0.0026
# 4 0.0026 0.0023 0.0039 40.9625 0.0008 -8.1490
# 5 -1.9322 -14.3122 -9.5550 0.0008 46.0827 0.0012
# 6 -0.0024 -0.0001 -0.0026 -8.1490 0.0012 23.5486
#
#
#
# Elastic Compliance Matrix: (Units=1/GPa)
#
#
# Indices 1 2 3 4 5 6 
#
# 1 0.031179 -0.019373 -0.003415 0.000000 -0.005418 0.000003
# 2 -0.019373 0.023735 -0.002443 0.000000 0.006053 -0.000003
# 3 -0.003415 -0.002443 0.008558 0.000000 0.000872 0.000000
# 4 0.000000 0.000000 0.000000 0.026217 -0.000001 0.009073
# 5 -0.005418 0.006053 0.000872 -0.000001 0.023534 -0.000002
# 6 0.000003 -0.000003 0.000000 0.009073 -0.000002 0.045605
#
#
# Mechanical properties :
#
#
# Convention : Reuss Voigt Hill
#
# Bulk Modulus (GPa) = 76.87058 82.82371 79.84714
# Shear Modulus (GPa) = 23.40524 32.91398 28.15961
#
# Velocity S-wave (km/s) = 3.43842 4.07749 3.77151
# Velocity P-wave (km/s) = 7.38873 8.00029 7.70059
#
# Compressibility (1/GPa) = 0.01300888
#
# Stress axis : x y z
#
# Youngs Moduli (GPa) = 32.07275 42.13154 116.85441
#
# Poissons Ratio (x) = 0.81622 0.39909
# Poissons Ratio (y) = 0.62135 0.28550
# Poissons Ratio (z) = 0.10954 0.10293
#
# Static dielectric constant tensor:
#      x y z
#    x 3.749750 0.000000 -0.182280 
#    y 0.000000 3.176850 -0.000010 
#    z -0.182280 -0.000010 3.990180 
# 
# 
# High freq. dielectric constant tensor:
#      x y z
#    x 1.778970 0.000000 -0.007540 
#    y 0.000000 1.719870 0.000000 
#    z -0.007540 0.000000 1.803530 
# 
# From -- ./inp_files/6859.got.cif
#   From: 2010.06.25/outbox.cif.g09.slc.cpg/sg15_4_cif.got.tgz:6859.got - 2010.06.28 07:06:18.
