data_PCOD8144801
_publ_section_title
;
Structure prediction by ZEFSAII (Michael W. Deem and Ramdas Pophale) SiO2 
 PCOD8144801
Probable space group: C 2/C
;
_chemical_formula_sum "Si O2"
_cell_formula_units_Z 60
_cell_length_a 12.178401
_cell_length_b 21.395501
_cell_length_c 24.479331
_cell_angle_alpha 90.000000
_cell_angle_beta 153.414447
_cell_angle_gamma 90.000000
_cell_volume 2854.551853
_symmetry_space_group_name_H-M "C 2/C"
_symmetry_group_IT_number 15
_symmetry_cell_setting 'monoclinic'
loop_
_space_group_symop_operation_xyz
x,y,z
-x,y,1/2-z
-x,-y,-z
x,-y,1/2+z
1/2+x,1/2+y,z
1/2-x,1/2+y,1/2-z
1/2-x,1/2-y,-z
1/2+x,1/2-y,1/2+z
loop_
_atom_site_type_symbol
_atom_site_label
_atom_site_fract_x
_atom_site_fract_y
_atom_site_fract_z
Si Si1 0.387593 0.620778 0.995951
Si Si2 0.000000 0.232045 0.750000
Si Si3 0.772829 0.388116 0.373491
Si Si4 0.535792 0.219159 0.705333
Si Si5 0.721224 0.184701 0.260170
Si Si6 0.011797 0.545329 0.633401
Si Si7 0.586125 0.908751 0.945875
Si Si8 0.390718 0.391730 0.372437
O O1 0.447855 0.599018 0.961453
O O2 0.202048 0.679024 0.916017
O O3 0.266042 0.561909 0.972785
O O4 0.642727 0.638215 0.137752
O O5 0.242237 0.187778 0.862151
O O6 0.026443 0.274261 0.707770
O O7 0.500000 0.419173 0.250000
O O8 0.919660 0.408633 0.385612
O O9 0.928021 0.409571 0.494876
O O10 0.500000 0.247426 0.750000
O O11 0.572321 0.274460 0.678496
O O12 0.779494 0.176627 0.812077
O O13 0.573575 0.147201 0.148955
O O14 0.193955 0.556476 0.765458
O O15 0.027700 0.473390 0.624943
O O16 0.866840 0.899034 0.054902
#
# Coordination Sequence:
#
# PCOD8144801 Si02
#       8
#     8   4   8   8   8   8   8   8
#     4  10  23  41  65  93 131 177 212 264 325 393
#     4  10  22  42  68  92 134 172 214 262 330 396
#     4  10  22  45  69  88 123 178 218 261 328 391
#     4   9  20  40  65  90 127 175 215 264 328 394
#     4  12  24  38  60 107 133 164 218 277 324 376
#     4  11  23  44  67  92 126 174 226 260 326 389
#     4  12  26  39  66  99 130 169 220 278 317 388
#     4  10  21  45  65  90 125 177 215 257 333 388
#
# _framework density 21.019061000000001
#
# number of rings (size 3 to 8) (size 9 to 14) (size 15 to 20)
#    0.400    1.067    1.333    5.200    1.867    5.867 
#    4.800    0.667    0.000    0.000    0.000    0.000 
#    0.000    0.000    0.000    0.000    0.000    0.000 
#
# Total GULP energy -372083.122599 kJ/mol
# GULP energy per Si atom -12402.770753 kJ/mol
# Density = 2.097122 g / cm^3
# Si number density = 21.019061 Si / 1000 Ang^3
#
#
#
# Elastic Constant Matrix: (Units=GPa)
#
#
# Indices 1 2 3 4 5 6 
#
# 1 80.4878 12.0601 11.8129 0.0071 -17.0680 0.0011
# 2 12.0601 72.6448 16.5855 0.0060 -14.4793 0.0049
# 3 11.8129 16.5855 75.2271 0.0214 -16.5504 -0.0213
# 4 0.0071 0.0060 0.0214 18.7229 -0.0055 -7.7045
# 5 -17.0680 -14.4793 -16.5504 -0.0055 36.0440 -0.0024
# 6 0.0011 0.0049 -0.0213 -7.7045 -0.0024 18.2886
#
#
#
# Elastic Compliance Matrix: (Units=1/GPa)
#
#
# Indices 1 2 3 4 5 6 
#
# 1 0.013919 -0.000984 -0.000674 -0.000003 0.005886 -0.000002
# 2 -0.000984 0.015367 -0.002200 -0.000004 0.004697 -0.000008
# 3 -0.000674 -0.002200 0.015150 -0.000008 0.005753 0.000016
# 4 -0.000003 -0.000004 -0.000008 0.064611 0.000005 0.027219
# 5 0.005886 0.004697 0.005753 0.000005 0.035060 0.000012
# 6 -0.000002 -0.000008 0.000016 0.027219 0.000012 0.066145
#
#
# Mechanical properties :
#
#
# Convention : Reuss Voigt Hill
#
# Bulk Modulus (GPa) = 27.23250 34.36407 30.79828
# Shear Modulus (GPa) = 21.71950 27.13786 24.42868
#
# Velocity S-wave (km/s) = 3.21802 3.59710 3.41283
# Velocity P-wave (km/s) = 5.17608 5.79971 5.49675
#
# Compressibility (1/GPa) = 0.03672084
#
# Stress axis : x y z
#
# Youngs Moduli (GPa) = 71.84541 65.07250 66.00763
#
# Poissons Ratio (x) = 0.06401 0.04447
# Poissons Ratio (y) = 0.07067 0.14523
# Poissons Ratio (z) = 0.04840 0.14317
#
# Static dielectric constant tensor:
#      x y z
#    x 3.856980 -0.000010 -0.101720 
#    y -0.000010 3.630900 -0.000030 
#    z -0.101720 -0.000030 3.629500 
# 
# 
# High freq. dielectric constant tensor:
#      x y z
#    x 1.837530 0.000000 -0.010100 
#    y 0.000000 1.808650 0.000000 
#    z -0.010100 0.000000 1.814210 
# 
# From -- ./inp_files/271027.got.cif
#   From: 2010.06.25/outbox.cif.g09.slc.cpg/sg15_136_cif.got.tgz:271027.got - 2010.06.28 07:06:18.
