data_PCOD8144814
_publ_section_title
;
Structure prediction by ZEFSAII (Michael W. Deem and Ramdas Pophale) SiO2 
 PCOD8144814
Probable space group: C 2/C
;
_chemical_formula_sum "Si O2"
_cell_formula_units_Z 52
_cell_length_a 15.407794
_cell_length_b 8.543075
_cell_length_c 29.577707
_cell_angle_alpha 90.000000
_cell_angle_beta 38.430444
_cell_angle_gamma 90.000000
_cell_volume 2419.942864
_symmetry_space_group_name_H-M "C 2/C"
_symmetry_group_IT_number 15
_symmetry_cell_setting 'monoclinic'
loop_
_space_group_symop_operation_xyz
x,y,z
-x,y,1/2-z
-x,-y,-z
x,-y,1/2+z
1/2+x,1/2+y,z
1/2-x,1/2+y,1/2-z
1/2-x,1/2-y,-z
1/2+x,1/2-y,1/2+z
loop_
_atom_site_type_symbol
_atom_site_label
_atom_site_fract_x
_atom_site_fract_y
_atom_site_fract_z
Si Si1 0.278525 0.895229 0.790778
Si Si2 0.000000 0.776297 0.250000
Si Si3 0.315249 0.846815 0.513554
Si Si4 0.409886 0.233602 0.559587
Si Si5 0.607530 0.192959 0.035255
Si Si6 0.707176 0.751338 0.809595
Si Si7 0.280086 0.466169 0.860176
O O1 0.435414 0.836867 0.738084
O O2 0.182843 0.846134 0.871770
O O3 0.235507 0.813957 0.761489
O O4 0.268101 0.079157 0.789447
O O5 0.112890 0.890710 0.181920
O O6 0.250000 0.750000 0.500000
O O7 0.432461 0.739345 0.488977
O O8 0.200936 0.877953 0.599629
O O9 0.384186 0.005624 0.467283
O O10 0.395035 0.275018 0.512884
O O11 0.371850 0.048731 0.580917
O O12 0.462101 0.242694 0.119009
O O13 0.750000 0.250000 0.000000
O O14 0.789506 0.850433 0.814125
#
# Coordination Sequence:
#
# PCOD8144814 Si02
#       7
#     8   4   8   8   8   8   8
#     4  11  27  41  71  98 136 182 226 286 340 410
#     4  10  24  46  68  96 132 174 242 280 346 402
#     4  11  23  40  69 103 132 175 229 277 343 410
#     4  10  21  47  66  97 137 175 223 280 349 402
#     4  11  25  43  71 100 136 180 229 281 342 410
#     4  12  25  47  67  98 141 185 227 278 350 404
#     4  10  21  45  68  92 136 183 217 285 337 405
#
# _framework density 21.488109999999999
#
# number of rings (size 3 to 8) (size 9 to 14) (size 15 to 20)
#    0.000    1.231    3.077    2.769    8.615    3.692 
#    0.000    0.000    0.000    0.000    0.000    0.000 
#    0.000    0.000    0.000    0.000    0.000    0.000 
#
# Total GULP energy -322303.381326 kJ/mol
# GULP energy per Si atom -12396.283897 kJ/mol
# Density = 2.143920 g / cm^3
# Si number density = 21.488110 Si / 1000 Ang^3
#
#
#
# Elastic Constant Matrix: (Units=GPa)
#
#
# Indices 1 2 3 4 5 6 
#
# 1 159.7706 64.9333 45.8329 -0.0002 3.8769 -0.0029
# 2 64.9333 120.4597 36.4280 -0.0008 1.5206 -0.0041
# 3 45.8329 36.4280 82.3646 0.0001 4.9608 0.0000
# 4 -0.0002 -0.0008 0.0001 29.1323 -0.0002 2.4482
# 5 3.8769 1.5206 4.9608 -0.0002 39.4156 -0.0017
# 6 -0.0029 -0.0041 0.0000 2.4482 -0.0017 38.3669
#
#
#
# Elastic Compliance Matrix: (Units=1/GPa)
#
#
# Indices 1 2 3 4 5 6 
#
# 1 0.008688 -0.003721 -0.003170 0.000000 -0.000312 0.000000
# 2 -0.003721 0.011178 -0.002891 0.000000 0.000299 0.000001
# 3 -0.003170 -0.002891 0.015274 0.000000 -0.001499 -0.000001
# 4 0.000000 0.000000 0.000000 0.034511 0.000000 -0.002202
# 5 -0.000312 0.000299 -0.001499 0.000000 0.025579 0.000001
# 6 0.000000 0.000001 -0.000001 -0.002202 0.000001 0.026205
#
#
# Mechanical properties :
#
#
# Convention : Reuss Voigt Hill
#
# Bulk Modulus (GPa) = 64.20208 72.99816 68.60012
# Shear Modulus (GPa) = 34.20189 35.74298 34.97243
#
# Velocity S-wave (km/s) = 3.99390 4.08289 4.03864
# Velocity P-wave (km/s) = 7.15619 7.50145 7.33085
#
# Compressibility (1/GPa) = 0.01557582
#
# Stress axis : x y z
#
# Youngs Moduli (GPa) = 115.09965 89.46388 65.46947
#
# Poissons Ratio (x) = 0.33286 0.20756
# Poissons Ratio (y) = 0.42824 0.18929
# Poissons Ratio (z) = 0.36490 0.25866
#
# Static dielectric constant tensor:
#      x y z
#    x 4.166460 0.000000 -0.120540 
#    y 0.000000 3.765510 -0.000010 
#    z -0.120540 -0.000010 4.352480 
# 
# 
# High freq. dielectric constant tensor:
#      x y z
#    x 1.853670 0.000000 0.006790 
#    y 0.000000 1.837990 0.000000 
#    z 0.006790 0.000000 1.845260 
# 
# From -- ./inp_files/242516.got.cif
#   From: 2010.06.25/outbox.cif.g09.slc.cpg/sg15_122_cif.got.tgz:242516.got - 2010.06.28 07:06:18.
