data_PCOD8144229
_publ_section_title
;
Structure prediction by ZEFSAII (Michael W. Deem and Ramdas Pophale) SiO2 
 PCOD8144229
Probable space group: C 2/C
;
_chemical_formula_sum "Si O2"
_cell_formula_units_Z 56
_cell_length_a 30.042796
_cell_length_b 10.253870
_cell_length_c 10.213825
_cell_angle_alpha 90.000000
_cell_angle_beta 54.035407
_cell_angle_gamma 90.000000
_cell_volume 2546.648912
_symmetry_space_group_name_H-M "C 2/C"
_symmetry_group_IT_number 15
_symmetry_cell_setting 'monoclinic'
loop_
_space_group_symop_operation_xyz
x,y,z
-x,y,1/2-z
-x,-y,-z
x,-y,1/2+z
1/2+x,1/2+y,z
1/2-x,1/2+y,1/2-z
1/2-x,1/2-y,-z
1/2+x,1/2-y,1/2+z
loop_
_atom_site_type_symbol
_atom_site_label
_atom_site_fract_x
_atom_site_fract_y
_atom_site_fract_z
Si Si1 0.061817 0.409164 0.610586
Si Si2 0.784348 0.021399 0.735138
Si Si3 0.612832 0.996205 0.773435
Si Si4 0.629582 0.298678 0.294457
Si Si5 0.965895 0.947658 0.935085
Si Si6 0.772391 0.606781 0.930950
Si Si7 0.378656 0.644342 0.978266
O O1 0.081250 0.507652 0.690454
O O2 0.066284 0.478424 0.463191
O O3 0.106010 0.293775 0.530182
O O4 0.000000 0.360678 0.750000
O O5 0.822062 0.892920 0.648583
O O6 0.821727 0.148515 0.697952
O O7 0.749286 0.053534 0.668725
O O8 0.744562 0.992782 0.924846
O O9 0.639069 0.853584 0.752740
O O10 0.661261 0.103822 0.690702
O O11 0.570033 0.321937 0.462955
O O12 0.629747 0.384346 0.161041
O O13 0.000000 0.901361 0.750000
O O14 0.928046 0.064888 0.954482
O O15 0.000000 0.000000 0.000000
O O16 0.750000 0.750000 0.000000
#
# Coordination Sequence:
#
# PCOD8144229 Si02
#       7
#     8   8   8   8   8   8   8
#     4  11  24  45  70  93 136 182 224 279 337 402
#     4  11  24  44  69 101 138 175 228 279 353 409
#     4  11  26  46  66 100 135 174 235 274 337 415
#     4  10  23  41  65  95 137 178 219 285 338 409
#     4  11  21  37  65  98 132 175 232 280 334 396
#     4  12  27  45  74 103 138 184 227 287 355 415
#     4  10  21  42  65  97 135 177 224 278 340 408
#
# _framework density 21.989681000000001
#
# number of rings (size 3 to 8) (size 9 to 14) (size 15 to 20)
#    0.000    1.143    2.857    2.571    6.000    2.286 
#    2.571    0.000    0.000    0.000    0.000    0.000 
#    0.000    0.000    0.000    0.000    0.000    0.000 
#
# Total GULP energy -347253.252351 kJ/mol
# GULP energy per Si atom -12401.901870 kJ/mol
# Density = 2.193963 g / cm^3
# Si number density = 21.989681 Si / 1000 Ang^3
#
#
#
# Elastic Constant Matrix: (Units=GPa)
#
#
# Indices 1 2 3 4 5 6 
#
# 1 82.8236 5.3552 26.1307 0.0000 8.1494 0.0000
# 2 5.3552 52.4205 7.3164 0.0000 0.1150 0.0000
# 3 26.1307 7.3164 124.5379 0.0000 5.1790 0.0000
# 4 0.0000 0.0000 0.0000 33.6750 0.0000 -0.8319
# 5 8.1494 0.1150 5.1790 0.0000 40.9711 0.0000
# 6 0.0000 0.0000 0.0000 -0.8319 0.0000 22.6400
#
#
#
# Elastic Compliance Matrix: (Units=1/GPa)
#
#
# Indices 1 2 3 4 5 6 
#
# 1 0.013187 -0.000977 -0.002614 0.000000 -0.002290 0.000000
# 2 -0.000977 0.019307 -0.000940 0.000000 0.000259 0.000000
# 3 -0.002614 -0.000940 0.008657 0.000000 -0.000572 0.000000
# 4 0.000000 0.000000 0.000000 0.029723 0.000000 0.001092
# 5 -0.002290 0.000259 -0.000572 0.000000 0.024934 0.000000
# 6 0.000000 0.000000 0.000000 0.001092 0.000000 0.044210
#
#
# Mechanical properties :
#
#
# Convention : Reuss Voigt Hill
#
# Bulk Modulus (GPa) = 31.16407 37.48740 34.32574
# Shear Modulus (GPa) = 31.29357 34.18921 32.74139
#
# Velocity S-wave (km/s) = 3.77650 3.94735 3.86287
# Velocity P-wave (km/s) = 5.76357 6.15306 5.96150
#
# Compressibility (1/GPa) = 0.03208823
#
# Stress axis : x y z
#
# Youngs Moduli (GPa) = 75.83143 51.79478 115.51064
#
# Poissons Ratio (x) = 0.05062 0.30198
# Poissons Ratio (y) = 0.07411 0.10858
# Poissons Ratio (z) = 0.19825 0.04869
#
# Static dielectric constant tensor:
#      x y z
#    x 3.999040 0.000000 0.138920 
#    y 0.000000 3.680000 0.000000 
#    z 0.138920 0.000000 4.197380 
# 
# 
# High freq. dielectric constant tensor:
#      x y z
#    x 1.872770 0.000000 0.007310 
#    y 0.000000 1.847300 0.000000 
#    z 0.007310 0.000000 1.885240 
# 
# From -- ./inp_files/69273.got.cif
#   From: 2010.06.25/outbox.cif.g09.slc.cpg/sg15_35_cif.got.tgz:69273.got - 2010.06.28 07:06:18.
