data_PCOD8144103
_publ_section_title
;
Structure prediction by ZEFSAII (Michael W. Deem and Ramdas Pophale) SiO2 
 PCOD8144103
Probable space group: C 2/C
;
_chemical_formula_sum "Si O2"
_cell_formula_units_Z 52
_cell_length_a 9.382662
_cell_length_b 25.632728
_cell_length_c 12.421962
_cell_angle_alpha 90.000000
_cell_angle_beta 123.248734
_cell_angle_gamma 90.000000
_cell_volume 2498.459396
_symmetry_space_group_name_H-M "C 2/C"
_symmetry_group_IT_number 15
_symmetry_cell_setting 'monoclinic'
loop_
_space_group_symop_operation_xyz
x,y,z
-x,y,1/2-z
-x,-y,-z
x,-y,1/2+z
1/2+x,1/2+y,z
1/2-x,1/2+y,1/2-z
1/2-x,1/2-y,-z
1/2+x,1/2-y,1/2+z
loop_
_atom_site_type_symbol
_atom_site_label
_atom_site_fract_x
_atom_site_fract_y
_atom_site_fract_z
Si Si1 0.466229 0.210621 0.529971
Si Si2 0.169978 0.179455 0.782207
Si Si3 0.667385 0.326970 0.039182
Si Si4 0.909486 0.087746 0.372626
Si Si5 0.500000 0.500935 0.250000
Si Si6 0.440057 0.872696 0.844427
Si Si7 0.729357 0.419543 0.447951
O O1 0.663467 0.215309 0.645028
O O2 0.407841 0.269400 0.498851
O O3 0.359266 0.176133 0.571956
O O4 0.445916 0.182512 0.407389
O O5 0.163610 0.154541 0.660793
O O6 0.173313 0.134057 0.871260
O O7 0.000000 0.211482 0.750000
O O8 0.555195 0.367854 0.924788
O O9 0.974933 0.034806 0.346462
O O10 0.750621 0.105893 0.234522
O O11 0.861182 0.074996 0.474564
O O12 0.668678 0.466128 0.344472
O O13 0.500000 0.859671 0.750000
O O14 0.565031 0.916274 0.951061
#
# Coordination Sequence:
#
# PCOD8144103 Si02
#       7
#     8   8   8   8   4   8   8
#     4  10  24  39  60  92 126 174 207 257 317 375
#     4  11  21  41  64  89 122 165 215 260 310 374
#     4  11  23  40  60  89 133 164 212 261 314 374
#     4  11  22  39  61  94 124 163 210 265 316 379
#     4  12  22  36  68  88 120 170 210 258 338 378
#     4   9  21  41  62  89 130 161 211 266 313 373
#     4  10  21  42  61  89 122 162 211 270 311 377
#
# _framework density 20.812825
#
# number of rings (size 3 to 8) (size 9 to 14) (size 15 to 20)
#    0.000    1.538    2.308    1.846    2.154    1.846 
#    0.000    0.000    0.000    3.692    0.000    0.000 
#    0.000    0.000    0.000    0.000    0.000    0.000 
#
# Total GULP energy -322336.122612 kJ/mol
# GULP energy per Si atom -12397.543177 kJ/mol
# Density = 2.076545 g / cm^3
# Si number density = 20.812825 Si / 1000 Ang^3
#
#
#
# Elastic Constant Matrix: (Units=GPa)
#
#
# Indices 1 2 3 4 5 6 
#
# 1 112.7603 25.5164 49.2917 0.0000 16.9153 0.0000
# 2 25.5164 80.4693 30.7720 0.0000 6.9560 0.0000
# 3 49.2917 30.7720 110.1082 0.0000 10.2591 0.0000
# 4 0.0000 0.0000 0.0000 25.1593 0.0000 1.0237
# 5 16.9153 6.9560 10.2591 0.0000 43.6005 0.0000
# 6 0.0000 0.0000 0.0000 1.0237 0.0000 25.0952
#
#
#
# Elastic Compliance Matrix: (Units=1/GPa)
#
#
# Indices 1 2 3 4 5 6 
#
# 1 0.011686 -0.001726 -0.004450 0.000000 -0.003211 0.000000
# 2 -0.001726 0.014245 -0.003128 0.000000 -0.000867 0.000000
# 3 -0.004450 -0.003128 0.012004 0.000000 -0.000599 0.000000
# 4 0.000000 0.000000 0.000000 0.039813 0.000000 -0.001624
# 5 -0.003211 -0.000867 -0.000599 0.000000 0.024461 0.000000
# 6 0.000000 0.000000 0.000000 -0.001624 0.000000 0.039914
#
#
# Mechanical properties :
#
#
# Convention : Reuss Voigt Hill
#
# Bulk Modulus (GPa) = 51.73856 57.16644 54.45250
# Shear Modulus (GPa) = 29.90915 31.95487 30.93201
#
# Velocity S-wave (km/s) = 3.79496 3.92260 3.85931
# Velocity P-wave (km/s) = 6.64193 6.93125 6.78813
#
# Compressibility (1/GPa) = 0.01932794
#
# Stress axis : x y z
#
# Youngs Moduli (GPa) = 85.57345 70.19779 83.30666
#
# Poissons Ratio (x) = 0.12119 0.37069
# Poissons Ratio (y) = 0.14773 0.26055
# Poissons Ratio (z) = 0.38078 0.21955
#
# Static dielectric constant tensor:
#      x y z
#    x 4.146230 0.000000 0.263110 
#    y 0.000000 3.441070 0.000000 
#    z 0.263110 0.000000 4.192580 
# 
# 
# High freq. dielectric constant tensor:
#      x y z
#    x 1.825570 0.000000 0.001720 
#    y 0.000000 1.790460 0.000000 
#    z 0.001720 0.000000 1.832260 
# 
# From -- ./inp_files/81506.got.cif
#   From: 2010.06.25/outbox.cif.g09.slc.cpg/sg15_41_cif.got.tgz:81506.got - 2010.06.28 07:06:18.
