data_PCOD8144680
_publ_section_title
;
Structure prediction by ZEFSAII (Michael W. Deem and Ramdas Pophale) SiO2 
 PCOD8144680
Probable space group: C 2/C
;
_chemical_formula_sum "Si O2"
_cell_formula_units_Z 56
_cell_length_a 15.680987
_cell_length_b 8.062868
_cell_length_c 27.664918
_cell_angle_alpha 90.000000
_cell_angle_beta 49.570851
_cell_angle_gamma 90.000000
_cell_volume 2662.538829
_symmetry_space_group_name_H-M "C 2/C"
_symmetry_group_IT_number 15
_symmetry_cell_setting 'monoclinic'
loop_
_space_group_symop_operation_xyz
x,y,z
-x,y,1/2-z
-x,-y,-z
x,-y,1/2+z
1/2+x,1/2+y,z
1/2-x,1/2+y,1/2-z
1/2-x,1/2-y,-z
1/2+x,1/2-y,1/2+z
loop_
_atom_site_type_symbol
_atom_site_label
_atom_site_fract_x
_atom_site_fract_y
_atom_site_fract_z
Si Si1 0.673541 0.663628 0.349570
Si Si2 0.491143 0.680767 0.698469
Si Si3 0.935572 0.230231 0.415865
Si Si4 0.448415 0.709121 0.220875
Si Si5 0.727809 0.206403 0.083129
Si Si6 0.231214 0.843695 0.265300
Si Si7 0.226486 0.507255 0.492914
O O1 0.539571 0.649809 0.407245
O O2 0.732242 0.647450 0.379298
O O3 0.707151 0.838494 0.310788
O O4 0.712343 0.522217 0.296825
O O5 0.500000 0.753410 0.750000
O O6 0.473778 0.484497 0.707869
O O7 0.600312 0.733874 0.629616
O O8 0.387318 0.747855 0.703882
O O9 0.880525 0.371981 0.469274
O O10 0.841426 0.097035 0.436164
O O11 0.988576 0.301281 0.346506
O O12 0.500000 0.787994 0.250000
O O13 0.313981 0.739856 0.270313
O O14 0.799556 0.360583 0.035496
O O15 0.741899 0.052634 0.042303
#
# Coordination Sequence:
#
# PCOD8144680 Si02
#       7
#     8   8   8   8   8   8   8
#     4  11  24  40  63  94 132 164 209 265 318 387
#     4  11  20  39  64  91 128 165 198 265 328 378
#     4  10  21  44  62  87 131 168 212 263 311 380
#     4  10  22  38  64  91 125 167 205 252 331 380
#     4  11  23  41  66  95 123 170 218 263 315 366
#     4  11  21  41  59  96 129 162 200 262 324 391
#     4  10  23  42  65  87 124 174 221 259 305 376
#
# _framework density 21.032557000000001
#
# number of rings (size 3 to 8) (size 9 to 14) (size 15 to 20)
#    0.000    1.429    5.714    0.000    2.000    3.429 
#    0.000    0.000    0.000    0.000    0.000    0.000 
#    0.000    0.000    0.000    0.000    0.000    0.000 
#
# Total GULP energy -346865.664649 kJ/mol
# GULP energy per Si atom -12388.059452 kJ/mol
# Density = 2.098469 g / cm^3
# Si number density = 21.032557 Si / 1000 Ang^3
#
#
#
# Elastic Constant Matrix: (Units=GPa)
#
#
# Indices 1 2 3 4 5 6 
#
# 1 158.7986 15.4281 54.6302 0.0004 -1.8192 0.0016
# 2 15.4281 52.1650 28.9036 0.0017 -5.6671 0.0034
# 3 54.6302 28.9036 93.2643 0.0001 -10.6998 0.0002
# 4 0.0004 0.0017 0.0001 18.4313 -0.0001 0.1828
# 5 -1.8192 -5.6671 -10.6998 -0.0001 42.6671 0.0004
# 6 0.0016 0.0034 0.0002 0.1828 0.0004 20.8975
#
#
#
# Elastic Compliance Matrix: (Units=1/GPa)
#
#
# Indices 1 2 3 4 5 6 
#
# 1 0.007919 0.000230 -0.004806 0.000000 -0.000837 -0.000001
# 2 0.000230 0.023222 -0.007183 -0.000002 0.001293 -0.000004
# 3 -0.004806 -0.007183 0.016093 0.000001 0.002877 0.000001
# 4 0.000000 -0.000002 0.000001 0.054260 0.000000 -0.000475
# 5 -0.000837 0.001293 0.002877 0.000000 0.024295 -0.000001
# 6 -0.000001 -0.000004 0.000001 -0.000475 -0.000001 0.047857
#
#
# Mechanical properties :
#
#
# Convention : Reuss Voigt Hill
#
# Bulk Modulus (GPa) = 42.16485 55.79462 48.97973
# Shear Modulus (GPa) = 24.38196 30.08358 27.23277
#
# Velocity S-wave (km/s) = 3.40847 3.78608 3.60222
# Velocity P-wave (km/s) = 5.96499 6.76002 6.37491
#
# Compressibility (1/GPa) = 0.02371644
#
# Stress axis : x y z
#
# Youngs Moduli (GPa) = 126.28487 43.06169 62.13756
#
# Poissons Ratio (x) = -0.00990 0.29861
# Poissons Ratio (y) = -0.02902 0.44635
# Poissons Ratio (z) = 0.60688 0.30932
#
# Static dielectric constant tensor:
#      x y z
#    x 4.110740 0.000000 -0.086320 
#    y 0.000000 3.619770 0.000000 
#    z -0.086320 0.000000 3.930280 
# 
# 
# High freq. dielectric constant tensor:
#      x y z
#    x 1.829900 0.000000 -0.011430 
#    y 0.000000 1.802270 0.000000 
#    z -0.011430 0.000000 1.823760 
# 
# From -- ./inp_files/312850.got.cif
#   From: 2010.06.25/outbox.cif.g09.slc.cpg/sg15_157_cif.got.tgz:312850.got - 2010.06.28 07:06:18.
