data_PCOD8144493
_publ_section_title
;
Structure prediction by ZEFSAII (Michael W. Deem and Ramdas Pophale) SiO2 
 PCOD8144493
Probable space group: C 2/C
;
_chemical_formula_sum "Si O2"
_cell_formula_units_Z 52
_cell_length_a 8.604426
_cell_length_b 17.795310
_cell_length_c 17.992587
_cell_angle_alpha 90.000000
_cell_angle_beta 65.024695
_cell_angle_gamma 90.000000
_cell_volume 2497.376503
_symmetry_space_group_name_H-M "C 2/C"
_symmetry_group_IT_number 15
_symmetry_cell_setting 'monoclinic'
loop_
_space_group_symop_operation_xyz
x,y,z
-x,y,1/2-z
-x,-y,-z
x,-y,1/2+z
1/2+x,1/2+y,z
1/2-x,1/2+y,1/2-z
1/2-x,1/2-y,-z
1/2+x,1/2-y,1/2+z
loop_
_atom_site_type_symbol
_atom_site_label
_atom_site_fract_x
_atom_site_fract_y
_atom_site_fract_z
Si Si1 0.000000 0.339275 0.750000
Si Si2 0.174037 0.943539 0.174787
Si Si3 0.688871 0.860132 0.969358
Si Si4 0.656377 0.500093 0.523159
Si Si5 0.266962 0.788437 0.229728
Si Si6 0.649949 0.786566 0.125650
Si Si7 0.502753 0.052879 0.387899
O O1 0.159269 0.285793 0.735122
O O2 0.964450 0.392964 0.826799
O O3 0.209236 0.857957 0.191294
O O4 0.000000 0.973056 0.250000
O O5 0.141267 0.939029 0.092360
O O6 0.336143 0.997431 0.161864
O O7 0.845730 0.919116 0.935094
O O8 0.735306 0.782070 0.923837
O O9 0.532659 0.896277 0.955021
O O10 0.641948 0.851450 0.065609
O O11 0.500000 0.500000 0.500000
O O12 0.831683 0.506583 0.440503
O O13 0.457253 0.759385 0.175787
O O14 0.260412 0.816191 0.316984
#
# Coordination Sequence:
#
# PCOD8144493 Si02
#       7
#     4   8   8   8   8   8   8
#     4  12  26  40  68 100 140 168 232 280 348 390
#     4  11  25  45  71  97 137 179 230 279 340 408
#     4  10  21  43  64  96 125 174 221 270 336 410
#     4  11  26  43  68  99 135 176 229 277 338 409
#     4  11  23  43  63 101 133 174 220 284 335 409
#     4  10  22  39  71  89 132 172 218 272 345 404
#     4  11  25  45  66  96 139 183 221 283 339 408
#
# _framework density 20.821850000000001
#
# number of rings (size 3 to 8) (size 9 to 14) (size 15 to 20)
#    0.000    1.231    2.308    3.692    6.462    2.462 
#    0.000    1.538    0.000    0.000    0.000    0.000 
#    0.000    0.000    0.000    0.000    0.000    0.000 
#
# Total GULP energy -322290.729691 kJ/mol
# GULP energy per Si atom -12395.797296 kJ/mol
# Density = 2.077446 g / cm^3
# Si number density = 20.821850 Si / 1000 Ang^3
#
#
#
# Elastic Constant Matrix: (Units=GPa)
#
#
# Indices 1 2 3 4 5 6 
#
# 1 129.3286 25.7747 55.5696 0.0000 5.2747 0.0000
# 2 25.7747 74.3556 35.6780 0.0000 5.2342 0.0000
# 3 55.5696 35.6780 103.2663 0.0000 8.9371 0.0000
# 4 0.0000 0.0000 0.0000 29.3781 0.0000 5.5318
# 5 5.2747 5.2342 8.9371 0.0000 47.2655 0.0000
# 6 0.0000 0.0000 0.0000 5.5318 0.0000 22.2079
#
#
#
# Elastic Compliance Matrix: (Units=1/GPa)
#
#
# Indices 1 2 3 4 5 6 
#
# 1 0.010129 -0.001072 -0.005076 0.000000 -0.000052 0.000000
# 2 -0.001072 0.016261 -0.004977 0.000000 -0.000740 0.000000
# 3 -0.005076 -0.004977 0.014271 0.000000 -0.001581 0.000000
# 4 0.000000 0.000000 0.000000 0.035714 0.000000 -0.008896
# 5 -0.000052 -0.000740 -0.001581 0.000000 0.021544 0.000000
# 6 0.000000 0.000000 0.000000 -0.008896 0.000000 0.047245
#
#
# Mechanical properties :
#
#
# Convention : Reuss Voigt Hill
#
# Bulk Modulus (GPa) = 54.31392 60.11058 57.21225
# Shear Modulus (GPa) = 28.81003 32.43218 30.62110
#
# Velocity S-wave (km/s) = 3.72377 3.95093 3.83903
# Velocity P-wave (km/s) = 6.68059 7.05300 6.86932
#
# Compressibility (1/GPa) = 0.01841149
#
# Stress axis : x y z
#
# Youngs Moduli (GPa) = 98.72721 61.49784 70.07006
#
# Poissons Ratio (x) = 0.06592 0.35566
# Poissons Ratio (y) = 0.10583 0.34875
# Poissons Ratio (z) = 0.50111 0.30608
#
# Static dielectric constant tensor:
#      x y z
#    x 3.855480 0.000000 0.197600 
#    y 0.000000 3.727710 0.000000 
#    z 0.197600 0.000000 4.078410 
# 
# 
# High freq. dielectric constant tensor:
#      x y z
#    x 1.822590 0.000000 0.011470 
#    y 0.000000 1.818150 0.000000 
#    z 0.011470 0.000000 1.822410 
# 
# From -- ./inp_files/190571.got.cif
#   From: 2010.06.25/outbox.cif.g09.slc.cpg/sg15_96_cif.got.tgz:190571.got - 2010.06.28 07:06:18.
