data_PCOD8144097
_publ_section_title
;
Structure prediction by ZEFSAII (Michael W. Deem and Ramdas Pophale) SiO2 
 PCOD8144097
Probable space group: C 2/C
;
_chemical_formula_sum "Si O2"
_cell_formula_units_Z 56
_cell_length_a 17.292089
_cell_length_b 13.300605
_cell_length_c 12.793438
_cell_angle_alpha 90.000000
_cell_angle_beta 66.456393
_cell_angle_gamma 90.000000
_cell_volume 2697.491238
_symmetry_space_group_name_H-M "C 2/C"
_symmetry_group_IT_number 15
_symmetry_cell_setting 'monoclinic'
loop_
_space_group_symop_operation_xyz
x,y,z
-x,y,1/2-z
-x,-y,-z
x,-y,1/2+z
1/2+x,1/2+y,z
1/2-x,1/2+y,1/2-z
1/2-x,1/2-y,-z
1/2+x,1/2-y,1/2+z
loop_
_atom_site_type_symbol
_atom_site_label
_atom_site_fract_x
_atom_site_fract_y
_atom_site_fract_z
Si Si1 0.677431 0.244960 0.346544
Si Si2 0.372303 0.443332 0.032026
Si Si3 0.996053 0.272066 0.635825
Si Si4 0.415797 0.947054 0.009126
Si Si5 0.952089 0.131831 0.075935
Si Si6 0.701395 0.888700 0.029753
Si Si7 0.150069 0.303879 0.280722
O O1 0.646032 0.359560 0.371323
O O2 0.599181 0.185756 0.337604
O O3 0.702875 0.203504 0.447384
O O4 0.762342 0.249035 0.231064
O O5 0.379856 0.549380 0.089439
O O6 0.294154 0.438659 0.993125
O O7 0.462142 0.419826 0.925644
O O8 0.000000 0.229216 0.750000
O O9 0.060471 0.364125 0.589887
O O10 0.024976 0.183019 0.545849
O O11 0.355228 0.024414 0.986434
O O12 0.370326 0.896455 0.132835
O O13 0.500000 0.000000 0.000000
O O14 0.921131 0.216833 0.174427
O O15 0.659742 0.847714 0.158914
#
# Coordination Sequence:
#
# PCOD8144097 Si02
#       7
#     8   8   8   8   8   8   8
#     4  10  21  42  60  93 129 157 215 263 311 377
#     4   9  19  39  63  88 125 164 198 267 310 365
#     4  10  22  40  63  86 124 168 203 262 318 371
#     4  11  24  41  59  94 127 162 212 258 315 389
#     4   9  20  41  62  91 125 159 218 252 311 390
#     4  11  23  41  66  95 129 164 213 265 323 372
#     4  10  23  40  65  91 122 171 203 264 322 375
#
# _framework density 20.760031000000001
#
# number of rings (size 3 to 8) (size 9 to 14) (size 15 to 20)
#    0.000    2.000    1.429    1.714    2.000    4.571 
#    2.571   10.000    0.000    0.000    0.000    0.000 
#    0.000    0.000    0.000    0.000    0.000    0.000 
#
# Total GULP energy -347023.328149 kJ/mol
# GULP energy per Si atom -12393.690291 kJ/mol
# Density = 2.071278 g / cm^3
# Si number density = 20.760031 Si / 1000 Ang^3
#
#
#
# Elastic Constant Matrix: (Units=GPa)
#
#
# Indices 1 2 3 4 5 6 
#
# 1 144.3284 53.3522 60.1621 0.0000 -2.8830 0.0000
# 2 53.3522 113.4020 50.3803 0.0000 -5.4569 0.0000
# 3 60.1621 50.3803 111.5504 0.0000 -8.8529 0.0000
# 4 0.0000 0.0000 0.0000 20.6348 0.0000 -1.0734
# 5 -2.8830 -5.4569 -8.8529 0.0000 28.1288 0.0000
# 6 0.0000 0.0000 0.0000 -1.0734 0.0000 36.1005
#
#
#
# Elastic Compliance Matrix: (Units=1/GPa)
#
#
# Indices 1 2 3 4 5 6 
#
# 1 0.009604 -0.002787 -0.003985 0.000000 -0.000811 0.000000
# 2 -0.002787 0.011850 -0.003784 0.000000 0.000822 0.000000
# 3 -0.003985 -0.003784 0.013058 0.000000 0.002967 0.000000
# 4 0.000000 0.000000 0.000000 0.048537 0.000000 0.001443
# 5 -0.000811 0.000822 0.002967 0.000000 0.036561 0.000000
# 6 0.000000 0.000000 0.000000 0.001443 0.000000 0.027743
#
#
# Mechanical properties :
#
#
# Convention : Reuss Voigt Hill
#
# Bulk Modulus (GPa) = 74.62388 77.45222 76.03805
# Shear Modulus (GPa) = 28.91323 30.66525 29.78924
#
# Velocity S-wave (km/s) = 3.73599 3.84751 3.79216
# Velocity P-wave (km/s) = 7.39149 7.55825 7.47533
#
# Compressibility (1/GPa) = 0.01340054
#
# Stress axis : x y z
#
# Youngs Moduli (GPa) = 104.12479 84.38994 76.58015
#
# Poissons Ratio (x) = 0.23518 0.30520
# Poissons Ratio (y) = 0.29018 0.28974
# Poissons Ratio (z) = 0.41497 0.31929
#
# Static dielectric constant tensor:
#      x y z
#    x -1.546800 0.000000 -0.583170 
#    y 0.000000 3.893270 0.000000 
#    z -0.583170 0.000000 3.518610 
# 
# 
# High freq. dielectric constant tensor:
#      x y z
#    x 1.824860 0.000000 -0.019240 
#    y 0.000000 1.822230 0.000000 
#    z -0.019240 0.000000 1.787760 
# 
# From -- ./inp_files/105299.got.cif
#   From: 2010.06.25/outbox.cif.g09.slc.cpg/sg15_53_cif.got.tgz:105299.got - 2010.06.28 07:06:18.
