data_PCOD8144490
_publ_section_title
;
Structure prediction by ZEFSAII (Michael W. Deem and Ramdas Pophale) SiO2 
 PCOD8144490
Probable space group: C 2/C
;
_chemical_formula_sum "Si O2"
_cell_formula_units_Z 40
_cell_length_a 22.668427
_cell_length_b 7.749655
_cell_length_c 17.995370
_cell_angle_alpha 90.000000
_cell_angle_beta 36.828164
_cell_angle_gamma 90.000000
_cell_volume 1894.932235
_symmetry_space_group_name_H-M "C 2/C"
_symmetry_group_IT_number 15
_symmetry_cell_setting 'monoclinic'
loop_
_space_group_symop_operation_xyz
x,y,z
-x,y,1/2-z
-x,-y,-z
x,-y,1/2+z
1/2+x,1/2+y,z
1/2-x,1/2+y,1/2-z
1/2-x,1/2-y,-z
1/2+x,1/2-y,1/2+z
loop_
_atom_site_type_symbol
_atom_site_label
_atom_site_fract_x
_atom_site_fract_y
_atom_site_fract_z
Si Si1 0.334961 0.433160 0.679225
Si Si2 0.985343 0.166378 0.592353
Si Si3 0.462925 0.988745 0.204386
Si Si4 0.738007 0.870238 0.148317
Si Si5 0.052230 0.151727 0.118661
O O1 0.379630 0.615743 0.663701
O O2 0.427459 0.322298 0.555765
O O3 0.283748 0.318243 0.794269
O O4 0.258176 0.488364 0.692700
O O5 0.981459 0.347745 0.635310
O O6 0.008075 0.016627 0.627372
O O7 0.500000 0.031619 0.250000
O O8 0.347898 0.939133 0.318381
O O9 0.522419 0.829352 0.106797
O O10 0.829921 0.856477 0.999360
O O11 0.000000 0.172702 0.250000
#
# Coordination Sequence:
#
# PCOD8144490 Si02
#       5
#     8   8   8   8   8
#     4  10  22  39  66  97 131 166 213 269 318 384
#     4  10  21  43  64  95 130 170 210 267 327 369
#     4  11  24  42  66  94 129 174 216 260 320 385
#     4  11  23  42  65 101 125 170 221 258 327 381
#     4  10  23  43  65  91 134 170 213 269 312 382
#
# _framework density 21.108934000000001
#
# number of rings (size 3 to 8) (size 9 to 14) (size 15 to 20)
#    0.000    1.600    2.000    1.800    2.800    4.000 
#    0.000    5.000    0.000    0.000    0.000    0.000 
#    0.000    0.000    0.000    0.000    0.000    0.000 
#
# Total GULP energy -247917.335778 kJ/mol
# GULP energy per Si atom -12395.866789 kJ/mol
# Density = 2.106089 g / cm^3
# Si number density = 21.108934 Si / 1000 Ang^3
#
#
#
# Elastic Constant Matrix: (Units=GPa)
#
#
# Indices 1 2 3 4 5 6 
#
# 1 120.2044 29.8743 44.3238 0.0016 -24.6082 -0.0015
# 2 29.8743 127.7662 47.7737 0.0025 -3.1685 -0.0055
# 3 44.3238 47.7737 107.4040 -0.0106 -3.7722 0.0069
# 4 0.0016 0.0025 -0.0106 20.5282 0.0096 10.5711
# 5 -24.6082 -3.1685 -3.7722 0.0096 27.8816 0.0005
# 6 -0.0015 -0.0055 0.0069 10.5711 0.0005 44.7127
#
#
#
# Elastic Compliance Matrix: (Units=1/GPa)
#
#
# Indices 1 2 3 4 5 6 
#
# 1 0.012193 -0.001022 -0.004223 -0.000009 0.010074 0.000003
# 2 -0.001022 0.009481 -0.003807 -0.000004 -0.000340 0.000003
# 3 -0.004223 -0.003807 0.012661 0.000011 -0.002447 -0.000005
# 4 -0.000009 -0.000004 0.000011 0.055466 -0.000026 -0.013114
# 5 0.010074 -0.000340 -0.002447 -0.000026 0.044387 0.000006
# 6 0.000003 0.000003 -0.000005 -0.013114 0.000006 0.025465
#
#
# Mechanical properties :
#
#
# Convention : Reuss Voigt Hill
#
# Bulk Modulus (GPa) = 61.61609 66.59091 64.10350
# Shear Modulus (GPa) = 27.29718 34.18468 30.74093
#
# Velocity S-wave (km/s) = 3.59995 4.02859 3.82029
# Velocity P-wave (km/s) = 6.82147 7.29755 7.06352
#
# Compressibility (1/GPa) = 0.01622953
#
# Stress axis : x y z
#
# Youngs Moduli (GPa) = 82.01585 105.47467 78.98177
#
# Poissons Ratio (x) = 0.10778 0.33357
# Poissons Ratio (y) = 0.08381 0.30071
# Poissons Ratio (z) = 0.34639 0.40158
#
# Static dielectric constant tensor:
#      x y z
#    x 3.906000 -0.000020 -0.239490 
#    y -0.000020 3.928360 0.000010 
#    z -0.239490 0.000010 3.668910 
# 
# 
# High freq. dielectric constant tensor:
#      x y z
#    x 1.834530 0.000000 -0.012030 
#    y 0.000000 1.836290 0.000000 
#    z -0.012030 0.000000 1.819920 
# 
# From -- ./inp_files/109798.got.cif
#   From: 2010.06.25/outbox.cif.g09.slc.cpg/sg15_55_cif.got.tgz:109798.got - 2010.06.28 07:06:18.
