data_PCOD8144707
_publ_section_title
;
Structure prediction by ZEFSAII (Michael W. Deem and Ramdas Pophale) SiO2 
 PCOD8144707
Probable space group: C 2/C
;
_chemical_formula_sum "Si O2"
_cell_formula_units_Z 64
_cell_length_a 14.455914
_cell_length_b 8.465116
_cell_length_c 29.233415
_cell_angle_alpha 90.000000
_cell_angle_beta 49.790117
_cell_angle_gamma 90.000000
_cell_volume 2731.945938
_symmetry_space_group_name_H-M "C 2/C"
_symmetry_group_IT_number 15
_symmetry_cell_setting 'monoclinic'
loop_
_space_group_symop_operation_xyz
x,y,z
-x,y,1/2-z
-x,-y,-z
x,-y,1/2+z
1/2+x,1/2+y,z
1/2-x,1/2+y,1/2-z
1/2-x,1/2-y,-z
1/2+x,1/2-y,1/2+z
loop_
_atom_site_type_symbol
_atom_site_label
_atom_site_fract_x
_atom_site_fract_y
_atom_site_fract_z
Si Si1 0.186325 0.371761 0.105986
Si Si2 0.250332 0.520766 0.678023
Si Si3 0.372073 0.090800 0.539398
Si Si4 0.772992 0.339654 0.167096
Si Si5 0.932919 0.501302 0.690110
Si Si6 0.129897 0.029418 0.092212
Si Si7 0.898523 0.945655 0.498031
Si Si8 0.921200 0.860939 0.199056
O O1 0.255412 0.359092 0.133147
O O2 0.125086 0.212501 0.107159
O O3 0.076775 0.492814 0.147475
O O4 0.278062 0.449236 0.041171
O O5 0.268703 0.343159 0.654343
O O6 0.121133 0.548378 0.743457
O O7 0.354514 0.539811 0.681719
O O8 0.309182 0.073723 0.609000
O O9 0.382769 0.261808 0.513574
O O10 0.500000 0.000000 0.500000
O O11 0.272583 0.006162 0.539582
O O12 0.878764 0.382080 0.169205
O O13 0.642790 0.390447 0.230907
O O14 0.902615 0.319315 0.689657
O O15 0.061288 0.982402 0.066828
O O16 0.060483 0.924996 0.153800
O O17 0.000000 0.000000 0.500000
#
# Coordination Sequence:
#
# PCOD8144707 Si02
#       8
#     8   8   8   8   8   8   8   8
#     4  12  24  43  69 100 143 182 236 290 353 426
#     4  10  21  44  66 101 136 186 232 282 356 418
#     4  12  28  47  72 102 142 187 238 295 353 425
#     4  10  23  44  72 100 138 188 233 282 363 413
#     4  10  23  39  71 100 138 182 227 293 346 424
#     4  12  28  45  68 110 138 187 235 295 353 417
#     4  12  27  48  74  97 136 189 240 297 355 423
#     4  10  23  44  71 102 143 177 236 293 350 425
#
# _framework density 23.426524000000001
#
# number of rings (size 3 to 8) (size 9 to 14) (size 15 to 20)
#    0.000    1.000    1.250    4.125    7.000    1.500 
#    2.250    0.000    0.000    0.000    0.000    0.000 
#    0.000    0.000    0.000    0.000    0.000    0.000 
#
# Total GULP energy -396662.415347 kJ/mol
# GULP energy per Si atom -12395.700480 kJ/mol
# Density = 2.337320 g / cm^3
# Si number density = 23.426524 Si / 1000 Ang^3
#
#
#
# Elastic Constant Matrix: (Units=GPa)
#
#
# Indices 1 2 3 4 5 6 
#
# 1 75.2880 33.0115 39.3255 -0.0001 -3.5008 -0.0001
# 2 33.0115 101.2247 54.1839 0.0001 6.8053 0.0003
# 3 39.3255 54.1839 138.6856 -0.0001 -1.1487 -0.0001
# 4 -0.0001 0.0001 -0.0001 33.2574 0.0000 -3.0009
# 5 -3.5008 6.8053 -1.1487 0.0000 47.2743 0.0000
# 6 -0.0001 0.0003 -0.0001 -3.0009 0.0000 39.9506
#
#
#
# Elastic Compliance Matrix: (Units=1/GPa)
#
#
# Indices 1 2 3 4 5 6 
#
# 1 0.016734 -0.003844 -0.003229 0.000000 0.001714 0.000000
# 2 -0.003844 0.013551 -0.004223 0.000000 -0.002338 0.000000
# 3 -0.003229 -0.004223 0.009781 0.000000 0.000607 0.000000
# 4 0.000000 0.000000 0.000000 0.030274 0.000000 0.002274
# 5 0.001714 -0.002338 0.000607 0.000000 0.021631 0.000000
# 6 0.000000 0.000000 0.000000 0.002274 0.000000 0.025202
#
#
# Mechanical properties :
#
#
# Convention : Reuss Voigt Hill
#
# Bulk Modulus (GPa) = 57.23196 63.13777 60.18487
# Shear Modulus (GPa) = 34.34289 36.67496 35.50893
#
# Velocity S-wave (km/s) = 3.83297 3.96097 3.89750
# Velocity P-wave (km/s) = 6.63870 6.92308 6.78238
#
# Compressibility (1/GPa) = 0.01747275
#
# Stress axis : x y z
#
# Youngs Moduli (GPa) = 59.75774 73.79737 102.23602
#
# Poissons Ratio (x) = 0.28369 0.33012
# Poissons Ratio (y) = 0.22972 0.43179
# Poissons Ratio (z) = 0.19296 0.31168
#
# Static dielectric constant tensor:
#      x y z
#    x 4.107510 0.000000 -0.023750 
#    y 0.000000 3.979620 0.000000 
#    z -0.023750 0.000000 4.501830 
# 
# 
# High freq. dielectric constant tensor:
#      x y z
#    x 1.929600 0.000000 -0.007180 
#    y 0.000000 1.920330 0.000000 
#    z -0.007180 0.000000 1.945760 
# 
# From -- ./inp_files/313152.got.cif
#   From: 2010.06.25/outbox.cif.g09.slc.cpg/sg15_157_cif.got.tgz:313152.got - 2010.06.28 07:06:18.
