data_PCOD8144655
_publ_section_title
;
Structure prediction by ZEFSAII (Michael W. Deem and Ramdas Pophale) SiO2 
 PCOD8144655
Probable space group: C 2/C
;
_chemical_formula_sum "Si O2"
_cell_formula_units_Z 64
_cell_length_a 26.474943
_cell_length_b 13.782033
_cell_length_c 11.271042
_cell_angle_alpha 90.000000
_cell_angle_beta 44.228037
_cell_angle_gamma 90.000000
_cell_volume 2868.576632
_symmetry_space_group_name_H-M "C 2/C"
_symmetry_group_IT_number 15
_symmetry_cell_setting 'monoclinic'
loop_
_space_group_symop_operation_xyz
x,y,z
-x,y,1/2-z
-x,-y,-z
x,-y,1/2+z
1/2+x,1/2+y,z
1/2-x,1/2+y,1/2-z
1/2-x,1/2-y,-z
1/2+x,1/2-y,1/2+z
loop_
_atom_site_type_symbol
_atom_site_label
_atom_site_fract_x
_atom_site_fract_y
_atom_site_fract_z
Si Si1 0.624101 0.700378 0.309873
Si Si2 0.037419 0.476715 0.062158
Si Si3 0.584963 0.397659 0.113018
Si Si4 0.303439 0.554763 0.487487
Si Si5 0.483252 0.751537 0.405710
Si Si6 0.325944 0.896411 0.158577
Si Si7 0.358861 0.282021 0.272121
Si Si8 0.715234 0.104472 0.024303
O O1 0.612017 0.622857 0.434724
O O2 0.672036 0.648129 0.128735
O O3 0.549415 0.738835 0.382895
O O4 0.663039 0.794833 0.293828
O O5 0.000000 0.516885 0.250000
O O6 0.040981 0.361879 0.069947
O O7 0.116756 0.520815 0.902906
O O8 0.000000 0.500000 0.000000
O O9 0.500000 0.421692 0.250000
O O10 0.627357 0.489436 0.097118
O O11 0.602232 0.304369 0.166398
O O12 0.259850 0.582351 0.679239
O O13 0.235472 0.502354 0.534584
O O14 0.500000 0.704257 0.250000
O O15 0.415416 0.693824 0.573253
O O16 0.337043 0.892622 0.999797
O O17 0.330356 0.170954 0.307317
O O18 0.292019 0.350279 0.363274
#
# Coordination Sequence:
#
# PCOD8144655 Si02
#       8
#     8   8   8   8   8   8   8   8
#     4  12  25  45  71 103 137 183 239 283 356 422
#     4  11  26  45  71 108 145 187 238 297 364 425
#     4  11  23  46  74 102 133 184 241 292 342 424
#     4  11  27  44  65 105 146 182 231 290 362 416
#     4  11  25  43  68 103 143 182 223 294 362 414
#     4  12  25  44  73  99 142 190 235 294 352 428
#     4  10  21  43  71  99 135 176 241 285 342 420
#     4  10  23  42  68 100 131 187 234 286 345 415
#
# _framework density 22.310718000000001
#
# number of rings (size 3 to 8) (size 9 to 14) (size 15 to 20)
#    0.000    1.000    3.750    1.875    5.250    1.500 
#    2.250    0.000    0.000    0.000    0.000    0.000 
#    0.000    0.000    0.000    0.000    0.000    0.000 
#
# Total GULP energy -396533.455883 kJ/mol
# GULP energy per Si atom -12391.670496 kJ/mol
# Density = 2.225994 g / cm^3
# Si number density = 22.310718 Si / 1000 Ang^3
#
#
#
# Elastic Constant Matrix: (Units=GPa)
#
#
# Indices 1 2 3 4 5 6 
#
# 1 111.0151 18.2239 27.2249 0.0000 -4.6655 0.0000
# 2 18.2239 69.6335 11.3031 0.0000 -6.6740 0.0000
# 3 27.2249 11.3031 122.4550 0.0000 -5.1308 0.0000
# 4 0.0000 0.0000 0.0000 18.4976 0.0000 7.9092
# 5 -4.6655 -6.6740 -5.1308 0.0000 40.1350 0.0000
# 6 0.0000 0.0000 0.0000 7.9092 0.0000 12.3845
#
#
#
# Elastic Compliance Matrix: (Units=1/GPa)
#
#
# Indices 1 2 3 4 5 6 
#
# 1 0.009876 -0.002215 -0.001969 0.000000 0.000528 0.000000
# 2 -0.002215 0.015284 -0.000827 0.000000 0.002178 0.000000
# 3 -0.001969 -0.000827 0.008712 0.000000 0.000747 0.000000
# 4 0.000000 0.000000 0.000000 0.074369 0.000000 -0.047495
# 5 0.000528 0.002178 0.000747 0.000000 0.025435 0.000000
# 6 0.000000 0.000000 0.000000 -0.047495 0.000000 0.111077
#
#
# Mechanical properties :
#
#
# Convention : Reuss Voigt Hill
#
# Bulk Modulus (GPa) = 41.92888 46.28973 44.10930
# Shear Modulus (GPa) = 19.03132 30.62687 24.82910
#
# Velocity S-wave (km/s) = 2.92381 3.70907 3.33960
# Velocity P-wave (km/s) = 5.49838 6.25586 5.88931
#
# Compressibility (1/GPa) = 0.02384991
#
# Stress axis : x y z
#
# Youngs Moduli (GPa) = 101.25111 65.43002 114.78773
#
# Poissons Ratio (x) = 0.14490 0.22605
# Poissons Ratio (y) = 0.22422 0.09494
# Poissons Ratio (z) = 0.19939 0.05412
#
# Static dielectric constant tensor:
#      x y z
#    x 4.179810 0.000000 0.099170 
#    y 0.000000 3.997390 0.000000 
#    z 0.099170 0.000000 4.259120 
# 
# 
# High freq. dielectric constant tensor:
#      x y z
#    x 1.886470 0.000000 -0.001970 
#    y 0.000000 1.870200 0.000000 
#    z -0.001970 0.000000 1.891940 
# 
# From -- ./inp_files/123522.got.cif
#   From: 2010.06.25/outbox.cif.g09.slc.cpg/sg15_62_cif.got.tgz:123522.got - 2010.06.28 07:06:18.
