data_PCOD8144843
_publ_section_title
;
Structure prediction by ZEFSAII (Michael W. Deem and Ramdas Pophale) SiO2 
 PCOD8144843
Probable space group: C 2/C
;
_chemical_formula_sum "Si O2"
_cell_formula_units_Z 36
_cell_length_a 7.230100
_cell_length_b 22.234996
_cell_length_c 10.752326
_cell_angle_alpha 90.000000
_cell_angle_beta 97.119357
_cell_angle_gamma 90.000000
_cell_volume 1715.230346
_symmetry_space_group_name_H-M "C 2/C"
_symmetry_group_IT_number 15
_symmetry_cell_setting 'monoclinic'
loop_
_space_group_symop_operation_xyz
x,y,z
-x,y,1/2-z
-x,-y,-z
x,-y,1/2+z
1/2+x,1/2+y,z
1/2-x,1/2+y,1/2-z
1/2-x,1/2-y,-z
1/2+x,1/2-y,1/2+z
loop_
_atom_site_type_symbol
_atom_site_label
_atom_site_fract_x
_atom_site_fract_y
_atom_site_fract_z
Si Si1 0.500000 0.267171 0.750000
Si Si2 0.643022 0.839802 0.649790
Si Si3 0.414840 0.581822 0.606557
Si Si4 0.863218 0.052075 0.121413
Si Si5 0.653967 0.805228 0.056076
O O1 0.348362 0.309919 0.671911
O O2 0.374889 0.219312 0.810619
O O3 0.500000 0.826054 0.750000
O O4 0.676541 0.911364 0.640241
O O5 0.549016 0.816017 0.517758
O O6 0.500000 0.596353 0.750000
O O7 0.561024 0.577628 0.504716
O O8 0.308157 0.517926 0.603394
O O9 0.272838 0.634227 0.559252
O O10 0.000000 0.060130 0.250000
O O11 0.750000 0.750000 0.000000
#
# Coordination Sequence:
#
# PCOD8144843 Si02
#       5
#     4   8   8   8   8
#     4  12  26  44  66  96 140 176 224 280 346 396
#     4  12  24  44  71  97 131 183 230 279 334 413
#     4  10  24  43  70 103 142 178 225 290 345 400
#     4  10  21  45  72 100 136 181 229 286 344 400
#     4  12  26  42  66 101 137 179 227 278 337 414
#
# _framework density 20.988434000000002
#
# number of rings (size 3 to 8) (size 9 to 14) (size 15 to 20)
#    0.000    0.889    3.333    3.333    6.222    0.889 
#    2.000    0.000    0.000    0.000    0.000    0.000 
#    0.000    0.000    0.000    0.000    0.000    0.000 
#
# Total GULP energy -223015.018612 kJ/mol
# GULP energy per Si atom -12389.723256 kJ/mol
# Density = 2.094066 g / cm^3
# Si number density = 20.988434 Si / 1000 Ang^3
#
#
#
# Elastic Constant Matrix: (Units=GPa)
#
#
# Indices 1 2 3 4 5 6 
#
# 1 83.6172 64.1019 23.7993 0.0000 13.3254 0.0000
# 2 64.1019 156.8651 36.6713 0.0000 13.2911 0.0000
# 3 23.7993 36.6713 109.3606 0.0000 0.0000 0.0000
# 4 0.0000 0.0000 0.0000 31.4569 0.0000 -6.6287
# 5 13.3254 13.2911 0.0000 0.0000 43.8135 0.0000
# 6 0.0000 0.0000 0.0000 -6.6287 0.0000 40.0139
#
#
#
# Elastic Compliance Matrix: (Units=1/GPa)
#
#
# Indices 1 2 3 4 5 6 
#
# 1 0.018153 -0.006727 -0.001695 0.000000 -0.003480 0.000000
# 2 -0.006727 0.009609 -0.001758 0.000000 -0.000869 0.000000
# 3 -0.001695 -0.001758 0.010102 0.000000 0.001049 0.000000
# 4 0.000000 0.000000 0.000000 0.032939 0.000000 0.005457
# 5 -0.003480 -0.000869 0.001049 0.000000 0.024146 0.000000
# 6 0.000000 0.000000 0.000000 0.005457 0.000000 0.025895
#
#
# Mechanical properties :
#
#
# Convention : Reuss Voigt Hill
#
# Bulk Modulus (GPa) = 57.12853 66.55420 61.84136
# Shear Modulus (GPa) = 34.00441 38.07489 36.03965
#
# Velocity S-wave (km/s) = 4.02948 4.26383 4.14831
# Velocity P-wave (km/s) = 6.99479 7.48459 7.24383
#
# Compressibility (1/GPa) = 0.01750439
#
# Stress axis : x y z
#
# Youngs Moduli (GPa) = 55.08609 104.07448 98.98653
#
# Poissons Ratio (x) = 0.70013 0.16776
# Poissons Ratio (y) = 0.37057 0.17402
# Poissons Ratio (z) = 0.09336 0.18296
#
# Static dielectric constant tensor:
#      x y z
#    x 3.412130 0.000000 -0.007920 
#    y 0.000000 2.638590 0.000000 
#    z -0.007920 0.000000 4.005300 
# 
# 
# High freq. dielectric constant tensor:
#      x y z
#    x 1.806380 0.000000 -0.007640 
#    y 0.000000 1.846480 0.000000 
#    z -0.007640 0.000000 1.835300 
# 
# From -- ./inp_files/72465.got.cif
#   From: 2010.06.25/outbox.cif.g09.slc.cpg/sg15_37_cif.got.tgz:72465.got - 2010.06.28 07:06:18.
