data_PCOD8144981
_publ_section_title
;
Structure prediction by ZEFSAII (Michael W. Deem and Ramdas Pophale) SiO2 
 PCOD8144981
Probable space group: C 2/C
;
_chemical_formula_sum "Si O2"
_cell_formula_units_Z 60
_cell_length_a 25.030099
_cell_length_b 14.642309
_cell_length_c 10.827133
_cell_angle_alpha 90.000000
_cell_angle_beta 131.639079
_cell_angle_gamma 90.000000
_cell_volume 2965.560490
_symmetry_space_group_name_H-M "C 2/C"
_symmetry_group_IT_number 15
_symmetry_cell_setting 'monoclinic'
loop_
_space_group_symop_operation_xyz
x,y,z
-x,y,1/2-z
-x,-y,-z
x,-y,1/2+z
1/2+x,1/2+y,z
1/2-x,1/2+y,1/2-z
1/2-x,1/2-y,-z
1/2+x,1/2-y,1/2+z
loop_
_atom_site_type_symbol
_atom_site_label
_atom_site_fract_x
_atom_site_fract_y
_atom_site_fract_z
Si Si1 0.829843 0.873520 0.133303
Si Si2 0.623838 0.273435 0.067275
Si Si3 0.500000 0.638414 0.250000
Si Si4 0.254051 0.817219 0.118833
Si Si5 0.694827 0.990810 0.899490
Si Si6 0.172266 0.839763 0.645123
Si Si7 0.426071 0.540437 0.339690
Si Si8 0.171361 0.422465 0.609086
O O1 0.848020 0.787244 0.249229
O O2 0.871561 0.958436 0.252278
O O3 0.855214 0.843093 0.037366
O O4 0.747236 0.905106 0.006431
O O5 0.677880 0.331285 0.065999
O O6 0.626006 0.169009 0.027925
O O7 0.541983 0.303499 0.918735
O O8 0.439595 0.578874 0.223976
O O9 0.268713 0.916105 0.088330
O O10 0.311515 0.767304 0.298099
O O11 0.250000 0.750000 0.000000
O O12 0.648190 0.965477 0.706161
O O13 0.652187 0.011368 0.962387
O O14 0.107830 0.879566 0.628444
O O15 0.243628 0.901668 0.767691
O O16 0.500000 0.500000 0.500000
#
# Coordination Sequence:
#
# PCOD8144981 Si02
#       8
#     8   8   4   8   8   8   8   8
#     4  11  22  37  56  87 125 152 193 244 303 349
#     4  11  23  38  56  84 118 156 196 247 296 362
#     4  12  24  38  60  80 116 166 196 238 286 360
#     4  11  19  36  59  85 115 148 200 237 293 350
#     4  11  20  35  60  88 116 155 191 253 295 354
#     4  10  22  36  56  86 120 156 191 244 290 353
#     4  12  22  37  56  87 120 161 192 227 288 365
#     4  10  22  37  60  88 118 152 201 250 306 347
#
# _framework density 20.232264000000001
#
# number of rings (size 3 to 8) (size 9 to 14) (size 15 to 20)
#    0.000    1.067    5.333    3.200    1.867    5.867 
#    0.000    0.000    0.000    0.800    0.000    0.000 
#    0.000    0.000    0.000    0.000    0.000    0.000 
#
# Total GULP energy -371766.168083 kJ/mol
# GULP energy per Si atom -12392.205603 kJ/mol
# Density = 2.018621 g / cm^3
# Si number density = 20.232264 Si / 1000 Ang^3
#
#
#
# Elastic Constant Matrix: (Units=GPa)
#
#
# Indices 1 2 3 4 5 6 
#
# 1 74.6756 11.7677 27.1906 0.0000 -22.2272 0.0000
# 2 11.7677 46.0038 21.8869 0.0000 -4.6980 0.0000
# 3 27.1906 21.8869 72.4019 0.0000 -25.7487 0.0000
# 4 0.0000 0.0000 0.0000 27.5192 0.0000 -10.2940
# 5 -22.2272 -4.6980 -25.7487 0.0000 38.1349 0.0000
# 6 0.0000 0.0000 0.0000 -10.2940 0.0000 30.9847
#
#
#
# Elastic Compliance Matrix: (Units=1/GPa)
#
#
# Indices 1 2 3 4 5 6 
#
# 1 0.017120 -0.002141 -0.003063 0.000000 0.007647 0.000000
# 2 -0.002141 0.025870 -0.008326 0.000000 -0.003683 0.000000
# 3 -0.003063 -0.008326 0.021687 0.000000 0.011832 0.000000
# 4 0.000000 0.000000 0.000000 0.041495 0.000000 0.013786
# 5 0.007647 -0.003683 0.011832 0.000000 0.038215 0.000000
# 6 0.000000 0.000000 0.000000 0.013786 0.000000 0.036854
#
#
# Mechanical properties :
#
#
# Convention : Reuss Voigt Hill
#
# Bulk Modulus (GPa) = 26.58368 34.97465 30.77917
# Shear Modulus (GPa) = 22.64081 28.14348 25.39215
#
# Velocity S-wave (km/s) = 3.34884 3.73368 3.54649
# Velocity P-wave (km/s) = 5.30290 5.99260 5.65827
#
# Compressibility (1/GPa) = 0.03761707
#
# Stress axis : x y z
#
# Youngs Moduli (GPa) = 58.41164 38.65453 46.11083
#
# Poissons Ratio (x) = 0.08277 0.14122
# Poissons Ratio (y) = 0.12507 0.38392
# Poissons Ratio (z) = 0.17889 0.32184
#
# Static dielectric constant tensor:
#      x y z
#    x 3.546140 0.000000 -0.675710 
#    y 0.000000 1.664050 0.000000 
#    z -0.675710 0.000000 3.571550 
# 
# 
# High freq. dielectric constant tensor:
#      x y z
#    x 1.772130 0.000000 -0.041460 
#    y 0.000000 1.785730 0.000000 
#    z -0.041460 0.000000 1.779390 
# 
# From -- ./inp_files/112406.got.cif
#   From: 2010.06.25/outbox.cif.g09.slc.cpg/sg15_57_cif.got.tgz:112406.got - 2010.06.28 07:06:18.
