data_PCOD8144471
_publ_section_title
;
Structure prediction by ZEFSAII (Michael W. Deem and Ramdas Pophale) SiO2 
 PCOD8144471
Probable space group: C 2/C
;
_chemical_formula_sum "Si O2"
_cell_formula_units_Z 64
_cell_length_a 14.946132
_cell_length_b 14.348858
_cell_length_c 23.905464
_cell_angle_alpha 90.000000
_cell_angle_beta 143.582069
_cell_angle_gamma 90.000000
_cell_volume 3043.609865
_symmetry_space_group_name_H-M "C 2/C"
_symmetry_group_IT_number 15
_symmetry_cell_setting 'monoclinic'
loop_
_space_group_symop_operation_xyz
x,y,z
-x,y,1/2-z
-x,-y,-z
x,-y,1/2+z
1/2+x,1/2+y,z
1/2-x,1/2+y,1/2-z
1/2-x,1/2-y,-z
1/2+x,1/2-y,1/2+z
loop_
_atom_site_type_symbol
_atom_site_label
_atom_site_fract_x
_atom_site_fract_y
_atom_site_fract_z
Si Si1 0.826705 0.549589 0.661281
Si Si2 0.907952 0.927581 0.992200
Si Si3 0.176838 0.069610 0.823124
Si Si4 0.219041 0.371951 0.618149
Si Si5 0.904921 0.269329 0.436523
Si Si6 0.154265 0.268990 0.396291
Si Si7 0.334082 0.735837 0.275738
Si Si8 0.164515 0.085591 0.691522
O O1 0.762461 0.463869 0.591696
O O2 0.778716 0.644727 0.605668
O O3 0.763959 0.539545 0.692530
O O4 0.000000 0.531993 0.750000
O O5 0.916891 0.819130 0.981928
O O6 0.986708 0.932981 0.092459
O O7 0.000000 0.000000 0.000000
O O8 0.261922 0.165790 0.881593
O O9 0.204295 0.047060 0.771755
O O10 0.000000 0.077218 0.750000
O O11 0.262630 0.979757 0.891665
O O12 0.338769 0.320634 0.639218
O O13 0.273468 0.354133 0.710430
O O14 0.053114 0.333876 0.518203
O O15 0.885052 0.220453 0.365479
O O16 0.250000 0.250000 0.500000
O O17 0.977758 0.286338 0.318940
O O18 0.192809 0.804257 0.203338
#
# Coordination Sequence:
#
# PCOD8144471 Si02
#       8
#     8   8   8   8   8   8   8   8
#     4  11  21  38  61 101 139 169 223 280 345 419
#     4  10  22  39  66  95 132 176 230 277 333 412
#     4  11  27  45  68  94 138 185 239 276 338 415
#     4  12  22  42  68 102 136 176 229 289 349 413
#     4  11  24  45  67  97 137 181 229 285 344 403
#     4  12  22  36  66 105 144 168 213 291 357 406
#     4  11  21  37  68  95 135 174 212 282 357 396
#     4  10  21  43  63  91 132 178 217 282 333 406
#
# _framework density 21.027660999999998
#
# number of rings (size 3 to 8) (size 9 to 14) (size 15 to 20)
#    0.000    1.000    5.000    2.250    3.500    1.500 
#    0.000    1.875    0.000    0.000    0.000    0.000 
#    0.000    0.000    0.000    0.000    0.000    0.000 
#
# Total GULP energy -396424.029185 kJ/mol
# GULP energy per Si atom -12388.250912 kJ/mol
# Density = 2.097980 g / cm^3
# Si number density = 21.027661 Si / 1000 Ang^3
#
#
#
# Elastic Constant Matrix: (Units=GPa)
#
#
# Indices 1 2 3 4 5 6 
#
# 1 65.2912 19.5244 24.2574 0.0000 9.2139 0.0000
# 2 19.5244 109.5099 26.4554 0.0000 14.7567 0.0000
# 3 24.2574 26.4554 116.5400 0.0000 12.9589 0.0000
# 4 0.0000 0.0000 0.0000 35.1987 0.0000 5.2779
# 5 9.2139 14.7567 12.9589 0.0000 22.7876 0.0000
# 6 0.0000 0.0000 0.0000 5.2779 0.0000 12.9271
#
#
#
# Elastic Compliance Matrix: (Units=1/GPa)
#
#
# Indices 1 2 3 4 5 6 
#
# 1 0.017502 -0.001879 -0.002738 0.000000 -0.004303 0.000000
# 2 -0.001879 0.010515 -0.001412 0.000000 -0.005246 0.000000
# 3 -0.002738 -0.001412 0.009871 0.000000 -0.003591 0.000000
# 4 0.000000 0.000000 0.000000 0.030263 0.000000 -0.012356
# 5 -0.004303 -0.005246 -0.003591 0.000000 0.051063 0.000000
# 6 0.000000 0.000000 0.000000 -0.012356 0.000000 0.082401
#
#
# Mechanical properties :
#
#
# Convention : Reuss Voigt Hill
#
# Bulk Modulus (GPa) = 38.71682 47.97948 43.34815
# Shear Modulus (GPa) = 22.49376 28.92294 25.70835
#
# Velocity S-wave (km/s) = 3.27421 3.71276 3.50036
# Velocity P-wave (km/s) = 5.72243 6.42233 6.08245
#
# Compressibility (1/GPa) = 0.02582857
#
# Stress axis : x y z
#
# Youngs Moduli (GPa) = 57.13491 95.10431 101.31054
#
# Poissons Ratio (x) = 0.17872 0.27739
# Poissons Ratio (y) = 0.10737 0.14309
# Poissons Ratio (z) = 0.15644 0.13433
#
# Static dielectric constant tensor:
#      x y z
#    x 3.767170 0.000000 0.043090 
#    y 0.000000 3.864750 0.000000 
#    z 0.043090 0.000000 4.369440 
# 
# 
# High freq. dielectric constant tensor:
#      x y z
#    x 1.796080 0.000000 0.000380 
#    y 0.000000 1.818170 0.000000 
#    z 0.000380 0.000000 1.847840 
# 
# From -- ./inp_files/274341.got.cif
#   From: 2010.06.25/outbox.cif.g09.slc.cpg/sg15_138_cif.got.tgz:274341.got - 2010.06.28 07:06:18.
