data_PCOD8144462
_publ_section_title
;
Structure prediction by ZEFSAII (Michael W. Deem and Ramdas Pophale) SiO2 
 PCOD8144462
Probable space group: C 2/C
;
_chemical_formula_sum "Si O2"
_cell_formula_units_Z 40
_cell_length_a 26.420841
_cell_length_b 5.453729
_cell_length_c 13.695719
_cell_angle_alpha 90.000000
_cell_angle_beta 78.656904
_cell_angle_gamma 90.000000
_cell_volume 1934.897697
_symmetry_space_group_name_H-M "C 2/C"
_symmetry_group_IT_number 15
_symmetry_cell_setting 'monoclinic'
loop_
_space_group_symop_operation_xyz
x,y,z
-x,y,1/2-z
-x,-y,-z
x,-y,1/2+z
1/2+x,1/2+y,z
1/2-x,1/2+y,1/2-z
1/2-x,1/2-y,-z
1/2+x,1/2-y,1/2+z
loop_
_atom_site_type_symbol
_atom_site_label
_atom_site_fract_x
_atom_site_fract_y
_atom_site_fract_z
Si Si1 0.358654 0.699840 0.247183
Si Si2 0.277039 0.449298 0.923355
Si Si3 0.173514 0.703890 0.953990
Si Si4 0.593851 0.025830 0.611983
Si Si5 0.945247 0.021063 0.821524
O O1 0.302288 0.652759 0.315280
O O2 0.354934 0.712521 0.132928
O O3 0.399578 0.484132 0.257559
O O4 0.380446 0.950368 0.289191
O O5 0.232123 0.632667 0.905854
O O6 0.250000 0.250000 0.000000
O O7 0.323107 0.577055 0.968003
O O8 0.139744 0.485252 0.014437
O O9 0.559414 0.778429 0.617833
O O10 0.560705 0.277476 0.606236
O O11 0.000000 0.009200 0.750000
#
# Coordination Sequence:
#
# PCOD8144462 Si02
#       5
#     8   8   8   8   8
#     4  10  24  39  63  94 130 173 215 262 324 381
#     4  11  22  39  58  91 132 170 217 262 313 383
#     4  11  23  39  63  91 132 175 213 266 322 385
#     4  10  21  43  62  94 128 162 216 267 314 383
#     4  10  21  43  69  90 129 168 212 274 327 373
#
# _framework density 20.672927999999999
#
# number of rings (size 3 to 8) (size 9 to 14) (size 15 to 20)
#    1.200    0.400    4.000    0.600    2.800    1.600 
#    0.000    2.000    0.000    0.000    0.000    0.000 
#    0.000    0.000    0.000    0.000    0.000    0.000 
#
# Total GULP energy -247789.167141 kJ/mol
# GULP energy per Si atom -12389.458357 kJ/mol
# Density = 2.062588 g / cm^3
# Si number density = 20.672928 Si / 1000 Ang^3
#
#
#
# Elastic Constant Matrix: (Units=GPa)
#
#
# Indices 1 2 3 4 5 6 
#
# 1 73.9720 21.2310 24.0230 0.0000 -27.9426 0.0000
# 2 21.2310 122.1549 19.1797 0.0000 -15.1563 0.0000
# 3 24.0230 19.1797 75.9729 0.0000 -5.9006 0.0000
# 4 0.0000 0.0000 0.0000 27.1353 0.0000 -11.8355
# 5 -27.9426 -15.1563 -5.9006 0.0000 32.2334 0.0000
# 6 0.0000 0.0000 0.0000 -11.8355 0.0000 26.8382
#
#
#
# Elastic Compliance Matrix: (Units=1/GPa)
#
#
# Indices 1 2 3 4 5 6 
#
# 1 0.022304 -0.000791 -0.005458 0.000000 0.017964 0.000000
# 2 -0.000791 0.009002 -0.001772 0.000000 0.003223 0.000000
# 3 -0.005458 -0.001772 0.015119 0.000000 -0.002797 0.000000
# 4 0.000000 0.000000 0.000000 0.045629 0.000000 0.020122
# 5 0.017964 0.003223 -0.002797 0.000000 0.047600 0.000000
# 6 0.000000 0.000000 0.000000 0.020122 0.000000 0.046134
#
#
# Mechanical properties :
#
#
# Convention : Reuss Voigt Hill
#
# Bulk Modulus (GPa) = 32.91325 44.55190 38.73257
# Shear Modulus (GPa) = 23.58978 31.08580 27.33779
#
# Velocity S-wave (km/s) = 3.38167 3.88196 3.64042
# Velocity P-wave (km/s) = 5.58598 6.45681 6.03712
#
# Compressibility (1/GPa) = 0.03038290
#
# Stress axis : x y z
#
# Youngs Moduli (GPa) = 44.83527 111.08780 66.14399
#
# Poissons Ratio (x) = 0.08784 0.36100
# Poissons Ratio (y) = 0.03545 0.11722
# Poissons Ratio (z) = 0.24470 0.19687
#
# Static dielectric constant tensor:
#      x y z
#    x 3.717460 0.000000 -0.220700 
#    y 0.000000 3.836180 0.000000 
#    z -0.220700 0.000000 3.334650 
# 
# 
# High freq. dielectric constant tensor:
#      x y z
#    x 1.800980 0.000000 -0.027750 
#    y 0.000000 1.810200 0.000000 
#    z -0.027750 0.000000 1.780260 
# 
# From -- ./inp_files/124759.got.cif
#   From: 2010.06.25/outbox.cif.g09.slc.cpg/sg15_63_cif.got.tgz:124759.got - 2010.06.28 07:06:18.
