data_PCOD8144370
_publ_section_title
;
Structure prediction by ZEFSAII (Michael W. Deem and Ramdas Pophale) SiO2 
 PCOD8144370
Probable space group: C 2/C
;
_chemical_formula_sum "Si O2"
_cell_formula_units_Z 36
_cell_length_a 23.692195
_cell_length_b 8.860413
_cell_length_c 12.928651
_cell_angle_alpha 90.000000
_cell_angle_beta 145.356438
_cell_angle_gamma 90.000000
_cell_volume 1542.835337
_symmetry_space_group_name_H-M "C 2/C"
_symmetry_group_IT_number 15
_symmetry_cell_setting 'monoclinic'
loop_
_space_group_symop_operation_xyz
x,y,z
-x,y,1/2-z
-x,-y,-z
x,-y,1/2+z
1/2+x,1/2+y,z
1/2-x,1/2+y,1/2-z
1/2-x,1/2-y,-z
1/2+x,1/2-y,1/2+z
loop_
_atom_site_type_symbol
_atom_site_label
_atom_site_fract_x
_atom_site_fract_y
_atom_site_fract_z
Si Si1 0.358332 0.096519 0.710728
Si Si2 0.649754 0.075702 0.041948
Si Si3 0.002363 0.342792 0.588991
Si Si4 0.500000 0.596977 0.750000
Si Si5 0.315907 0.402811 0.401889
O O1 0.359125 0.122292 0.591024
O O2 0.249487 0.119885 0.592939
O O3 0.396358 0.925363 0.794882
O O4 0.435956 0.206915 0.889430
O O5 0.650967 0.241729 0.097185
O O6 0.753513 0.991073 0.220493
O O7 0.559345 0.968178 0.937359
O O8 0.032741 0.200483 0.703079
O O9 0.410325 0.496530 0.577670
#
# Coordination Sequence:
#
# PCOD8144370 Si02
#       5
#     8   8   8   4   8
#     4  10  21  42  69  93 123 172 211 259 316 382
#     4  11  22  46  65  93 131 168 209 268 311 382
#     4  10  22  42  70  91 131 167 209 259 328 363
#     4  12  24  44  60  98 134 164 210 268 310 384
#     4  11  26  40  68  95 128 170 216 256 323 366
#
# _framework density 23.333662
#
# number of rings (size 3 to 8) (size 9 to 14) (size 15 to 20)
#    0.000    1.333    2.222    3.333    3.111    0.889 
#    8.000    2.222    0.000    0.000    0.000    0.000 
#    0.000    0.000    0.000    0.000    0.000    0.000 
#
# Total GULP energy -223108.221460 kJ/mol
# GULP energy per Si atom -12394.901192 kJ/mol
# Density = 2.328055 g / cm^3
# Si number density = 23.333662 Si / 1000 Ang^3
#
#
#
# Elastic Constant Matrix: (Units=GPa)
#
#
# Indices 1 2 3 4 5 6 
#
# 1 24.8389 -1.0465 -0.3783 0.0000 -5.4726 0.0000
# 2 -1.0465 126.2034 38.3765 0.0000 4.5022 0.0000
# 3 -0.3783 38.3765 99.6808 0.0000 -11.8047 0.0000
# 4 0.0000 0.0000 0.0000 28.3670 0.0000 13.3992
# 5 -5.4726 4.5022 -11.8047 0.0000 52.6605 0.0000
# 6 0.0000 0.0000 0.0000 13.3992 0.0000 -3.4418
#
#
#
# Elastic Compliance Matrix: (Units=1/GPa)
#
#
# Indices 1 2 3 4 5 6 
#
# 1 0.041248 -0.000027 0.000693 0.000000 0.004444 0.000000
# 2 -0.000027 0.009105 -0.003696 0.000000 -0.001610 0.000000
# 3 0.000693 -0.003696 0.011817 0.000000 0.003037 0.000000
# 4 0.000000 0.000000 0.000000 0.012418 0.000000 0.048343
# 5 0.004444 -0.001610 0.003037 0.000000 0.020270 0.000000
# 6 0.000000 0.000000 0.000000 0.048343 0.000000 -0.102345
#
#
# Mechanical properties :
#
#
# Convention : Reuss Voigt Hill
#
# Bulk Modulus (GPa) = 17.82209 36.06959 26.94584
# Shear Modulus (GPa) = 289.41696 29.76858 159.59277
#
# Velocity S-wave (km/s) = 11.14914 3.57568 8.27916
# Velocity P-wave (km/s) = 13.16785 5.70430 10.14720
#
# Compressibility (1/GPa) = 0.05611015
#
# Stress axis : x y z
#
# Youngs Moduli (GPa) = 24.24359 109.83188 84.62191
#
# Poissons Ratio (x) = 0.00301 -0.05868
# Poissons Ratio (y) = 0.00066 0.31277
# Poissons Ratio (z) = -0.01681 0.40594
#
# Static dielectric constant tensor:
#      x y z
#    x 4.179660 0.000000 -0.119690 
#    y 0.000000 4.204890 0.000000 
#    z -0.119690 0.000000 4.824560 
# 
# 
# High freq. dielectric constant tensor:
#      x y z
#    x 1.910830 0.000000 -0.009930 
#    y 0.000000 1.911620 0.000000 
#    z -0.009930 0.000000 1.946830 
# 
# From -- ./inp_files/150129.got.cif
#   From: 2010.06.25/outbox.cif.g09.slc.cpg/sg15_76_cif.got.tgz:150129.got - 2010.06.28 07:06:18.
