data_PCOD8144945
_publ_section_title
;
Structure prediction by ZEFSAII (Michael W. Deem and Ramdas Pophale) SiO2 
 PCOD8144945
Probable space group: C 2/C
;
_chemical_formula_sum "Si O2"
_cell_formula_units_Z 48
_cell_length_a 8.158086
_cell_length_b 33.667865
_cell_length_c 13.919643
_cell_angle_alpha 90.000000
_cell_angle_beta 41.678968
_cell_angle_gamma 90.000000
_cell_volume 2542.289573
_symmetry_space_group_name_H-M "C 2/C"
_symmetry_group_IT_number 15
_symmetry_cell_setting 'monoclinic'
loop_
_space_group_symop_operation_xyz
x,y,z
-x,y,1/2-z
-x,-y,-z
x,-y,1/2+z
1/2+x,1/2+y,z
1/2-x,1/2+y,1/2-z
1/2-x,1/2-y,-z
1/2+x,1/2-y,1/2+z
loop_
_atom_site_type_symbol
_atom_site_label
_atom_site_fract_x
_atom_site_fract_y
_atom_site_fract_z
Si Si1 0.090456 0.525607 0.820507
Si Si2 0.615817 0.204873 0.475329
Si Si3 0.500000 0.167097 0.250000
Si Si4 0.878093 0.222585 0.166862
Si Si5 0.063634 0.624939 0.028081
Si Si6 0.781821 0.549996 0.129089
Si Si7 0.500000 0.426184 0.250000
O O1 0.098300 0.478877 0.843122
O O2 0.351651 0.546891 0.736058
O O3 0.000000 0.531804 0.750000
O O4 0.880221 0.544059 0.978552
O O5 0.711722 0.224647 0.335024
O O6 0.407178 0.232936 0.613079
O O7 0.495665 0.161517 0.517029
O O8 0.854726 0.202104 0.438441
O O9 0.738612 0.194581 0.154565
O O10 0.584208 0.139987 0.126242
O O11 0.831241 0.595469 0.133561
O O12 0.310278 0.601829 0.889901
O O13 0.500000 0.540061 0.250000
#
# Coordination Sequence:
#
# PCOD8144945 Si02
#       7
#     8   8   4   8   8   8   4
#     4  10  22  42  63  88 119 162 202 247 299 359
#     4   9  19  37  56  79 111 152 188 243 287 343
#     4  10  22  35  54  90 112 148 198 238 294 357
#     4   9  19  35  56  79 111 146 198 233 285 360
#     4  10  23  37  58  85 121 151 187 250 298 339
#     4  10  22  39  61  89 120 155 203 246 295 361
#     4  10  22  45  56  88 126 154 204 244 296 367
#
# _framework density 18.880618999999999
#
# number of rings (size 3 to 8) (size 9 to 14) (size 15 to 20)
#    0.000    2.333    0.833    0.000    5.833    6.667 
#    3.000    0.000    3.667    0.000    0.000    0.000 
#    0.000    0.000    0.000    0.000    0.000    0.000 
#
# Total GULP energy -297452.837874 kJ/mol
# GULP energy per Si atom -12393.868245 kJ/mol
# Density = 1.883765 g / cm^3
# Si number density = 18.880619 Si / 1000 Ang^3
#
#
#
# Elastic Constant Matrix: (Units=GPa)
#
#
# Indices 1 2 3 4 5 6 
#
# 1 129.7080 64.1419 48.4745 0.0000 16.3224 0.0000
# 2 64.1419 141.8301 45.2159 0.0000 8.9127 0.0000
# 3 48.4745 45.2159 69.7162 0.0000 -9.6362 0.0000
# 4 0.0000 0.0000 0.0000 -46.9303 0.0000 50.2807
# 5 16.3224 8.9127 -9.6362 0.0000 15.0906 0.0000
# 6 0.0000 0.0000 0.0000 50.2807 0.0000 -13.1336
#
#
#
# Elastic Compliance Matrix: (Units=1/GPa)
#
#
# Indices 1 2 3 4 5 6 
#
# 1 0.017569 -0.001345 -0.015203 0.000000 -0.027917 0.000000
# 2 -0.001345 0.010542 -0.007197 0.000000 -0.009367 0.000000
# 3 -0.015203 -0.007197 0.035583 0.000000 0.043416 0.000000
# 4 0.000000 0.000000 0.000000 0.006870 0.000000 0.026300
# 5 -0.027917 -0.009367 0.043416 0.000000 0.129717 0.000000
# 6 0.000000 0.000000 0.000000 0.026300 0.000000 0.024548
#
#
# Mechanical properties :
#
#
# Convention : Reuss Voigt Hill
#
# Bulk Modulus (GPa) = 61.70667 72.99098 67.34882
# Shear Modulus (GPa) = 18.00380 3.23349 10.61864
#
# Velocity S-wave (km/s) = 3.09133 1.31008 2.37409
# Velocity P-wave (km/s) = 6.74502 6.40559 6.57749
#
# Compressibility (1/GPa) = 0.01620570
#
# Stress axis : x y z
#
# Youngs Moduli (GPa) = 56.91830 94.85992 28.10325
#
# Poissons Ratio (x) = 0.12755 0.42724
# Poissons Ratio (y) = 0.07653 0.20226
# Poissons Ratio (z) = 0.86530 0.68271
#
# Static dielectric constant tensor:
#      x y z
#    x 3.622300 0.000000 -0.128070 
#    y 0.000000 3.637450 0.000000 
#    z -0.128070 0.000000 3.418910 
# 
# 
# High freq. dielectric constant tensor:
#      x y z
#    x 1.732700 0.000000 -0.007290 
#    y 0.000000 1.743260 0.000000 
#    z -0.007290 0.000000 1.731150 
# 
# From -- ./inp_files/139420.got.cif
#   From: 2010.06.25/outbox.cif.g09.slc.cpg/sg15_70_cif.got.tgz:139420.got - 2010.06.28 07:06:18.
