data_PCOD8144285
_publ_section_title
;
Structure prediction by ZEFSAII (Michael W. Deem and Ramdas Pophale) SiO2 
 PCOD8144285
Probable space group: C 2/C
;
_chemical_formula_sum "Si O2"
_cell_formula_units_Z 56
_cell_length_a 11.597101
_cell_length_b 32.203391
_cell_length_c 8.858942
_cell_angle_alpha 90.000000
_cell_angle_beta 124.533263
_cell_angle_gamma 90.000000
_cell_volume 2725.544183
_symmetry_space_group_name_H-M "C 2/C"
_symmetry_group_IT_number 15
_symmetry_cell_setting 'monoclinic'
loop_
_space_group_symop_operation_xyz
x,y,z
-x,y,1/2-z
-x,-y,-z
x,-y,1/2+z
1/2+x,1/2+y,z
1/2-x,1/2+y,1/2-z
1/2-x,1/2-y,-z
1/2+x,1/2-y,1/2+z
loop_
_atom_site_type_symbol
_atom_site_label
_atom_site_fract_x
_atom_site_fract_y
_atom_site_fract_z
Si Si1 0.396245 0.187109 0.455659
Si Si2 0.096388 0.025374 0.685411
Si Si3 0.635811 0.027526 0.050311
Si Si4 0.299351 0.177710 0.694192
Si Si5 0.645785 0.262419 0.291243
Si Si6 0.312241 0.082364 0.705741
Si Si7 0.947398 0.601868 0.375767
O O1 0.306860 0.199735 0.536621
O O2 0.559975 0.185524 0.609936
O O3 0.364596 0.220361 0.307741
O O4 0.359409 0.141125 0.369068
O O5 0.164416 0.064546 0.652492
O O6 0.000000 0.041508 0.750000
O O7 0.223983 0.998919 0.849735
O O8 0.000000 0.000000 0.500000
O O9 0.655564 0.062026 0.198222
O O10 0.625647 0.053257 0.883098
O O11 0.500000 0.000000 0.000000
O O12 0.182518 0.198651 0.711360
O O13 0.276606 0.129565 0.633697
O O14 0.500000 0.276838 0.250000
O O15 0.750000 0.250000 0.500000
O O16 0.426200 0.085824 0.923207
O O17 0.000000 0.612985 0.250000
#
# Coordination Sequence:
#
# PCOD8144285 Si02
#       7
#     8   8   8   8   8   8   8
#     4  10  21  42  67 101 138 175 222 276 353 401
#     4  12  27  44  66  92 140 184 220 276 352 409
#     4  12  25  42  72 102 131 179 240 287 332 407
#     4  10  22  42  72  97 138 182 223 284 342 412
#     4  12  24  43  70 103 138 175 229 282 341 421
#     4  11  24  46  67 100 139 180 230 286 347 403
#     4  11  24  37  68 106 134 168 230 297 338 395
#
# _framework density 20.546355999999999
#
# number of rings (size 3 to 8) (size 9 to 14) (size 15 to 20)
#    0.000    0.857    5.714    1.286    6.000    0.571 
#    0.000    1.429    3.143    0.000    0.000    0.000 
#    0.000    0.000    0.000    0.000    0.000    0.000 
#
# Total GULP energy -346921.128335 kJ/mol
# GULP energy per Si atom -12390.040298 kJ/mol
# Density = 2.049959 g / cm^3
# Si number density = 20.546356 Si / 1000 Ang^3
#
#
#
# Elastic Constant Matrix: (Units=GPa)
#
#
# Indices 1 2 3 4 5 6 
#
# 1 162.3201 65.6792 51.7854 0.0000 -13.7938 0.0000
# 2 65.6792 131.0433 47.1931 0.0000 -13.4935 0.0000
# 3 51.7854 47.1931 87.7075 0.0000 -13.9329 0.0000
# 4 0.0000 0.0000 0.0000 30.1219 0.0000 -7.5436
# 5 -13.7938 -13.4935 -13.9329 0.0000 26.7989 0.0000
# 6 0.0000 0.0000 0.0000 -7.5436 0.0000 43.9372
#
#
#
# Elastic Compliance Matrix: (Units=1/GPa)
#
#
# Indices 1 2 3 4 5 6 
#
# 1 0.008494 -0.002972 -0.003226 0.000000 0.001199 0.000000
# 2 -0.002972 0.010638 -0.003664 0.000000 0.001922 0.000000
# 3 -0.003226 -0.003664 0.016046 0.000000 0.004837 0.000000
# 4 0.000000 0.000000 0.000000 0.034690 0.000000 0.005956
# 5 0.001199 0.001922 0.004837 0.000000 0.041414 0.000000
# 6 0.000000 0.000000 0.000000 0.005956 0.000000 0.023782
#
#
# Mechanical properties :
#
#
# Convention : Reuss Voigt Hill
#
# Bulk Modulus (GPa) = 64.70495 78.93182 71.81839
# Shear Modulus (GPa) = 31.26166 34.59913 32.93039
#
# Velocity S-wave (km/s) = 3.90490 4.10805 4.00776
# Velocity P-wave (km/s) = 7.20358 7.81033 7.51308
#
# Compressibility (1/GPa) = 0.01545477
#
# Stress axis : x y z
#
# Youngs Moduli (GPa) = 117.72667 94.00135 62.32115
#
# Poissons Ratio (x) = 0.27940 0.20102
# Poissons Ratio (y) = 0.34992 0.22834
# Poissons Ratio (z) = 0.37974 0.34441
#
# Static dielectric constant tensor:
#      x y z
#    x 4.137840 0.000000 -0.199740 
#    y 0.000000 4.045620 0.000000 
#    z -0.199740 0.000000 3.691270 
# 
# 
# High freq. dielectric constant tensor:
#      x y z
#    x 1.809670 0.000000 -0.025650 
#    y 0.000000 1.815320 0.000000 
#    z -0.025650 0.000000 1.795050 
# 
# From -- ./inp_files/35797.got.cif
#   From: 2010.06.25/outbox.cif.g09.slc.cpg/sg15_18_cif.got.tgz:35797.got - 2010.06.28 07:06:18.
