data_PCOD8144296
_publ_section_title
;
Structure prediction by ZEFSAII (Michael W. Deem and Ramdas Pophale) SiO2 
 PCOD8144296
Probable space group: C 2/C
;
_chemical_formula_sum "Si O2"
_cell_formula_units_Z 60
_cell_length_a 11.558043
_cell_length_b 20.160202
_cell_length_c 18.559704
_cell_angle_alpha 90.000000
_cell_angle_beta 137.697040
_cell_angle_gamma 90.000000
_cell_volume 2910.703888
_symmetry_space_group_name_H-M "C 2/C"
_symmetry_group_IT_number 15
_symmetry_cell_setting 'monoclinic'
loop_
_space_group_symop_operation_xyz
x,y,z
-x,y,1/2-z
-x,-y,-z
x,-y,1/2+z
1/2+x,1/2+y,z
1/2-x,1/2+y,1/2-z
1/2-x,1/2-y,-z
1/2+x,1/2-y,1/2+z
loop_
_atom_site_type_symbol
_atom_site_label
_atom_site_fract_x
_atom_site_fract_y
_atom_site_fract_z
Si Si1 0.186765 0.253102 0.313392
Si Si2 0.513041 0.619243 0.836626
Si Si3 0.281608 0.260285 0.204810
Si Si4 0.454391 0.161322 0.503318
Si Si5 0.500000 0.849032 0.750000
Si Si6 0.611285 0.056899 0.909233
Si Si7 0.388669 0.088803 0.052143
Si Si8 0.737581 0.091336 0.822381
O O1 0.214344 0.225581 0.246107
O O2 0.327341 0.222392 0.431397
O O3 0.199153 0.331906 0.317922
O O4 0.000000 0.228715 0.250000
O O5 0.500000 0.585981 0.750000
O O6 0.448776 0.695096 0.800553
O O7 0.401785 0.579830 0.846017
O O8 0.706586 0.623631 0.953954
O O9 0.332807 0.198520 0.178515
O O10 0.141194 0.309062 0.106486
O O11 0.372389 0.120115 0.530998
O O12 0.474423 0.113276 0.443913
O O13 0.533553 0.895037 0.833938
O O14 0.754195 0.060461 0.910628
O O15 0.420563 0.056039 0.789293
O O16 0.639336 0.990004 0.967399
#
# Coordination Sequence:
#
# PCOD8144296 Si02
#       8
#     8   8   8   8   4   8   8   8
#     4  11  22  41  66  99 128 164 220 277 335 396
#     4  11  21  41  67  99 127 172 229 277 334 392
#     4  11  22  39  67  95 131 165 211 288 342 391
#     4  12  23  42  71  95 129 174 222 276 339 392
#     4  12  24  40  60 104 136 162 220 278 342 390
#     4  11  22  44  64  90 133 183 224 257 331 407
#     4  12  26  41  66  97 135 183 221 272 328 403
#     4  10  21  42  67  92 130 180 219 270 338 400
#
# _framework density 20.613571
#
# number of rings (size 3 to 8) (size 9 to 14) (size 15 to 20)
#    0.000    0.800    7.333    1.200    3.733    3.733 
#    0.000    2.000    0.000    0.000    0.000    0.000 
#    0.000    0.000    0.000    0.000    0.000    0.000 
#
# Total GULP energy -371952.002766 kJ/mol
# GULP energy per Si atom -12398.400092 kJ/mol
# Density = 2.056665 g / cm^3
# Si number density = 20.613571 Si / 1000 Ang^3
#
#
#
# Elastic Constant Matrix: (Units=GPa)
#
#
# Indices 1 2 3 4 5 6 
#
# 1 124.8684 20.8147 33.9857 -0.0001 -11.4449 0.0000
# 2 20.8147 64.4971 23.2120 -0.0001 3.4103 0.0000
# 3 33.9857 23.2120 89.9207 -0.0004 -8.8238 -0.0001
# 4 -0.0001 -0.0001 -0.0004 20.1202 -0.0001 -9.6381
# 5 -11.4449 3.4103 -8.8238 -0.0001 32.7928 0.0000
# 6 0.0000 0.0000 -0.0001 -9.6381 0.0000 16.0372
#
#
#
# Elastic Compliance Matrix: (Units=1/GPa)
#
#
# Indices 1 2 3 4 5 6 
#
# 1 0.009363 -0.002196 -0.002700 0.000000 0.002770 0.000000
# 2 -0.002196 0.017909 -0.004161 0.000000 -0.003749 0.000000
# 3 -0.002700 -0.004161 0.013522 0.000000 0.003129 0.000000
# 4 0.000000 0.000000 0.000000 0.069794 0.000000 0.041946
# 5 0.002770 -0.003749 0.003129 0.000000 0.032693 0.000000
# 6 0.000000 0.000000 0.000000 0.041946 0.000000 0.087564
#
#
# Mechanical properties :
#
#
# Convention : Reuss Voigt Hill
#
# Bulk Modulus (GPa) = 44.09112 48.36791 46.22952
# Shear Modulus (GPa) = 19.49162 27.20829 23.34995
#
# Velocity S-wave (km/s) = 3.07835 3.63701 3.36928
# Velocity P-wave (km/s) = 5.83702 6.41500 6.13282
#
# Compressibility (1/GPa) = 0.02268031
#
# Stress axis : x y z
#
# Youngs Moduli (GPa) = 106.79972 55.83779 73.95088
#
# Poissons Ratio (x) = 0.12265 0.19967
# Poissons Ratio (y) = 0.23458 0.30769
# Poissons Ratio (z) = 0.28837 0.23232
#
# Static dielectric constant tensor:
#      x y z
#    x 4.336810 0.000000 -0.255900 
#    y 0.000000 3.450510 0.000000 
#    z -0.255900 0.000000 3.572090 
# 
# 
# High freq. dielectric constant tensor:
#      x y z
#    x 1.829160 0.000000 -0.016530 
#    y 0.000000 1.785840 0.000000 
#    z -0.016530 0.000000 1.791370 
# 
# From -- ./inp_files/200543.got.cif
#   From: 2010.06.25/outbox.cif.g09.slc.cpg/sg15_101_cif.got.tgz:200543.got - 2010.06.28 07:06:18.
