data_PCOD8144813
_publ_section_title
;
Structure prediction by ZEFSAII (Michael W. Deem and Ramdas Pophale) SiO2 
 PCOD8144813
Probable space group: C 2/C
;
_chemical_formula_sum "Si O2"
_cell_formula_units_Z 64
_cell_length_a 24.243934
_cell_length_b 11.403565
_cell_length_c 11.590647
_cell_angle_alpha 90.000000
_cell_angle_beta 106.064120
_cell_angle_gamma 90.000000
_cell_volume 3079.309863
_symmetry_space_group_name_H-M "C 2/C"
_symmetry_group_IT_number 15
_symmetry_cell_setting 'monoclinic'
loop_
_space_group_symop_operation_xyz
x,y,z
-x,y,1/2-z
-x,-y,-z
x,-y,1/2+z
1/2+x,1/2+y,z
1/2-x,1/2+y,1/2-z
1/2-x,1/2-y,-z
1/2+x,1/2-y,1/2+z
loop_
_atom_site_type_symbol
_atom_site_label
_atom_site_fract_x
_atom_site_fract_y
_atom_site_fract_z
Si Si1 0.545873 0.702541 0.683865
Si Si2 0.797306 0.682500 0.955499
Si Si3 0.111016 0.368164 0.389020
Si Si4 0.081328 0.055162 0.262839
Si Si5 0.797572 0.428712 0.870587
Si Si6 0.316412 0.301268 0.727643
Si Si7 0.975094 0.180240 0.088547
Si Si8 0.629820 0.895025 0.799477
O O1 0.500000 0.746151 0.750000
O O2 0.572041 0.580188 0.737789
O O3 0.517567 0.681906 0.543731
O O4 0.593040 0.803769 0.703609
O O5 0.774705 0.556068 0.897802
O O6 0.816176 0.760738 0.859185
O O7 0.750000 0.750000 0.000000
O O8 0.851470 0.666220 0.070742
O O9 0.146137 0.392481 0.525955
O O10 0.154436 0.295637 0.334588
O O11 0.050696 0.304809 0.382354
O O12 0.094645 0.487839 0.312667
O O13 0.145292 0.081108 0.257495
O O14 0.070674 0.080991 0.393754
O O15 0.037514 0.147255 0.175182
O O16 0.746926 0.333358 0.855338
O O17 0.815322 0.432450 0.745971
#
# Coordination Sequence:
#
# PCOD8144813 Si02
#       8
#     8   8   8   8   8   8   8   8
#     4  12  25  43  67  97 133 169 225 272 333 395
#     4  11  24  41  64  95 140 173 219 276 321 389
#     4  10  22  45  66  92 129 174 224 268 332 389
#     4  10  24  41  66  98 132 174 221 272 329 390
#     4  11  22  43  64  97 133 172 222 271 324 398
#     4  11  23  40  68  95 128 180 217 267 331 393
#     4  10  21  45  68  90 131 175 213 281 328 385
#     4  11  24  42  65  97 136 174 216 274 331 397
#
# _framework density 20.783877
#
# number of rings (size 3 to 8) (size 9 to 14) (size 15 to 20)
#    0.000    1.250    5.000    0.750    3.500    0.000 
#    6.750    0.625    0.000    0.000    0.000    0.000 
#    0.000    0.000    0.000    0.000    0.000    0.000 
#
# Total GULP energy -396702.259341 kJ/mol
# GULP energy per Si atom -12396.945604 kJ/mol
# Density = 2.073657 g / cm^3
# Si number density = 20.783877 Si / 1000 Ang^3
#
#
#
# Elastic Constant Matrix: (Units=GPa)
#
#
# Indices 1 2 3 4 5 6 
#
# 1 63.3217 39.6527 24.7806 0.0000 -8.9761 0.0000
# 2 39.6527 110.8955 26.6589 0.0000 -0.2932 0.0000
# 3 24.7806 26.6589 94.8905 0.0000 -21.2074 0.0000
# 4 0.0000 0.0000 0.0000 28.7784 0.0000 -3.7241
# 5 -8.9761 -0.2932 -21.2074 0.0000 35.1654 0.0000
# 6 0.0000 0.0000 0.0000 -3.7241 0.0000 25.3785
#
#
#
# Elastic Compliance Matrix: (Units=1/GPa)
#
#
# Indices 1 2 3 4 5 6 
#
# 1 0.021926 -0.007140 -0.002869 0.000000 0.003807 0.000000
# 2 -0.007140 0.012096 -0.002217 0.000000 -0.003059 0.000000
# 3 -0.002869 -0.002217 0.013572 0.000000 0.007434 0.000000
# 4 0.000000 0.000000 0.000000 0.035421 0.000000 0.005198
# 5 0.003807 -0.003059 0.007434 0.000000 0.033867 0.000000
# 6 0.000000 0.000000 0.000000 0.005198 0.000000 0.040166
#
#
# Mechanical properties :
#
#
# Convention : Reuss Voigt Hill
#
# Bulk Modulus (GPa) = 43.21394 50.14356 46.67875
# Shear Modulus (GPa) = 26.42509 29.73217 28.07863
#
# Velocity S-wave (km/s) = 3.56957 3.78635 3.67956
# Velocity P-wave (km/s) = 6.15031 6.57980 6.36868
#
# Compressibility (1/GPa) = 0.02314068
#
# Stress axis : x y z
#
# Youngs Moduli (GPa) = 45.60761 82.67516 73.68051
#
# Poissons Ratio (x) = 0.59032 0.21140
# Poissons Ratio (y) = 0.32565 0.16336
# Poissons Ratio (z) = 0.13086 0.18330
#
# Static dielectric constant tensor:
#      x y z
#    x 3.714870 0.000000 -0.277630 
#    y 0.000000 3.912250 0.000000 
#    z -0.277630 0.000000 3.983660 
# 
# 
# High freq. dielectric constant tensor:
#      x y z
#    x 1.801800 0.000000 -0.017470 
#    y 0.000000 1.819780 0.000000 
#    z -0.017470 0.000000 1.821700 
# 
# From -- ./inp_files/117613.got.cif
#   From: 2010.06.25/outbox.cif.g09.slc.cpg/sg15_59_cif.got.tgz:117613.got - 2010.06.28 07:06:18.
