data_PCOD8144010
_publ_section_title
;
Structure prediction by ZEFSAII (Michael W. Deem and Ramdas Pophale) SiO2 
 PCOD8144010
Probable space group: C 2/C
;
_chemical_formula_sum "Si O2"
_cell_formula_units_Z 44
_cell_length_a 5.228925
_cell_length_b 12.975947
_cell_length_c 32.493606
_cell_angle_alpha 90.000000
_cell_angle_beta 86.271845
_cell_angle_gamma 90.000000
_cell_volume 2200.033796
_symmetry_space_group_name_H-M "C 2/C"
_symmetry_group_IT_number 15
_symmetry_cell_setting 'monoclinic'
loop_
_space_group_symop_operation_xyz
x,y,z
-x,y,1/2-z
-x,-y,-z
x,-y,1/2+z
1/2+x,1/2+y,z
1/2-x,1/2+y,1/2-z
1/2-x,1/2-y,-z
1/2+x,1/2-y,1/2+z
loop_
_atom_site_type_symbol
_atom_site_label
_atom_site_fract_x
_atom_site_fract_y
_atom_site_fract_z
Si Si1 0.150254 0.131271 0.182989
Si Si2 0.243958 0.867226 0.513353
Si Si3 0.000000 0.989702 0.250000
Si Si4 0.358257 0.132133 0.794267
Si Si5 0.858657 0.543293 0.353719
Si Si6 0.770441 0.544978 0.448875
O O1 0.135506 0.250759 0.193468
O O2 0.392761 0.117551 0.150314
O O3 0.200163 0.067461 0.224981
O O4 0.880231 0.098381 0.165917
O O5 0.250000 0.750000 0.500000
O O6 0.484128 0.889152 0.540201
O O7 0.982864 0.888066 0.540624
O O8 0.258155 0.936661 0.472478
O O9 0.919361 0.914123 0.213612
O O10 0.500000 0.109964 0.750000
O O11 0.453526 0.063277 0.831572
O O12 0.785480 0.518022 0.400958
#
# Coordination Sequence:
#
# PCOD8144010 Si02
#       6
#     8   8   4   8   8   8
#     4  11  24  39  61  86 120 164 208 252 303 354
#     4  10  21  41  69  93 120 163 197 241 301 374
#     4  10  22  38  60  84 116 156 214 258 296 358
#     4  11  23  39  63  85 118 166 210 251 307 355
#     4  11  25  41  59  93 127 157 200 260 302 357
#     4  10  22  40  63  95 127 154 200 247 302 364
#
# _framework density 19.999690999999999
#
# number of rings (size 3 to 8) (size 9 to 14) (size 15 to 20)
#    0.000    1.455    2.727    1.636    2.545    2.909 
#    0.000    0.000    0.000    0.000    0.000    0.000 
#    0.000    0.000    0.000    0.000    0.000    0.000 
#
# Total GULP energy -272668.915151 kJ/mol
# GULP energy per Si atom -12394.041598 kJ/mol
# Density = 1.995417 g / cm^3
# Si number density = 19.999691 Si / 1000 Ang^3
#
#
#
# Elastic Constant Matrix: (Units=GPa)
#
#
# Indices 1 2 3 4 5 6 
#
# 1 128.3549 53.8927 39.2127 0.0000 -11.2980 0.0000
# 2 53.8927 151.7105 63.8674 0.0000 2.1069 0.0000
# 3 39.2127 63.8674 143.3196 0.0000 -11.8944 0.0000
# 4 0.0000 0.0000 0.0000 18.9269 0.0000 -1.1078
# 5 -11.2980 2.1069 -11.8944 0.0000 21.2492 0.0000
# 6 0.0000 0.0000 0.0000 -1.1078 0.0000 16.2486
#
#
#
# Elastic Compliance Matrix: (Units=1/GPa)
#
#
# Indices 1 2 3 4 5 6 
#
# 1 0.009844 -0.003214 -0.000839 0.000000 0.005083 0.000000
# 2 -0.003214 0.009345 -0.003675 0.000000 -0.004693 0.000000
# 3 -0.000839 -0.003675 0.009268 0.000000 0.005106 0.000000
# 4 0.000000 0.000000 0.000000 0.053047 0.000000 0.003617
# 5 0.005083 -0.004693 0.005106 0.000000 0.053087 0.000000
# 6 0.000000 0.000000 0.000000 0.003617 0.000000 0.061790
#
#
# Mechanical properties :
#
#
# Convention : Reuss Voigt Hill
#
# Bulk Modulus (GPa) = 76.91224 81.92561 79.41893
# Shear Modulus (GPa) = 23.12977 29.04577 26.08777
#
# Velocity S-wave (km/s) = 3.40443 3.81505 3.61558
# Velocity P-wave (km/s) = 7.34804 7.77551 7.56480
#
# Compressibility (1/GPa) = 0.01300183
#
# Stress axis : x y z
#
# Youngs Moduli (GPa) = 101.58153 107.00389 107.89478
#
# Poissons Ratio (x) = 0.34395 0.09054
# Poissons Ratio (y) = 0.32652 0.39647
# Poissons Ratio (z) = 0.08524 0.39320
#
# Static dielectric constant tensor:
#      x y z
#    x 3.616730 0.000000 -0.034460 
#    y 0.000000 3.522820 0.000000 
#    z -0.034460 0.000000 3.646620 
# 
# 
# High freq. dielectric constant tensor:
#      x y z
#    x 1.787470 0.000000 -0.007050 
#    y 0.000000 1.784630 0.000000 
#    z -0.007050 0.000000 1.780420 
# 
# From -- ./inp_files/304918.got.cif
#   From: 2010.06.25/outbox.cif.g09.slc.cpg/sg15_153_cif.got.tgz:304918.got - 2010.06.28 07:06:18.
