data_PCOD8144576
_publ_section_title
;
Structure prediction by ZEFSAII (Michael W. Deem and Ramdas Pophale) SiO2 
 PCOD8144576
Probable space group: C 2/C
;
_chemical_formula_sum "Si O2"
_cell_formula_units_Z 32
_cell_length_a 7.981452
_cell_length_b 14.810499
_cell_length_c 20.209806
_cell_angle_alpha 90.000000
_cell_angle_beta 147.426712
_cell_angle_gamma 90.000000
_cell_volume 1286.177827
_symmetry_space_group_name_H-M "C 2/C"
_symmetry_group_IT_number 15
_symmetry_cell_setting 'monoclinic'
loop_
_space_group_symop_operation_xyz
x,y,z
-x,y,1/2-z
-x,-y,-z
x,-y,1/2+z
1/2+x,1/2+y,z
1/2-x,1/2+y,1/2-z
1/2-x,1/2-y,-z
1/2+x,1/2-y,1/2+z
loop_
_atom_site_type_symbol
_atom_site_label
_atom_site_fract_x
_atom_site_fract_y
_atom_site_fract_z
Si Si1 0.759221 0.651763 0.282836
Si Si2 0.231360 0.351719 0.511593
Si Si3 0.091878 0.173490 0.853366
Si Si4 0.427271 0.033769 0.801988
O O1 0.500000 0.675669 0.250000
O O2 0.938905 0.557264 0.351104
O O3 0.000230 0.736272 0.364481
O O4 0.569342 0.625240 0.152619
O O5 0.250000 0.250000 0.500000
O O6 0.954167 0.357914 0.475261
O O7 0.174432 0.405039 0.424170
O O8 0.000000 0.204726 0.750000
O O9 0.904264 0.084146 0.810507
O O10 0.500000 0.015596 0.750000
#
# Coordination Sequence:
#
# PCOD8144576 Si02
#       4
#     8   8   8   8
#     4  12  25  44  71 102 140 180 229 285 340 404
#     4  11  24  45  73  97 139 185 224 279 352 398
#     4  10  21  43  67  98 139 175 223 283 330 408
#     4  11  25  44  69 102 142 176 233 281 335 410
#
# _framework density 24.879918
#
# number of rings (size 3 to 8) (size 9 to 14) (size 15 to 20)
#    0.000    1.000    5.000    3.750    0.000    6.000 
#    0.000    0.000    0.000    0.000    0.000    0.000 
#    0.000    0.000    0.000    0.000    0.000    0.000 
#
# Total GULP energy -198228.375034 kJ/mol
# GULP energy per Si atom -12389.273440 kJ/mol
# Density = 2.482329 g / cm^3
# Si number density = 24.879918 Si / 1000 Ang^3
#
#
#
# Elastic Constant Matrix: (Units=GPa)
#
#
# Indices 1 2 3 4 5 6 
#
# 1 100.2351 28.2628 -14.0390 0.0020 7.4858 0.0009
# 2 28.2628 117.7599 -19.0933 -0.0124 4.9546 -0.0040
# 3 -14.0390 -19.0933 78.8822 -0.0119 7.7541 -0.0048
# 4 0.0020 -0.0124 -0.0119 29.2437 0.0002 6.5120
# 5 7.4858 4.9546 7.7541 0.0002 25.4511 0.0007
# 6 0.0009 -0.0040 -0.0048 6.5120 0.0007 46.1299
#
#
#
# Elastic Compliance Matrix: (Units=1/GPa)
#
#
# Indices 1 2 3 4 5 6 
#
# 1 0.011106 -0.002237 0.001766 -0.000001 -0.003369 0.000000
# 2 -0.002237 0.009440 0.002064 0.000005 -0.001809 0.000000
# 3 0.001766 0.002064 0.014001 0.000006 -0.005187 0.000001
# 4 -0.000001 0.000005 0.000006 0.035305 -0.000003 -0.004984
# 5 -0.003369 -0.001809 -0.005187 -0.000003 0.042214 -0.000001
# 6 0.000000 0.000000 0.000001 -0.004984 -0.000001 0.022381
#
#
# Mechanical properties :
#
#
# Convention : Reuss Voigt Hill
#
# Bulk Modulus (GPa) = 26.50153 31.90426 29.20290
# Shear Modulus (GPa) = 34.76093 40.28139 37.52116
#
# Velocity S-wave (km/s) = 3.74190 4.02809 3.88763
# Velocity P-wave (km/s) = 5.41701 5.87240 5.64930
#
# Compressibility (1/GPa) = 0.03773367
#
# Stress axis : x y z
#
# Youngs Moduli (GPa) = 90.03784 105.93600 71.42317
#
# Poissons Ratio (x) = 0.23703 -0.12615
# Poissons Ratio (y) = 0.20146 -0.14745
# Poissons Ratio (z) = -0.15903 -0.21870
#
# Static dielectric constant tensor:
#      x y z
#    x 5.107670 -0.000010 0.548880 
#    y -0.000010 4.303280 -0.000150 
#    z 0.548880 -0.000150 4.492720 
# 
# 
# High freq. dielectric constant tensor:
#      x y z
#    x 1.987540 0.000000 0.004240 
#    y 0.000000 2.005800 0.000000 
#    z 0.004240 0.000000 1.985650 
# 
# From -- ./inp_files/75289.got.cif
#   From: 2010.06.25/outbox.cif.g09.slc.cpg/sg15_38_cif.got.tgz:75289.got - 2010.06.28 07:06:18.
