data_PCOD8144424
_publ_section_title
;
Structure prediction by ZEFSAII (Michael W. Deem and Ramdas Pophale) SiO2 
 PCOD8144424
Probable space group: C 2/C
;
_chemical_formula_sum "Si O2"
_cell_formula_units_Z 56
_cell_length_a 8.892770
_cell_length_b 24.967102
_cell_length_c 11.921215
_cell_angle_alpha 90.000000
_cell_angle_beta 70.182645
_cell_angle_gamma 90.000000
_cell_volume 2490.077850
_symmetry_space_group_name_H-M "C 2/C"
_symmetry_group_IT_number 15
_symmetry_cell_setting 'monoclinic'
loop_
_space_group_symop_operation_xyz
x,y,z
-x,y,1/2-z
-x,-y,-z
x,-y,1/2+z
1/2+x,1/2+y,z
1/2-x,1/2+y,1/2-z
1/2-x,1/2-y,-z
1/2+x,1/2-y,1/2+z
loop_
_atom_site_type_symbol
_atom_site_label
_atom_site_fract_x
_atom_site_fract_y
_atom_site_fract_z
Si Si1 0.173390 0.586469 0.527594
Si Si2 0.964828 0.319473 0.128253
Si Si3 0.981171 0.062580 0.023145
Si Si4 0.878014 0.138104 0.870074
Si Si5 0.729724 0.926122 0.756548
Si Si6 0.935710 0.247572 0.950152
Si Si7 0.500000 0.166028 0.250000
Si Si8 0.500000 0.983603 0.250000
O O1 0.102441 0.645304 0.537410
O O2 0.346029 0.588963 0.542575
O O3 0.206568 0.565403 0.394405
O O4 0.041758 0.552462 0.630763
O O5 0.000000 0.313524 0.250000
O O6 0.790716 0.344904 0.142841
O O7 0.989654 0.261054 0.064428
O O8 0.913031 0.073516 0.166154
O O9 0.856108 0.091240 0.968393
O O10 0.000000 0.000000 0.000000
O O11 0.979655 0.188502 0.896456
O O12 0.000000 0.112999 0.750000
O O13 0.653488 0.871869 0.725800
O O14 0.654108 0.979552 0.724230
O O15 0.996979 0.295815 0.857914
O O16 0.750000 0.250000 0.000000
#
# Coordination Sequence:
#
# PCOD8144424 Si02
#       8
#     8   8   8   8   8   8   4   4
#     4  12  24  43  69 100 144 187 243 304 367 434
#     4  11  23  44  73 108 144 187 243 303 366 444
#     4  12  27  48  66 105 147 192 247 305 372 436
#     4  11  25  45  74 104 144 191 244 300 370 441
#     4  11  24  42  68 100 140 190 246 301 366 437
#     4  10  21  42  71 105 140 182 236 297 364 439
#     4  11  20  42  74 106 138 188 239 302 360 442
#     4  11  24  40  66 102 138 188 249 294 370 438
#
# _framework density 22.489258
#
# number of rings (size 3 to 8) (size 9 to 14) (size 15 to 20)
#    0.000    0.857    4.286    3.429    2.000    2.286 
#    0.000    7.143    0.000    0.000    0.000    0.000 
#    0.000    0.000    0.000    0.000    0.000    0.000 
#
# Total GULP energy -346965.933169 kJ/mol
# GULP energy per Si atom -12391.640470 kJ/mol
# Density = 2.243807 g / cm^3
# Si number density = 22.489258 Si / 1000 Ang^3
#
#
#
# Elastic Constant Matrix: (Units=GPa)
#
#
# Indices 1 2 3 4 5 6 
#
# 1 90.9357 37.2268 37.0380 0.0000 2.1195 0.0000
# 2 37.2268 113.0445 52.2944 0.0000 9.5804 0.0000
# 3 37.0380 52.2944 156.9879 0.0000 2.4117 0.0000
# 4 0.0000 0.0000 0.0000 31.1928 0.0000 7.9087
# 5 2.1195 9.5804 2.4117 0.0000 47.6719 0.0000
# 6 0.0000 0.0000 0.0000 7.9087 0.0000 24.6030
#
#
#
# Elastic Compliance Matrix: (Units=1/GPa)
#
#
# Indices 1 2 3 4 5 6 
#
# 1 0.013209 -0.003457 -0.001968 0.000000 0.000207 0.000000
# 2 -0.003457 0.011542 -0.002998 0.000000 -0.002014 0.000000
# 3 -0.001968 -0.002998 0.007828 0.000000 0.000294 0.000000
# 4 0.000000 0.000000 0.000000 0.034903 0.000000 -0.011220
# 5 0.000207 -0.002014 0.000294 0.000000 0.021357 0.000000
# 6 0.000000 0.000000 0.000000 -0.011220 0.000000 0.044252
#
#
# Mechanical properties :
#
#
# Convention : Reuss Voigt Hill
#
# Bulk Modulus (GPa) = 63.56081 68.23187 65.89634
# Shear Modulus (GPa) = 32.22004 36.32080 34.27042
#
# Velocity S-wave (km/s) = 3.78919 4.02310 3.90790
# Velocity P-wave (km/s) = 6.88971 7.21014 7.05174
#
# Compressibility (1/GPa) = 0.01573297
#
# Stress axis : x y z
#
# Youngs Moduli (GPa) = 75.70780 86.63864 127.73900
#
# Poissons Ratio (x) = 0.29950 0.25138
# Poissons Ratio (y) = 0.26172 0.38300
# Poissons Ratio (z) = 0.14899 0.25977
#
# Static dielectric constant tensor:
#      x y z
#    x 3.991150 0.000000 -0.003740 
#    y 0.000000 4.732830 0.000000 
#    z -0.003740 0.000000 4.195220 
# 
# 
# High freq. dielectric constant tensor:
#      x y z
#    x 1.873000 0.000000 -0.008390 
#    y 0.000000 1.886970 0.000000 
#    z -0.008390 0.000000 1.906520 
# 
# From -- ./inp_files/81306.got.cif
#   From: 2010.06.25/outbox.cif.g09.slc.cpg/sg15_41_cif.got.tgz:81306.got - 2010.06.28 07:06:18.
