data_PCOD8144100
_publ_section_title
;
Structure prediction by ZEFSAII (Michael W. Deem and Ramdas Pophale) SiO2 
 PCOD8144100
Probable space group: C 2/C
;
_chemical_formula_sum "Si O2"
_cell_formula_units_Z 60
_cell_length_a 16.950493
_cell_length_b 14.754415
_cell_length_c 12.883756
_cell_angle_alpha 90.000000
_cell_angle_beta 109.076444
_cell_angle_gamma 90.000000
_cell_volume 3045.207827
_symmetry_space_group_name_H-M "C 2/C"
_symmetry_group_IT_number 15
_symmetry_cell_setting 'monoclinic'
loop_
_space_group_symop_operation_xyz
x,y,z
-x,y,1/2-z
-x,-y,-z
x,-y,1/2+z
1/2+x,1/2+y,z
1/2-x,1/2+y,1/2-z
1/2-x,1/2-y,-z
1/2+x,1/2-y,1/2+z
loop_
_atom_site_type_symbol
_atom_site_label
_atom_site_fract_x
_atom_site_fract_y
_atom_site_fract_z
Si Si1 0.882490 0.923344 0.835356
Si Si2 0.391758 0.246630 0.390693
Si Si3 0.203330 0.916637 0.090772
Si Si4 0.368517 0.684590 0.657187
Si Si5 0.500000 0.463446 0.250000
Si Si6 0.235542 0.588763 0.114678
Si Si7 0.798692 0.394857 0.334472
Si Si8 0.077064 0.257839 0.028888
O O1 0.820688 0.898178 0.714964
O O2 0.914865 0.833534 0.902788
O O3 0.834560 0.985309 0.898310
O O4 0.962711 0.975687 0.825646
O O5 0.369904 0.342501 0.434067
O O6 0.396828 0.257118 0.268729
O O7 0.322993 0.173820 0.391293
O O8 0.481115 0.215848 0.471284
O O9 0.275283 0.888900 0.203344
O O10 0.243971 0.918914 0.996765
O O11 0.428190 0.597789 0.667815
O O12 0.274805 0.648917 0.628334
O O13 0.375154 0.748358 0.560036
O O14 0.186573 0.498654 0.127434
O O15 0.883343 0.340272 0.389904
#
# Coordination Sequence:
#
# PCOD8144100 Si02
#       8
#     8   8   8   8   4   8   8   8
#     4  11  24  37  65  95 122 154 203 250 323 373
#     4  11  23  38  61  90 124 163 207 247 309 370
#     4  10  21  42  61  86 125 159 196 260 315 372
#     4  11  20  42  62  92 127 154 197 264 318 356
#     4  12  20  40  64  96 128 144 196 266 308 374
#     4  11  23  42  63  84 122 174 203 249 308 363
#     4  10  23  41  60  90 121 159 216 248 297 369
#     4  12  24  38  62  92 124 163 203 258 298 368
#
# _framework density 19.703088999999999
#
# number of rings (size 3 to 8) (size 9 to 14) (size 15 to 20)
#    0.000    1.067    5.333    3.200    1.867    3.733 
#    0.000    0.000    0.000    0.000    0.000    0.000 
#    0.000    0.000    0.000    0.000    0.000    0.000 
#
# Total GULP energy -372167.422815 kJ/mol
# GULP energy per Si atom -12405.580760 kJ/mol
# Density = 1.965824 g / cm^3
# Si number density = 19.703089 Si / 1000 Ang^3
#
#
#
# Elastic Constant Matrix: (Units=GPa)
#
#
# Indices 1 2 3 4 5 6 
#
# 1 65.0519 17.4353 44.2524 0.0000 -6.8871 0.0000
# 2 17.4353 43.7239 28.1953 0.0000 -7.0867 0.0000
# 3 44.2524 28.1953 94.2328 0.0000 -14.5707 0.0000
# 4 0.0000 0.0000 0.0000 -3.7850 0.0000 -28.9995
# 5 -6.8871 -7.0867 -14.5707 0.0000 29.6589 0.0000
# 6 0.0000 0.0000 0.0000 -28.9995 0.0000 -3.5081
#
#
#
# Elastic Compliance Matrix: (Units=1/GPa)
#
#
# Indices 1 2 3 4 5 6 
#
# 1 0.022847 -0.002734 -0.009947 0.000000 -0.000235 0.000000
# 2 -0.002734 0.028885 -0.006915 0.000000 0.002870 0.000000
# 3 -0.009947 -0.006915 0.018116 0.000000 0.004938 0.000000
# 4 0.000000 0.000000 0.000000 0.004238 0.000000 -0.035037
# 5 -0.000235 0.002870 0.004938 0.000000 0.036774 0.000000
# 6 0.000000 0.000000 0.000000 -0.035037 0.000000 0.004573
#
#
# Mechanical properties :
#
#
# Convention : Reuss Voigt Hill
#
# Bulk Modulus (GPa) = 32.62078 42.53052 37.57565
# Shear Modulus (GPa) = 30.33150 12.01486 21.17318
#
# Velocity S-wave (km/s) = 3.92781 2.47208 3.28168
# Velocity P-wave (km/s) = 6.09610 5.45718 5.78547
#
# Compressibility (1/GPa) = 0.03065531
#
# Stress axis : x y z
#
# Youngs Moduli (GPa) = 43.76908 34.61967 55.19981
#
# Poissons Ratio (x) = 0.09465 0.54910
# Poissons Ratio (y) = 0.11966 0.38171
# Poissons Ratio (z) = 0.43539 0.23940
#
# Static dielectric constant tensor:
#      x y z
#    x 3.514850 0.000000 0.024290 
#    y 0.000000 3.625980 0.000000 
#    z 0.024290 0.000000 3.686690 
# 
# 
# High freq. dielectric constant tensor:
#      x y z
#    x 1.759280 0.000000 0.000490 
#    y 0.000000 1.766620 0.000000 
#    z 0.000490 0.000000 1.777330 
# 
# From -- ./inp_files/105760.got.cif
#   From: 2010.06.25/outbox.cif.g09.slc.cpg/sg15_53_cif.got.tgz:105760.got - 2010.06.28 07:06:18.
