data_PCOD8144101
_publ_section_title
;
Structure prediction by ZEFSAII (Michael W. Deem and Ramdas Pophale) SiO2 
 PCOD8144101
Probable space group: C 2/C
;
_chemical_formula_sum "Si O2"
_cell_formula_units_Z 48
_cell_length_a 23.798901
_cell_length_b 19.815293
_cell_length_c 14.210175
_cell_angle_alpha 90.000000
_cell_angle_beta 21.375271
_cell_angle_gamma 90.000000
_cell_volume 2442.443116
_symmetry_space_group_name_H-M "C 2/C"
_symmetry_group_IT_number 15
_symmetry_cell_setting 'monoclinic'
loop_
_space_group_symop_operation_xyz
x,y,z
-x,y,1/2-z
-x,-y,-z
x,-y,1/2+z
1/2+x,1/2+y,z
1/2-x,1/2+y,1/2-z
1/2-x,1/2-y,-z
1/2+x,1/2-y,1/2+z
loop_
_atom_site_type_symbol
_atom_site_label
_atom_site_fract_x
_atom_site_fract_y
_atom_site_fract_z
Si Si1 0.054410 0.304091 0.563363
Si Si2 0.938407 0.927761 0.618173
Si Si3 0.391734 0.350501 0.499985
Si Si4 0.702059 0.038636 0.637616
Si Si5 0.865473 0.871816 0.026847
Si Si6 0.889410 0.394363 0.673047
O O1 0.044724 0.223793 0.576690
O O2 0.228978 0.319899 0.260387
O O3 0.000000 0.331809 0.750000
O O4 0.935869 0.337773 0.675803
O O5 0.904120 0.890945 0.575664
O O6 0.067106 0.888940 0.476878
O O7 0.780825 0.933197 0.921545
O O8 0.000000 0.000000 0.500000
O O9 0.500000 0.382572 0.250000
O O10 0.215871 0.355160 0.738288
O O11 0.796602 0.061441 0.583304
O O12 0.698910 0.957175 0.639993
O O13 0.534573 0.072482 0.894668
O O14 0.000000 0.840013 0.750000
#
# Coordination Sequence:
#
# PCOD8144101 Si02
#       6
#     8   8   8   8   8   8
#     4  10  24  39  63  89 117 171 206 247 307 365
#     4  11  22  36  64  93 119 160 204 244 309 374
#     4  11  25  39  59  92 126 162 201 254 305 359
#     4   9  20  40  63  92 121 161 197 258 312 351
#     4   9  20  41  60  88 125 156 202 251 307 367
#     4  10  21  42  61  87 130 153 203 263 301 366
#
# _framework density 19.652453000000001
#
# number of rings (size 3 to 8) (size 9 to 14) (size 15 to 20)
#    0.000    2.000    0.000    2.000    7.000    3.333 
#    3.000    2.500    0.000    0.000    0.000    0.000 
#    0.000    0.000    0.000    0.000    0.000    0.000 
#
# Total GULP energy -297573.259142 kJ/mol
# GULP energy per Si atom -12398.885798 kJ/mol
# Density = 1.960772 g / cm^3
# Si number density = 19.652453 Si / 1000 Ang^3
#
#
#
# Elastic Constant Matrix: (Units=GPa)
#
#
# Indices 1 2 3 4 5 6 
#
# 1 171.4654 64.4345 61.3629 0.0008 -4.5542 -0.0005
# 2 64.4345 91.4849 30.3313 0.0067 0.1761 -0.0003
# 3 61.3629 30.3313 103.6396 0.0035 -0.3290 -0.0028
# 4 0.0008 0.0067 0.0035 27.6401 -0.0025 -0.9713
# 5 -4.5542 0.1761 -0.3290 -0.0025 31.7337 0.0011
# 6 -0.0005 -0.0003 -0.0028 -0.9713 0.0011 28.8372
#
#
#
# Elastic Compliance Matrix: (Units=1/GPa)
#
#
# Indices 1 2 3 4 5 6 
#
# 1 0.009230 -0.005197 -0.003940 0.000002 0.001313 0.000000
# 2 -0.005197 0.015032 -0.001325 -0.000003 -0.000843 0.000000
# 3 -0.003940 -0.001325 0.012368 -0.000001 -0.000430 0.000001
# 4 0.000002 -0.000003 -0.000001 0.036222 0.000003 0.001220
# 5 0.001313 -0.000843 -0.000430 0.000003 0.031701 -0.000001
# 6 0.000000 0.000000 0.000001 0.001220 -0.000001 0.034719
#
#
# Mechanical properties :
#
#
# Convention : Reuss Voigt Hill
#
# Bulk Modulus (GPa) = 63.66820 75.42747 69.54784
# Shear Modulus (GPa) = 30.22427 31.67294 30.94860
#
# Velocity S-wave (km/s) = 3.92591 4.01890 3.97268
# Velocity P-wave (km/s) = 7.28133 7.74593 7.51722
#
# Compressibility (1/GPa) = 0.01570643
#
# Stress axis : x y z
#
# Youngs Moduli (GPa) = 108.34423 66.52454 80.85520
#
# Poissons Ratio (x) = 0.34573 0.31854
# Poissons Ratio (y) = 0.56308 0.10712
# Poissons Ratio (z) = 0.42684 0.08814
#
# Static dielectric constant tensor:
#      x y z
#    x 3.410650 0.000020 -0.140760 
#    y 0.000020 3.302910 0.000040 
#    z -0.140760 0.000040 3.637100 
# 
# 
# High freq. dielectric constant tensor:
#      x y z
#    x 1.769600 0.000000 -0.001490 
#    y 0.000000 1.757310 0.000000 
#    z -0.001490 0.000000 1.783160 
# 
# From -- ./inp_files/174481.got.cif
#   From: 2010.06.25/outbox.cif.g09.slc.cpg/sg15_88_cif.got.tgz:174481.got - 2010.06.28 07:06:18.
