data_PCOD8144823
_publ_section_title
;
Structure prediction by ZEFSAII (Michael W. Deem and Ramdas Pophale) SiO2 
 PCOD8144823
Probable space group: C 2/C
;
_chemical_formula_sum "Si O2"
_cell_formula_units_Z 60
_cell_length_a 34.346534
_cell_length_b 8.862537
_cell_length_c 11.140468
_cell_angle_alpha 90.000000
_cell_angle_beta 122.903953
_cell_angle_gamma 90.000000
_cell_volume 2847.132862
_symmetry_space_group_name_H-M "C 2/C"
_symmetry_group_IT_number 15
_symmetry_cell_setting 'monoclinic'
loop_
_space_group_symop_operation_xyz
x,y,z
-x,y,1/2-z
-x,-y,-z
x,-y,1/2+z
1/2+x,1/2+y,z
1/2-x,1/2+y,1/2-z
1/2-x,1/2-y,-z
1/2+x,1/2-y,1/2+z
loop_
_atom_site_type_symbol
_atom_site_label
_atom_site_fract_x
_atom_site_fract_y
_atom_site_fract_z
Si Si1 0.138619 0.098193 0.181199
Si Si2 0.631890 0.063859 0.258783
Si Si3 0.574386 0.563623 0.281815
Si Si4 0.958313 0.492021 0.523516
Si Si5 0.650361 0.301057 0.083123
Si Si6 0.086742 0.260405 0.900528
Si Si7 0.000000 0.261179 0.250000
Si Si8 0.697948 0.204535 0.941329
O O1 0.092160 0.047955 0.174952
O O2 0.171738 0.158720 0.337378
O O3 0.165845 0.960096 0.165033
O O4 0.126729 0.223452 0.063343
O O5 0.643085 0.192566 0.182968
O O6 0.613696 0.135770 0.351145
O O7 0.676811 0.956118 0.359357
O O8 0.589037 0.972646 0.130702
O O9 0.606038 0.663233 0.425206
O O10 0.566311 0.393862 0.313814
O O11 0.526066 0.653930 0.197943
O O12 0.956685 0.349510 0.611878
O O13 0.000000 0.500000 0.500000
O O14 0.962556 0.639773 0.613737
O O15 0.690352 0.221226 0.071455
O O16 0.750000 0.250000 0.000000
#
# Coordination Sequence:
#
# PCOD8144823 Si02
#       8
#     8   8   8   8   8   8   4   8
#     4  10  21  45  69  94 132 178 228 279 350 411
#     4  12  23  44  70 100 137 186 227 284 356 405
#     4  10  22  41  67  94 137 183 229 286 340 407
#     4  12  25  40  62  99 142 185 236 284 336 414
#     4  10  22  44  68  95 132 178 227 274 348 418
#     4  11  23  42  68  97 133 191 231 279 355 418
#     4  12  24  38  62 102 140 172 236 290 328 408
#     4  11  26  44  71 103 136 172 226 289 350 419
#
# _framework density 21.073830999999998
#
# number of rings (size 3 to 8) (size 9 to 14) (size 15 to 20)
#    0.000    1.067    4.000    2.400    3.733    2.667 
#    0.000    3.333    0.000    0.000    0.000    0.000 
#    0.000    0.000    0.000    0.000    0.000    0.000 
#
# Total GULP energy -371744.799512 kJ/mol
# GULP energy per Si atom -12391.493317 kJ/mol
# Density = 2.102587 g / cm^3
# Si number density = 21.073831 Si / 1000 Ang^3
#
#
#
# Elastic Constant Matrix: (Units=GPa)
#
#
# Indices 1 2 3 4 5 6 
#
# 1 93.5687 66.5119 34.5859 0.0000 -12.1860 0.0000
# 2 66.5119 122.6080 41.9923 0.0000 -2.9017 0.0000
# 3 34.5859 41.9923 75.4255 0.0000 -18.5886 0.0000
# 4 0.0000 0.0000 0.0000 35.9090 0.0000 -6.0774
# 5 -12.1860 -2.9017 -18.5886 0.0000 31.9444 0.0000
# 6 0.0000 0.0000 0.0000 -6.0774 0.0000 36.6056
#
#
#
# Elastic Compliance Matrix: (Units=1/GPa)
#
#
# Indices 1 2 3 4 5 6 
#
# 1 0.018774 -0.009320 -0.002176 0.000000 0.005049 0.000000
# 2 -0.009320 0.014914 -0.005338 0.000000 -0.005306 0.000000
# 3 -0.002176 -0.005338 0.019733 0.000000 0.010168 0.000000
# 4 0.000000 0.000000 0.000000 0.028653 0.000000 0.004757
# 5 0.005049 -0.005306 0.010168 0.000000 0.038665 0.000000
# 6 0.000000 0.000000 0.000000 0.004757 0.000000 0.028108
#
#
# Mechanical properties :
#
#
# Convention : Reuss Voigt Hill
#
# Bulk Modulus (GPa) = 50.61873 64.19804 57.40838
# Shear Modulus (GPa) = 26.44111 30.79262 28.61686
#
# Velocity S-wave (km/s) = 3.54600 3.82668 3.68901
# Velocity P-wave (km/s) = 6.39041 7.07490 6.74135
#
# Compressibility (1/GPa) = 0.01975553
#
# Stress axis : x y z
#
# Youngs Moduli (GPa) = 53.26538 67.04948 50.67566
#
# Poissons Ratio (x) = 0.62489 0.11025
# Poissons Ratio (y) = 0.49642 0.27049
# Poissons Ratio (z) = 0.11588 0.35789
#
# Static dielectric constant tensor:
#      x y z
#    x 1.606960 0.000000 -1.037470 
#    y 0.000000 3.951540 0.000000 
#    z -1.037470 0.000000 3.744740 
# 
# 
# High freq. dielectric constant tensor:
#      x y z
#    x 1.810560 0.000000 -0.032690 
#    y 0.000000 1.840980 0.000000 
#    z -0.032690 0.000000 1.823770 
# 
# From -- ./inp_files/125948.got.cif
#   From: 2010.06.25/outbox.cif.g09.slc.cpg/sg15_63_cif.got.tgz:125948.got - 2010.06.28 07:06:18.
