data_PCOD8144394
_publ_section_title
;
Structure prediction by ZEFSAII (Michael W. Deem and Ramdas Pophale) SiO2 
 PCOD8144394
Probable space group: C 2/C
;
_chemical_formula_sum "Si O2"
_cell_formula_units_Z 32
_cell_length_a 26.641491
_cell_length_b 8.032463
_cell_length_c 11.879177
_cell_angle_alpha 90.000000
_cell_angle_beta 29.856898
_cell_angle_gamma 90.000000
_cell_volume 1265.550379
_symmetry_space_group_name_H-M "C 2/C"
_symmetry_group_IT_number 15
_symmetry_cell_setting 'monoclinic'
loop_
_space_group_symop_operation_xyz
x,y,z
-x,y,1/2-z
-x,-y,-z
x,-y,1/2+z
1/2+x,1/2+y,z
1/2-x,1/2+y,1/2-z
1/2-x,1/2-y,-z
1/2+x,1/2-y,1/2+z
loop_
_atom_site_type_symbol
_atom_site_label
_atom_site_fract_x
_atom_site_fract_y
_atom_site_fract_z
Si Si1 0.279478 0.265630 0.700300
Si Si2 0.415435 0.239168 0.642098
Si Si3 0.603769 0.427766 0.608016
Si Si4 0.071065 0.449676 0.710070
O O1 0.318878 0.268345 0.751776
O O2 0.311805 0.429252 0.568586
O O3 0.323369 0.106429 0.548264
O O4 0.157703 0.238903 0.948407
O O5 0.424254 0.398201 0.707068
O O6 0.514009 0.215171 0.371382
O O7 0.402883 0.073950 0.740803
O O8 0.500000 0.475765 0.750000
O O9 0.000000 0.528617 0.750000
#
# Coordination Sequence:
#
# PCOD8144394 Si02
#       4
#     8   8   8   8
#     4  11  25  44  66  98 137 176 224 278 332 397
#     4  10  21  42  69  99 137 177 222 277 334 396
#     4  12  26  45  69  99 137 178 224 276 332 396
#     4   9  19  39  69 101 134 176 224 276 335 397
#
# _framework density 25.285442
#
# number of rings (size 3 to 8) (size 9 to 14) (size 15 to 20)
#    0.000    1.500    0.000    5.250    0.000    8.000 
#    0.000    5.000    0.000    0.000    0.000    0.000 
#    0.000    0.000    0.000    0.000    0.000    0.000 
#
# Total GULP energy -198394.040768 kJ/mol
# GULP energy per Si atom -12399.627548 kJ/mol
# Density = 2.522789 g / cm^3
# Si number density = 25.285442 Si / 1000 Ang^3
#
#
#
# Elastic Constant Matrix: (Units=GPa)
#
#
# Indices 1 2 3 4 5 6 
#
# 1 75.2796 15.9962 25.6339 0.0000 23.8360 0.0000
# 2 15.9962 34.6713 -3.4374 0.0000 6.3207 0.0000
# 3 25.6339 -3.4374 113.9557 0.0000 -5.4091 0.0000
# 4 0.0000 0.0000 0.0000 36.6938 0.0000 -5.8480
# 5 23.8360 6.3207 -5.4091 0.0000 43.5520 0.0000
# 6 0.0000 0.0000 0.0000 -5.8480 0.0000 25.0644
#
#
#
# Elastic Compliance Matrix: (Units=1/GPa)
#
#
# Indices 1 2 3 4 5 6 
#
# 1 0.020064 -0.007865 -0.005249 0.000000 -0.010492 0.000000
# 2 -0.007865 0.032764 0.002752 0.000000 -0.000109 0.000000
# 3 -0.005249 0.002752 0.010217 0.000000 0.003742 0.000000
# 4 0.000000 0.000000 0.000000 0.028305 0.000000 0.006604
# 5 -0.010492 -0.000109 0.003742 0.000000 0.029184 0.000000
# 6 0.000000 0.000000 0.000000 0.006604 0.000000 0.041438
#
#
# Mechanical properties :
#
#
# Convention : Reuss Voigt Hill
#
# Bulk Modulus (GPa) = 23.62821 33.36578 28.49700
# Shear Modulus (GPa) = 25.40642 33.44296 29.42469
#
# Velocity S-wave (km/s) = 3.17327 3.64073 3.41501
# Velocity P-wave (km/s) = 4.77400 5.55855 5.18115
#
# Compressibility (1/GPa) = 0.04232229
#
# Stress axis : x y z
#
# Youngs Moduli (GPa) = 49.83996 30.52175 97.87956
#
# Poissons Ratio (x) = 0.24004 0.51373
# Poissons Ratio (y) = 0.39198 -0.26939
# Poissons Ratio (z) = 0.26159 -0.08400
#
# Static dielectric constant tensor:
#      x y z
#    x 4.175910 0.000000 0.250510 
#    y 0.000000 4.470000 0.000000 
#    z 0.250510 0.000000 5.093410 
# 
# 
# High freq. dielectric constant tensor:
#      x y z
#    x 1.980820 0.000000 0.014450 
#    y 0.000000 2.009290 0.000000 
#    z 0.014450 0.000000 2.041680 
# 
# From -- ./inp_files/93254.got.cif
#   From: 2010.06.25/outbox.cif.g09.slc.cpg/sg15_47_cif.got.tgz:93254.got - 2010.06.28 07:06:18.
