data_PCOD8144714
_publ_section_title
;
Structure prediction by ZEFSAII (Michael W. Deem and Ramdas Pophale) SiO2 
 PCOD8144714
Probable space group: C 2/C
;
_chemical_formula_sum "Si O2"
_cell_formula_units_Z 52
_cell_length_a 10.267164
_cell_length_b 23.039368
_cell_length_c 11.254758
_cell_angle_alpha 90.000000
_cell_angle_beta 118.134167
_cell_angle_gamma 90.000000
_cell_volume 2347.739402
_symmetry_space_group_name_H-M "C 2/C"
_symmetry_group_IT_number 15
_symmetry_cell_setting 'monoclinic'
loop_
_space_group_symop_operation_xyz
x,y,z
-x,y,1/2-z
-x,-y,-z
x,-y,1/2+z
1/2+x,1/2+y,z
1/2-x,1/2+y,1/2-z
1/2-x,1/2-y,-z
1/2+x,1/2-y,1/2+z
loop_
_atom_site_type_symbol
_atom_site_label
_atom_site_fract_x
_atom_site_fract_y
_atom_site_fract_z
Si Si1 0.729872 0.551856 0.738229
Si Si2 0.500000 0.120420 0.750000
Si Si3 0.271159 0.576390 0.201298
Si Si4 0.462180 0.168336 0.479357
Si Si5 0.572073 0.298280 0.100620
Si Si6 0.946072 0.093331 0.041755
Si Si7 0.208030 0.843845 0.383914
O O1 0.785987 0.488316 0.797484
O O2 0.588927 0.552369 0.587794
O O3 0.684987 0.588432 0.837200
O O4 0.863535 0.580470 0.724794
O O5 0.456888 0.159493 0.618496
O O6 0.359204 0.570697 0.117385
O O7 0.378775 0.594673 0.355722
O O8 0.136527 0.621472 0.133756
O O9 0.408417 0.232964 0.431903
O O10 0.626833 0.163696 0.495697
O O11 0.691068 0.306301 0.256075
O O12 0.409071 0.319860 0.072041
O O13 0.610168 0.340849 0.007817
#
# Coordination Sequence:
#
# PCOD8144714 Si02
#       7
#     8   4   8   8   8   8   8
#     4  10  21  44  66  91 137 170 222 271 329 407
#     4  10  22  42  64  94 128 180 214 262 364 372
#     4  11  24  40  67 100 128 171 227 277 325 389
#     4  11  23  42  67  97 131 167 223 279 327 397
#     4  10  22  42  67  93 135 172 222 266 328 410
#     4  10  23  43  63  98 128 176 221 261 340 389
#     4   9  22  42  67  93 126 184 211 269 347 381
#
# _framework density 22.148966000000001
#
# number of rings (size 3 to 8) (size 9 to 14) (size 15 to 20)
#    0.000    1.846    1.538    0.923    2.154   10.462 
#    2.769    0.000    0.000    0.000    0.000    0.000 
#    0.000    0.000    0.000    0.000    0.000    0.000 
#
# Total GULP energy -322320.717547 kJ/mol
# GULP energy per Si atom -12396.950675 kJ/mol
# Density = 2.209855 g / cm^3
# Si number density = 22.148966 Si / 1000 Ang^3
#
#
#
# Elastic Constant Matrix: (Units=GPa)
#
#
# Indices 1 2 3 4 5 6 
#
# 1 76.2885 40.0830 27.6702 0.0000 17.2731 0.0000
# 2 40.0830 182.6484 55.2984 0.0000 0.9749 0.0000
# 3 27.6702 55.2984 93.0079 0.0000 15.8435 0.0000
# 4 0.0000 0.0000 0.0000 24.5823 0.0000 -2.7878
# 5 17.2731 0.9749 15.8435 0.0000 34.4546 0.0000
# 6 0.0000 0.0000 0.0000 -2.7878 0.0000 24.7489
#
#
#
# Elastic Compliance Matrix: (Units=1/GPa)
#
#
# Indices 1 2 3 4 5 6 
#
# 1 0.017195 -0.003144 -0.001946 0.000000 -0.007637 0.000000
# 2 -0.003144 0.007353 -0.003982 0.000000 0.003199 0.000000
# 3 -0.001946 -0.003982 0.014661 0.000000 -0.005654 0.000000
# 4 0.000000 0.000000 0.000000 0.041206 0.000000 0.004642
# 5 -0.007637 0.003199 -0.005654 0.000000 0.035361 0.000000
# 6 0.000000 0.000000 0.000000 0.004642 0.000000 0.040929
#
#
# Mechanical properties :
#
#
# Convention : Reuss Voigt Hill
#
# Bulk Modulus (GPa) = 47.46708 66.44979 56.95844
# Shear Modulus (GPa) = 27.49235 32.01671 29.75453
#
# Velocity S-wave (km/s) = 3.52696 3.80612 3.66919
# Velocity P-wave (km/s) = 6.16954 7.02722 6.61230
#
# Compressibility (1/GPa) = 0.02106723
#
# Stress axis : x y z
#
# Youngs Moduli (GPa) = 58.15804 135.99386 68.20850
#
# Poissons Ratio (x) = 0.42751 0.13270
# Poissons Ratio (y) = 0.18283 0.27158
# Poissons Ratio (z) = 0.11315 0.54147
#
# Static dielectric constant tensor:
#      x y z
#    x 3.918100 0.000000 0.227170 
#    y 0.000000 3.889130 0.000000 
#    z 0.227170 0.000000 4.212990 
# 
# 
# High freq. dielectric constant tensor:
#      x y z
#    x 1.867120 0.000000 0.010360 
#    y 0.000000 1.867830 0.000000 
#    z 0.010360 0.000000 1.876990 
# 
# From -- ./inp_files/89742.got.cif
#   From: 2010.06.25/outbox.cif.g09.slc.cpg/sg15_45_cif.got.tgz:89742.got - 2010.06.28 07:06:18.
