data_PCOD8144473
_publ_section_title
;
Structure prediction by ZEFSAII (Michael W. Deem and Ramdas Pophale) SiO2 
 PCOD8144473
Probable space group: C 2/C
;
_chemical_formula_sum "Si O2"
_cell_formula_units_Z 44
_cell_length_a 26.163388
_cell_length_b 11.926743
_cell_length_c 12.391034
_cell_angle_alpha 90.000000
_cell_angle_beta 32.974271
_cell_angle_gamma 90.000000
_cell_volume 2104.416509
_symmetry_space_group_name_H-M "C 2/C"
_symmetry_group_IT_number 15
_symmetry_cell_setting 'monoclinic'
loop_
_space_group_symop_operation_xyz
x,y,z
-x,y,1/2-z
-x,-y,-z
x,-y,1/2+z
1/2+x,1/2+y,z
1/2-x,1/2+y,1/2-z
1/2-x,1/2-y,-z
1/2+x,1/2-y,1/2+z
loop_
_atom_site_type_symbol
_atom_site_label
_atom_site_fract_x
_atom_site_fract_y
_atom_site_fract_z
Si Si1 0.138889 0.309604 0.119714
Si Si2 0.525933 0.321983 0.987984
Si Si3 0.337201 0.036412 0.520611
Si Si4 0.000000 0.697274 0.250000
Si Si5 0.739812 0.599687 0.902809
Si Si6 0.351882 0.465980 0.274524
O O1 0.051855 0.264700 0.345705
O O2 0.215521 0.360849 0.063976
O O3 0.116974 0.412989 0.078375
O O4 0.179158 0.208257 0.973043
O O5 0.595136 0.427826 0.870819
O O6 0.540144 0.269387 0.080479
O O7 0.418741 0.357875 0.156165
O O8 0.416854 0.123674 0.344935
O O9 0.316150 0.055324 0.684282
O O10 0.240861 0.063063 0.629150
O O11 0.673123 0.495737 0.056195
#
# Coordination Sequence:
#
# PCOD8144473 Si02
#       6
#     8   8   8   4   8   8
#     4   9  19  40  62  84 131 158 199 255 310 361
#     4  10  21  43  63  93 123 163 201 266 312 357
#     4  11  23  39  61  96 119 170 208 248 308 383
#     4  12  26  38  62  90 128 168 206 250 314 378
#     4   9  18  38  65  89 117 166 206 251 307 361
#     4   9  22  41  67  92 122 157 211 264 305 362
#
# _framework density 20.908408000000001
#
# number of rings (size 3 to 8) (size 9 to 14) (size 15 to 20)
#    0.000    2.182    1.818    1.091    2.545    1.455 
#    3.273    0.000    0.000    0.000    0.000    0.000 
#    0.000    0.000    0.000    0.000    0.000    0.000 
#
# Total GULP energy -272663.689996 kJ/mol
# GULP energy per Si atom -12393.804091 kJ/mol
# Density = 2.086082 g / cm^3
# Si number density = 20.908408 Si / 1000 Ang^3
#
#
#
# Elastic Constant Matrix: (Units=GPa)
#
#
# Indices 1 2 3 4 5 6 
#
# 1 56.6013 35.1039 27.1145 0.0000 -13.3216 0.0000
# 2 35.1039 104.8891 59.1614 0.0000 7.1942 0.0000
# 3 27.1145 59.1614 102.4951 0.0000 5.6586 0.0000
# 4 0.0000 0.0000 0.0000 46.3718 0.0000 0.0419
# 5 -13.3216 7.1942 5.6586 0.0000 44.9531 0.0000
# 6 0.0000 0.0000 0.0000 0.0419 0.0000 28.1912
#
#
#
# Elastic Compliance Matrix: (Units=1/GPa)
#
#
# Indices 1 2 3 4 5 6 
#
# 1 0.026049 -0.007681 -0.002972 0.000000 0.009323 0.000000
# 2 -0.007681 0.016470 -0.007254 0.000000 -0.003999 0.000000
# 3 -0.002972 -0.007254 0.014818 0.000000 -0.001585 0.000000
# 4 0.000000 0.000000 0.000000 0.021565 0.000000 -0.000032
# 5 0.009323 -0.003999 -0.001585 0.000000 0.025848 0.000000
# 6 0.000000 0.000000 0.000000 -0.000032 0.000000 0.035472
#
#
# Mechanical properties :
#
#
# Convention : Reuss Voigt Hill
#
# Bulk Modulus (GPa) = 46.46353 56.30502 51.38427
# Shear Modulus (GPa) = 27.29089 33.41025 30.35057
#
# Velocity S-wave (km/s) = 3.61676 4.00175 3.81412
# Velocity P-wave (km/s) = 6.30174 6.95269 6.63520
#
# Compressibility (1/GPa) = 0.02152226
#
# Stress axis : x y z
#
# Youngs Moduli (GPa) = 38.38873 60.71468 67.48736
#
# Poissons Ratio (x) = 0.46635 0.20059
# Poissons Ratio (y) = 0.29487 0.48957
# Poissons Ratio (z) = 0.11410 0.44044
#
# Static dielectric constant tensor:
#      x y z
#    x 3.336230 0.000000 -0.024740 
#    y 0.000000 4.147120 0.000000 
#    z -0.024740 0.000000 3.982630 
# 
# 
# High freq. dielectric constant tensor:
#      x y z
#    x 1.781770 0.000000 -0.001400 
#    y 0.000000 1.823820 0.000000 
#    z -0.001400 0.000000 1.834630 
# 
# From -- ./inp_files/117903.got.cif
#   From: 2010.06.25/outbox.cif.g09.slc.cpg/sg15_59_cif.got.tgz:117903.got - 2010.06.28 07:06:18.
