data_PCOD8144980
_publ_section_title
;
Structure prediction by ZEFSAII (Michael W. Deem and Ramdas Pophale) SiO2 
 PCOD8144980
Probable space group: C 2/C
;
_chemical_formula_sum "Si O2"
_cell_formula_units_Z 52
_cell_length_a 7.986930
_cell_length_b 28.467567
_cell_length_c 10.536610
_cell_angle_alpha 90.000000
_cell_angle_beta 83.528261
_cell_angle_gamma 90.000000
_cell_volume 2380.426461
_symmetry_space_group_name_H-M "C 2/C"
_symmetry_group_IT_number 15
_symmetry_cell_setting 'monoclinic'
loop_
_space_group_symop_operation_xyz
x,y,z
-x,y,1/2-z
-x,-y,-z
x,-y,1/2+z
1/2+x,1/2+y,z
1/2-x,1/2+y,1/2-z
1/2-x,1/2-y,-z
1/2+x,1/2-y,1/2+z
loop_
_atom_site_type_symbol
_atom_site_label
_atom_site_fract_x
_atom_site_fract_y
_atom_site_fract_z
Si Si1 0.708467 0.395163 0.477481
Si Si2 0.280402 0.291854 0.093575
Si Si3 0.631136 0.293498 0.991797
Si Si4 0.193019 0.104409 0.487028
Si Si5 0.701148 0.556263 0.231938
Si Si6 0.700979 0.449811 0.232450
Si Si7 0.500000 0.744222 0.250000
O O1 0.776233 0.342032 0.459117
O O2 0.507780 0.397726 0.496934
O O3 0.777102 0.416909 0.603098
O O4 0.774984 0.425278 0.352113
O O5 0.163441 0.278624 0.223589
O O6 0.250000 0.250000 0.000000
O O7 0.480697 0.294121 0.110424
O O8 0.743598 0.340537 0.988855
O O9 0.533941 0.290309 0.865023
O O10 0.750000 0.250000 0.000000
O O11 0.269620 0.081083 0.353692
O O12 0.268449 0.077684 0.602577
O O13 0.500000 0.556987 0.250000
O O14 0.767921 0.502973 0.222618
O O15 0.500000 0.448734 0.250000
#
# Coordination Sequence:
#
# PCOD8144980 Si02
#       7
#     8   8   8   8   8   8   4
#     4   9  17  28  48  70 104 143 183 232 282 336
#     4   9  20  36  55  81 111 148 195 234 284 341
#     4  10  22  36  56  85 117 154 192 238 292 347
#     4   9  18  28  46  72 110 147 182 228 286 339
#     4   9  16  26  45  69 105 146 183 223 285 343
#     4   9  16  27  41  71 106 142 183 229 281 338
#     4  10  22  38  60  76 116 154 196 242 288 342
#
# _framework density 21.844823999999999
#
# number of rings (size 3 to 8) (size 9 to 14) (size 15 to 20)
#    0.000    2.769    0.000    0.923    9.692    4.308 
#    0.000    0.000    0.000    0.000    0.000    1.077 
#    0.000    0.000    0.000    0.000    0.000    0.000 
#
# Total GULP energy -322283.697719 kJ/mol
# GULP energy per Si atom -12395.526835 kJ/mol
# Density = 2.179510 g / cm^3
# Si number density = 21.844824 Si / 1000 Ang^3
#
#
#
# Elastic Constant Matrix: (Units=GPa)
#
#
# Indices 1 2 3 4 5 6 
#
# 1 29.4588 16.5845 11.2954 0.0000 -7.4652 0.0000
# 2 16.5845 211.4612 75.1927 0.0000 -2.5718 0.0000
# 3 11.2954 75.1927 150.3642 0.0000 2.3627 0.0000
# 4 0.0000 0.0000 0.0000 39.8733 0.0000 3.0952
# 5 -7.4652 -2.5718 2.3627 0.0000 16.5477 0.0000
# 6 0.0000 0.0000 0.0000 3.0952 0.0000 18.2010
#
#
#
# Elastic Compliance Matrix: (Units=1/GPa)
#
#
# Indices 1 2 3 4 5 6 
#
# 1 0.040678 -0.002163 -0.002262 0.000000 0.018338 0.000000
# 2 -0.002163 0.005895 -0.002791 0.000000 0.000339 0.000000
# 3 -0.002262 -0.002791 0.008257 0.000000 -0.002633 0.000000
# 4 0.000000 0.000000 0.000000 0.025415 0.000000 -0.004322
# 5 0.018338 0.000339 -0.002633 0.000000 0.069133 0.000000
# 6 0.000000 0.000000 0.000000 -0.004322 0.000000 0.055677
#
#
# Mechanical properties :
#
#
# Convention : Reuss Voigt Hill
#
# Bulk Modulus (GPa) = 24.75343 66.38105 45.56724
# Shear Modulus (GPa) = 21.46353 34.13848 27.80100
#
# Velocity S-wave (km/s) = 3.13796 3.95748 3.57130
# Velocity P-wave (km/s) = 4.94825 7.16489 6.15714
#
# Compressibility (1/GPa) = 0.04039843
#
# Stress axis : x y z
#
# Youngs Moduli (GPa) = 24.58346 169.63147 121.10265
#
# Poissons Ratio (x) = 0.36688 0.27397
# Poissons Ratio (y) = 0.05317 0.33798
# Poissons Ratio (z) = 0.05562 0.47341
#
# Static dielectric constant tensor:
#      x y z
#    x 3.434060 0.000000 -0.215900 
#    y 0.000000 4.158120 0.000000 
#    z -0.215900 0.000000 4.278030 
# 
# 
# High freq. dielectric constant tensor:
#      x y z
#    x 1.796990 0.000000 -0.004130 
#    y 0.000000 1.873930 0.000000 
#    z -0.004130 0.000000 1.863370 
# 
# From -- ./inp_files/80683.got.cif
#   From: 2010.06.25/outbox.cif.g09.slc.cpg/sg15_41_cif.got.tgz:80683.got - 2010.06.28 07:06:18.
