data_PCOD8144233
_publ_section_title
;
Structure prediction by ZEFSAII (Michael W. Deem and Ramdas Pophale) SiO2 
 PCOD8144233
Probable space group: C 2/C
;
_chemical_formula_sum "Si O2"
_cell_formula_units_Z 60
_cell_length_a 15.411205
_cell_length_b 14.838114
_cell_length_c 19.973886
_cell_angle_alpha 90.000000
_cell_angle_beta 141.588800
_cell_angle_gamma 90.000000
_cell_volume 2837.787648
_symmetry_space_group_name_H-M "C 2/C"
_symmetry_group_IT_number 15
_symmetry_cell_setting 'monoclinic'
loop_
_space_group_symop_operation_xyz
x,y,z
-x,y,1/2-z
-x,-y,-z
x,-y,1/2+z
1/2+x,1/2+y,z
1/2-x,1/2+y,1/2-z
1/2-x,1/2-y,-z
1/2+x,1/2-y,1/2+z
loop_
_atom_site_type_symbol
_atom_site_label
_atom_site_fract_x
_atom_site_fract_y
_atom_site_fract_z
Si Si1 0.347054 0.026468 0.930130
Si Si2 0.299611 0.682018 0.874889
Si Si3 0.000000 0.745115 0.250000
Si Si4 0.356293 0.637971 0.203409
Si Si5 0.800042 0.509435 0.172993
Si Si6 0.086488 0.414689 0.886431
Si Si7 0.095006 0.856934 0.611135
Si Si8 0.780127 0.188103 0.712920
O O1 0.290105 0.090374 0.836779
O O2 0.250179 0.939959 0.883174
O O3 0.350998 0.083243 0.001633
O O4 0.500000 0.000000 0.000000
O O5 0.218015 0.766610 0.857356
O O6 0.196666 0.596778 0.811556
O O7 0.344048 0.702518 0.825353
O O8 0.432252 0.655684 0.998914
O O9 0.089529 0.685115 0.356491
O O10 0.098041 0.810576 0.267604
O O11 0.500000 0.630267 0.250000
O O12 0.388634 0.627248 0.300663
O O13 0.822648 0.521466 0.107075
O O14 0.655696 0.556472 0.108625
O O15 0.924914 0.554068 0.291051
O O16 0.170742 0.767045 0.631358
#
# Coordination Sequence:
#
# PCOD8144233 Si02
#       8
#     8   8   4   8   8   8   8   8
#     4  12  26  44  70  95 135 183 224 273 343 404
#     4  11  25  41  69  92 130 181 223 269 339 397
#     4  10  22  42  64 100 138 160 216 288 330 406
#     4  11  28  46  62  99 140 172 230 287 319 404
#     4  10  21  42  66 100 126 174 224 279 324 411
#     4  10  22  41  71  93 135 172 223 274 342 396
#     4  11  22  43  69  93 135 170 222 280 341 394
#     4  11  24  41  66 100 127 171 219 278 339 400
#
# _framework density 21.143231
#
# number of rings (size 3 to 8) (size 9 to 14) (size 15 to 20)
#    0.000    1.333    2.667    3.600    8.400    3.200 
#    0.000    0.000    0.000    0.000    0.000    0.000 
#    0.000    0.000    0.000    0.000    0.000    0.000 
#
# Total GULP energy -372116.678376 kJ/mol
# GULP energy per Si atom -12403.889279 kJ/mol
# Density = 2.109511 g / cm^3
# Si number density = 21.143231 Si / 1000 Ang^3
#
#
#
# Elastic Constant Matrix: (Units=GPa)
#
#
# Indices 1 2 3 4 5 6 
#
# 1 124.3647 30.9195 33.6542 0.0000 17.4742 0.0000
# 2 30.9195 113.0773 18.2383 0.0000 13.3708 0.0000
# 3 33.6542 18.2383 86.6623 0.0000 1.2584 0.0000
# 4 0.0000 0.0000 0.0000 28.6599 0.0000 2.4991
# 5 17.4742 13.3708 1.2584 0.0000 34.7930 0.0000
# 6 0.0000 0.0000 0.0000 2.4991 0.0000 31.0422
#
#
#
# Elastic Compliance Matrix: (Units=1/GPa)
#
#
# Indices 1 2 3 4 5 6 
#
# 1 0.009992 -0.001670 -0.003467 0.000000 -0.004251 0.000000
# 2 -0.001670 0.009867 -0.001386 0.000000 -0.002903 0.000000
# 3 -0.003467 -0.001386 0.013151 0.000000 0.001798 0.000000
# 4 0.000000 0.000000 0.000000 0.035139 0.000000 -0.002829
# 5 -0.004251 -0.002903 0.001798 0.000000 0.031927 0.000000
# 6 0.000000 0.000000 0.000000 -0.002829 0.000000 0.032442
#
#
# Mechanical properties :
#
#
# Convention : Reuss Voigt Hill
#
# Bulk Modulus (GPa) = 50.09099 54.41426 52.25263
# Shear Modulus (GPa) = 32.84783 34.98519 33.91651
#
# Velocity S-wave (km/s) = 3.94583 4.07218 4.00951
# Velocity P-wave (km/s) = 6.67099 6.92114 6.79722
#
# Compressibility (1/GPa) = 0.01996367
#
# Stress axis : x y z
#
# Youngs Moduli (GPa) = 100.08450 101.34822 76.04054
#
# Poissons Ratio (x) = 0.16928 0.26362
# Poissons Ratio (y) = 0.16717 0.10537
# Poissons Ratio (z) = 0.34698 0.14044
#
# Static dielectric constant tensor:
#      x y z
#    x 3.916710 0.000000 -0.054310 
#    y 0.000000 3.875070 0.000000 
#    z -0.054310 0.000000 3.715130 
# 
# 
# High freq. dielectric constant tensor:
#      x y z
#    x 1.838170 0.000000 -0.001870 
#    y 0.000000 1.835270 0.000000 
#    z -0.001870 0.000000 1.819410 
# 
# From -- ./inp_files/244715.got.cif
#   From: 2010.06.25/outbox.cif.g09.slc.cpg/sg15_123_cif.got.tgz:244715.got - 2010.06.28 07:06:18.
