data_PCOD8144515
_publ_section_title
;
Structure prediction by ZEFSAII (Michael W. Deem and Ramdas Pophale) SiO2 
 PCOD8144515
Probable space group: C 2/C
;
_chemical_formula_sum "Si O2"
_cell_formula_units_Z 56
_cell_length_a 27.880039
_cell_length_b 12.603561
_cell_length_c 8.892846
_cell_angle_alpha 90.000000
_cell_angle_beta 116.196712
_cell_angle_gamma 90.000000
_cell_volume 2803.865629
_symmetry_space_group_name_H-M "C 2/C"
_symmetry_group_IT_number 15
_symmetry_cell_setting 'monoclinic'
loop_
_space_group_symop_operation_xyz
x,y,z
-x,y,1/2-z
-x,-y,-z
x,-y,1/2+z
1/2+x,1/2+y,z
1/2-x,1/2+y,1/2-z
1/2-x,1/2-y,-z
1/2+x,1/2-y,1/2+z
loop_
_atom_site_type_symbol
_atom_site_label
_atom_site_fract_x
_atom_site_fract_y
_atom_site_fract_z
Si Si1 0.369876 0.481369 0.838686
Si Si2 0.440819 0.405320 0.672915
Si Si3 0.551638 0.173199 0.751727
Si Si4 0.189115 0.370540 0.870889
Si Si5 0.469044 0.916502 0.559651
Si Si6 0.364197 0.967196 0.994895
Si Si7 0.685682 0.636094 0.968999
O O1 0.410687 0.419803 0.788367
O O2 0.329786 0.553384 0.684235
O O3 0.339333 0.397892 0.904527
O O4 0.405412 0.557662 0.987241
O O5 0.500000 0.459295 0.750000
O O6 0.447227 0.280986 0.654649
O O7 0.500000 0.106763 0.750000
O O8 0.539761 0.187561 0.557622
O O9 0.608005 0.114027 0.850972
O O10 0.159601 0.400873 0.676006
O O11 0.180464 0.462698 0.982690
O O12 0.251292 0.365062 0.921319
O O13 0.167546 0.255942 0.899815
O O14 0.500000 0.879092 0.750000
O O15 0.500000 0.000000 0.500000
O O16 0.409616 0.953474 0.506921
#
# Coordination Sequence:
#
# PCOD8144515 Si02
#       7
#     8   8   8   8   8   8   8
#     4  10  21  43  66  81 119 161 198 256 302 345
#     4  10  22  39  63  91 118 152 203 245 292 350
#     4  11  22  37  56  87 124 159 190 236 293 364
#     4  11  24  38  61  90 121 153 205 256 296 369
#     4  12  20  36  54  82 125 161 186 227 285 365
#     4  12  21  36  59  86 124 158 192 242 302 350
#     4  10  23  43  61  88 116 158 207 251 310 349
#
# _framework density 19.972427
#
# number of rings (size 3 to 8) (size 9 to 14) (size 15 to 20)
#    0.000    1.143    4.286    2.143    2.000    0.000 
#    0.000    0.714    0.000    9.429    0.000    0.000 
#    0.000    0.000    0.000    0.000    0.000    0.000 
#
# Total GULP energy -347014.738429 kJ/mol
# GULP energy per Si atom -12393.383515 kJ/mol
# Density = 1.992697 g / cm^3
# Si number density = 19.972427 Si / 1000 Ang^3
#
#
#
# Elastic Constant Matrix: (Units=GPa)
#
#
# Indices 1 2 3 4 5 6 
#
# 1 89.2743 23.9575 41.2599 0.0000 7.1457 0.0000
# 2 23.9575 76.7637 39.4945 0.0000 4.1598 0.0000
# 3 41.2599 39.4945 141.6370 0.0000 -4.7729 0.0000
# 4 0.0000 0.0000 0.0000 224.4598 0.0000 3.2399
# 5 7.1457 4.1598 -4.7729 0.0000 26.8818 0.0000
# 6 0.0000 0.0000 0.0000 3.2399 0.0000 24.0800
#
#
#
# Elastic Compliance Matrix: (Units=1/GPa)
#
#
# Indices 1 2 3 4 5 6 
#
# 1 0.013744 -0.002275 -0.003502 0.000000 -0.003923 0.000000
# 2 -0.002275 0.015851 -0.003842 0.000000 -0.002530 0.000000
# 3 -0.003502 -0.003842 0.009259 0.000000 0.003169 0.000000
# 4 0.000000 0.000000 0.000000 0.004464 0.000000 -0.000601
# 5 -0.003923 -0.002530 0.003169 0.000000 0.039197 0.000000
# 6 0.000000 0.000000 0.000000 -0.000601 0.000000 0.041609
#
#
# Mechanical properties :
#
#
# Convention : Reuss Voigt Hill
#
# Bulk Modulus (GPa) = 50.98055 57.45543 54.21799
# Shear Modulus (GPa) = 33.35532 68.61518 50.98525
#
# Velocity S-wave (km/s) = 4.09108 5.86767 5.05799
# Velocity P-wave (km/s) = 6.92075 8.64499 7.83047
#
# Compressibility (1/GPa) = 0.01961532
#
# Stress axis : x y z
#
# Youngs Moduli (GPa) = 72.75695 63.08700 108.00821
#
# Poissons Ratio (x) = 0.14355 0.37820
# Poissons Ratio (y) = 0.16555 0.41501
# Poissons Ratio (z) = 0.25476 0.24240
#
# Static dielectric constant tensor:
#      x y z
#    x 4.179880 0.000000 0.050220 
#    y 0.000000 3.488720 0.000000 
#    z 0.050220 0.000000 4.128550 
# 
# 
# High freq. dielectric constant tensor:
#      x y z
#    x 1.787310 0.000000 -0.001530 
#    y 0.000000 1.769680 0.000000 
#    z -0.001530 0.000000 1.794080 
# 
# From -- ./inp_files/69454.got.cif
#   From: 2010.06.25/outbox.cif.g09.slc.cpg/sg15_35_cif.got.tgz:69454.got - 2010.06.28 07:06:18.
