data_PCOD8144089
_publ_section_title
;
Structure prediction by ZEFSAII (Michael W. Deem and Ramdas Pophale) SiO2 
 PCOD8144089
Probable space group: C 2/C
;
_chemical_formula_sum "Si O2"
_cell_formula_units_Z 56
_cell_length_a 14.550032
_cell_length_b 17.442299
_cell_length_c 12.492069
_cell_angle_alpha 90.000000
_cell_angle_beta 64.519869
_cell_angle_gamma 90.000000
_cell_volume 2861.950388
_symmetry_space_group_name_H-M "C 2/C"
_symmetry_group_IT_number 15
_symmetry_cell_setting 'monoclinic'
loop_
_space_group_symop_operation_xyz
x,y,z
-x,y,1/2-z
-x,-y,-z
x,-y,1/2+z
1/2+x,1/2+y,z
1/2-x,1/2+y,1/2-z
1/2-x,1/2-y,-z
1/2+x,1/2-y,1/2+z
loop_
_atom_site_type_symbol
_atom_site_label
_atom_site_fract_x
_atom_site_fract_y
_atom_site_fract_z
Si Si1 0.766826 0.073612 0.458795
Si Si2 0.386592 0.696666 0.290887
Si Si3 0.557513 0.689618 0.615206
Si Si4 0.570827 0.845020 0.116430
Si Si5 0.707903 0.416540 0.160302
Si Si6 0.424626 0.569054 0.569361
Si Si7 0.387348 0.798440 0.087686
O O1 0.800862 0.132117 0.348440
O O2 0.655093 0.091508 0.557123
O O3 0.850887 0.083322 0.507663
O O4 0.750905 0.989241 0.422936
O O5 0.500000 0.660913 0.250000
O O6 0.374029 0.764529 0.384170
O O7 0.369437 0.730376 0.181418
O O8 0.500000 0.720559 0.750000
O O9 0.638540 0.627366 0.610836
O O10 0.484195 0.647936 0.565552
O O11 0.612833 0.761643 0.530938
O O12 0.500000 0.871084 0.250000
O O13 0.498160 0.836936 0.049341
O O14 0.643400 0.449418 0.292442
O O15 0.800347 0.361889 0.148551
O O16 0.500000 0.500000 0.500000
#
# Coordination Sequence:
#
# PCOD8144089 Si02
#       7
#     8   8   8   8   8   8   8
#     4  12  23  36  65  92 118 158 204 247 311 372
#     4   9  20  35  64  92 117 152 202 257 306 359
#     4  10  22  40  60  87 120 169 202 247 306 368
#     4   9  20  40  60  87 120 158 206 257 296 351
#     4  11  25  38  58  93 123 157 204 253 305 366
#     4  11  22  39  61  87 128 152 192 257 318 358
#     4  10  21  42  60  83 128 163 201 253 296 358
#
# _framework density 19.567077000000001
#
# number of rings (size 3 to 8) (size 9 to 14) (size 15 to 20)
#    0.000    2.000    1.429    4.286    4.000    2.857 
#    0.000    2.143    0.000    0.000    0.000    0.000 
#    0.000    0.000    0.000    0.000    0.000    0.000 
#
# Total GULP energy -347164.983112 kJ/mol
# GULP energy per Si atom -12398.749397 kJ/mol
# Density = 1.952254 g / cm^3
# Si number density = 19.567077 Si / 1000 Ang^3
#
#
#
# Elastic Constant Matrix: (Units=GPa)
#
#
# Indices 1 2 3 4 5 6 
#
# 1 85.6281 48.5047 54.2068 0.0000 -5.2953 0.0000
# 2 48.5047 88.3789 72.3760 0.0000 -13.4222 0.0000
# 3 54.2068 72.3760 102.7418 0.0000 -7.5511 0.0000
# 4 0.0000 0.0000 0.0000 30.7205 0.0000 -8.7886
# 5 -5.2953 -13.4222 -7.5511 0.0000 30.4254 0.0000
# 6 0.0000 0.0000 0.0000 -8.7886 0.0000 19.9159
#
#
#
# Elastic Compliance Matrix: (Units=1/GPa)
#
#
# Indices 1 2 3 4 5 6 
#
# 1 0.018467 -0.005228 -0.006105 0.000000 -0.000607 0.000000
# 2 -0.005228 0.029892 -0.017720 0.000000 0.007879 0.000000
# 3 -0.006105 -0.017720 0.025245 0.000000 -0.002614 0.000000
# 4 0.000000 0.000000 0.000000 0.037255 0.000000 0.016440
# 5 -0.000607 0.007879 -0.002614 0.000000 0.035589 0.000000
# 6 0.000000 0.000000 0.000000 0.016440 0.000000 0.057466
#
#
# Mechanical properties :
#
#
# Convention : Reuss Voigt Hill
#
# Bulk Modulus (GPa) = 64.52441 69.65819 67.09130
# Shear Modulus (GPa) = 18.71354 22.98977 20.85166
#
# Velocity S-wave (km/s) = 3.09589 3.43143 3.26797
# Velocity P-wave (km/s) = 6.76956 7.16775 6.97150
#
# Compressibility (1/GPa) = 0.01549801
#
# Stress axis : x y z
#
# Youngs Moduli (GPa) = 54.15049 33.45352 39.61162
#
# Poissons Ratio (x) = 0.17488 0.24184
# Poissons Ratio (y) = 0.28308 0.70193
# Poissons Ratio (z) = 0.33061 0.59280
#
# Static dielectric constant tensor:
#      x y z
#    x 3.600540 0.000000 -0.012610 
#    y 0.000000 3.383510 0.000000 
#    z -0.012610 0.000000 3.592980 
# 
# 
# High freq. dielectric constant tensor:
#      x y z
#    x 1.764170 0.000000 -0.000160 
#    y 0.000000 1.745800 0.000000 
#    z -0.000160 0.000000 1.765110 
# 
# From -- ./inp_files/98669.got.cif
#   From: 2010.06.25/outbox.cif.g09.slc.cpg/sg15_50_cif.got.tgz:98669.got - 2010.06.28 07:06:18.
