data_PCOD8144757
_publ_section_title
;
Structure prediction by ZEFSAII (Michael W. Deem and Ramdas Pophale) SiO2 
 PCOD8144757
Probable space group: C 2/C
;
_chemical_formula_sum "Si O2"
_cell_formula_units_Z 52
_cell_length_a 13.846709
_cell_length_b 17.087290
_cell_length_c 15.002395
_cell_angle_alpha 90.000000
_cell_angle_beta 43.243114
_cell_angle_gamma 90.000000
_cell_volume 2431.820039
_symmetry_space_group_name_H-M "C 2/C"
_symmetry_group_IT_number 15
_symmetry_cell_setting 'monoclinic'
loop_
_space_group_symop_operation_xyz
x,y,z
-x,y,1/2-z
-x,-y,-z
x,-y,1/2+z
1/2+x,1/2+y,z
1/2-x,1/2+y,1/2-z
1/2-x,1/2-y,-z
1/2+x,1/2-y,1/2+z
loop_
_atom_site_type_symbol
_atom_site_label
_atom_site_fract_x
_atom_site_fract_y
_atom_site_fract_z
Si Si1 0.145564 0.422353 0.202824
Si Si2 0.000000 0.866870 0.750000
Si Si3 0.492850 0.653977 0.657889
Si Si4 0.976024 0.279541 0.998800
Si Si5 0.699486 0.249368 0.706409
Si Si6 0.200548 0.580006 0.862790
Si Si7 0.668599 0.499112 0.560529
O O1 0.211646 0.335307 0.151491
O O2 0.135275 0.452553 0.313228
O O3 0.000000 0.417464 0.250000
O O4 0.232752 0.486756 0.090288
O O5 0.129827 0.813653 0.690785
O O6 0.065016 0.924709 0.632118
O O7 0.500000 0.693789 0.750000
O O8 0.569827 0.712836 0.539573
O O9 0.330436 0.635529 0.742626
O O10 0.576736 0.573877 0.601672
O O11 0.145024 0.283347 0.882005
O O12 0.906510 0.256978 0.139036
O O13 0.915116 0.364478 0.011037
O O14 0.247464 0.512808 0.901402
#
# Coordination Sequence:
#
# PCOD8144757 Si02
#       7
#     8   4   8   8   8   8   8
#     4  11  24  44  67  95 139 178 223 287 344 401
#     4  12  24  40  70 102 132 172 236 266 344 420
#     4  10  21  44  69  99 135 179 230 279 339 404
#     4  11  22  45  70  97 138 177 226 283 340 394
#     4  11  25  41  69 105 129 181 229 285 338 404
#     4  10  23  46  65 101 139 172 231 288 334 400
#     4  11  25  44  68  97 139 186 219 280 347 410
#
# _framework density 21.383163
#
# number of rings (size 3 to 8) (size 9 to 14) (size 15 to 20)
#    0.000    1.231    6.154    0.923    4.308    6.154 
#    2.769    0.000    0.000    0.000    0.000    0.000 
#    0.000    0.000    0.000    0.000    0.000    0.000 
#
# Total GULP energy -322254.352036 kJ/mol
# GULP energy per Si atom -12394.398155 kJ/mol
# Density = 2.133449 g / cm^3
# Si number density = 21.383163 Si / 1000 Ang^3
#
#
#
# Elastic Constant Matrix: (Units=GPa)
#
#
# Indices 1 2 3 4 5 6 
#
# 1 108.6183 33.2525 28.5188 0.0000 -2.4523 0.0000
# 2 33.2525 79.8670 39.6387 -0.0001 6.5110 0.0000
# 3 28.5188 39.6387 82.8783 -0.0001 3.5269 0.0001
# 4 0.0000 -0.0001 -0.0001 51.9219 0.0001 11.0430
# 5 -2.4523 6.5110 3.5269 0.0001 35.4223 -0.0001
# 6 0.0000 0.0000 0.0001 11.0430 -0.0001 23.5201
#
#
#
# Elastic Compliance Matrix: (Units=1/GPa)
#
#
# Indices 1 2 3 4 5 6 
#
# 1 0.010904 -0.003640 -0.002080 0.000000 0.001631 0.000000
# 2 -0.003640 0.017813 -0.007147 0.000000 -0.002815 0.000000
# 3 -0.002080 -0.007147 0.016219 0.000000 -0.000445 0.000000
# 4 0.000000 0.000000 0.000000 0.021396 0.000000 -0.010046
# 5 0.001631 -0.002815 -0.000445 0.000000 0.028905 0.000000
# 6 0.000000 0.000000 0.000000 -0.010046 0.000000 0.047233
#
#
# Mechanical properties :
#
#
# Convention : Reuss Voigt Hill
#
# Bulk Modulus (GPa) = 52.08245 52.68708 52.38477
# Shear Modulus (GPa) = 28.63567 33.50311 31.06939
#
# Velocity S-wave (km/s) = 3.66344 3.96257 3.81594
# Velocity P-wave (km/s) = 6.50415 6.75492 6.63072
#
# Compressibility (1/GPa) = 0.01920033
#
# Stress axis : x y z
#
# Youngs Moduli (GPa) = 91.70883 56.13840 61.65588
#
# Poissons Ratio (x) = 0.20436 0.12827
# Poissons Ratio (y) = 0.33385 0.44066
# Poissons Ratio (z) = 0.19080 0.40123
#
# Static dielectric constant tensor:
#      x y z
#    x 4.096100 0.000000 0.037300 
#    y 0.000000 3.951980 0.000000 
#    z 0.037300 0.000000 4.167110 
# 
# 
# High freq. dielectric constant tensor:
#      x y z
#    x 1.847340 0.000000 -0.007710 
#    y 0.000000 1.833640 0.000000 
#    z -0.007710 0.000000 1.838180 
# 
# From -- ./inp_files/155449.got.cif
#   From: 2010.06.25/outbox.cif.g09.slc.cpg/sg15_78_cif.got.tgz:155449.got - 2010.06.28 07:06:18.
