data_PCOD8144833
_publ_section_title
;
Structure prediction by ZEFSAII (Michael W. Deem and Ramdas Pophale) SiO2 
 PCOD8144833
Probable space group: C 2/C
;
_chemical_formula_sum "Si O2"
_cell_formula_units_Z 60
_cell_length_a 30.355411
_cell_length_b 10.933964
_cell_length_c 8.959005
_cell_angle_alpha 90.000000
_cell_angle_beta 77.080069
_cell_angle_gamma 90.000000
_cell_volume 2898.258639
_symmetry_space_group_name_H-M "C 2/C"
_symmetry_group_IT_number 15
_symmetry_cell_setting 'monoclinic'
loop_
_space_group_symop_operation_xyz
x,y,z
-x,y,1/2-z
-x,-y,-z
x,-y,1/2+z
1/2+x,1/2+y,z
1/2-x,1/2+y,1/2-z
1/2-x,1/2-y,-z
1/2+x,1/2-y,1/2+z
loop_
_atom_site_type_symbol
_atom_site_label
_atom_site_fract_x
_atom_site_fract_y
_atom_site_fract_z
Si Si1 0.324128 0.993473 0.183340
Si Si2 0.436187 0.724940 0.994728
Si Si3 0.885880 0.588978 0.376527
Si Si4 0.091696 0.998409 0.802765
Si Si5 0.500000 0.397118 0.250000
Si Si6 0.446560 0.142844 0.781597
Si Si7 0.618226 0.666841 0.033517
Si Si8 0.205881 0.330334 0.023802
O O1 0.357032 0.085646 0.247499
O O2 0.299861 0.900363 0.314716
O O3 0.287894 0.073969 0.117615
O O4 0.353178 0.918185 0.043432
O O5 0.410650 0.605222 0.069338
O O6 0.436539 0.832228 0.115709
O O7 0.410203 0.779529 0.869385
O O8 0.485958 0.687262 0.901010
O O9 0.922952 0.481346 0.350441
O O10 0.122696 0.947613 0.644890
O O11 0.041825 0.020724 0.772621
O O12 0.113778 0.116435 0.867239
O O13 0.500000 0.131605 0.750000
O O14 0.426958 0.255095 0.894192
O O15 0.661945 0.750505 0.021280
O O16 0.250000 0.250000 0.000000
#
# Coordination Sequence:
#
# PCOD8144833 Si02
#       8
#     8   8   8   8   4   8   8   8
#     4  10  21  45  70  97 136 169 214 267 350 399
#     4  11  24  37  56  91 126 178 234 274 325 393
#     4  11  21  42  64  95 131 184 216 274 336 400
#     4  11  24  41  60  90 126 177 223 281 323 395
#     4  12  24  38  60  88 134 182 238 270 338 378
#     4  11  23  38  63  92 138 177 226 277 330 393
#     4  11  23  43  64  93 133 174 223 278 343 392
#     4  11  25  46  75 102 133 174 215 282 346 410
#
# _framework density 20.702085
#
# number of rings (size 3 to 8) (size 9 to 14) (size 15 to 20)
#    0.000    1.067    5.333    2.000    6.533    2.667 
#    0.000    2.667    0.000    0.000    0.000    0.000 
#    0.000    0.000    0.000    0.000    0.000    0.000 
#
# Total GULP energy -371902.350949 kJ/mol
# GULP energy per Si atom -12396.745032 kJ/mol
# Density = 2.065497 g / cm^3
# Si number density = 20.702085 Si / 1000 Ang^3
#
#
#
# Elastic Constant Matrix: (Units=GPa)
#
#
# Indices 1 2 3 4 5 6 
#
# 1 102.6159 48.9847 32.8460 0.0000 1.3992 0.0000
# 2 48.9847 90.0339 44.4919 0.0000 6.5329 0.0000
# 3 32.8460 44.4919 91.8089 0.0000 5.2549 0.0000
# 4 0.0000 0.0000 0.0000 38.2224 0.0000 6.6187
# 5 1.3992 6.5329 5.2549 0.0000 18.3503 0.0000
# 6 0.0000 0.0000 0.0000 6.6187 0.0000 39.6781
#
#
#
# Elastic Compliance Matrix: (Units=1/GPa)
#
#
# Indices 1 2 3 4 5 6 
#
# 1 0.013410 -0.006581 -0.001712 0.000000 0.001811 0.000000
# 2 -0.006581 0.018025 -0.006143 0.000000 -0.004156 0.000000
# 3 -0.001712 -0.006143 0.014588 0.000000 -0.001860 0.000000
# 4 0.000000 0.000000 0.000000 0.026941 0.000000 -0.004494
# 5 0.001811 -0.004156 -0.001860 0.000000 0.056369 0.000000
# 6 0.000000 0.000000 0.000000 -0.004494 0.000000 0.025952
#
#
# Mechanical properties :
#
#
# Convention : Reuss Voigt Hill
#
# Bulk Modulus (GPa) = 58.30567 59.67820 58.99193
# Shear Modulus (GPa) = 26.33330 29.79257 28.06293
#
# Velocity S-wave (km/s) = 3.57040 3.79768 3.68579
# Velocity P-wave (km/s) = 6.72475 6.93682 6.83161
#
# Compressibility (1/GPa) = 0.01715099
#
# Stress axis : x y z
#
# Youngs Moduli (GPa) = 74.57102 55.47947 68.55021
#
# Poissons Ratio (x) = 0.36514 0.11735
# Poissons Ratio (y) = 0.49079 0.42107
# Poissons Ratio (z) = 0.12765 0.34078
#
# Static dielectric constant tensor:
#      x y z
#    x 3.513390 0.000000 0.155910 
#    y 0.000000 3.838980 0.000000 
#    z 0.155910 0.000000 4.320450 
# 
# 
# High freq. dielectric constant tensor:
#      x y z
#    x 1.774840 0.000000 0.006190 
#    y 0.000000 1.818620 0.000000 
#    z 0.006190 0.000000 1.830580 
# 
# From -- ./inp_files/69112.got.cif
#   From: 2010.06.25/outbox.cif.g09.slc.cpg/sg15_35_cif.got.tgz:69112.got - 2010.06.28 07:06:18.
