data_PCOD8144776
_publ_section_title
;
Structure prediction by ZEFSAII (Michael W. Deem and Ramdas Pophale) SiO2 
 PCOD8144776
Probable space group: C 2/C
;
_chemical_formula_sum "Si O2"
_cell_formula_units_Z 48
_cell_length_a 24.516208
_cell_length_b 8.566315
_cell_length_c 14.377248
_cell_angle_alpha 90.000000
_cell_angle_beta 46.989477
_cell_angle_gamma 90.000000
_cell_volume 2207.883590
_symmetry_space_group_name_H-M "C 2/C"
_symmetry_group_IT_number 15
_symmetry_cell_setting 'monoclinic'
loop_
_space_group_symop_operation_xyz
x,y,z
-x,y,1/2-z
-x,-y,-z
x,-y,1/2+z
1/2+x,1/2+y,z
1/2-x,1/2+y,1/2-z
1/2-x,1/2-y,-z
1/2+x,1/2-y,1/2+z
loop_
_atom_site_type_symbol
_atom_site_label
_atom_site_fract_x
_atom_site_fract_y
_atom_site_fract_z
Si Si1 0.405832 0.391672 0.636561
Si Si2 0.212359 0.316493 0.135709
Si Si3 0.963640 0.669840 0.966465
Si Si4 0.584251 0.941513 0.786755
Si Si5 0.363421 0.427863 0.007928
Si Si6 0.073542 0.109335 0.722843
O O1 0.328656 0.322498 0.763329
O O2 0.470504 0.264081 0.558539
O O3 0.392737 0.448852 0.548063
O O4 0.432926 0.538150 0.666576
O O5 0.154094 0.451986 0.177755
O O6 0.277860 0.380692 0.126641
O O7 0.250000 0.250000 0.000000
O O8 0.004849 0.530197 0.862074
O O9 0.910244 0.604112 0.110121
O O10 0.915856 0.772955 0.949653
O O11 0.590322 0.792352 0.712191
O O12 0.363884 0.512356 0.906610
O O13 0.000000 0.076503 0.750000
#
# Coordination Sequence:
#
# PCOD8144776 Si02
#       6
#     8   8   8   8   8   8
#     4  11  23  45  67  96 139 174 229 277 332 412
#     4  11  26  46  64  97 139 184 218 275 346 400
#     4  10  21  44  71  94 134 179 223 280 333 394
#     4  10  24  43  67 100 133 172 230 283 326 399
#     4  12  24  40  73  98 135 183 216 274 346 400
#     4  12  23  41  71 103 127 175 230 279 334 395
#
# _framework density 21.740276000000001
#
# number of rings (size 3 to 8) (size 9 to 14) (size 15 to 20)
#    0.000    1.000    5.000    1.500    2.333    2.000 
#    3.000    0.000    0.000    0.000    0.000    0.000 
#    0.000    0.000    0.000    0.000    0.000    0.000 
#
# Total GULP energy -297671.071897 kJ/mol
# GULP energy per Si atom -12402.961329 kJ/mol
# Density = 2.169079 g / cm^3
# Si number density = 21.740276 Si / 1000 Ang^3
#
#
#
# Elastic Constant Matrix: (Units=GPa)
#
#
# Indices 1 2 3 4 5 6 
#
# 1 54.2012 19.0779 17.6242 -0.0002 -9.6641 0.0000
# 2 19.0779 126.6709 41.0616 0.0008 -4.2926 -0.0005
# 3 17.6242 41.0616 95.3620 0.0004 -8.2503 -0.0003
# 4 -0.0002 0.0008 0.0004 42.3505 -0.0001 0.8935
# 5 -9.6641 -4.2926 -8.2503 -0.0001 36.4163 0.0000
# 6 0.0000 -0.0005 -0.0003 0.8935 0.0000 34.5977
#
#
#
# Elastic Compliance Matrix: (Units=1/GPa)
#
#
# Indices 1 2 3 4 5 6 
#
# 1 0.020871 -0.002168 -0.002516 0.000000 0.004713 0.000000
# 2 -0.002168 0.009402 -0.003673 0.000000 -0.000299 0.000000
# 3 -0.002516 -0.003673 0.012687 0.000000 0.001774 0.000000
# 4 0.000000 0.000000 0.000000 0.023625 0.000000 -0.000610
# 5 0.004713 -0.000299 0.001774 0.000000 0.029078 0.000000
# 6 0.000000 0.000000 0.000000 -0.000610 0.000000 0.028919
#
#
# Mechanical properties :
#
#
# Convention : Reuss Voigt Hill
#
# Bulk Modulus (GPa) = 38.10329 47.97352 43.03840
# Shear Modulus (GPa) = 33.32332 35.90427 34.61379
#
# Velocity S-wave (km/s) = 3.91934 4.06829 3.99451
# Velocity P-wave (km/s) = 6.16816 6.64699 6.41205
#
# Compressibility (1/GPa) = 0.02624445
#
# Stress axis : x y z
#
# Youngs Moduli (GPa) = 47.91246 106.36438 78.82389
#
# Poissons Ratio (x) = 0.23061 0.19832
# Poissons Ratio (y) = 0.10388 0.28955
# Poissons Ratio (z) = 0.12055 0.39072
#
# Static dielectric constant tensor:
#      x y z
#    x 3.836730 0.000000 -0.166760 
#    y 0.000000 4.157790 0.000000 
#    z -0.166760 0.000000 4.090390 
# 
# 
# High freq. dielectric constant tensor:
#      x y z
#    x 1.836260 0.000000 -0.004150 
#    y 0.000000 1.870360 0.000000 
#    z -0.004150 0.000000 1.856710 
# 
# From -- ./inp_files/176893.got.cif
#   From: 2010.06.25/outbox.cif.g09.slc.cpg/sg15_89_cif.got.tgz:176893.got - 2010.06.28 07:06:18.
