data_PCOD8144710
_publ_section_title
;
Structure prediction by ZEFSAII (Michael W. Deem and Ramdas Pophale) SiO2 
 PCOD8144710
Probable space group: C 2/C
;
_chemical_formula_sum "Si O2"
_cell_formula_units_Z 44
_cell_length_a 27.455466
_cell_length_b 13.316784
_cell_length_c 15.901433
_cell_angle_alpha 90.000000
_cell_angle_beta 22.293160
_cell_angle_gamma 90.000000
_cell_volume 2205.462154
_symmetry_space_group_name_H-M "C 2/C"
_symmetry_group_IT_number 15
_symmetry_cell_setting 'monoclinic'
loop_
_space_group_symop_operation_xyz
x,y,z
-x,y,1/2-z
-x,-y,-z
x,-y,1/2+z
1/2+x,1/2+y,z
1/2-x,1/2+y,1/2-z
1/2-x,1/2-y,-z
1/2+x,1/2-y,1/2+z
loop_
_atom_site_type_symbol
_atom_site_label
_atom_site_fract_x
_atom_site_fract_y
_atom_site_fract_z
Si Si1 0.155979 0.264504 0.867355
Si Si2 0.078203 0.325071 0.540100
Si Si3 0.894693 0.966254 0.354429
Si Si4 0.380953 0.705307 0.754830
Si Si5 0.500000 0.345596 0.750000
Si Si6 0.117338 0.519755 0.375978
O O1 0.310215 0.256476 0.621821
O O2 0.112854 0.199585 0.855492
O O3 0.098032 0.376345 0.956767
O O4 0.105042 0.220484 0.035870
O O5 0.133894 0.430999 0.417381
O O6 0.000000 0.345299 0.750000
O O7 0.990452 0.281744 0.607331
O O8 0.000000 0.915115 0.250000
O O9 0.931341 0.084178 0.288664
O O10 0.904757 0.907472 0.250523
O O11 0.748387 0.960516 0.617155
O O12 0.250000 0.750000 0.000000
O O13 0.000000 0.500000 0.500000
#
# Coordination Sequence:
#
# PCOD8144710 Si02
#       6
#     8   8   8   8   4   8
#     4  12  25  43  67  96 137 174 220 270 336 399
#     4  12  23  40  67 101 128 174 223 273 330 385
#     4  10  21  44  66  89 133 178 213 269 326 396
#     4  12  21  38  68  99 124 169 226 273 318 390
#     4  10  26  46  62  90 138 180 212 262 336 404
#     4  12  23  42  65 100 134 170 217 280 331 382
#
# _framework density 19.950465999999999
#
# number of rings (size 3 to 8) (size 9 to 14) (size 15 to 20)
#    0.545    0.000    7.273    1.636    1.273    0.727 
#    0.000    3.636    0.000    0.000    0.000    0.000 
#    0.000    0.000    0.000    0.000    0.000    0.000 
#
# Total GULP energy -272705.664903 kJ/mol
# GULP energy per Si atom -12395.712041 kJ/mol
# Density = 1.990506 g / cm^3
# Si number density = 19.950466 Si / 1000 Ang^3
#
#
#
# Elastic Constant Matrix: (Units=GPa)
#
#
# Indices 1 2 3 4 5 6 
#
# 1 83.0467 33.4569 42.0774 0.0000 -13.4802 0.0000
# 2 33.4569 123.7240 38.1917 0.0000 -2.9025 0.0000
# 3 42.0774 38.1917 96.0875 0.0000 -8.9932 0.0000
# 4 0.0000 0.0000 0.0000 24.4828 0.0000 0.2164
# 5 -13.4802 -2.9025 -8.9932 0.0000 37.8322 0.0000
# 6 0.0000 0.0000 0.0000 0.2164 0.0000 35.4221
#
#
#
# Elastic Compliance Matrix: (Units=1/GPa)
#
#
# Indices 1 2 3 4 5 6 
#
# 1 0.016799 -0.002617 -0.005906 0.000000 0.004381 0.000000
# 2 -0.002617 0.009622 -0.002758 0.000000 -0.000850 0.000000
# 3 -0.005906 -0.002758 0.014189 0.000000 0.001057 0.000000
# 4 0.000000 0.000000 0.000000 0.040847 0.000000 -0.000250
# 5 0.004381 -0.000850 0.001057 0.000000 0.028180 0.000000
# 6 0.000000 0.000000 0.000000 -0.000250 0.000000 0.028232
#
#
# Mechanical properties :
#
#
# Convention : Reuss Voigt Hill
#
# Bulk Modulus (GPa) = 55.40963 58.92338 57.16651
# Shear Modulus (GPa) = 30.03962 32.15624 31.09793
#
# Velocity S-wave (km/s) = 3.88456 4.01908 3.95239
# Velocity P-wave (km/s) = 6.92486 7.15097 7.03882
#
# Compressibility (1/GPa) = 0.01804740
#
# Stress axis : x y z
#
# Youngs Moduli (GPa) = 59.52588 103.93386 70.47860
#
# Poissons Ratio (x) = 0.27198 0.41628
# Poissons Ratio (y) = 0.15577 0.19437
# Poissons Ratio (z) = 0.35159 0.28663
#
# Static dielectric constant tensor:
#      x y z
#    x 3.555720 0.000000 -0.187920 
#    y 0.000000 3.901800 0.000000 
#    z -0.187920 0.000000 3.589290 
# 
# 
# High freq. dielectric constant tensor:
#      x y z
#    x 1.767190 0.000000 -0.013500 
#    y 0.000000 1.784590 0.000000 
#    z -0.013500 0.000000 1.782940 
# 
# From -- ./inp_files/225121.got.cif
#   From: 2010.06.25/outbox.cif.g09.slc.cpg/sg15_113_cif.got.tgz:225121.got - 2010.06.28 07:06:18.
