data_PCOD8144409
_publ_section_title
;
Structure prediction by ZEFSAII (Michael W. Deem and Ramdas Pophale) SiO2 
 PCOD8144409
Probable space group: C 2/C
;
_chemical_formula_sum "Si O2"
_cell_formula_units_Z 56
_cell_length_a 20.548293
_cell_length_b 18.484496
_cell_length_c 9.286503
_cell_angle_alpha 90.000000
_cell_angle_beta 133.468121
_cell_angle_gamma 90.000000
_cell_volume 2559.923295
_symmetry_space_group_name_H-M "C 2/C"
_symmetry_group_IT_number 15
_symmetry_cell_setting 'monoclinic'
loop_
_space_group_symop_operation_xyz
x,y,z
-x,y,1/2-z
-x,-y,-z
x,-y,1/2+z
1/2+x,1/2+y,z
1/2-x,1/2+y,1/2-z
1/2-x,1/2-y,-z
1/2+x,1/2-y,1/2+z
loop_
_atom_site_type_symbol
_atom_site_label
_atom_site_fract_x
_atom_site_fract_y
_atom_site_fract_z
Si Si1 0.048266 0.699508 0.117910
Si Si2 0.186619 0.703072 0.073383
Si Si3 0.299144 0.421015 0.622761
Si Si4 0.248499 0.556485 0.729010
Si Si5 0.455241 0.943070 0.531530
Si Si6 0.297172 0.790554 0.444079
Si Si7 0.938107 0.809539 0.788729
O O1 0.902975 0.702686 0.149169
O O2 0.999128 0.774221 0.006199
O O3 0.972630 0.637660 0.999044
O O4 0.121967 0.682312 0.107464
O O5 0.214524 0.628873 0.037966
O O6 0.276991 0.744694 0.268277
O O7 0.137690 0.754085 0.883770
O O8 0.295887 0.495416 0.705319
O O9 0.302722 0.436441 0.458570
O O10 0.392019 0.378681 0.793840
O O11 0.148113 0.536570 0.619110
O O12 0.248243 0.630831 0.638709
O O13 0.500000 0.954617 0.750000
O O14 0.500000 0.000000 0.500000
O O15 0.250000 0.750000 0.500000
O O16 0.000000 0.834221 0.750000
#
# Coordination Sequence:
#
# PCOD8144409 Si02
#       7
#     8   8   8   8   8   8   8
#     4  10  22  40  65 101 136 169 223 287 348 397
#     4  10  21  42  70  97 129 179 227 276 342 415
#     4  12  26  43  70  96 136 183 232 276 345 409
#     4  12  26  43  65 102 136 182 235 275 338 421
#     4  12  24  38  58  92 140 175 210 269 342 404
#     4  10  22  41  69  98 135 173 231 288 338 404
#     4  10  22  42  68  99 133 175 230 286 334 400
#
# _framework density 21.875654999999998
#
# number of rings (size 3 to 8) (size 9 to 14) (size 15 to 20)
#    0.000    1.143    2.857    3.000    6.000    1.714 
#    0.000    0.714    0.000    0.000    0.000    0.000 
#    0.000    0.000    0.000    0.000    0.000    0.000 
#
# Total GULP energy -347227.081690 kJ/mol
# GULP energy per Si atom -12400.967203 kJ/mol
# Density = 2.182586 g / cm^3
# Si number density = 21.875655 Si / 1000 Ang^3
#
#
#
# Elastic Constant Matrix: (Units=GPa)
#
#
# Indices 1 2 3 4 5 6 
#
# 1 76.2045 61.1937 33.5318 0.0000 -3.6974 0.0000
# 2 61.1937 144.4543 51.8241 0.0000 -13.9505 0.0000
# 3 33.5318 51.8241 100.0227 0.0000 -4.7871 0.0000
# 4 0.0000 0.0000 0.0000 33.7828 0.0000 -2.2948
# 5 -3.6974 -13.9505 -4.7871 0.0000 27.7552 0.0000
# 6 0.0000 0.0000 0.0000 -2.2948 0.0000 55.0550
#
#
#
# Elastic Compliance Matrix: (Units=1/GPa)
#
#
# Indices 1 2 3 4 5 6 
#
# 1 0.020638 -0.007856 -0.002930 0.000000 -0.001705 0.000000
# 2 -0.007856 0.011854 -0.003300 0.000000 0.004342 0.000000
# 3 -0.002930 -0.003300 0.012697 0.000000 0.000141 0.000000
# 4 0.000000 0.000000 0.000000 0.029685 0.000000 0.001237
# 5 -0.001705 0.004342 0.000141 0.000000 0.038009 0.000000
# 6 0.000000 0.000000 0.000000 0.001237 0.000000 0.018215
#
#
# Mechanical properties :
#
#
# Convention : Reuss Voigt Hill
#
# Bulk Modulus (GPa) = 58.76853 68.19785 63.48319
# Shear Modulus (GPa) = 30.31375 34.92739 32.62057
#
# Velocity S-wave (km/s) = 3.72658 4.00012 3.86577
# Velocity P-wave (km/s) = 6.74089 7.25104 7.00061
#
# Compressibility (1/GPa) = 0.01701591
#
# Stress axis : x y z
#
# Youngs Moduli (GPa) = 48.45522 84.36000 78.76111
#
# Poissons Ratio (x) = 0.66274 0.23075
# Poissons Ratio (y) = 0.38067 0.25994
# Poissons Ratio (z) = 0.14196 0.27841
#
# Static dielectric constant tensor:
#      x y z
#    x 4.034120 0.000000 0.062760 
#    y 0.000000 3.943580 0.000000 
#    z 0.062760 0.000000 4.372080 
# 
# 
# High freq. dielectric constant tensor:
#      x y z
#    x 1.866130 0.000000 -0.008020 
#    y 0.000000 1.853080 0.000000 
#    z -0.008020 0.000000 1.862450 
# 
# From -- ./inp_files/50348.got.cif
#   From: 2010.06.25/outbox.cif.g09.slc.cpg/sg15_26_cif.got.tgz:50348.got - 2010.06.28 07:06:18.
