data_PCOD8144994
_publ_section_title
;
Structure prediction by ZEFSAII (Michael W. Deem and Ramdas Pophale) SiO2 
 PCOD8144994
Probable space group: C 2/C
;
_chemical_formula_sum "Si O2"
_cell_formula_units_Z 60
_cell_length_a 8.723558
_cell_length_b 11.979720
_cell_length_c 27.503257
_cell_angle_alpha 90.000000
_cell_angle_beta 108.390908
_cell_angle_gamma 90.000000
_cell_volume 2727.450228
_symmetry_space_group_name_H-M "C 2/C"
_symmetry_group_IT_number 15
_symmetry_cell_setting 'monoclinic'
loop_
_space_group_symop_operation_xyz
x,y,z
-x,y,1/2-z
-x,-y,-z
x,-y,1/2+z
1/2+x,1/2+y,z
1/2-x,1/2+y,1/2-z
1/2-x,1/2-y,-z
1/2+x,1/2-y,1/2+z
loop_
_atom_site_type_symbol
_atom_site_label
_atom_site_fract_x
_atom_site_fract_y
_atom_site_fract_z
Si Si1 0.299576 0.209610 0.325911
Si Si2 0.350896 0.031940 0.819595
Si Si3 0.610875 0.362721 0.893335
Si Si4 0.047551 0.360703 0.417089
Si Si5 0.000000 0.325171 0.250000
Si Si6 0.669294 0.554527 0.502129
Si Si7 0.431341 0.399487 0.143337
Si Si8 0.706114 0.152800 0.532050
O O1 0.273318 0.159591 0.377969
O O2 0.125654 0.245953 0.289531
O O3 0.420878 0.314689 0.332641
O O4 0.353116 0.098065 0.302415
O O5 0.470669 0.039299 0.878205
O O6 0.406017 0.098490 0.778406
O O7 0.176518 0.082678 0.818979
O O8 0.508680 0.248327 0.879586
O O9 0.651784 0.364725 0.954559
O O10 0.513239 0.474282 0.867092
O O11 0.240630 0.382370 0.444134
O O12 0.971589 0.340348 0.462846
O O13 0.500000 0.500000 0.500000
O O14 0.792366 0.458070 0.499377
O O15 0.331697 0.347398 0.089113
O O16 0.750000 0.250000 0.500000
#
# Coordination Sequence:
#
# PCOD8144994 Si02
#       8
#     8   8   8   8   4   8   8   8
#     4  11  25  47  74  98 140 176 223 298 343 421
#     4  10  25  46  68 107 129 179 226 284 356 409
#     4  10  22  41  67  97 136 185 226 277 345 402
#     4  11  22  42  64  96 143 177 233 288 332 415
#     4  12  26  48  72 104 130 178 230 280 368 410
#     4  11  24  37  62  98 139 191 236 275 341 409
#     4   9  23  43  66  99 140 173 227 276 347 405
#     4  10  22  36  58  96 133 185 228 272 331 402
#
# _framework density 21.998567000000001
#
# number of rings (size 3 to 8) (size 9 to 14) (size 15 to 20)
#    0.000    1.600    1.333    2.400    7.467    3.733 
#    4.800    0.000    0.000    0.000    0.000    0.000 
#    0.000    0.000    0.000    0.000    0.000    0.000 
#
# Total GULP energy -371698.297053 kJ/mol
# GULP energy per Si atom -12389.943235 kJ/mol
# Density = 2.194850 g / cm^3
# Si number density = 21.998567 Si / 1000 Ang^3
#
#
#
# Elastic Constant Matrix: (Units=GPa)
#
#
# Indices 1 2 3 4 5 6 
#
# 1 107.7514 63.8180 41.4154 0.0000 -0.7416 0.0000
# 2 63.8180 160.1417 36.0842 0.0000 2.3892 0.0000
# 3 41.4154 36.0842 71.2893 0.0000 -4.4242 0.0000
# 4 0.0000 0.0000 0.0000 20.8384 0.0000 -0.8340
# 5 -0.7416 2.3892 -4.4242 0.0000 36.5945 0.0000
# 6 0.0000 0.0000 0.0000 -0.8340 0.0000 42.4900
#
#
#
# Elastic Compliance Matrix: (Units=1/GPa)
#
#
# Indices 1 2 3 4 5 6 
#
# 1 0.014136 -0.004264 -0.006064 0.000000 -0.000168 0.000000
# 2 -0.004264 0.008364 -0.001809 0.000000 -0.000851 0.000000
# 3 -0.006064 -0.001809 0.018605 0.000000 0.002245 0.000000
# 4 0.000000 0.000000 0.000000 0.048026 0.000000 0.000943
# 5 -0.000168 -0.000851 0.002245 0.000000 0.027650 0.000000
# 6 0.000000 0.000000 0.000000 0.000943 0.000000 0.023553
#
#
# Mechanical properties :
#
#
# Convention : Reuss Voigt Hill
#
# Bulk Modulus (GPa) = 59.41736 69.09084 64.25410
# Shear Modulus (GPa) = 29.37365 33.17557 31.27461
#
# Velocity S-wave (km/s) = 3.65808 3.88761 3.77459
# Velocity P-wave (km/s) = 6.70152 7.18516 6.94755
#
# Compressibility (1/GPa) = 0.01683010
#
# Stress axis : x y z
#
# Youngs Moduli (GPa) = 70.74141 119.55706 53.74792
#
# Poissons Ratio (x) = 0.50984 0.32594
# Poissons Ratio (y) = 0.30167 0.09724
# Poissons Ratio (z) = 0.42899 0.21629
#
# Static dielectric constant tensor:
#      x y z
#    x 3.943780 0.000000 -0.253180 
#    y 0.000000 4.106560 0.000000 
#    z -0.253180 0.000000 3.735830 
# 
# 
# High freq. dielectric constant tensor:
#      x y z
#    x 1.854860 0.000000 -0.019490 
#    y 0.000000 1.887240 0.000000 
#    z -0.019490 0.000000 1.849630 
# 
# From -- ./inp_files/307511.got.cif
#   From: 2010.06.25/outbox.cif.g09.slc.cpg/sg15_154_cif.got.tgz:307511.got - 2010.06.28 07:06:18.
