data_PCOD8144606
_publ_section_title
;
Structure prediction by ZEFSAII (Michael W. Deem and Ramdas Pophale) SiO2 
 PCOD8144606
Probable space group: C 2/C
;
_chemical_formula_sum "Si O2"
_cell_formula_units_Z 44
_cell_length_a 26.926844
_cell_length_b 14.334693
_cell_length_c 5.101011
_cell_angle_alpha 90.000000
_cell_angle_beta 94.100030
_cell_angle_gamma 90.000000
_cell_volume 1963.890258
_symmetry_space_group_name_H-M "C 2/C"
_symmetry_group_IT_number 15
_symmetry_cell_setting 'monoclinic'
loop_
_space_group_symop_operation_xyz
x,y,z
-x,y,1/2-z
-x,-y,-z
x,-y,1/2+z
1/2+x,1/2+y,z
1/2-x,1/2+y,1/2-z
1/2-x,1/2-y,-z
1/2+x,1/2-y,1/2+z
loop_
_atom_site_type_symbol
_atom_site_label
_atom_site_fract_x
_atom_site_fract_y
_atom_site_fract_z
Si Si1 0.184677 0.941613 0.687594
Si Si2 0.978283 0.604008 0.488591
Si Si3 0.402523 0.691885 0.297076
Si Si4 0.614561 0.807637 0.712637
Si Si5 0.703897 0.938040 0.829273
Si Si6 0.000000 0.066828 0.250000
O O1 0.142442 0.868096 0.600013
O O2 0.239843 0.898846 0.668394
O O3 0.178005 0.027492 0.485504
O O4 0.918961 0.608498 0.429615
O O5 0.000000 0.660125 0.250000
O O6 0.000000 0.500000 0.500000
O O7 0.000000 0.658053 0.750000
O O8 0.410034 0.770683 0.524736
O O9 0.451691 0.632119 0.257553
O O10 0.383866 0.729460 0.010034
O O11 0.668930 0.848345 0.785099
O O12 0.693477 0.016037 0.606392
O O13 0.000000 0.000000 0.500000
#
# Coordination Sequence:
#
# PCOD8144606 Si02
#       6
#     8   8   8   8   8   4
#     4  10  21  43  69  95 125 171 219 259 319 393
#     4  10  23  39  60  85 119 181 213 252 299 377
#     4  12  26  42  67  98 131 164 208 279 334 377
#     4  12  26  40  63 100 133 167 212 269 325 378
#     4  10  23  41  67  95 131 176 220 258 302 384
#     4  12  26  48  70  92 122 168 218 268 320 392
#
# _framework density 22.404510999999999
#
# number of rings (size 3 to 8) (size 9 to 14) (size 15 to 20)
#    0.000    1.091    0.000    5.455    8.909    1.455 
#    0.000    0.000    0.000    0.000    0.000    0.000 
#    0.000    0.000    0.000    0.000    0.000    0.000 
#
# Total GULP energy -272669.928188 kJ/mol
# GULP energy per Si atom -12394.087645 kJ/mol
# Density = 2.235352 g / cm^3
# Si number density = 22.404511 Si / 1000 Ang^3
#
#
#
# Elastic Constant Matrix: (Units=GPa)
#
#
# Indices 1 2 3 4 5 6 
#
# 1 154.7111 68.8619 41.9339 0.0000 11.2863 0.0000
# 2 68.8619 81.5093 24.1838 0.0000 5.1699 0.0000
# 3 41.9339 24.1838 146.9347 0.0000 -3.6766 0.0000
# 4 0.0000 0.0000 0.0000 34.2580 0.0000 7.6695
# 5 11.2863 5.1699 -3.6766 0.0000 35.6066 0.0000
# 6 0.0000 0.0000 0.0000 7.6695 0.0000 37.7071
#
#
#
# Elastic Compliance Matrix: (Units=1/GPa)
#
#
# Indices 1 2 3 4 5 6 
#
# 1 0.010926 -0.008553 -0.001771 0.000000 -0.002404 0.000000
# 2 -0.008553 0.019752 -0.000816 0.000000 -0.000241 0.000000
# 3 -0.001771 -0.000816 0.007482 0.000000 0.001452 0.000000
# 4 0.000000 0.000000 0.000000 0.030583 0.000000 -0.006220
# 5 -0.002404 -0.000241 0.001452 0.000000 0.029032 0.000000
# 6 0.000000 0.000000 0.000000 -0.006220 0.000000 0.027785
#
#
# Mechanical properties :
#
#
# Convention : Reuss Voigt Hill
#
# Bulk Modulus (GPa) = 62.97077 72.56826 67.76952
# Shear Modulus (GPa) = 32.65180 38.05938 35.35559
#
# Velocity S-wave (km/s) = 3.82170 4.12605 3.97679
# Velocity P-wave (km/s) = 6.90226 7.42693 7.16940
#
# Compressibility (1/GPa) = 0.01588038
#
# Stress axis : x y z
#
# Youngs Moduli (GPa) = 91.52702 50.62901 133.65919
#
# Poissons Ratio (x) = 0.43301 0.23666
# Poissons Ratio (y) = 0.78280 0.10908
# Poissons Ratio (z) = 0.16206 0.04132
#
# Static dielectric constant tensor:
#      x y z
#    x 4.200060 0.000000 0.186100 
#    y 0.000000 3.645910 0.000000 
#    z 0.186100 0.000000 2.697210 
# 
# 
# High freq. dielectric constant tensor:
#      x y z
#    x 1.896280 0.000000 0.000500 
#    y 0.000000 1.857370 0.000000 
#    z 0.000500 0.000000 1.916540 
# 
# From -- ./inp_files/15139.got.cif
#   From: 2010.06.25/outbox.cif.g09.slc.cpg/sg15_8_cif.got.tgz:15139.got - 2010.06.28 07:06:18.
