data_PCOD8144572
_publ_section_title
;
Structure prediction by ZEFSAII (Michael W. Deem and Ramdas Pophale) SiO2 
 PCOD8144572
Probable space group: C 2/C
;
_chemical_formula_sum "Si O2"
_cell_formula_units_Z 64
_cell_length_a 10.793538
_cell_length_b 18.068953
_cell_length_c 26.358486
_cell_angle_alpha 90.000000
_cell_angle_beta 35.514220
_cell_angle_gamma 90.000000
_cell_volume 2986.223998
_symmetry_space_group_name_H-M "C 2/C"
_symmetry_group_IT_number 15
_symmetry_cell_setting 'monoclinic'
loop_
_space_group_symop_operation_xyz
x,y,z
-x,y,1/2-z
-x,-y,-z
x,-y,1/2+z
1/2+x,1/2+y,z
1/2-x,1/2+y,1/2-z
1/2-x,1/2-y,-z
1/2+x,1/2-y,1/2+z
loop_
_atom_site_type_symbol
_atom_site_label
_atom_site_fract_x
_atom_site_fract_y
_atom_site_fract_z
Si Si1 0.677791 0.518026 0.792834
Si Si2 0.955662 0.761600 0.632684
Si Si3 0.766552 0.400652 0.842440
Si Si4 0.476028 0.785712 0.932491
Si Si5 0.801892 0.319204 0.280098
Si Si6 0.891744 0.674903 0.003432
Si Si7 0.207375 0.511605 0.464685
Si Si8 0.553551 0.930638 0.613504
O O1 0.705265 0.478801 0.837889
O O2 0.726297 0.604326 0.780802
O O3 0.844457 0.479258 0.698204
O O4 0.426354 0.509821 0.861503
O O5 0.886659 0.836797 0.627325
O O6 0.827485 0.739288 0.725582
O O7 0.938125 0.696280 0.596866
O O8 0.200507 0.766125 0.569063
O O9 0.000000 0.373079 0.750000
O O10 0.769953 0.417516 0.901313
O O11 0.634551 0.717270 0.873870
O O12 0.485983 0.824193 0.984092
O O13 0.531643 0.849988 0.873897
O O14 0.250000 0.750000 0.000000
O O15 0.000000 0.335637 0.250000
O O16 0.783470 0.597632 0.025600
O O17 0.000000 0.500000 0.500000
O O18 0.187320 0.467113 0.523656
#
# Coordination Sequence:
#
# PCOD8144572 Si02
#       8
#     8   8   8   8   8   8   8   8
#     4  11  25  44  68 100 138 178 234 288 351 415
#     4  11  23  44  67 100 135 177 226 285 340 416
#     4  10  21  43  67  97 133 178 231 283 341 415
#     4  12  25  44  71 104 141 182 236 287 353 421
#     4  12  24  42  70 101 137 182 235 284 345 418
#     4  11  24  43  68  98 140 175 226 284 352 405
#     4  12  25  46  68 100 139 177 233 286 345 430
#     4  11  24  44  71  99 137 184 227 289 352 414
#
# _framework density 21.431747999999999
#
# number of rings (size 3 to 8) (size 9 to 14) (size 15 to 20)
#    0.000    0.750    3.750    4.875    0.000    1.000 
#    0.000    0.000    0.000    0.000    0.000    0.000 
#    0.000    0.000    0.000    0.000    0.000    0.000 
#
# Total GULP energy -396703.064197 kJ/mol
# GULP energy per Si atom -12396.970756 kJ/mol
# Density = 2.138297 g / cm^3
# Si number density = 21.431748 Si / 1000 Ang^3
#
#
#
# Elastic Constant Matrix: (Units=GPa)
#
#
# Indices 1 2 3 4 5 6 
#
# 1 107.6251 23.4260 27.5673 0.0105 1.6027 -0.0097
# 2 23.4260 114.2176 28.7578 -0.0207 3.0948 -0.0105
# 3 27.5673 28.7578 89.5212 -0.0411 -6.8082 -0.0155
# 4 0.0105 -0.0207 -0.0411 36.2352 -0.0144 1.7543
# 5 1.6027 3.0948 -6.8082 -0.0144 35.9771 0.0077
# 6 -0.0097 -0.0105 -0.0155 1.7543 0.0077 36.5292
#
#
#
# Elastic Compliance Matrix: (Units=1/GPa)
#
#
# Indices 1 2 3 4 5 6 
#
# 1 0.010324 -0.001389 -0.002799 -0.000007 -0.000870 0.000002
# 2 -0.001389 0.009785 -0.002815 0.000002 -0.001313 0.000001
# 3 -0.002799 -0.002815 0.013154 0.000015 0.002856 0.000003
# 4 -0.000007 0.000002 0.000015 0.027662 0.000014 -0.001328
# 5 -0.000870 -0.001313 0.002856 0.000014 0.028488 -0.000006
# 6 0.000002 0.000001 0.000003 -0.001328 -0.000006 0.027439
#
#
# Mechanical properties :
#
#
# Convention : Reuss Voigt Hill
#
# Bulk Modulus (GPa) = 51.93299 52.31846 52.12573
# Shear Modulus (GPa) = 36.42291 37.18916 36.80604
#
# Velocity S-wave (km/s) = 4.12695 4.17014 4.14860
# Velocity P-wave (km/s) = 6.85517 6.90300 6.87913
#
# Compressibility (1/GPa) = 0.01925558
#
# Stress axis : x y z
#
# Youngs Moduli (GPa) = 96.86375 102.20239 76.02213
#
# Poissons Ratio (x) = 0.14197 0.21279
# Poissons Ratio (y) = 0.13455 0.21402
# Poissons Ratio (z) = 0.27113 0.28772
#
# Static dielectric constant tensor:
#      x y z
#    x 4.064110 0.000330 0.019570 
#    y 0.000330 4.009880 -0.001120 
#    z 0.019570 -0.001120 3.801390 
# 
# 
# High freq. dielectric constant tensor:
#      x y z
#    x 1.846320 0.000000 -0.001910 
#    y 0.000000 1.853620 0.000000 
#    z -0.001910 0.000000 1.837320 
# 
# From -- ./inp_files/311628.got.cif
#   From: 2010.06.25/outbox.cif.g09.slc.cpg/sg15_156_cif.got.tgz:311628.got - 2010.06.28 07:06:18.
