data_PCOD8144888
_publ_section_title
;
Structure prediction by ZEFSAII (Michael W. Deem and Ramdas Pophale) SiO2 
 PCOD8144888
Probable space group: C 2/C
;
_chemical_formula_sum "Si O2"
_cell_formula_units_Z 40
_cell_length_a 11.671013
_cell_length_b 7.585340
_cell_length_c 16.172487
_cell_angle_alpha 90.000000
_cell_angle_beta 99.596745
_cell_angle_gamma 90.000000
_cell_volume 1411.691362
_symmetry_space_group_name_H-M "C 2/C"
_symmetry_group_IT_number 15
_symmetry_cell_setting 'monoclinic'
loop_
_space_group_symop_operation_xyz
x,y,z
-x,y,1/2-z
-x,-y,-z
x,-y,1/2+z
1/2+x,1/2+y,z
1/2-x,1/2+y,1/2-z
1/2-x,1/2-y,-z
1/2+x,1/2-y,1/2+z
loop_
_atom_site_type_symbol
_atom_site_label
_atom_site_fract_x
_atom_site_fract_y
_atom_site_fract_z
Si Si1 0.829879 0.088002 0.042931
Si Si2 0.872788 0.043284 0.232675
Si Si3 0.156638 0.429765 0.281932
Si Si4 0.524500 0.961362 0.621951
Si Si5 0.065350 0.775362 0.518114
O O1 0.803998 0.043758 0.135999
O O2 0.823871 0.906549 0.986194
O O3 0.750000 0.250000 0.000000
O O4 0.967635 0.129709 0.061263
O O5 0.884474 0.245445 0.262761
O O6 0.000000 0.953531 0.250000
O O7 0.795835 0.947646 0.294392
O O8 0.101101 0.574768 0.212746
O O9 0.102524 0.454358 0.367008
O O10 0.597025 0.089733 0.567016
O O11 0.497071 0.775565 0.576235
#
# Coordination Sequence:
#
# PCOD8144888 Si02
#       5
#     8   8   8   8   8
#     4  11  24  44  70 108 144 195 253 308 375 456
#     4  12  26  47  71 106 146 194 245 310 377 448
#     4  11  24  44  73 102 149 190 252 310 375 453
#     4  10  21  47  71 108 143 198 251 313 382 452
#     4  10  22  43  72 100 151 190 245 317 375 451
#
# _framework density 28.334804999999999
#
# number of rings (size 3 to 8) (size 9 to 14) (size 15 to 20)
#    0.000    1.200    4.000    1.200    2.800    6.400 
#    0.000    3.000    0.000    0.000    0.000    0.000 
#    0.000    0.000    0.000    0.000    0.000    0.000 
#
# Total GULP energy -247822.001618 kJ/mol
# GULP energy per Si atom -12391.100081 kJ/mol
# Density = 2.827031 g / cm^3
# Si number density = 28.334805 Si / 1000 Ang^3
#
#
#
# Elastic Constant Matrix: (Units=GPa)
#
#
# Indices 1 2 3 4 5 6 
#
# 1 135.3215 32.1922 19.6250 0.0000 -23.2811 0.0000
# 2 32.1922 107.1210 14.3534 0.0000 -10.4251 0.0000
# 3 19.6250 14.3534 91.9200 0.0000 -14.9221 0.0000
# 4 0.0000 0.0000 0.0000 30.4014 0.0000 -13.1401
# 5 -23.2811 -10.4251 -14.9221 0.0000 40.9630 0.0000
# 6 0.0000 0.0000 0.0000 -13.1401 0.0000 54.8724
#
#
#
# Elastic Compliance Matrix: (Units=1/GPa)
#
#
# Indices 1 2 3 4 5 6 
#
# 1 0.008723 -0.002106 -0.000867 0.000000 0.004106 0.000000
# 2 -0.002106 0.010200 -0.000974 0.000000 0.001045 0.000000
# 3 -0.000867 -0.000974 0.011793 0.000000 0.003556 0.000000
# 4 0.000000 0.000000 0.000000 0.036691 0.000000 0.008786
# 5 0.004106 0.001045 0.003556 0.000000 0.028307 0.000000
# 6 0.000000 0.000000 0.000000 0.008786 0.000000 0.020328
#
#
# Mechanical properties :
#
#
# Convention : Reuss Voigt Hill
#
# Bulk Modulus (GPa) = 43.81392 51.85595 47.83494
# Shear Modulus (GPa) = 38.01047 43.12682 40.56865
#
# Velocity S-wave (km/s) = 3.66659 3.90557 3.78797
# Velocity P-wave (km/s) = 5.78115 6.21923 6.00419
#
# Compressibility (1/GPa) = 0.02282379
#
# Stress axis : x y z
#
# Youngs Moduli (GPa) = 114.64138 98.03782 84.79339
#
# Poissons Ratio (x) = 0.20643 0.07352
# Poissons Ratio (y) = 0.24140 0.08256
# Poissons Ratio (z) = 0.09939 0.09545
#
# Static dielectric constant tensor:
#      x y z
#    x 5.101410 0.000000 -0.534780 
#    y 0.000000 5.073940 0.000000 
#    z -0.534780 0.000000 4.906180 
# 
# 
# High freq. dielectric constant tensor:
#      x y z
#    x 2.147830 0.000000 -0.024960 
#    y 0.000000 2.134910 0.000000 
#    z -0.024960 0.000000 2.136950 
# 
# From -- ./inp_files/195245.got.cif
#   From: 2010.06.25/outbox.cif.g09.slc.cpg/sg15_98_cif.got.tgz:195245.got - 2010.06.28 07:06:18.
