data_PCOD8144230
_publ_section_title
;
Structure prediction by ZEFSAII (Michael W. Deem and Ramdas Pophale) SiO2 
 PCOD8144230
Probable space group: C 2/C
;
_chemical_formula_sum "Si O2"
_cell_formula_units_Z 60
_cell_length_a 11.722591
_cell_length_b 14.137713
_cell_length_c 21.152000
_cell_angle_alpha 90.000000
_cell_angle_beta 51.392543
_cell_angle_gamma 90.000000
_cell_volume 2739.362101
_symmetry_space_group_name_H-M "C 2/C"
_symmetry_group_IT_number 15
_symmetry_cell_setting 'monoclinic'
loop_
_space_group_symop_operation_xyz
x,y,z
-x,y,1/2-z
-x,-y,-z
x,-y,1/2+z
1/2+x,1/2+y,z
1/2-x,1/2+y,1/2-z
1/2-x,1/2-y,-z
1/2+x,1/2-y,1/2+z
loop_
_atom_site_type_symbol
_atom_site_label
_atom_site_fract_x
_atom_site_fract_y
_atom_site_fract_z
Si Si1 0.792204 0.454572 0.181869
Si Si2 0.775640 0.857448 0.609762
Si Si3 0.186238 0.347148 0.449347
Si Si4 0.013147 0.625891 0.363573
Si Si5 0.927929 0.923045 0.676841
Si Si6 0.786050 0.802687 0.193083
Si Si7 0.056263 0.915822 0.061753
Si Si8 0.500000 0.275403 0.750000
O O1 0.814908 0.432843 0.100217
O O2 0.642044 0.512350 0.243815
O O3 0.777724 0.355543 0.223502
O O4 0.924254 0.519540 0.161312
O O5 0.833393 0.751530 0.579575
O O6 0.604943 0.865641 0.651678
O O7 0.799604 0.888789 0.673502
O O8 0.875294 0.926629 0.531583
O O9 0.055048 0.359828 0.543577
O O10 0.339716 0.345783 0.433792
O O11 0.140395 0.704058 0.310454
O O12 0.004207 0.834947 0.683689
O O13 0.050495 0.981015 0.595869
O O14 0.647877 0.785327 0.195387
O O15 0.895916 0.869553 0.116283
#
# Coordination Sequence:
#
# PCOD8144230 Si02
#       8
#     8   8   8   8   8   8   8   4
#     4  11  25  41  65 101 131 179 217 268 336 396
#     4  11  22  42  70 100 129 169 219 274 342 387
#     4  11  21  41  72  99 130 171 226 269 328 399
#     4  11  22  45  69 100 135 167 220 288 324 389
#     4  11  24  40  63  92 134 176 222 260 327 403
#     4  11  23  43  64  94 137 169 217 280 323 386
#     4  10  21  42  65  98 129 170 216 275 324 396
#     4  12  24  44  60  90 134 180 220 272 320 398
#
# _framework density 21.902909999999999
#
# number of rings (size 3 to 8) (size 9 to 14) (size 15 to 20)
#    0.000    1.067    4.000    3.200    0.000    4.267 
#    2.400    0.667    0.000    0.000    0.000    0.000 
#    0.000    0.000    0.000    0.000    0.000    0.000 
#
# Total GULP energy -372104.685359 kJ/mol
# GULP energy per Si atom -12403.489512 kJ/mol
# Density = 2.185306 g / cm^3
# Si number density = 21.902910 Si / 1000 Ang^3
#
#
#
# Elastic Constant Matrix: (Units=GPa)
#
#
# Indices 1 2 3 4 5 6 
#
# 1 111.4626 33.7735 36.0319 0.0000 -12.0958 0.0000
# 2 33.7735 86.1181 46.7372 0.0000 -6.1066 0.0000
# 3 36.0319 46.7372 84.3080 0.0000 -2.4832 0.0000
# 4 0.0000 0.0000 0.0000 40.4772 0.0000 0.3686
# 5 -12.0958 -6.1066 -2.4832 0.0000 33.0906 0.0000
# 6 0.0000 0.0000 0.0000 0.3686 0.0000 34.8637
#
#
#
# Elastic Compliance Matrix: (Units=1/GPa)
#
#
# Indices 1 2 3 4 5 6 
#
# 1 0.011127 -0.002284 -0.003390 0.000000 0.003392 0.000000
# 2 -0.002284 0.017267 -0.008546 0.000000 0.001710 0.000000
# 3 -0.003390 -0.008546 0.018004 0.000000 -0.001465 0.000000
# 4 0.000000 0.000000 0.000000 0.024708 0.000000 -0.000261
# 5 0.003392 0.001710 -0.001465 0.000000 0.031666 0.000000
# 6 0.000000 0.000000 0.000000 -0.000261 0.000000 0.028686
#
#
# Mechanical properties :
#
#
# Convention : Reuss Voigt Hill
#
# Bulk Modulus (GPa) = 55.67895 57.21932 56.44914
# Shear Modulus (GPa) = 30.14188 32.70939 31.42564
#
# Velocity S-wave (km/s) = 3.71369 3.86862 3.79195
# Velocity P-wave (km/s) = 6.62304 6.79233 6.70822
#
# Compressibility (1/GPa) = 0.01796011
#
# Stress axis : x y z
#
# Youngs Moduli (GPa) = 89.86777 57.91520 55.54262
#
# Poissons Ratio (x) = 0.13226 0.18828
# Poissons Ratio (y) = 0.20524 0.47464
# Poissons Ratio (z) = 0.30463 0.49492
#
# Static dielectric constant tensor:
#      x y z
#    x 3.817730 0.000000 -0.052480 
#    y 0.000000 3.980270 0.000000 
#    z -0.052480 0.000000 3.975330 
# 
# 
# High freq. dielectric constant tensor:
#      x y z
#    x 1.847650 0.000000 -0.003050 
#    y 0.000000 1.867670 0.000000 
#    z -0.003050 0.000000 1.865560 
# 
# From -- ./inp_files/238700.got.cif
#   From: 2010.06.25/outbox.cif.g09.slc.cpg/sg15_120_cif.got.tgz:238700.got - 2010.06.28 07:06:18.
