data_PCOD8144824
_publ_section_title
;
Structure prediction by ZEFSAII (Michael W. Deem and Ramdas Pophale) SiO2 
 PCOD8144824
Probable space group: C 2/C
;
_chemical_formula_sum "Si O2"
_cell_formula_units_Z 48
_cell_length_a 13.675432
_cell_length_b 14.126561
_cell_length_c 12.069937
_cell_angle_alpha 90.000000
_cell_angle_beta 56.130297
_cell_angle_gamma 90.000000
_cell_volume 1936.070893
_symmetry_space_group_name_H-M "C 2/C"
_symmetry_group_IT_number 15
_symmetry_cell_setting 'monoclinic'
loop_
_space_group_symop_operation_xyz
x,y,z
-x,y,1/2-z
-x,-y,-z
x,-y,1/2+z
1/2+x,1/2+y,z
1/2-x,1/2+y,1/2-z
1/2-x,1/2-y,-z
1/2+x,1/2-y,1/2+z
loop_
_atom_site_type_symbol
_atom_site_label
_atom_site_fract_x
_atom_site_fract_y
_atom_site_fract_z
Si Si1 0.733458 0.675642 0.668192
Si Si2 0.726657 0.950887 0.152128
Si Si3 0.133862 0.309082 0.052615
Si Si4 0.433859 0.696039 0.076893
Si Si5 0.589597 0.561419 0.596847
Si Si6 0.807314 0.365096 0.715249
O O1 0.723455 0.597322 0.769720
O O2 0.868141 0.711607 0.565523
O O3 0.688799 0.632105 0.582057
O O4 0.651187 0.765464 0.756246
O O5 0.657497 0.046410 0.230241
O O6 0.627742 0.882612 0.158736
O O7 0.839432 0.972638 0.000573
O O8 0.136696 0.373826 0.940976
O O9 0.250000 0.250000 0.000000
O O10 0.029548 0.232623 0.105169
O O11 0.335826 0.636480 0.207566
O O12 0.480766 0.623457 0.951817
O O13 0.500000 0.527678 0.750000
#
# Coordination Sequence:
#
# PCOD8144824 Si02
#       6
#     8   8   8   8   8   8
#     4  10  21  45  69  94 148 187 238 300 358 438
#     4  11  24  41  68 104 144 181 240 300 363 432
#     4  12  22  44  71 100 141 191 239 300 368 425
#     4   9  23  43  72 100 135 195 241 293 362 427
#     4  11  23  43  74 104 142 188 247 303 362 433
#     4   9  22  43  68  98 142 182 242 292 359 427
#
# _framework density 24.792480999999999
#
# number of rings (size 3 to 8) (size 9 to 14) (size 15 to 20)
#    1.000    0.667    1.667    2.500    0.000    3.333 
#    6.000    5.000    3.667    0.000    0.000    0.000 
#    0.000    0.000    0.000    0.000    0.000    0.000 
#
# Total GULP energy -297365.344456 kJ/mol
# GULP energy per Si atom -12390.222686 kJ/mol
# Density = 2.473605 g / cm^3
# Si number density = 24.792481 Si / 1000 Ang^3
#
#
#
# Elastic Constant Matrix: (Units=GPa)
#
#
# Indices 1 2 3 4 5 6 
#
# 1 90.5153 19.8913 -18.8697 0.0000 11.1305 0.0000
# 2 19.8913 117.6525 5.0692 0.0000 22.1666 0.0000
# 3 -18.8697 5.0692 52.7097 0.0000 10.2413 0.0000
# 4 0.0000 0.0000 0.0000 45.5830 0.0000 16.7034
# 5 11.1305 22.1666 10.2413 0.0000 24.1300 0.0000
# 6 0.0000 0.0000 0.0000 16.7034 0.0000 37.9784
#
#
#
# Elastic Compliance Matrix: (Units=1/GPa)
#
#
# Indices 1 2 3 4 5 6 
#
# 1 0.013646 -0.001063 0.006562 0.000000 -0.008103 0.000000
# 2 -0.001063 0.010403 0.000415 0.000000 -0.009242 0.000000
# 3 0.006562 0.000415 0.023915 0.000000 -0.013558 0.000000
# 4 0.000000 0.000000 0.000000 0.026153 0.000000 -0.011502
# 5 -0.008103 -0.009242 -0.013558 0.000000 0.059424 0.000000
# 6 0.000000 0.000000 0.000000 -0.011502 0.000000 0.031390
#
#
# Mechanical properties :
#
#
# Convention : Reuss Voigt Hill
#
# Bulk Modulus (GPa) = 16.72528 30.33990 23.53259
# Shear Modulus (GPa) = 28.89612 38.52407 33.71009
#
# Velocity S-wave (km/s) = 3.41767 3.94618 3.69140
# Velocity P-wave (km/s) = 4.72597 5.74693 5.26127
#
# Compressibility (1/GPa) = 0.05978975
#
# Stress axis : x y z
#
# Youngs Moduli (GPa) = 73.28280 96.12880 41.81440
#
# Poissons Ratio (x) = 0.10220 -0.27437
# Poissons Ratio (y) = 0.07791 -0.01734
# Poissons Ratio (z) = -0.48086 -0.03985
#
# Static dielectric constant tensor:
#      x y z
#    x 4.173580 0.000000 0.216100 
#    y 0.000000 4.740050 0.000000 
#    z 0.216100 0.000000 4.385670 
# 
# 
# High freq. dielectric constant tensor:
#      x y z
#    x 1.960350 0.000000 0.013470 
#    y 0.000000 1.990970 0.000000 
#    z 0.013470 0.000000 1.979410 
# 
# From -- ./inp_files/87804.got.cif
#   From: 2010.06.25/outbox.cif.g09.slc.cpg/sg15_44_cif.got.tgz:87804.got - 2010.06.28 07:06:18.
