data_PCOD8144972
_publ_section_title
;
Structure prediction by ZEFSAII (Michael W. Deem and Ramdas Pophale) SiO2 
 PCOD8144972
Probable space group: C 2/C
;
_chemical_formula_sum "Si O2"
_cell_formula_units_Z 52
_cell_length_a 8.553798
_cell_length_b 11.477264
_cell_length_c 30.261952
_cell_angle_alpha 90.000000
_cell_angle_beta 51.777733
_cell_angle_gamma 90.000000
_cell_volume 2334.021734
_symmetry_space_group_name_H-M "C 2/C"
_symmetry_group_IT_number 15
_symmetry_cell_setting 'monoclinic'
loop_
_space_group_symop_operation_xyz
x,y,z
-x,y,1/2-z
-x,-y,-z
x,-y,1/2+z
1/2+x,1/2+y,z
1/2-x,1/2+y,1/2-z
1/2-x,1/2-y,-z
1/2+x,1/2-y,1/2+z
loop_
_atom_site_type_symbol
_atom_site_label
_atom_site_fract_x
_atom_site_fract_y
_atom_site_fract_z
Si Si1 0.500000 0.775673 0.750000
Si Si2 0.867333 0.858077 0.814889
Si Si3 0.898050 0.319377 0.005730
Si Si4 0.261271 0.531771 0.419515
Si Si5 0.585240 0.172737 0.831719
Si Si6 0.972348 0.595119 0.344148
Si Si7 0.456174 0.319641 0.574477
O O1 0.311957 0.691308 0.776800
O O2 0.527707 0.866944 0.706188
O O3 0.873739 0.957451 0.852537
O O4 0.641437 0.831841 0.840107
O O5 0.000000 0.900558 0.750000
O O6 0.945062 0.737960 0.821380
O O7 0.770447 0.397620 0.062551
O O8 0.026060 0.233573 0.015159
O O9 0.750000 0.250000 0.000000
O O10 0.051436 0.398796 0.951364
O O11 0.390724 0.582333 0.437094
O O12 0.556701 0.219660 0.886195
O O13 0.528805 0.039015 0.840101
O O14 0.755010 0.621276 0.401008
#
# Coordination Sequence:
#
# PCOD8144972 Si02
#       7
#     4   8   8   8   8   8   8
#     4  10  22  36  54  88 120 162 216 258 308 384
#     4  11  22  42  65  95 129 172 215 259 321 395
#     4  11  23  43  70  97 126 173 218 274 330 388
#     4  10  24  43  66  97 134 166 216 272 327 385
#     4  10  23  40  61  90 128 170 212 266 319 382
#     4  11  23  38  61  89 127 169 214 261 322 377
#     4  10  23  42  63  97 130 164 218 270 321 389
#
# _framework density 22.279139000000001
#
# number of rings (size 3 to 8) (size 9 to 14) (size 15 to 20)
#    0.000    1.538    1.538    2.308    2.154    5.538 
#    0.000    3.077    0.000    0.000    0.000    0.000 
#    0.000    0.000    0.000    0.000    0.000    0.000 
#
# Total GULP energy -322413.622192 kJ/mol
# GULP energy per Si atom -12400.523930 kJ/mol
# Density = 2.222843 g / cm^3
# Si number density = 22.279139 Si / 1000 Ang^3
#
#
#
# Elastic Constant Matrix: (Units=GPa)
#
#
# Indices 1 2 3 4 5 6 
#
# 1 138.8503 46.9243 16.8195 0.0000 2.7178 0.0000
# 2 46.9243 96.4447 22.5888 0.0000 2.3273 0.0000
# 3 16.8195 22.5888 71.8235 0.0000 12.8111 0.0000
# 4 0.0000 0.0000 0.0000 20.0261 0.0000 -1.8279
# 5 2.7178 2.3273 12.8111 0.0000 30.3211 0.0000
# 6 0.0000 0.0000 0.0000 -1.8279 0.0000 36.0439
#
#
#
# Elastic Compliance Matrix: (Units=1/GPa)
#
#
# Indices 1 2 3 4 5 6 
#
# 1 0.008658 -0.004038 -0.000729 0.000000 -0.000158 0.000000
# 2 -0.004038 0.013089 -0.003306 0.000000 0.000754 0.000000
# 3 -0.000729 -0.003306 0.016305 0.000000 -0.006570 0.000000
# 4 0.000000 0.000000 0.000000 0.050167 0.000000 0.002544
# 5 -0.000158 0.000754 -0.006570 0.000000 0.035713 0.000000
# 6 0.000000 0.000000 0.000000 0.002544 0.000000 0.027873
#
#
# Mechanical properties :
#
#
# Convention : Reuss Voigt Hill
#
# Bulk Modulus (GPa) = 45.64743 53.30930 49.47837
# Shear Modulus (GPa) = 28.53016 31.99728 30.26372
#
# Velocity S-wave (km/s) = 3.58240 3.79383 3.68963
# Velocity P-wave (km/s) = 6.13553 6.57044 6.35671
#
# Compressibility (1/GPa) = 0.02190704
#
# Stress axis : x y z
#
# Youngs Moduli (GPa) = 115.49965 76.39868 61.32952
#
# Poissons Ratio (x) = 0.30849 0.04474
# Poissons Ratio (y) = 0.46637 0.20273
# Poissons Ratio (z) = 0.08425 0.25254
#
# Static dielectric constant tensor:
#      x y z
#    x 4.354070 0.000000 -0.032630 
#    y 0.000000 3.784650 0.000000 
#    z -0.032630 0.000000 4.067930 
# 
# 
# High freq. dielectric constant tensor:
#      x y z
#    x 1.896910 0.000000 0.008200 
#    y 0.000000 1.863760 0.000000 
#    z 0.008200 0.000000 1.878640 
# 
# From -- ./inp_files/287886.got.cif
#   From: 2010.06.25/outbox.cif.g09.slc.cpg/sg15_144_cif.got.tgz:287886.got - 2010.06.28 07:06:18.
