data_PCOD8144401
_publ_section_title
;
Structure prediction by ZEFSAII (Michael W. Deem and Ramdas Pophale) SiO2 
 PCOD8144401
Probable space group: C 2/C
;
_chemical_formula_sum "Si O2"
_cell_formula_units_Z 56
_cell_length_a 17.001339
_cell_length_b 21.204399
_cell_length_c 13.892852
_cell_angle_alpha 90.000000
_cell_angle_beta 29.026186
_cell_angle_gamma 90.000000
_cell_volume 2430.130629
_symmetry_space_group_name_H-M "C 2/C"
_symmetry_group_IT_number 15
_symmetry_cell_setting 'monoclinic'
loop_
_space_group_symop_operation_xyz
x,y,z
-x,y,1/2-z
-x,-y,-z
x,-y,1/2+z
1/2+x,1/2+y,z
1/2-x,1/2+y,1/2-z
1/2-x,1/2-y,-z
1/2+x,1/2-y,1/2+z
loop_
_atom_site_type_symbol
_atom_site_label
_atom_site_fract_x
_atom_site_fract_y
_atom_site_fract_z
Si Si1 0.299219 0.956436 0.795019
Si Si2 0.500000 0.001355 0.750000
Si Si3 0.243690 0.178483 0.396363
Si Si4 0.572629 0.433187 0.580178
Si Si5 0.727980 0.301602 0.438516
Si Si6 0.074507 0.701402 0.493531
Si Si7 0.273318 0.918833 0.613967
Si Si8 0.000000 0.737087 0.250000
O O1 0.195804 0.895386 0.940354
O O2 0.358266 0.943507 0.622375
O O3 0.447625 0.961229 0.712237
O O4 0.199208 0.021113 0.893607
O O5 0.656012 0.042825 0.552567
O O6 0.356477 0.197883 0.186989
O O7 0.355724 0.192233 0.368795
O O8 0.076667 0.218037 0.583981
O O9 0.500000 0.469856 0.750000
O O10 0.655353 0.370523 0.540223
O O11 0.422553 0.420978 0.667691
O O12 0.750000 0.250000 0.500000
O O13 0.595920 0.272181 0.508106
O O14 0.886144 0.314622 0.204702
O O15 0.173732 0.653660 0.457235
#
# Coordination Sequence:
#
# PCOD8144401 Si02
#       8
#     8   4   8   8   8   8   8   4
#     4  11  25  44  68 100 137 180 235 290 356 430
#     4  12  23  42  68  94 139 178 224 298 354 421
#     4  10  23  42  66 100 129 171 223 280 342 412
#     4  12  24  44  67  96 141 186 235 291 355 419
#     4  12  25  40  67 100 136 187 238 285 345 421
#     4  11  23  41  63  95 136 173 228 291 345 405
#     4  11  25  43  67  98 134 182 242 289 356 427
#     4  10  21  42  70  94 131 170 222 280 346 409
#
# _framework density 23.044029999999999
#
# number of rings (size 3 to 8) (size 9 to 14) (size 15 to 20)
#    0.000    0.857    1.429    6.000    3.000    2.286 
#    0.000    2.857    0.000    0.000    0.000    0.000 
#    0.000    0.000    0.000    0.000    0.000    0.000 
#
# Total GULP energy -347025.454924 kJ/mol
# GULP energy per Si atom -12393.766247 kJ/mol
# Density = 2.299158 g / cm^3
# Si number density = 23.044030 Si / 1000 Ang^3
#
#
#
# Elastic Constant Matrix: (Units=GPa)
#
#
# Indices 1 2 3 4 5 6 
#
# 1 73.0086 19.7657 14.4053 -0.0071 -5.4430 0.0207
# 2 19.7657 116.3764 24.3495 -0.0003 3.1494 0.0232
# 3 14.4053 24.3495 114.9147 -0.0016 1.9912 0.0230
# 4 -0.0071 -0.0003 -0.0016 31.9711 -0.0035 -0.5674
# 5 -5.4430 3.1494 1.9912 -0.0035 38.3365 -0.0189
# 6 0.0207 0.0232 0.0230 -0.5674 -0.0189 36.2345
#
#
#
# Elastic Compliance Matrix: (Units=1/GPa)
#
#
# Indices 1 2 3 4 5 6 
#
# 1 0.014767 -0.002277 -0.001410 0.000003 0.002357 -0.000005
# 2 -0.002277 0.009358 -0.001680 -0.000001 -0.001005 -0.000004
# 3 -0.001410 -0.001680 0.009244 0.000000 -0.000542 -0.000004
# 4 0.000003 -0.000001 0.000000 0.031287 0.000004 0.000490
# 5 0.002357 -0.001005 -0.000542 0.000004 0.026530 0.000014
# 6 -0.000005 -0.000004 -0.000004 0.000490 0.000014 0.027606
#
#
# Mechanical properties :
#
#
# Convention : Reuss Voigt Hill
#
# Bulk Modulus (GPa) = 44.17641 46.81563 45.49602
# Shear Modulus (GPa) = 36.47737 37.69370 37.08553
#
# Velocity S-wave (km/s) = 3.98294 4.04880 4.01600
# Velocity P-wave (km/s) = 6.35325 6.49745 6.42575
#
# Compressibility (1/GPa) = 0.02263652
#
# Stress axis : x y z
#
# Youngs Moduli (GPa) = 67.71722 106.85753 108.17594
#
# Poissons Ratio (x) = 0.24331 0.15248
# Poissons Ratio (y) = 0.15419 0.18175
# Poissons Ratio (z) = 0.09545 0.17953
#
# Static dielectric constant tensor:
#      x y z
#    x 4.078970 -0.000100 -0.010340 
#    y -0.000100 4.288320 0.000200 
#    z -0.010340 0.000200 3.979110 
# 
# 
# High freq. dielectric constant tensor:
#      x y z
#    x 1.911810 -0.000010 -0.000940 
#    y -0.000010 1.914350 0.000020 
#    z -0.000940 0.000020 1.905400 
# 
# From -- ./inp_files/163781.got.cif
#   From: 2010.06.25/outbox.cif.g09.slc.cpg/sg15_82_cif.got.tgz:163781.got - 2010.06.28 07:06:18.
