data_PCOD8144454
_publ_section_title
;
Structure prediction by ZEFSAII (Michael W. Deem and Ramdas Pophale) SiO2 
 PCOD8144454
Probable space group: C 2/C
;
_chemical_formula_sum "Si O2"
_cell_formula_units_Z 52
_cell_length_a 15.666190
_cell_length_b 21.191185
_cell_length_c 8.166430
_cell_angle_alpha 90.000000
_cell_angle_beta 80.017603
_cell_angle_gamma 90.000000
_cell_volume 2670.089635
_symmetry_space_group_name_H-M "C 2/C"
_symmetry_group_IT_number 15
_symmetry_cell_setting 'monoclinic'
loop_
_space_group_symop_operation_xyz
x,y,z
-x,y,1/2-z
-x,-y,-z
x,-y,1/2+z
1/2+x,1/2+y,z
1/2-x,1/2+y,1/2-z
1/2-x,1/2-y,-z
1/2+x,1/2-y,1/2+z
loop_
_atom_site_type_symbol
_atom_site_label
_atom_site_fract_x
_atom_site_fract_y
_atom_site_fract_z
Si Si1 0.266004 0.089224 0.698220
Si Si2 0.600573 0.584482 0.231676
Si Si3 0.500000 0.215630 0.250000
Si Si4 0.330242 0.290475 0.288096
Si Si5 0.172465 0.788900 0.829293
Si Si6 0.437878 0.830221 0.119152
Si Si7 0.690634 0.503748 0.455479
O O1 0.194248 0.141427 0.780514
O O2 0.360547 0.119117 0.643086
O O3 0.265522 0.032142 0.828076
O O4 0.239632 0.057923 0.536456
O O5 0.500000 0.600104 0.250000
O O6 0.652478 0.649586 0.231717
O O7 0.616430 0.538012 0.376840
O O8 0.637456 0.549955 0.062988
O O9 0.424800 0.263821 0.217894
O O10 0.478219 0.172769 0.418932
O O11 0.264091 0.238578 0.237879
O O12 0.317128 0.303549 0.483774
O O13 0.096117 0.738924 0.825674
O O14 0.500000 0.850262 0.250000
#
# Coordination Sequence:
#
# PCOD8144454 Si02
#       7
#     8   8   4   8   8   8   8
#     4  10  21  43  61  84 122 161 205 246 303 366
#     4  11  21  36  56  88 122 156 202 249 292 362
#     4  10  22  36  64  96 122 158 198 246 334 354
#     4   9  18  35  58  88 116 155 188 247 307 363
#     4   9  18  34  60  83 119 154 190 241 312 358
#     4  10  22  41  63  94 124 153 203 264 308 363
#     4  10  23  38  58  83 117 173 201 240 297 360
#
# _framework density 19.475002
#
# number of rings (size 3 to 8) (size 9 to 14) (size 15 to 20)
#    0.000    2.154    1.538    1.846    0.000    4.923 
#    8.308    3.846    0.000    0.000    0.000    0.000 
#    0.000    0.000    0.000    0.000    0.000    0.000 
#
# Total GULP energy -322192.567084 kJ/mol
# GULP energy per Si atom -12392.021811 kJ/mol
# Density = 1.943068 g / cm^3
# Si number density = 19.475002 Si / 1000 Ang^3
#
#
#
# Elastic Constant Matrix: (Units=GPa)
#
#
# Indices 1 2 3 4 5 6 
#
# 1 123.7675 64.7464 47.3881 0.0000 1.5066 0.0000
# 2 64.7464 128.3878 39.2779 0.0000 3.6015 0.0000
# 3 47.3881 39.2779 80.4694 0.0000 5.6282 0.0000
# 4 0.0000 0.0000 0.0000 -6.5057 0.0000 17.9010
# 5 1.5066 3.6015 5.6282 0.0000 20.3463 0.0000
# 6 0.0000 0.0000 0.0000 17.9010 0.0000 20.9617
#
#
#
# Elastic Compliance Matrix: (Units=1/GPa)
#
#
# Indices 1 2 3 4 5 6 
#
# 1 0.012535 -0.004787 -0.005139 0.000000 0.001341 0.000000
# 2 -0.004787 0.010987 -0.002481 0.000000 -0.000904 0.000000
# 3 -0.005139 -0.002481 0.016935 0.000000 -0.003865 0.000000
# 4 0.000000 0.000000 0.000000 -0.045887 0.000000 0.039186
# 5 0.001341 -0.000904 -0.003865 0.000000 0.050279 0.000000
# 6 0.000000 0.000000 0.000000 0.039186 0.000000 0.014241
#
#
# Mechanical properties :
#
#
# Convention : Reuss Voigt Hill
#
# Bulk Modulus (GPa) = 63.92428 70.60550 67.26489
# Shear Modulus (GPa) = 56.10478 19.04129 37.57304
#
# Velocity S-wave (km/s) = 5.37319 3.13026 4.39714
# Velocity P-wave (km/s) = 8.44925 7.02836 7.77135
#
# Compressibility (1/GPa) = 0.01564351
#
# Stress axis : x y z
#
# Youngs Moduli (GPa) = 79.77530 91.01443 59.05033
#
# Poissons Ratio (x) = 0.43568 0.30347
# Poissons Ratio (y) = 0.38188 0.14649
# Poissons Ratio (z) = 0.40998 0.22578
#
# Static dielectric constant tensor:
#      x y z
#    x 3.535900 0.000000 0.098340 
#    y 0.000000 3.596060 0.000000 
#    z 0.098340 0.000000 3.546090 
# 
# 
# High freq. dielectric constant tensor:
#      x y z
#    x 1.752790 0.000000 0.011520 
#    y 0.000000 1.765190 0.000000 
#    z 0.011520 0.000000 1.752710 
# 
# From -- ./inp_files/40838.got.cif
#   From: 2010.06.25/outbox.cif.g09.slc.cpg/sg15_21_cif.got.tgz:40838.got - 2010.06.28 07:06:18.
