data_PCOD8144294
_publ_section_title
;
Structure prediction by ZEFSAII (Michael W. Deem and Ramdas Pophale) SiO2 
 PCOD8144294
Probable space group: C 2/C
;
_chemical_formula_sum "Si O2"
_cell_formula_units_Z 48
_cell_length_a 10.027363
_cell_length_b 11.894983
_cell_length_c 17.725224
_cell_angle_alpha 90.000000
_cell_angle_beta 87.601076
_cell_angle_gamma 90.000000
_cell_volume 2112.328796
_symmetry_space_group_name_H-M "C 2/C"
_symmetry_group_IT_number 15
_symmetry_cell_setting 'monoclinic'
loop_
_space_group_symop_operation_xyz
x,y,z
-x,y,1/2-z
-x,-y,-z
x,-y,1/2+z
1/2+x,1/2+y,z
1/2-x,1/2+y,1/2-z
1/2-x,1/2-y,-z
1/2+x,1/2-y,1/2+z
loop_
_atom_site_type_symbol
_atom_site_label
_atom_site_fract_x
_atom_site_fract_y
_atom_site_fract_z
Si Si1 0.000000 0.848553 0.250000
Si Si2 0.950975 0.738584 0.993687
Si Si3 0.643986 0.802030 0.358910
Si Si4 0.591392 0.407242 0.097105
Si Si5 0.000000 0.527438 0.750000
Si Si6 0.744050 0.376971 0.587653
Si Si7 0.706617 0.846086 0.743392
O O1 0.991333 0.929840 0.323491
O O2 0.871499 0.769692 0.240188
O O3 0.836288 0.766731 0.935395
O O4 0.075536 0.701685 0.941559
O O5 0.893711 0.637808 0.048778
O O6 0.993335 0.847373 0.040626
O O7 0.794914 0.823696 0.378186
O O8 0.568618 0.896845 0.312238
O O9 0.662386 0.684413 0.311370
O O10 0.661131 0.516125 0.058304
O O11 0.113169 0.445110 0.710186
O O12 0.745838 0.391539 0.676997
#
# Coordination Sequence:
#
# PCOD8144294 Si02
#       7
#     4   8   8   8   4   8   8
#     4   9  20  38  65  88 130 167 222 282 323 390
#     4  11  25  42  62  95 141 170 218 286 326 405
#     4  11  24  40  68 100 130 171 227 277 338 404
#     4  11  22  41  65  96 126 181 222 268 345 398
#     4  11  22  44  67 100 134 177 228 278 339 398
#     4  11  23  43  64  91 133 181 218 271 343 392
#     4  10  21  42  67  91 134 175 217 286 335 383
#
# _framework density 22.723735000000001
#
# number of rings (size 3 to 8) (size 9 to 14) (size 15 to 20)
#    0.000    1.333    3.333    2.000    0.000    3.333 
#    0.000    0.000    0.000    0.000    0.000    0.000 
#    0.000    0.000    0.000    0.000    0.000    0.000 
#
# Total GULP energy -297341.942265 kJ/mol
# GULP energy per Si atom -12389.247594 kJ/mol
# Density = 2.267201 g / cm^3
# Si number density = 22.723735 Si / 1000 Ang^3
#
#
#
# Elastic Constant Matrix: (Units=GPa)
#
#
# Indices 1 2 3 4 5 6 
#
# 1 72.9326 28.7961 36.4972 0.0000 -1.5977 0.0000
# 2 28.7961 95.5720 34.4331 0.0000 -14.1429 0.0000
# 3 36.4972 34.4331 110.1297 0.0000 -17.9874 0.0000
# 4 0.0000 0.0000 0.0000 11.4488 0.0000 -0.7590
# 5 -1.5977 -14.1429 -17.9874 0.0000 39.6914 0.0000
# 6 0.0000 0.0000 0.0000 -0.7590 0.0000 40.3967
#
#
#
# Elastic Compliance Matrix: (Units=1/GPa)
#
#
# Indices 1 2 3 4 5 6 
#
# 1 0.017783 -0.003949 -0.005153 0.000000 -0.003027 0.000000
# 2 -0.003949 0.012950 -0.002173 0.000000 0.003470 0.000000
# 3 -0.005153 -0.002173 0.012211 0.000000 0.004552 0.000000
# 4 0.000000 0.000000 0.000000 0.087454 0.000000 0.001643
# 5 -0.003027 0.003470 0.004552 0.000000 0.028372 0.000000
# 6 0.000000 0.000000 0.000000 0.001643 0.000000 0.024785
#
#
# Mechanical properties :
#
#
# Convention : Reuss Voigt Hill
#
# Bulk Modulus (GPa) = 49.03728 53.12078 51.07903
# Shear Modulus (GPa) = 23.48482 30.23458 26.85970
#
# Velocity S-wave (km/s) = 3.21829 3.65160 3.44177
# Velocity P-wave (km/s) = 5.95285 6.41922 6.19043
#
# Compressibility (1/GPa) = 0.02039265
#
# Stress axis : x y z
#
# Youngs Moduli (GPa) = 56.23374 77.22111 81.89479
#
# Poissons Ratio (x) = 0.30498 0.42199
# Poissons Ratio (y) = 0.22209 0.17797
# Poissons Ratio (z) = 0.28976 0.16782
#
# Static dielectric constant tensor:
#      x y z
#    x 4.281860 0.000000 -0.238790 
#    y 0.000000 4.005140 0.000000 
#    z -0.238790 0.000000 4.434880 
# 
# 
# High freq. dielectric constant tensor:
#      x y z
#    x 1.904370 0.000000 0.002820 
#    y 0.000000 1.877760 0.000000 
#    z 0.002820 0.000000 1.895680 
# 
# From -- ./inp_files/196070.got.cif
#   From: 2010.06.25/outbox.cif.g09.slc.cpg/sg15_99_cif.got.tgz:196070.got - 2010.06.28 07:06:18.
