data_PCOD8144098
_publ_section_title
;
Structure prediction by ZEFSAII (Michael W. Deem and Ramdas Pophale) SiO2 
 PCOD8144098
Probable space group: C 2/C
;
_chemical_formula_sum "Si O2"
_cell_formula_units_Z 48
_cell_length_a 8.292617
_cell_length_b 25.361232
_cell_length_c 11.399563
_cell_angle_alpha 90.000000
_cell_angle_beta 71.768838
_cell_angle_gamma 90.000000
_cell_volume 2277.106039
_symmetry_space_group_name_H-M "C 2/C"
_symmetry_group_IT_number 15
_symmetry_cell_setting 'monoclinic'
loop_
_space_group_symop_operation_xyz
x,y,z
-x,y,1/2-z
-x,-y,-z
x,-y,1/2+z
1/2+x,1/2+y,z
1/2-x,1/2+y,1/2-z
1/2-x,1/2-y,-z
1/2+x,1/2-y,1/2+z
loop_
_atom_site_type_symbol
_atom_site_label
_atom_site_fract_x
_atom_site_fract_y
_atom_site_fract_z
Si Si1 0.500000 0.287139 0.250000
Si Si2 0.335457 0.697453 0.432739
Si Si3 0.270533 0.300363 0.687752
Si Si4 0.500000 0.022002 0.250000
Si Si5 0.637200 0.078976 0.807427
Si Si6 0.211623 0.398561 0.549379
Si Si7 0.426666 0.623612 0.595618
O O1 0.329749 0.253749 0.303975
O O2 0.501612 0.322805 0.364606
O O3 0.250000 0.750000 0.500000
O O4 0.535039 0.710310 0.385958
O O5 0.257627 0.680956 0.325576
O O6 0.305909 0.644783 0.517958
O O7 0.183326 0.343526 0.623237
O O8 0.367364 0.055598 0.354379
O O9 0.394350 0.984279 0.184298
O O10 0.500000 0.106257 0.750000
O O11 0.824625 0.089409 0.713250
O O12 0.623032 0.102806 0.941262
O O13 0.413502 0.410152 0.488836
#
# Coordination Sequence:
#
# PCOD8144098 Si02
#       7
#     4   8   8   4   8   8   8
#     4  12  21  40  58 102 130 178 213 252 324 386
#     4  10  21  42  60  94 136 173 218 261 309 384
#     4  10  24  38  66  98 131 180 214 260 327 381
#     4  10  25  44  70  96 124 170 223 280 346 384
#     4  10  24  43  67  98 124 167 221 273 343 384
#     4  11  22  46  67  94 134 164 222 277 323 406
#     4  11  23  41  66  93 134 174 216 268 327 391
#
# _framework density 21.079386
#
# number of rings (size 3 to 8) (size 9 to 14) (size 15 to 20)
#    0.500    1.000    3.333    1.000    0.000    7.333 
#    3.000    0.000    3.667    0.000    0.000    0.000 
#    0.000    0.000    0.000    0.000    0.000    0.000 
#
# Total GULP energy -297518.106818 kJ/mol
# GULP energy per Si atom -12396.587784 kJ/mol
# Density = 2.103141 g / cm^3
# Si number density = 21.079386 Si / 1000 Ang^3
#
#
#
# Elastic Constant Matrix: (Units=GPa)
#
#
# Indices 1 2 3 4 5 6 
#
# 1 89.4580 56.9554 55.2142 0.0000 11.4964 0.0000
# 2 56.9554 106.3271 64.8517 0.0000 -1.0011 0.0000
# 3 55.2142 64.8517 148.7029 0.0000 14.0411 0.0000
# 4 0.0000 0.0000 0.0000 38.4933 0.0000 -0.6705
# 5 11.4964 -1.0011 14.0411 0.0000 36.2955 0.0000
# 6 0.0000 0.0000 0.0000 -0.6705 0.0000 33.6717
#
#
#
# Elastic Compliance Matrix: (Units=1/GPa)
#
#
# Indices 1 2 3 4 5 6 
#
# 1 0.019013 -0.008478 -0.002876 0.000000 -0.005143 0.000000
# 2 -0.008478 0.016837 -0.004662 0.000000 0.004954 0.000000
# 3 -0.002876 -0.004662 0.010122 0.000000 -0.003133 0.000000
# 4 0.000000 0.000000 0.000000 0.025988 0.000000 0.000518
# 5 -0.005143 0.004954 -0.003133 0.000000 0.030530 0.000000
# 6 0.000000 0.000000 0.000000 0.000518 0.000000 0.029709
#
#
# Mechanical properties :
#
#
# Convention : Reuss Voigt Hill
#
# Bulk Modulus (GPa) = 71.75045 77.61451 74.68248
# Shear Modulus (GPa) = 29.60721 32.85657 31.23189
#
# Velocity S-wave (km/s) = 3.75181 3.95233 3.85337
# Velocity P-wave (km/s) = 7.27188 7.59789 7.43667
#
# Compressibility (1/GPa) = 0.01393720
#
# Stress axis : x y z
#
# Youngs Moduli (GPa) = 52.59644 59.39317 98.79436
#
# Poissons Ratio (x) = 0.50356 0.28416
# Poissons Ratio (y) = 0.44594 0.46063
# Poissons Ratio (z) = 0.15128 0.27692
#
# Static dielectric constant tensor:
#      x y z
#    x 3.921400 0.000000 0.204890 
#    y 0.000000 3.546920 0.000000 
#    z 0.204890 0.000000 4.140790 
# 
# 
# High freq. dielectric constant tensor:
#      x y z
#    x 1.827240 0.000000 0.000800 
#    y 0.000000 1.800950 0.000000 
#    z 0.000800 0.000000 1.848570 
# 
# From -- ./inp_files/79820.got.cif
#   From: 2010.06.25/outbox.cif.g09.slc.cpg/sg15_40_cif.got.tgz:79820.got - 2010.06.28 07:06:18.
