data_PCOD8144603
_publ_section_title
;
Structure prediction by ZEFSAII (Michael W. Deem and Ramdas Pophale) SiO2 
 PCOD8144603
Probable space group: C 2/C
;
_chemical_formula_sum "Si O2"
_cell_formula_units_Z 36
_cell_length_a 17.331260
_cell_length_b 21.450497
_cell_length_c 8.861358
_cell_angle_alpha 90.000000
_cell_angle_beta 149.125457
_cell_angle_gamma 90.000000
_cell_volume 1690.520876
_symmetry_space_group_name_H-M "C 2/C"
_symmetry_group_IT_number 15
_symmetry_cell_setting 'monoclinic'
loop_
_space_group_symop_operation_xyz
x,y,z
-x,y,1/2-z
-x,-y,-z
x,-y,1/2+z
1/2+x,1/2+y,z
1/2-x,1/2+y,1/2-z
1/2-x,1/2-y,-z
1/2+x,1/2-y,1/2+z
loop_
_atom_site_type_symbol
_atom_site_label
_atom_site_fract_x
_atom_site_fract_y
_atom_site_fract_z
Si Si1 0.966773 0.436253 0.861000
Si Si2 0.000000 0.985794 0.750000
Si Si3 0.592762 0.828378 0.255367
Si Si4 0.365466 0.580468 0.757972
Si Si5 0.555640 0.310753 0.672151
O O1 0.800009 0.407925 0.581672
O O2 0.000000 0.455893 0.750000
O O3 0.000000 0.500000 0.000000
O O4 0.071220 0.381034 0.094713
O O5 0.921648 0.026849 0.742907
O O6 0.879365 0.942847 0.456219
O O7 0.500000 0.847427 0.250000
O O8 0.530730 0.761989 0.091111
O O9 0.771922 0.826783 0.577288
O O10 0.457122 0.645369 0.896594
O O11 0.500000 0.322204 0.750000
#
# Coordination Sequence:
#
# PCOD8144603 Si02
#       5
#     8   4   8   8   8
#     4  12  26  41  64  97 134 168 208 271 329 388
#     4  10  24  38  62  94 124 162 216 262 310 376
#     4  10  24  43  66  95 131 173 215 268 328 381
#     4  11  23  40  65  91 127 169 214 262 317 387
#     4  10  21  43  69  91 128 177 218 264 320 390
#
# _framework density 21.295210000000001
#
# number of rings (size 3 to 8) (size 9 to 14) (size 15 to 20)
#    0.000    1.333    1.111    3.333    9.333    0.889 
#    2.000    0.000    0.000    0.000    0.000    0.000 
#    0.000    0.000    0.000    0.000    0.000    0.000 
#
# Total GULP energy -223059.166611 kJ/mol
# GULP energy per Si atom -12392.175923 kJ/mol
# Density = 2.124674 g / cm^3
# Si number density = 21.295210 Si / 1000 Ang^3
#
#
#
# Elastic Constant Matrix: (Units=GPa)
#
#
# Indices 1 2 3 4 5 6 
#
# 1 104.8251 30.2328 28.0647 0.0000 2.1333 0.0000
# 2 30.2328 161.5698 67.3001 0.0000 -9.6825 0.0000
# 3 28.0647 67.3001 105.4350 0.0000 5.8839 0.0000
# 4 0.0000 0.0000 0.0000 61.7252 0.0000 -12.8359
# 5 2.1333 -9.6825 5.8839 0.0000 38.1526 0.0000
# 6 0.0000 0.0000 0.0000 -12.8359 0.0000 33.7782
#
#
#
# Elastic Compliance Matrix: (Units=1/GPa)
#
#
# Indices 1 2 3 4 5 6 
#
# 1 0.010420 -0.001146 -0.002011 0.000000 -0.000563 0.000000
# 2 -0.001146 0.008911 -0.005560 0.000000 0.003183 0.000000
# 3 -0.002011 -0.005560 0.013760 0.000000 -0.003421 0.000000
# 4 0.000000 0.000000 0.000000 0.017591 0.000000 0.006685
# 5 -0.000563 0.003183 -0.003421 0.000000 0.027577 0.000000
# 6 0.000000 0.000000 0.000000 0.006685 0.000000 0.032145
#
#
# Mechanical properties :
#
#
# Convention : Reuss Voigt Hill
#
# Bulk Modulus (GPa) = 63.87141 69.22502 66.54822
# Shear Modulus (GPa) = 37.57809 43.14670 40.36239
#
# Velocity S-wave (km/s) = 4.20530 4.50613 4.35831
# Velocity P-wave (km/s) = 7.32379 7.72344 7.52627
#
# Compressibility (1/GPa) = 0.01565646
#
# Stress axis : x y z
#
# Youngs Moduli (GPa) = 95.96931 112.22682 72.67576
#
# Poissons Ratio (x) = 0.12862 0.14612
# Poissons Ratio (y) = 0.10999 0.40409
# Poissons Ratio (z) = 0.19296 0.62401
#
# Static dielectric constant tensor:
#      x y z
#    x 3.845710 0.000000 -0.080030 
#    y 0.000000 4.126300 0.000000 
#    z -0.080030 0.000000 3.930510 
# 
# 
# High freq. dielectric constant tensor:
#      x y z
#    x 1.836110 0.000000 0.009950 
#    y 0.000000 1.854600 0.000000 
#    z 0.009950 0.000000 1.828600 
# 
# From -- ./inp_files/22552.got.cif
#   From: 2010.06.25/outbox.cif.g09.slc.cpg/sg15_12_cif.got.tgz:22552.got - 2010.06.28 07:06:18.
