data_PCOD8144535
_publ_section_title
;
Structure prediction by ZEFSAII (Michael W. Deem and Ramdas Pophale) SiO2 
 PCOD8144535
Probable space group: C 2/C
;
_chemical_formula_sum "Si O2"
_cell_formula_units_Z 32
_cell_length_a 16.847179
_cell_length_b 8.063306
_cell_length_c 30.134479
_cell_angle_alpha 90.000000
_cell_angle_beta 161.119219
_cell_angle_gamma 90.000000
_cell_volume 1324.684940
_symmetry_space_group_name_H-M "C 2/C"
_symmetry_group_IT_number 15
_symmetry_cell_setting 'monoclinic'
loop_
_space_group_symop_operation_xyz
x,y,z
-x,y,1/2-z
-x,-y,-z
x,-y,1/2+z
1/2+x,1/2+y,z
1/2-x,1/2+y,1/2-z
1/2-x,1/2-y,-z
1/2+x,1/2-y,1/2+z
loop_
_atom_site_type_symbol
_atom_site_label
_atom_site_fract_x
_atom_site_fract_y
_atom_site_fract_z
Si Si1 0.128780 0.314067 0.861794
Si Si2 0.209852 0.676346 0.693959
Si Si3 0.328398 0.370014 0.434726
Si Si4 0.682318 0.797809 0.657804
O O1 0.000000 0.236879 0.750000
O O2 0.958565 0.275890 0.813765
O O3 0.139417 0.515766 0.862495
O O4 0.390993 0.229088 0.005936
O O5 0.183230 0.690007 0.733007
O O6 0.244490 0.488625 0.697610
O O7 0.974333 0.754990 0.545934
O O8 0.500000 0.500000 0.500000
O O9 0.207892 0.255729 0.332269
#
# Coordination Sequence:
#
# PCOD8144535 Si02
#       4
#     8   8   8   8
#     4  11  23  43  70  94 138 178 223 276 342 393
#     4  12  24  45  69 100 140 176 227 285 331 405
#     4  10  21  43  66  96 132 178 220 276 339 395
#     4  11  24  43  71 101 137 178 227 278 342 399
#
# _framework density 24.156687000000002
#
# number of rings (size 3 to 8) (size 9 to 14) (size 15 to 20)
#    0.000    1.000    5.000    4.500    0.000    0.000 
#    4.500    2.500    0.000    0.000    0.000    0.000 
#    0.000    0.000    0.000    0.000    0.000    0.000 
#
# Total GULP energy -198409.092542 kJ/mol
# GULP energy per Si atom -12400.568284 kJ/mol
# Density = 2.410171 g / cm^3
# Si number density = 24.156687 Si / 1000 Ang^3
#
#
#
# Elastic Constant Matrix: (Units=GPa)
#
#
# Indices 1 2 3 4 5 6 
#
# 1 101.0055 53.0967 50.2264 0.0004 -22.0188 0.0004
# 2 53.0967 171.1502 50.7677 -0.0059 -13.5859 0.0042
# 3 50.2264 50.7677 90.0560 -0.0075 -38.9084 0.0018
# 4 0.0004 -0.0059 -0.0075 50.1727 -0.0019 -4.5843
# 5 -22.0188 -13.5859 -38.9084 -0.0019 41.8223 -0.0030
# 6 0.0004 0.0042 0.0018 -4.5843 -0.0030 38.3143
#
#
#
# Elastic Compliance Matrix: (Units=1/GPa)
#
#
# Indices 1 2 3 4 5 6 
#
# 1 0.014587 -0.002598 -0.006216 -0.000001 0.001053 0.000000
# 2 -0.002598 0.007619 -0.003959 0.000000 -0.002576 -0.000001
# 3 -0.006216 -0.003959 0.024802 0.000004 0.018516 0.000001
# 4 -0.000001 0.000000 0.000004 0.020151 0.000004 0.002411
# 5 0.001053 -0.002576 0.018516 0.000004 0.040854 0.000003
# 6 0.000000 -0.000001 0.000001 0.002411 0.000003 0.026388
#
#
# Mechanical properties :
#
#
# Convention : Reuss Voigt Hill
#
# Bulk Modulus (GPa) = 46.59350 74.48815 60.54083
# Shear Modulus (GPa) = 29.92212 39.93657 34.92934
#
# Velocity S-wave (km/s) = 3.52329 4.07040 3.80669
# Velocity P-wave (km/s) = 5.99010 7.27965 6.66613
#
# Compressibility (1/GPa) = 0.02146222
#
# Stress axis : x y z
#
# Youngs Moduli (GPa) = 68.55623 131.25754 40.31888
#
# Poissons Ratio (x) = 0.34099 0.25062
# Poissons Ratio (y) = 0.17810 0.15962
# Poissons Ratio (z) = 0.42614 0.51963
#
# Static dielectric constant tensor:
#      x y z
#    x 4.705730 -0.000010 -0.236610 
#    y -0.000010 4.590230 -0.000010 
#    z -0.236610 -0.000010 4.450910 
# 
# 
# High freq. dielectric constant tensor:
#      x y z
#    x 1.954330 0.000000 -0.016210 
#    y 0.000000 1.961610 0.000000 
#    z -0.016210 0.000000 1.966940 
# 
# From -- ./inp_files/158948.got.cif
#   From: 2010.06.25/outbox.cif.g09.slc.cpg/sg15_80_cif.got.tgz:158948.got - 2010.06.28 07:06:18.
