data_PCOD8144654
_publ_section_title
;
Structure prediction by ZEFSAII (Michael W. Deem and Ramdas Pophale) SiO2 
 PCOD8144654
Probable space group: C 2/C
;
_chemical_formula_sum "Si O2"
_cell_formula_units_Z 40
_cell_length_a 20.848460
_cell_length_b 11.846475
_cell_length_c 13.010754
_cell_angle_alpha 90.000000
_cell_angle_beta 149.508643
_cell_angle_gamma 90.000000
_cell_volume 1630.509093
_symmetry_space_group_name_H-M "C 2/C"
_symmetry_group_IT_number 15
_symmetry_cell_setting 'monoclinic'
loop_
_space_group_symop_operation_xyz
x,y,z
-x,y,1/2-z
-x,-y,-z
x,-y,1/2+z
1/2+x,1/2+y,z
1/2-x,1/2+y,1/2-z
1/2-x,1/2-y,-z
1/2+x,1/2-y,1/2+z
loop_
_atom_site_type_symbol
_atom_site_label
_atom_site_fract_x
_atom_site_fract_y
_atom_site_fract_z
Si Si1 0.863972 0.251501 0.012631
Si Si2 0.197123 0.550038 0.781775
Si Si3 0.965205 0.612976 0.318897
Si Si4 0.420734 0.328297 0.367308
Si Si5 0.185896 0.944007 0.743880
O O1 0.000000 0.247148 0.250000
O O2 0.776606 0.153237 0.941245
O O3 0.870734 0.234743 0.899624
O O4 0.804757 0.374762 0.952615
O O5 0.088619 0.600635 0.559313
O O6 0.291715 0.473065 0.845234
O O7 0.139086 0.479417 0.794875
O O8 0.000000 0.593016 0.250000
O O9 0.911407 0.739815 0.260847
O O10 0.563443 0.366579 0.584142
O O11 0.333758 0.437755 0.221365
#
# Coordination Sequence:
#
# PCOD8144654 Si02
#       5
#     8   8   8   8   8
#     4  11  23  42  75 107 148 198 241 300 368 438
#     4  10  23  45  69 110 151 183 252 308 358 441
#     4  11  23  44  78 106 143 195 246 305 374 431
#     4  10  22  44  70 107 144 187 246 309 355 438
#     4  10  21  43  71  98 153 187 234 313 360 416
#
# _framework density 24.532215000000001
#
# number of rings (size 3 to 8) (size 9 to 14) (size 15 to 20)
#    0.000    1.600    4.000    0.000    0.000    3.200 
#    0.000   18.000    0.000    2.400    0.000    0.000 
#    0.000    0.000    0.000    0.000    0.000    0.000 
#
# Total GULP energy -248074.630028 kJ/mol
# GULP energy per Si atom -12403.731501 kJ/mol
# Density = 2.447638 g / cm^3
# Si number density = 24.532215 Si / 1000 Ang^3
#
#
#
# Elastic Constant Matrix: (Units=GPa)
#
#
# Indices 1 2 3 4 5 6 
#
# 1 134.7836 83.7501 26.9919 0.0000 14.6166 0.0000
# 2 83.7501 198.5149 77.2810 0.0000 10.7129 0.0000
# 3 26.9919 77.2810 103.7192 0.0000 22.1872 0.0000
# 4 0.0000 0.0000 0.0000 33.7259 0.0000 19.7193
# 5 14.6166 10.7129 22.1872 0.0000 29.6741 0.0000
# 6 0.0000 0.0000 0.0000 19.7193 0.0000 47.5905
#
#
#
# Elastic Compliance Matrix: (Units=1/GPa)
#
#
# Indices 1 2 3 4 5 6 
#
# 1 0.010673 -0.005024 0.002027 0.000000 -0.004959 0.000000
# 2 -0.005024 0.009530 -0.006650 0.000000 0.004007 0.000000
# 3 0.002027 -0.006650 0.016391 0.000000 -0.010853 0.000000
# 4 0.000000 0.000000 0.000000 0.039131 0.000000 -0.016214
# 5 -0.004959 0.004007 -0.010853 0.000000 0.042810 0.000000
# 6 0.000000 0.000000 0.000000 -0.016214 0.000000 0.027731
#
#
# Mechanical properties :
#
#
# Convention : Reuss Voigt Hill
#
# Bulk Modulus (GPa) = 57.80999 90.34039 74.07519
# Shear Modulus (GPa) = 29.18406 38.79775 33.99091
#
# Velocity S-wave (km/s) = 3.45283 3.98112 3.72635
# Velocity P-wave (km/s) = 6.28587 7.61824 6.98390
#
# Compressibility (1/GPa) = 0.01729805
#
# Stress axis : x y z
#
# Youngs Moduli (GPa) = 93.69419 104.93559 61.01081
#
# Poissons Ratio (x) = 0.52721 -0.12365
# Poissons Ratio (y) = 0.47073 0.40573
# Poissons Ratio (z) = -0.18989 0.69783
#
# Static dielectric constant tensor:
#      x y z
#    x 4.636780 0.000000 0.480120 
#    y 0.000000 4.813420 0.000000 
#    z 0.480120 0.000000 4.018600 
# 
# 
# High freq. dielectric constant tensor:
#      x y z
#    x 1.984150 0.000000 0.029580 
#    y 0.000000 1.996540 0.000000 
#    z 0.029580 0.000000 1.952040 
# 
# From -- ./inp_files/173231.got.cif
#   From: 2010.06.25/outbox.cif.g09.slc.cpg/sg15_87_cif.got.tgz:173231.got - 2010.06.28 07:06:18.
