data_PCOD8144626
_publ_section_title
;
Structure prediction by ZEFSAII (Michael W. Deem and Ramdas Pophale) SiO2 
 PCOD8144626
Probable space group: C 2/C
;
_chemical_formula_sum "Si O2"
_cell_formula_units_Z 48
_cell_length_a 9.280052
_cell_length_b 22.798225
_cell_length_c 11.148956
_cell_angle_alpha 90.000000
_cell_angle_beta 101.416325
_cell_angle_gamma 90.000000
_cell_volume 2312.101577
_symmetry_space_group_name_H-M "C 2/C"
_symmetry_group_IT_number 15
_symmetry_cell_setting 'monoclinic'
loop_
_space_group_symop_operation_xyz
x,y,z
-x,y,1/2-z
-x,-y,-z
x,-y,1/2+z
1/2+x,1/2+y,z
1/2-x,1/2+y,1/2-z
1/2-x,1/2-y,-z
1/2+x,1/2-y,1/2+z
loop_
_atom_site_type_symbol
_atom_site_label
_atom_site_fract_x
_atom_site_fract_y
_atom_site_fract_z
Si Si1 0.106237 0.649659 0.073027
Si Si2 0.342889 0.710496 0.273619
Si Si3 0.332315 0.573900 0.701379
Si Si4 0.846355 0.660309 0.689749
Si Si5 0.344565 0.041374 0.274296
Si Si6 0.228877 0.368691 0.940188
O O1 0.199520 0.688214 0.179937
O O2 0.136755 0.580972 0.102970
O O3 0.932252 0.658456 0.062454
O O4 0.158570 0.671709 0.952325
O O5 0.500000 0.687613 0.250000
O O6 0.336954 0.780683 0.267434
O O7 0.327651 0.685528 0.406636
O O8 0.500000 0.558904 0.750000
O O9 0.285893 0.617479 0.799877
O O10 0.248715 0.513011 0.697407
O O11 0.301574 0.605443 0.570823
O O12 0.000000 0.628788 0.750000
O O13 0.500000 0.018553 0.250000
O O14 0.267703 0.079468 0.157717
#
# Coordination Sequence:
#
# PCOD8144626 Si02
#       6
#     8   8   8   8   8   8
#     4  10  21  43  70  92 123 171 216 259 312 386
#     4  10  23  41  66  96 126 168 207 268 323 365
#     4  12  27  40  60  97 131 170 209 269 320 369
#     4  11  23  43  64  96 128 167 216 257 315 384
#     4   9  22  41  67  91 121 169 214 262 315 379
#     4  10  23  44  66  92 126 171 217 256 319 384
#
# _framework density 20.760332999999999
#
# number of rings (size 3 to 8) (size 9 to 14) (size 15 to 20)
#    0.000    1.667    1.667    2.500    4.667    6.667 
#    0.000    0.000    0.000    0.000    0.000    0.000 
#    0.000    0.000    0.000    0.000    0.000    0.000 
#
# Total GULP energy -297569.921521 kJ/mol
# GULP energy per Si atom -12398.746730 kJ/mol
# Density = 2.071308 g / cm^3
# Si number density = 20.760333 Si / 1000 Ang^3
#
#
#
# Elastic Constant Matrix: (Units=GPa)
#
#
# Indices 1 2 3 4 5 6 
#
# 1 115.6473 57.6532 21.5708 0.0000 -0.3407 0.0000
# 2 57.6532 97.8477 18.0885 0.0000 -18.3076 0.0000
# 3 21.5708 18.0885 72.7304 0.0000 -10.0522 0.0000
# 4 0.0000 0.0000 0.0000 25.3622 0.0000 -12.3538
# 5 -0.3407 -18.3076 -10.0522 0.0000 35.9865 0.0000
# 6 0.0000 0.0000 0.0000 -12.3538 0.0000 6.7757
#
#
#
# Elastic Compliance Matrix: (Units=1/GPa)
#
#
# Indices 1 2 3 4 5 6 
#
# 1 0.013189 -0.008192 -0.002531 0.000000 -0.004750 0.000000
# 2 -0.008192 0.016699 -0.000583 0.000000 0.008255 0.000000
# 3 -0.002531 -0.000583 0.015187 0.000000 0.003922 0.000000
# 4 0.000000 0.000000 0.000000 0.352354 0.000000 0.642433
# 5 -0.004750 0.008255 0.003922 0.000000 0.033038 0.000000
# 6 0.000000 0.000000 0.000000 0.642433 0.000000 1.318906
#
#
# Mechanical properties :
#
#
# Convention : Reuss Voigt Hill
#
# Bulk Modulus (GPa) = 44.51483 53.42782 48.97132
# Shear Modulus (GPa) = 2.80982 26.21908 14.51445
#
# Velocity S-wave (km/s) = 1.16464 3.55764 2.64700
# Velocity P-wave (km/s) = 4.82673 6.53201 5.74302
#
# Compressibility (1/GPa) = 0.02246442
#
# Stress axis : x y z
#
# Youngs Moduli (GPa) = 75.82136 59.88387 65.84608
#
# Poissons Ratio (x) = 0.49056 0.16664
# Poissons Ratio (y) = 0.62112 0.03836
# Poissons Ratio (z) = 0.19188 0.03489
#
# Static dielectric constant tensor:
#      x y z
#    x 3.944290 0.000000 -0.154850 
#    y 0.000000 3.733410 0.000000 
#    z -0.154850 0.000000 3.811820 
# 
# 
# High freq. dielectric constant tensor:
#      x y z
#    x 1.816310 0.000000 -0.005190 
#    y 0.000000 1.811410 0.000000 
#    z -0.005190 0.000000 1.814690 
# 
# From -- ./inp_files/79364.got.cif
#   From: 2010.06.25/outbox.cif.g09.slc.cpg/sg15_40_cif.got.tgz:79364.got - 2010.06.28 07:06:18.
