data_PCOD8144653
_publ_section_title
;
Structure prediction by ZEFSAII (Michael W. Deem and Ramdas Pophale) SiO2 
 PCOD8144653
Probable space group: C 2/C
;
_chemical_formula_sum "Si O2"
_cell_formula_units_Z 48
_cell_length_a 17.306048
_cell_length_b 20.613839
_cell_length_c 6.144816
_cell_angle_alpha 90.000000
_cell_angle_beta 117.741464
_cell_angle_gamma 90.000000
_cell_volume 1940.157137
_symmetry_space_group_name_H-M "C 2/C"
_symmetry_group_IT_number 15
_symmetry_cell_setting 'monoclinic'
loop_
_space_group_symop_operation_xyz
x,y,z
-x,y,1/2-z
-x,-y,-z
x,-y,1/2+z
1/2+x,1/2+y,z
1/2-x,1/2+y,1/2-z
1/2-x,1/2-y,-z
1/2+x,1/2-y,1/2+z
loop_
_atom_site_type_symbol
_atom_site_label
_atom_site_fract_x
_atom_site_fract_y
_atom_site_fract_z
Si Si1 0.579887 0.476672 0.986905
Si Si2 0.739178 0.433876 0.670364
Si Si3 0.646207 0.345992 0.222393
Si Si4 0.697932 0.854884 0.371662
Si Si5 0.578579 0.785358 0.519794
Si Si6 0.592235 0.905191 0.852348
O O1 0.542771 0.511573 0.177022
O O2 0.679092 0.502255 0.099186
O O3 0.585035 0.400013 0.030263
O O4 0.682362 0.374258 0.496962
O O5 0.827857 0.446971 0.645940
O O6 0.763721 0.416026 0.946526
O O7 0.728029 0.325315 0.183277
O O8 0.590153 0.280535 0.176984
O O9 0.665188 0.799293 0.491627
O O10 0.617844 0.881836 0.125315
O O11 0.500000 0.776765 0.250000
O O12 0.566450 0.843693 0.670748
O O13 0.500000 0.945287 0.750000
#
# Coordination Sequence:
#
# PCOD8144653 Si02
#       6
#     8   8   8   8   8   8
#     4  12  23  44  67  95 139 182 227 276 328 395
#     4  10  24  41  66  99 133 179 230 277 335 397
#     4  11  24  41  64  98 135 182 222 270 334 402
#     4  10  22  41  67  95 136 175 222 278 340 396
#     4  11  22  39  64 103 135 173 224 271 335 409
#     4  10  21  43  71  98 132 176 221 281 344 404
#
# _framework density 24.740262999999999
#
# number of rings (size 3 to 8) (size 9 to 14) (size 15 to 20)
#    0.000    1.333    3.333    2.000    0.000    7.333 
#    3.000    0.000    0.000    5.000    0.000    0.000 
#    0.000    0.000    0.000    0.000    0.000    0.000 
#
# Total GULP energy -297541.935266 kJ/mol
# GULP energy per Si atom -12397.580636 kJ/mol
# Density = 2.468395 g / cm^3
# Si number density = 24.740263 Si / 1000 Ang^3
#
#
#
# Elastic Constant Matrix: (Units=GPa)
#
#
# Indices 1 2 3 4 5 6 
#
# 1 130.4067 38.7848 42.5388 0.0000 18.5278 0.0000
# 2 38.7848 65.7935 7.8692 0.0000 8.1519 0.0000
# 3 42.5388 7.8692 133.8802 0.0000 23.0504 0.0000
# 4 0.0000 0.0000 0.0000 23.9531 0.0000 6.5628
# 5 18.5278 8.1519 23.0504 0.0000 42.6664 0.0000
# 6 0.0000 0.0000 0.0000 6.5628 0.0000 18.7387
#
#
#
# Elastic Compliance Matrix: (Units=1/GPa)
#
#
# Indices 1 2 3 4 5 6 
#
# 1 0.010495 -0.005615 -0.002651 0.000000 -0.002052 0.000000
# 2 -0.005615 0.018596 0.000974 0.000000 -0.001641 0.000000
# 3 -0.002651 0.000974 0.008918 0.000000 -0.003853 0.000000
# 4 0.000000 0.000000 0.000000 0.046179 0.000000 -0.016173
# 5 -0.002052 -0.001641 -0.003853 0.000000 0.026724 0.000000
# 6 0.000000 0.000000 0.000000 -0.016173 0.000000 0.059030
#
#
# Mechanical properties :
#
#
# Convention : Reuss Voigt Hill
#
# Bulk Modulus (GPa) = 42.69320 56.49622 49.59471
# Shear Modulus (GPa) = 25.99638 33.13083 29.56361
#
# Velocity S-wave (km/s) = 3.24508 3.66340 3.46057
# Velocity P-wave (km/s) = 5.59774 6.38587 6.00475
#
# Compressibility (1/GPa) = 0.02342293
#
# Stress axis : x y z
#
# Youngs Moduli (GPa) = 95.28566 53.77497 112.13492
#
# Poissons Ratio (x) = 0.30196 0.29729
# Poissons Ratio (y) = 0.53505 -0.10917
# Poissons Ratio (z) = 0.25262 -0.05236
#
# Static dielectric constant tensor:
#      x y z
#    x 4.872970 0.000000 -0.162980 
#    y 0.000000 4.000410 0.000000 
#    z -0.162980 0.000000 5.181750 
# 
# 
# High freq. dielectric constant tensor:
#      x y z
#    x 2.011960 0.000000 0.005640 
#    y 0.000000 1.947160 0.000000 
#    z 0.005640 0.000000 2.024280 
# 
# From -- ./inp_files/10666.got.cif
#   From: 2010.06.25/outbox.cif.g09.slc.cpg/sg15_6_cif.got.tgz:10666.got - 2010.06.28 07:06:18.
