data_PCOD8144265
_publ_section_title
;
Structure prediction by ZEFSAII (Michael W. Deem and Ramdas Pophale) SiO2 
 PCOD8144265
Probable space group: C 2/C
;
_chemical_formula_sum "Si O2"
_cell_formula_units_Z 32
_cell_length_a 19.420878
_cell_length_b 5.035162
_cell_length_c 14.088389
_cell_angle_alpha 90.000000
_cell_angle_beta 100.239981
_cell_angle_gamma 90.000000
_cell_volume 1355.721329
_symmetry_space_group_name_H-M "C 2/C"
_symmetry_group_IT_number 15
_symmetry_cell_setting 'monoclinic'
loop_
_space_group_symop_operation_xyz
x,y,z
-x,y,1/2-z
-x,-y,-z
x,-y,1/2+z
1/2+x,1/2+y,z
1/2-x,1/2+y,1/2-z
1/2-x,1/2-y,-z
1/2+x,1/2-y,1/2+z
loop_
_atom_site_type_symbol
_atom_site_label
_atom_site_fract_x
_atom_site_fract_y
_atom_site_fract_z
Si Si1 0.704988 0.700420 0.226498
Si Si2 0.107703 0.021136 0.550769
Si Si3 0.016789 0.745242 0.388232
Si Si4 0.909004 0.230585 0.146305
O O1 0.752684 0.955888 0.217181
O O2 0.674363 0.607171 0.118030
O O3 0.645207 0.793924 0.284349
O O4 0.131789 0.195932 0.465122
O O5 0.066003 0.209851 0.615197
O O6 0.055256 0.786265 0.500764
O O7 0.032779 0.460902 0.347334
O O8 0.047895 0.961519 0.321458
#
# Coordination Sequence:
#
# PCOD8144265 Si02
#       4
#     8   8   8   8
#     4  12  28  42  60  96 136 181 223 253 310 397
#     4   9  23  41  70  92 132 158 218 273 324 388
#     4   9  20  41  69  97 120 160 212 277 342 366
#     4  10  21  42  66  95 125 168 212 270 331 367
#
# _framework density 23.603670999999999
#
# number of rings (size 3 to 8) (size 9 to 14) (size 15 to 20)
#    1.500    0.500    0.000    2.250    3.500    3.000 
#    0.000    2.500    0.000    0.000    0.000    0.000 
#    0.000    0.000    0.000    0.000    0.000    0.000 
#
# Total GULP energy -198316.565313 kJ/mol
# GULP energy per Si atom -12394.785332 kJ/mol
# Density = 2.354995 g / cm^3
# Si number density = 23.603671 Si / 1000 Ang^3
#
#
#
# Elastic Constant Matrix: (Units=GPa)
#
#
# Indices 1 2 3 4 5 6 
#
# 1 40.4697 -2.7668 8.9113 0.0000 0.3597 0.0000
# 2 -2.7668 99.7190 -7.1170 0.0000 -8.9048 0.0000
# 3 8.9113 -7.1170 67.1395 0.0000 -9.1709 0.0000
# 4 0.0000 0.0000 0.0000 -7.8556 0.0000 -13.0458
# 5 0.3597 -8.9048 -9.1709 0.0000 26.5881 0.0000
# 6 0.0000 0.0000 0.0000 -13.0458 0.0000 43.5353
#
#
#
# Elastic Compliance Matrix: (Units=1/GPa)
#
#
# Indices 1 2 3 4 5 6 
#
# 1 0.025527 0.000324 -0.003554 0.000000 -0.001463 0.000000
# 2 0.000324 0.010518 0.001629 0.000000 0.004080 0.000000
# 3 -0.003554 0.001629 0.016392 0.000000 0.006248 0.000000
# 4 0.000000 0.000000 0.000000 -0.084999 0.000000 -0.025471
# 5 -0.001463 0.004080 0.006248 0.000000 0.041152 0.000000
# 6 0.000000 0.000000 0.000000 -0.025471 0.000000 0.015337
#
#
# Mechanical properties :
#
#
# Convention : Reuss Voigt Hill
#
# Bulk Modulus (GPa) = 20.31001 22.82034 21.56518
# Shear Modulus (GPa) = 114.83342 26.34026 70.58684
#
# Velocity S-wave (km/s) = 6.98257 3.34419 5.47448
# Velocity P-wave (km/s) = 8.58089 4.95990 7.00829
#
# Compressibility (1/GPa) = 0.04923679
#
# Stress axis : x y z
#
# Youngs Moduli (GPa) = 39.17346 95.07684 61.00486
#
# Poissons Ratio (x) = -0.03081 0.21679
# Poissons Ratio (y) = -0.01269 -0.09939
# Poissons Ratio (z) = 0.13921 -0.15490
#
# Static dielectric constant tensor:
#      x y z
#    x 3.870800 0.000000 -0.017380 
#    y 0.000000 4.069190 0.000000 
#    z -0.017380 0.000000 4.112730 
# 
# 
# High freq. dielectric constant tensor:
#      x y z
#    x 1.906130 0.000000 -0.003430 
#    y 0.000000 1.932720 0.000000 
#    z -0.003430 0.000000 1.936280 
# 
# From -- ./inp_files/158222.got.cif
#   From: 2010.06.25/outbox.cif.g09.slc.cpg/sg15_80_cif.got.tgz:158222.got - 2010.06.28 07:06:18.
