data_PCOD8144892
_publ_section_title
;
Structure prediction by ZEFSAII (Michael W. Deem and Ramdas Pophale) SiO2 
 PCOD8144892
Probable space group: C 2/C
;
_chemical_formula_sum "Si O2"
_cell_formula_units_Z 56
_cell_length_a 15.794298
_cell_length_b 11.805817
_cell_length_c 15.992423
_cell_angle_alpha 90.000000
_cell_angle_beta 56.572349
_cell_angle_gamma 90.000000
_cell_volume 2488.741048
_symmetry_space_group_name_H-M "C 2/C"
_symmetry_group_IT_number 15
_symmetry_cell_setting 'monoclinic'
loop_
_space_group_symop_operation_xyz
x,y,z
-x,y,1/2-z
-x,-y,-z
x,-y,1/2+z
1/2+x,1/2+y,z
1/2-x,1/2+y,1/2-z
1/2-x,1/2-y,-z
1/2+x,1/2-y,1/2+z
loop_
_atom_site_type_symbol
_atom_site_label
_atom_site_fract_x
_atom_site_fract_y
_atom_site_fract_z
Si Si1 0.582931 0.406358 0.481801
Si Si2 0.594511 0.271415 0.647798
Si Si3 0.710166 0.961660 0.069279
Si Si4 0.385364 0.796384 0.657401
Si Si5 0.763596 0.058627 0.355920
Si Si6 0.776766 0.181410 0.857568
Si Si7 0.109229 0.322015 0.581571
O O1 0.500000 0.500000 0.500000
O O2 0.565854 0.347615 0.582547
O O3 0.695124 0.462306 0.418468
O O4 0.579683 0.309931 0.415268
O O5 0.500000 0.223822 0.750000
O O6 0.659802 0.161976 0.589089
O O7 0.652768 0.343525 0.687474
O O8 0.639617 0.070091 0.124360
O O9 0.750306 0.987406 0.956184
O O10 0.341959 0.897797 0.624684
O O11 0.295974 0.771101 0.772814
O O12 0.489054 0.837093 0.643010
O O13 0.798620 0.938698 0.297306
O O14 0.858380 0.207944 0.886795
O O15 0.662930 0.186084 0.959969
#
# Coordination Sequence:
#
# PCOD8144892 Si02
#       7
#     8   8   8   8   8   8   8
#     4  11  25  42  69 101 136 177 232 285 337 404
#     4  11  23  42  69  98 137 179 224 275 352 407
#     4  10  21  49  66  92 138 181 215 278 349 408
#     4  12  24  44  69 103 137 176 235 280 342 404
#     4  10  22  45  66  96 135 176 224 287 336 409
#     4  10  25  43  67  98 137 182 226 280 347 406
#     4  10  25  45  69  96 139 184 223 283 344 413
#
# _framework density 22.501338000000001
#
# number of rings (size 3 to 8) (size 9 to 14) (size 15 to 20)
#    0.000    1.429    2.857    1.286   10.000    5.714 
#    2.571    0.000    0.000    0.000    0.000    0.000 
#    0.000    0.000    0.000    0.000    0.000    0.000 
#
# Total GULP energy -346895.257193 kJ/mol
# GULP energy per Si atom -12389.116328 kJ/mol
# Density = 2.245012 g / cm^3
# Si number density = 22.501338 Si / 1000 Ang^3
#
#
#
# Elastic Constant Matrix: (Units=GPa)
#
#
# Indices 1 2 3 4 5 6 
#
# 1 136.3725 71.7835 12.8584 0.0000 -9.8162 0.0000
# 2 71.7835 141.7733 20.5693 0.0000 -11.4235 0.0000
# 3 12.8584 20.5693 52.5863 0.0000 -5.6737 0.0000
# 4 0.0000 0.0000 0.0000 15.7461 0.0000 -5.6609
# 5 -9.8162 -11.4235 -5.6737 0.0000 21.1356 0.0000
# 6 0.0000 0.0000 0.0000 -5.6609 0.0000 42.5534
#
#
#
# Elastic Compliance Matrix: (Units=1/GPa)
#
#
# Indices 1 2 3 4 5 6 
#
# 1 0.010084 -0.004900 -0.000339 0.000000 0.001944 0.000000
# 2 -0.004900 0.010097 -0.002480 0.000000 0.002516 0.000000
# 3 -0.000339 -0.002480 0.020502 0.000000 0.004006 0.000000
# 4 0.000000 0.000000 0.000000 0.066698 0.000000 0.008873
# 5 0.001944 0.002516 0.004006 0.000000 0.050651 0.000000
# 6 0.000000 0.000000 0.000000 0.008873 0.000000 0.024680
#
#
# Mechanical properties :
#
#
# Convention : Reuss Voigt Hill
#
# Bulk Modulus (GPa) = 39.61319 60.12830 49.87075
# Shear Modulus (GPa) = 24.20548 30.92175 27.56362
#
# Velocity S-wave (km/s) = 3.28340 3.71107 3.50376
# Velocity P-wave (km/s) = 5.65838 6.71884 6.21128
#
# Compressibility (1/GPa) = 0.02524411
#
# Stress axis : x y z
#
# Youngs Moduli (GPa) = 99.16709 99.03953 48.77683
#
# Poissons Ratio (x) = 0.48528 0.01655
# Poissons Ratio (y) = 0.48591 0.12096
# Poissons Ratio (z) = 0.03366 0.24561
#
# Static dielectric constant tensor:
#      x y z
#    x 4.066470 0.000000 0.014480 
#    y 0.000000 4.414330 0.000000 
#    z 0.014480 0.000000 3.900180 
# 
# 
# High freq. dielectric constant tensor:
#      x y z
#    x 1.880480 0.000000 0.004250 
#    y 0.000000 1.903840 0.000000 
#    z 0.004250 0.000000 1.873860 
# 
# From -- ./inp_files/204367.got.cif
#   From: 2010.06.25/outbox.cif.g09.slc.cpg/sg15_103_cif.got.tgz:204367.got - 2010.06.28 07:06:18.
