data_PCOD8144453
_publ_section_title
;
Structure prediction by ZEFSAII (Michael W. Deem and Ramdas Pophale) SiO2 
 PCOD8144453
Probable space group: C 2/C
;
_chemical_formula_sum "Si O2"
_cell_formula_units_Z 60
_cell_length_a 15.281193
_cell_length_b 15.993494
_cell_length_c 26.055486
_cell_angle_alpha 90.000000
_cell_angle_beta 28.718558
_cell_angle_gamma 90.000000
_cell_volume 3059.849263
_symmetry_space_group_name_H-M "C 2/C"
_symmetry_group_IT_number 15
_symmetry_cell_setting 'monoclinic'
loop_
_space_group_symop_operation_xyz
x,y,z
-x,y,1/2-z
-x,-y,-z
x,-y,1/2+z
1/2+x,1/2+y,z
1/2-x,1/2+y,1/2-z
1/2-x,1/2-y,-z
1/2+x,1/2-y,1/2+z
loop_
_atom_site_type_symbol
_atom_site_label
_atom_site_fract_x
_atom_site_fract_y
_atom_site_fract_z
Si Si1 0.500000 0.954458 0.250000
Si Si2 0.503787 0.724673 0.088281
Si Si3 0.544111 0.261833 0.999609
Si Si4 0.318545 0.053456 0.467047
Si Si5 0.889927 0.835461 0.355219
Si Si6 0.829234 0.948138 0.569666
Si Si7 0.092714 0.293124 0.825165
Si Si8 0.353337 0.877373 0.426292
O O1 0.427904 0.893715 0.331099
O O2 0.341851 0.016608 0.309378
O O3 0.548970 0.757959 0.007181
O O4 0.298143 0.690274 0.201124
O O5 0.524268 0.803744 0.114380
O O6 0.641512 0.650532 0.032552
O O7 0.704170 0.198822 0.928532
O O8 0.632767 0.351511 0.943723
O O9 0.407930 0.252922 0.118414
O O10 0.155957 0.084180 0.587030
O O11 0.225260 0.035941 0.460673
O O12 0.486271 0.118512 0.380600
O O13 0.380315 0.958937 0.449630
O O14 0.000000 0.867921 0.250000
O O15 0.992318 0.765839 0.335877
O O16 0.000000 0.000000 0.500000
#
# Coordination Sequence:
#
# PCOD8144453 Si02
#       8
#     4   8   8   8   8   8   8   8
#     4  10  24  40  64  92 128 168 200 284 322 380
#     4  11  25  42  65  91 123 179 217 256 327 394
#     4  11  21  37  61  96 125 162 212 255 327 391
#     4  10  21  43  60  93 132 160 208 273 320 375
#     4  11  20  37  63  94 131 165 202 266 325 381
#     4  11  22  35  62  95 127 162 204 260 335 382
#     4  11  22  40  67  93 131 169 207 273 324 384
#     4  10  25  46  60  89 134 166 218 270 313 391
#
# _framework density 19.608809000000001
#
# number of rings (size 3 to 8) (size 9 to 14) (size 15 to 20)
#    0.000    1.333    4.000    2.400    8.400    0.000 
#    2.400    4.000    0.000    0.000    0.000    0.000 
#    0.000    0.000    0.000    0.000    0.000    0.000 
#
# Total GULP energy -371806.810952 kJ/mol
# GULP energy per Si atom -12393.560365 kJ/mol
# Density = 1.956418 g / cm^3
# Si number density = 19.608809 Si / 1000 Ang^3
#
#
#
# Elastic Constant Matrix: (Units=GPa)
#
#
# Indices 1 2 3 4 5 6 
#
# 1 72.3544 31.2982 27.5081 -0.0045 1.6421 0.0030
# 2 31.2982 126.2502 44.0117 0.0091 3.1973 -0.0069
# 3 27.5081 44.0117 100.2984 0.0230 2.5304 -0.0198
# 4 -0.0045 0.0091 0.0230 67.3710 -0.0050 -39.3284
# 5 1.6421 3.1973 2.5304 -0.0050 34.0557 0.0052
# 6 0.0030 -0.0069 -0.0198 -39.3284 0.0052 79.2008
#
#
#
# Elastic Compliance Matrix: (Units=1/GPa)
#
#
# Indices 1 2 3 4 5 6 
#
# 1 0.016302 -0.002926 -0.003180 0.000002 -0.000275 -0.000001
# 2 -0.002926 0.009888 -0.003523 0.000000 -0.000525 0.000000
# 3 -0.003180 -0.003523 0.012399 -0.000003 -0.000437 0.000001
# 4 0.000002 0.000000 -0.000003 0.020902 0.000002 0.010379
# 5 -0.000275 -0.000525 -0.000437 0.000002 0.029459 -0.000001
# 6 -0.000001 0.000000 0.000001 0.010379 -0.000001 0.017780
#
#
# Mechanical properties :
#
#
# Convention : Reuss Voigt Hill
#
# Bulk Modulus (GPa) = 51.73092 56.05989 53.89540
# Shear Modulus (GPa) = 37.75542 49.19784 43.47663
#
# Velocity S-wave (km/s) = 4.39273 5.01439 4.71382
# Velocity P-wave (km/s) = 7.22267 7.88522 7.56120
#
# Compressibility (1/GPa) = 0.01933080
#
# Stress axis : x y z
#
# Youngs Moduli (GPa) = 61.34312 101.13736 80.64886
#
# Poissons Ratio (x) = 0.29590 0.25648
# Poissons Ratio (y) = 0.17947 0.28413
# Poissons Ratio (z) = 0.19508 0.35631
#
# Static dielectric constant tensor:
#      x y z
#    x 4.063850 0.000000 0.300400 
#    y 0.000000 3.818360 0.000010 
#    z 0.300400 0.000010 4.063960 
# 
# 
# High freq. dielectric constant tensor:
#      x y z
#    x 1.760610 0.000000 0.003650 
#    y 0.000000 1.763430 0.000000 
#    z 0.003650 0.000000 1.768420 
# 
# From -- ./inp_files/296810.got.cif
#   From: 2010.06.25/outbox.cif.g09.slc.cpg/sg15_149_cif.got.tgz:296810.got - 2010.06.28 07:06:18.
