data_PCOD8144495
_publ_section_title
;
Structure prediction by ZEFSAII (Michael W. Deem and Ramdas Pophale) SiO2 
 PCOD8144495
Probable space group: C 2/C
;
_chemical_formula_sum "Si O2"
_cell_formula_units_Z 52
_cell_length_a 23.543755
_cell_length_b 11.355500
_cell_length_c 13.657147
_cell_angle_alpha 90.000000
_cell_angle_beta 41.245314
_cell_angle_gamma 90.000000
_cell_volume 2407.214131
_symmetry_space_group_name_H-M "C 2/C"
_symmetry_group_IT_number 15
_symmetry_cell_setting 'monoclinic'
loop_
_space_group_symop_operation_xyz
x,y,z
-x,y,1/2-z
-x,-y,-z
x,-y,1/2+z
1/2+x,1/2+y,z
1/2-x,1/2+y,1/2-z
1/2-x,1/2-y,-z
1/2+x,1/2-y,1/2+z
loop_
_atom_site_type_symbol
_atom_site_label
_atom_site_fract_x
_atom_site_fract_y
_atom_site_fract_z
Si Si1 0.063793 0.356975 0.446802
Si Si2 0.194112 0.770911 0.273602
Si Si3 0.620905 0.065940 0.274168
Si Si4 0.500000 0.706176 0.250000
Si Si5 0.663995 0.931348 0.500801
Si Si6 0.490631 0.369601 0.975274
Si Si7 0.688786 0.798952 0.993375
O O1 0.125492 0.424362 0.287168
O O2 0.088908 0.403342 0.521328
O O3 0.965078 0.392513 0.558500
O O4 0.066146 0.215863 0.423061
O O5 0.197454 0.635343 0.230727
O O6 0.259302 0.844675 0.124726
O O7 0.101386 0.824639 0.370076
O O8 0.216528 0.773454 0.359914
O O9 0.623012 0.099303 0.158242
O O10 0.503334 0.624943 0.150042
O O11 0.586237 0.785379 0.146228
O O12 0.702299 0.063045 0.454223
O O13 0.500000 0.500000 0.000000
O O14 0.750000 0.750000 0.000000
#
# Coordination Sequence:
#
# PCOD8144495 Si02
#       7
#     8   8   8   4   8   8   8
#     4  10  22  41  69  98 132 178 229 291 347 424
#     4  10  24  43  59 100 139 171 223 294 351 428
#     4  10  21  43  64  96 136 174 229 287 350 416
#     4  10  24  46  72  98 136 190 242 292 350 442
#     4  12  24  38  70 101 136 178 232 291 361 423
#     4  10  23  45  67  93 135 184 232 283 353 425
#     4  11  26  43  71 104 139 187 244 289 364 430
#
# _framework density 21.601735000000001
#
# number of rings (size 3 to 8) (size 9 to 14) (size 15 to 20)
#    0.000    1.538    1.538    1.846   10.769    0.000 
#    5.538    0.000    0.000    0.000    0.000    0.000 
#    0.000    0.000    0.000    0.000    0.000    0.000 
#
# Total GULP energy -322249.275816 kJ/mol
# GULP energy per Si atom -12394.202916 kJ/mol
# Density = 2.155257 g / cm^3
# Si number density = 21.601735 Si / 1000 Ang^3
#
#
#
# Elastic Constant Matrix: (Units=GPa)
#
#
# Indices 1 2 3 4 5 6 
#
# 1 139.6045 63.7362 35.2334 0.0000 12.4592 0.0000
# 2 63.7362 176.9202 47.7019 0.0002 -1.7800 -0.0001
# 3 35.2334 47.7019 98.3968 0.0000 10.4251 0.0000
# 4 0.0000 0.0002 0.0000 33.9738 0.0000 0.3763
# 5 12.4592 -1.7800 10.4251 0.0000 33.1378 0.0000
# 6 0.0000 -0.0001 0.0000 0.3763 0.0000 31.6495
#
#
#
# Elastic Compliance Matrix: (Units=1/GPa)
#
#
# Indices 1 2 3 4 5 6 
#
# 1 0.009161 -0.002918 -0.001536 0.000000 -0.003118 0.000000
# 2 -0.002918 0.007494 -0.002842 0.000000 0.002393 0.000000
# 3 -0.001536 -0.002842 0.012461 0.000000 -0.003495 0.000000
# 4 0.000000 0.000000 0.000000 0.029438 0.000000 -0.000350
# 5 -0.003118 0.002393 -0.003495 0.000000 0.032578 0.000000
# 6 0.000000 0.000000 0.000000 -0.000350 0.000000 0.031600
#
#
# Mechanical properties :
#
#
# Convention : Reuss Voigt Hill
#
# Bulk Modulus (GPa) = 68.84392 78.69606 73.76999
# Shear Modulus (GPa) = 35.17091 37.63556 36.40324
#
# Velocity S-wave (km/s) = 4.03941 4.17855 4.10957
# Velocity P-wave (km/s) = 7.32766 7.73239 7.53275
#
# Compressibility (1/GPa) = 0.01452561
#
# Stress axis : x y z
#
# Youngs Moduli (GPa) = 109.15927 133.44684 80.25210
#
# Poissons Ratio (x) = 0.38935 0.12323
# Poissons Ratio (y) = 0.31849 0.22805
# Poissons Ratio (z) = 0.16762 0.37922
#
# Static dielectric constant tensor:
#      x y z
#    x 4.173610 0.000000 0.077610 
#    y 0.000000 4.085140 0.000000 
#    z 0.077610 0.000000 3.865080 
# 
# 
# High freq. dielectric constant tensor:
#      x y z
#    x 1.850930 0.000000 0.010830 
#    y 0.000000 1.846950 0.000000 
#    z 0.010830 0.000000 1.849530 
# 
# From -- ./inp_files/173132.got.cif
#   From: 2010.06.25/outbox.cif.g09.slc.cpg/sg15_87_cif.got.tgz:173132.got - 2010.06.28 07:06:18.
