data_PCOD8144718
_publ_section_title
;
Structure prediction by ZEFSAII (Michael W. Deem and Ramdas Pophale) SiO2 
 PCOD8144718
Probable space group: C 2/C
;
_chemical_formula_sum "Si O2"
_cell_formula_units_Z 64
_cell_length_a 21.258248
_cell_length_b 19.095534
_cell_length_c 11.795368
_cell_angle_alpha 90.000000
_cell_angle_beta 37.871862
_cell_angle_gamma 90.000000
_cell_volume 2939.454295
_symmetry_space_group_name_H-M "C 2/C"
_symmetry_group_IT_number 15
_symmetry_cell_setting 'monoclinic'
loop_
_space_group_symop_operation_xyz
x,y,z
-x,y,1/2-z
-x,-y,-z
x,-y,1/2+z
1/2+x,1/2+y,z
1/2-x,1/2+y,1/2-z
1/2-x,1/2-y,-z
1/2+x,1/2-y,1/2+z
loop_
_atom_site_type_symbol
_atom_site_label
_atom_site_fract_x
_atom_site_fract_y
_atom_site_fract_z
Si Si1 0.588858 0.256603 0.705713
Si Si2 0.060577 0.189576 0.482074
Si Si3 0.253005 0.518025 0.424164
Si Si4 0.112325 0.398190 0.713069
Si Si5 0.742231 0.604636 0.303110
Si Si6 0.920047 0.934211 0.280663
Si Si7 0.399598 0.158307 0.498961
Si Si8 0.733309 0.851396 0.107607
O O1 0.500000 0.232027 0.750000
O O2 0.543689 0.303942 0.871864
O O3 0.638936 0.185196 0.677934
O O4 0.670225 0.300672 0.518651
O O5 0.179860 0.166255 0.329186
O O6 0.050425 0.265422 0.552601
O O7 0.978207 0.134820 0.649869
O O8 0.157752 0.472044 0.603710
O O9 0.233121 0.544578 0.324411
O O10 0.366881 0.480658 0.258055
O O11 0.265263 0.579279 0.497684
O O12 0.152881 0.373900 0.780566
O O13 0.140759 0.342597 0.573230
O O14 0.988547 0.399731 0.895556
O O15 0.676331 0.581772 0.504203
O O16 0.000000 0.974918 0.250000
O O17 0.303541 0.135336 0.711873
#
# Coordination Sequence:
#
# PCOD8144718 Si02
#       8
#     8   8   8   8   8   8   8   8
#     4  10  22  43  66 104 131 178 232 265 348 391
#     4  10  21  44  66  97 136 167 224 291 330 403
#     4  11  23  43  64  97 140 173 221 276 337 405
#     4  10  25  43  65  96 126 179 227 266 339 402
#     4  10  22  42  64  95 134 172 216 279 340 396
#     4   9  22  39  65  96 132 176 221 276 340 400
#     4  10  24  46  66  95 131 172 231 281 326 400
#     4  10  23  44  67  93 143 171 218 292 316 407
#
# _framework density 21.772749000000001
#
# number of rings (size 3 to 8) (size 9 to 14) (size 15 to 20)
#    0.000    2.000    1.250    0.000    8.750    7.500 
#    6.750    0.000    0.000    0.000    0.000    0.000 
#    0.000    0.000    0.000    0.000    0.000    0.000 
#
# Total GULP energy -396479.607334 kJ/mol
# GULP energy per Si atom -12389.987729 kJ/mol
# Density = 2.172319 g / cm^3
# Si number density = 21.772749 Si / 1000 Ang^3
#
#
#
# Elastic Constant Matrix: (Units=GPa)
#
#
# Indices 1 2 3 4 5 6 
#
# 1 122.1901 33.2476 6.8243 0.0000 3.0703 0.0000
# 2 33.2476 70.0158 22.9763 0.0000 -7.2208 0.0000
# 3 6.8243 22.9763 59.7578 0.0000 10.9867 0.0000
# 4 0.0000 0.0000 0.0000 34.4281 0.0000 4.3835
# 5 3.0703 -7.2208 10.9867 0.0000 30.4569 0.0000
# 6 0.0000 0.0000 0.0000 4.3835 0.0000 20.5407
#
#
#
# Elastic Compliance Matrix: (Units=1/GPa)
#
#
# Indices 1 2 3 4 5 6 
#
# 1 0.009623 -0.005333 0.001459 0.000000 -0.002761 0.000000
# 2 -0.005333 0.020631 -0.008913 0.000000 0.008644 0.000000
# 3 0.001459 -0.008913 0.021860 0.000000 -0.010146 0.000000
# 4 0.000000 0.000000 0.000000 0.029857 0.000000 -0.006372
# 5 -0.002761 0.008644 -0.010146 0.000000 0.038821 0.000000
# 6 0.000000 0.000000 0.000000 -0.006372 0.000000 0.050044
#
#
# Mechanical properties :
#
#
# Convention : Reuss Voigt Hill
#
# Bulk Modulus (GPa) = 37.67805 42.00669 39.84237
# Shear Modulus (GPa) = 24.35988 29.67951 27.01970
#
# Velocity S-wave (km/s) = 3.34851 3.69609 3.52659
# Velocity P-wave (km/s) = 5.68267 6.12780 5.90943
#
# Compressibility (1/GPa) = 0.02654065
#
# Stress axis : x y z
#
# Youngs Moduli (GPa) = 103.91801 48.47031 45.74621
#
# Poissons Ratio (x) = 0.25850 -0.06675
# Poissons Ratio (y) = 0.55421 0.40772
# Poissons Ratio (z) = -0.15163 0.43200
#
# Static dielectric constant tensor:
#      x y z
#    x 4.304870 0.000000 0.037630 
#    y 0.000000 3.820520 0.000000 
#    z 0.037630 0.000000 4.057650 
# 
# 
# High freq. dielectric constant tensor:
#      x y z
#    x 1.862040 0.000000 0.008780 
#    y 0.000000 1.835640 0.000000 
#    z 0.008780 0.000000 1.863370 
# 
# From -- ./inp_files/114232.got.cif
#   From: 2010.06.25/outbox.cif.g09.slc.cpg/sg15_58_cif.got.tgz:114232.got - 2010.06.28 07:06:18.
