data_PCOD8144935
_publ_section_title
;
Structure prediction by ZEFSAII (Michael W. Deem and Ramdas Pophale) SiO2 
 PCOD8144935
Probable space group: C 2/C
;
_chemical_formula_sum "Si O2"
_cell_formula_units_Z 60
_cell_length_a 13.698733
_cell_length_b 19.734201
_cell_length_c 14.914126
_cell_angle_alpha 90.000000
_cell_angle_beta 138.074987
_cell_angle_gamma 90.000000
_cell_volume 2693.869523
_symmetry_space_group_name_H-M "C 2/C"
_symmetry_group_IT_number 15
_symmetry_cell_setting 'monoclinic'
loop_
_space_group_symop_operation_xyz
x,y,z
-x,y,1/2-z
-x,-y,-z
x,-y,1/2+z
1/2+x,1/2+y,z
1/2-x,1/2+y,1/2-z
1/2-x,1/2-y,-z
1/2+x,1/2-y,1/2+z
loop_
_atom_site_type_symbol
_atom_site_label
_atom_site_fract_x
_atom_site_fract_y
_atom_site_fract_z
Si Si1 0.545879 0.866479 0.986576
Si Si2 0.765116 0.622697 0.720577
Si Si3 0.665322 0.519689 0.104410
Si Si4 0.500000 0.905486 0.250000
Si Si5 0.750261 0.577749 0.339322
Si Si6 0.063417 0.768485 0.037094
Si Si7 0.881263 0.785934 0.735924
Si Si8 0.317943 0.019896 0.029583
O O1 0.420038 0.901871 0.958902
O O2 0.493069 0.788489 0.929194
O O3 0.585406 0.912886 0.927128
O O4 0.687438 0.861742 0.146026
O O5 0.762278 0.543637 0.699610
O O6 0.602012 0.656588 0.601698
O O7 0.891412 0.644630 0.733495
O O8 0.705903 0.576298 0.204171
O O9 0.706080 0.542501 0.031321
O O10 0.500000 0.500000 0.000000
O O11 0.413131 0.955290 0.123414
O O12 0.644366 0.635121 0.306822
O O13 0.730095 0.507513 0.381348
O O14 0.226079 0.749599 0.114881
O O15 0.941002 0.773812 0.877250
O O16 0.000000 0.756039 0.750000
#
# Coordination Sequence:
#
# PCOD8144935 Si02
#       8
#     8   8   8   4   8   8   8   8
#     4  11  21  42  63  93 129 177 222 265 330 418
#     4  11  21  38  63  93 136 168 217 276 332 403
#     4  11  25  41  65 100 134 169 218 289 343 399
#     4  10  22  34  66 104 132 166 226 280 346 402
#     4  11  23  39  65  99 133 171 215 285 344 402
#     4  11  24  40  61  93 134 183 221 271 333 401
#     4  11  25  38  61  92 136 179 226 276 341 411
#     4  11  22  40  67  98 129 176 224 273 344 407
#
# _framework density 22.272793
#
# number of rings (size 3 to 8) (size 9 to 14) (size 15 to 20)
#    0.000    1.067    4.000    3.200    6.533    0.000 
#    0.000    0.000    0.000    3.200   13.867    0.000 
#    0.000    0.000    0.000    0.000    0.000    0.000 
#
# Total GULP energy -371695.680307 kJ/mol
# GULP energy per Si atom -12389.856010 kJ/mol
# Density = 2.222210 g / cm^3
# Si number density = 22.272793 Si / 1000 Ang^3
#
#
#
# Elastic Constant Matrix: (Units=GPa)
#
#
# Indices 1 2 3 4 5 6 
#
# 1 88.9407 10.1224 23.3511 0.0001 -1.9718 0.0000
# 2 10.1224 53.0017 5.6902 0.0001 0.5444 0.0000
# 3 23.3511 5.6902 72.2949 0.0001 -1.8338 0.0001
# 4 0.0001 0.0001 0.0001 29.4786 0.0001 10.7028
# 5 -1.9718 0.5444 -1.8338 0.0001 29.0508 0.0000
# 6 0.0000 0.0000 0.0001 10.7028 0.0000 30.2122
#
#
#
# Elastic Compliance Matrix: (Units=1/GPa)
#
#
# Indices 1 2 3 4 5 6 
#
# 1 0.012497 -0.001978 -0.003865 0.000000 0.000641 0.000000
# 2 -0.001978 0.019347 -0.000898 0.000000 -0.000553 0.000000
# 3 -0.003865 -0.000898 0.015169 0.000000 0.000712 0.000000
# 4 0.000000 0.000000 0.000000 0.038930 0.000000 -0.013791
# 5 0.000641 -0.000553 0.000712 0.000000 0.034521 0.000000
# 6 0.000000 0.000000 0.000000 -0.013791 0.000000 0.037985
#
#
# Mechanical properties :
#
#
# Convention : Reuss Voigt Hill
#
# Bulk Modulus (GPa) = 29.82215 32.50717 31.16466
# Shear Modulus (GPa) = 27.30607 29.41990 28.36298
#
# Velocity S-wave (km/s) = 3.50520 3.63835 3.57240
# Velocity P-wave (km/s) = 5.45898 5.68127 5.57123
#
# Compressibility (1/GPa) = 0.03353212
#
# Stress axis : x y z
#
# Youngs Moduli (GPa) = 80.01601 51.68691 65.92291
#
# Poissons Ratio (x) = 0.10226 0.25477
# Poissons Ratio (y) = 0.15831 0.05918
# Poissons Ratio (z) = 0.30924 0.04640
#
# Static dielectric constant tensor:
#      x y z
#    x 3.871160 0.000000 0.143020 
#    y 0.000000 3.701220 0.000000 
#    z 0.143020 0.000000 3.683030 
# 
# 
# High freq. dielectric constant tensor:
#      x y z
#    x 1.844330 0.000000 0.013220 
#    y 0.000000 1.883360 0.000000 
#    z 0.013220 0.000000 1.878560 
# 
# From -- ./inp_files/156376.got.cif
#   From: 2010.06.25/outbox.cif.g09.slc.cpg/sg15_79_cif.got.tgz:156376.got - 2010.06.28 07:06:18.
