data_PCOD8144087
_publ_section_title
;
Structure prediction by ZEFSAII (Michael W. Deem and Ramdas Pophale) SiO2 
 PCOD8144087
Probable space group: C 2/C
;
_chemical_formula_sum "Si O2"
_cell_formula_units_Z 64
_cell_length_a 23.309473
_cell_length_b 13.185224
_cell_length_c 11.005132
_cell_angle_alpha 90.000000
_cell_angle_beta 104.168394
_cell_angle_gamma 90.000000
_cell_volume 3279.435586
_symmetry_space_group_name_H-M "C 2/C"
_symmetry_group_IT_number 15
_symmetry_cell_setting 'monoclinic'
loop_
_space_group_symop_operation_xyz
x,y,z
-x,y,1/2-z
-x,-y,-z
x,-y,1/2+z
1/2+x,1/2+y,z
1/2-x,1/2+y,1/2-z
1/2-x,1/2-y,-z
1/2+x,1/2-y,1/2+z
loop_
_atom_site_type_symbol
_atom_site_label
_atom_site_fract_x
_atom_site_fract_y
_atom_site_fract_z
Si Si1 0.739139 0.249282 0.353883
Si Si2 0.682205 0.784708 0.478970
Si Si3 0.608604 0.470732 0.521109
Si Si4 0.324698 0.548945 0.701474
Si Si5 0.554709 0.710841 0.121235
Si Si6 0.707186 0.935952 0.690846
Si Si7 0.847374 0.355997 0.291074
Si Si8 0.070223 0.161996 0.402010
O O1 0.750000 0.250000 0.500000
O O2 0.690142 0.331618 0.286016
O O3 0.721787 0.132630 0.316383
O O4 0.800487 0.277162 0.321584
O O5 0.750000 0.750000 0.500000
O O6 0.675189 0.859101 0.586200
O O7 0.658166 0.848341 0.354963
O O8 0.636097 0.693778 0.479195
O O9 0.640634 0.507938 0.662120
O O10 0.647757 0.463636 0.418269
O O11 0.577648 0.362561 0.526203
O O12 0.558795 0.552795 0.458218
O O13 0.265435 0.482990 0.662146
O O14 0.587939 0.819177 0.130364
O O15 0.569592 0.654782 0.255980
O O16 0.484047 0.731839 0.077271
O O17 0.660588 0.025884 0.686819
#
# Coordination Sequence:
#
# PCOD8144087 Si02
#       8
#     8   8   8   8   8   8   8   8
#     4  11  22  36  54  87 126 157 193 249 308 359
#     4  11  21  39  60  88 119 150 204 250 300 360
#     4  12  21  39  60  95 119 163 198 250 311 374
#     4  11  24  34  61  90 128 156 200 248 310 365
#     4  10  21  42  59  87 123 158 206 248 302 363
#     4  11  23  36  58  87 122 160 200 247 305 367
#     4  10  23  37  58  85 119 163 195 251 299 357
#     4  10  22  38  65  88 118 161 202 250 302 365
#
# _framework density 19.515552
#
# number of rings (size 3 to 8) (size 9 to 14) (size 15 to 20)
#    0.000    1.250    2.500    4.125    8.750    0.000 
#    0.000    0.625    0.000    0.000    0.000    0.000 
#    0.000    0.000    0.000    0.000    0.000    0.000 
#
# Total GULP energy -396519.709577 kJ/mol
# GULP energy per Si atom -12391.240924 kJ/mol
# Density = 1.947113 g / cm^3
# Si number density = 19.515552 Si / 1000 Ang^3
#
#
#
# Elastic Constant Matrix: (Units=GPa)
#
#
# Indices 1 2 3 4 5 6 
#
# 1 112.2229 54.0350 33.0856 0.0000 3.2367 0.0000
# 2 54.0350 119.9751 30.5727 0.0000 -1.0196 0.0000
# 3 33.0856 30.5727 84.2385 0.0000 -16.2081 0.0000
# 4 0.0000 0.0000 0.0000 26.2515 0.0000 -3.7858
# 5 3.2367 -1.0196 -16.2081 0.0000 26.4067 0.0000
# 6 0.0000 0.0000 0.0000 -3.7858 0.0000 27.1170
#
#
#
# Elastic Compliance Matrix: (Units=1/GPa)
#
#
# Indices 1 2 3 4 5 6 
#
# 1 0.012435 -0.004614 -0.004011 0.000000 -0.004164 0.000000
# 2 -0.004614 0.010983 -0.002249 0.000000 -0.000391 0.000000
# 3 -0.004011 -0.002249 0.016261 0.000000 0.010385 0.000000
# 4 0.000000 0.000000 0.000000 0.038876 0.000000 0.005427
# 5 -0.004164 -0.000391 0.010385 0.000000 0.044739 0.000000
# 6 0.000000 0.000000 0.000000 0.005427 0.000000 0.037635
#
#
# Mechanical properties :
#
#
# Convention : Reuss Voigt Hill
#
# Bulk Modulus (GPa) = 55.76800 61.31366 58.54083
# Shear Modulus (GPa) = 26.50377 29.20459 27.85418
#
# Velocity S-wave (km/s) = 3.68922 3.87263 3.78204
# Velocity P-wave (km/s) = 6.83998 7.17512 7.00956
#
# Compressibility (1/GPa) = 0.01793143
#
# Stress axis : x y z
#
# Youngs Moduli (GPa) = 80.41883 91.05075 61.49775
#
# Poissons Ratio (x) = 0.42010 0.24664
# Poissons Ratio (y) = 0.37104 0.13831
# Poissons Ratio (z) = 0.32253 0.20478
#
# Static dielectric constant tensor:
#      x y z
#    x 3.619090 0.000000 -0.026150 
#    y 0.000000 3.927060 0.000000 
#    z -0.026150 0.000000 3.651820 
# 
# 
# High freq. dielectric constant tensor:
#      x y z
#    x 1.746550 0.000000 -0.008860 
#    y 0.000000 1.758300 0.000000 
#    z -0.008860 0.000000 1.765940 
# 
# From -- ./inp_files/117605.got.cif
#   From: 2010.06.25/outbox.cif.g09.slc.cpg/sg15_59_cif.got.tgz:117605.got - 2010.06.28 07:06:18.
