data_PCOD8144326
_publ_section_title
;
Structure prediction by ZEFSAII (Michael W. Deem and Ramdas Pophale) SiO2 
 PCOD8144326
Probable space group: C 2/C
;
_chemical_formula_sum "Si O2"
_cell_formula_units_Z 44
_cell_length_a 21.173092
_cell_length_b 7.201817
_cell_length_c 13.415184
_cell_angle_alpha 90.000000
_cell_angle_beta 114.667111
_cell_angle_gamma 90.000000
_cell_volume 1858.944469
_symmetry_space_group_name_H-M "C 2/C"
_symmetry_group_IT_number 15
_symmetry_cell_setting 'monoclinic'
loop_
_space_group_symop_operation_xyz
x,y,z
-x,y,1/2-z
-x,-y,-z
x,-y,1/2+z
1/2+x,1/2+y,z
1/2-x,1/2+y,1/2-z
1/2-x,1/2-y,-z
1/2+x,1/2-y,1/2+z
loop_
_atom_site_type_symbol
_atom_site_label
_atom_site_fract_x
_atom_site_fract_y
_atom_site_fract_z
Si Si1 0.139351 0.802465 0.928795
Si Si2 0.659980 0.889920 0.005063
Si Si3 0.000000 0.712301 0.750000
Si Si4 0.960937 0.714099 0.931786
Si Si5 0.907053 0.118898 0.896202
Si Si6 0.187612 0.127200 0.849812
O O1 0.062385 0.834908 0.833960
O O2 0.188206 0.910150 0.882972
O O3 0.163052 0.589588 0.953151
O O4 0.140452 0.902504 0.036916
O O5 0.597104 0.890676 0.042360
O O6 0.730596 0.830661 0.109468
O O7 0.648714 0.742567 0.910297
O O8 0.026895 0.603576 0.666673
O O9 0.939605 0.922374 0.887649
O O10 0.032601 0.725919 0.043468
O O11 0.853849 0.182127 0.776168
#
# Coordination Sequence:
#
# PCOD8144326 Si02
#       6
#     8   8   4   8   8   8
#     4  11  23  43  66 102 131 178 225 279 334 402
#     4  11  26  42  67 100 141 175 228 276 335 412
#     4  10  22  40  74  98 134 176 222 282 338 396
#     4  10  21  42  68 102 130 175 227 277 334 403
#     4  10  22  40  72  95 131 181 224 276 340 394
#     4  11  24  46  66  98 138 185 221 275 342 405
#
# _framework density 23.669346000000001
#
# number of rings (size 3 to 8) (size 9 to 14) (size 15 to 20)
#    0.000    1.455    3.636    0.545    0.000    8.000 
#    3.273    0.000    0.000    0.000    0.000    0.000 
#    0.000    0.000    0.000    0.000    0.000    0.000 
#
# Total GULP energy -272603.989833 kJ/mol
# GULP energy per Si atom -12391.090447 kJ/mol
# Density = 2.361547 g / cm^3
# Si number density = 23.669346 Si / 1000 Ang^3
#
#
#
# Elastic Constant Matrix: (Units=GPa)
#
#
# Indices 1 2 3 4 5 6 
#
# 1 85.2132 23.4393 64.9999 0.0000 -1.3643 0.0000
# 2 23.4393 56.1483 37.0962 0.0000 -9.2091 0.0000
# 3 64.9999 37.0962 208.9572 0.0000 14.2152 0.0000
# 4 0.0000 0.0000 0.0000 18.8252 0.0000 2.0053
# 5 -1.3643 -9.2091 14.2152 0.0000 38.2719 0.0000
# 6 0.0000 0.0000 0.0000 2.0053 0.0000 18.6877
#
#
#
# Elastic Compliance Matrix: (Units=1/GPa)
#
#
# Indices 1 2 3 4 5 6 
#
# 1 0.016160 -0.003551 -0.004491 0.000000 0.001390 0.000000
# 2 -0.003551 0.022580 -0.003350 0.000000 0.006551 0.000000
# 3 -0.004491 -0.003350 0.007020 0.000000 -0.003574 0.000000
# 4 0.000000 0.000000 0.000000 0.053735 0.000000 -0.005766
# 5 0.001390 0.006551 -0.003574 0.000000 0.029082 0.000000
# 6 0.000000 0.000000 0.000000 -0.005766 0.000000 0.054130
#
#
# Mechanical properties :
#
#
# Convention : Reuss Voigt Hill
#
# Bulk Modulus (GPa) = 43.52177 66.82105 55.17141
# Shear Modulus (GPa) = 23.45778 30.14250 26.80014
#
# Velocity S-wave (km/s) = 3.15153 3.57246 3.36858
# Velocity P-wave (km/s) = 5.62762 6.73119 6.20400
#
# Compressibility (1/GPa) = 0.02297701
#
# Stress axis : x y z
#
# Youngs Moduli (GPa) = 61.88137 44.28729 142.44102
#
# Poissons Ratio (x) = 0.15726 0.63970
# Poissons Ratio (y) = 0.21974 0.47713
# Poissons Ratio (z) = 0.27791 0.14835
#
# Static dielectric constant tensor:
#      x y z
#    x 4.292040 0.000000 -0.010210 
#    y 0.000000 3.977710 0.000000 
#    z -0.010210 0.000000 4.384600 
# 
# 
# High freq. dielectric constant tensor:
#      x y z
#    x 1.940980 0.000000 0.002260 
#    y 0.000000 1.915910 0.000000 
#    z 0.002260 0.000000 1.947110 
# 
# From -- ./inp_files/109928.got.cif
#   From: 2010.06.25/outbox.cif.g09.slc.cpg/sg15_55_cif.got.tgz:109928.got - 2010.06.28 07:06:18.
