data_PCOD8144614
_publ_section_title
;
Structure prediction by ZEFSAII (Michael W. Deem and Ramdas Pophale) SiO2 
 PCOD8144614
Probable space group: C 2/C
;
_chemical_formula_sum "Si O2"
_cell_formula_units_Z 48
_cell_length_a 13.886356
_cell_length_b 11.753657
_cell_length_c 20.857261
_cell_angle_alpha 90.000000
_cell_angle_beta 41.488403
_cell_angle_gamma 90.000000
_cell_volume 2255.193327
_symmetry_space_group_name_H-M "C 2/C"
_symmetry_group_IT_number 15
_symmetry_cell_setting 'monoclinic'
loop_
_space_group_symop_operation_xyz
x,y,z
-x,y,1/2-z
-x,-y,-z
x,-y,1/2+z
1/2+x,1/2+y,z
1/2-x,1/2+y,1/2-z
1/2-x,1/2-y,-z
1/2+x,1/2-y,1/2+z
loop_
_atom_site_type_symbol
_atom_site_label
_atom_site_fract_x
_atom_site_fract_y
_atom_site_fract_z
Si Si1 0.500000 0.603784 0.750000
Si Si2 0.420117 0.030030 0.474379
Si Si3 0.204925 0.703667 0.876779
Si Si4 0.871399 0.908756 0.896288
Si Si5 0.351949 0.063593 0.718956
Si Si6 0.500000 0.785079 0.250000
Si Si7 0.578123 0.565284 0.405197
O O1 0.376831 0.687284 0.785441
O O2 0.446711 0.521909 0.832721
O O3 0.348664 0.151877 0.527781
O O4 0.500000 0.000000 0.500000
O O5 0.300358 0.934571 0.513970
O O6 0.532873 0.036980 0.358094
O O7 0.137004 0.645318 0.847941
O O8 0.168515 0.835671 0.894302
O O9 0.890619 0.796077 0.843755
O O10 0.950180 0.884761 0.924436
O O11 0.399740 0.134212 0.756971
O O12 0.192171 0.012263 0.808950
O O13 0.500000 0.500000 0.500000
#
# Coordination Sequence:
#
# PCOD8144614 Si02
#       7
#     4   8   8   8   8   4   8
#     4   9  18  41  72  92 124 177 220 257 330 404
#     4   9  22  41  67  97 131 171 220 270 325 397
#     4  10  21  44  68  96 130 181 215 268 338 389
#     4  10  21  43  69  97 130 173 224 267 327 395
#     4  11  24  42  65 101 134 166 225 280 326 388
#     4  11  24  39  74 100 130 179 218 281 334 374
#     4  12  27  43  65  99 138 170 222 275 326 394
#
# _framework density 21.284206000000001
#
# number of rings (size 3 to 8) (size 9 to 14) (size 15 to 20)
#    0.000    1.667    3.333    0.000    4.667    5.333 
#    0.000    1.667    0.000    0.000    0.000    0.000 
#    0.000    0.000    0.000    0.000    0.000    0.000 
#
# Total GULP energy -297474.315625 kJ/mol
# GULP energy per Si atom -12394.763151 kJ/mol
# Density = 2.123576 g / cm^3
# Si number density = 21.284206 Si / 1000 Ang^3
#
#
#
# Elastic Constant Matrix: (Units=GPa)
#
#
# Indices 1 2 3 4 5 6 
#
# 1 122.3742 35.0411 35.6123 0.0000 -10.3740 0.0000
# 2 35.0411 93.2646 35.3235 0.0000 2.1092 0.0000
# 3 35.6123 35.3235 129.5815 0.0000 -4.8930 0.0000
# 4 0.0000 0.0000 0.0000 26.8484 0.0000 -1.2401
# 5 -10.3740 2.1092 -4.8930 0.0000 33.6742 0.0000
# 6 0.0000 0.0000 0.0000 -1.2401 0.0000 32.3353
#
#
#
# Elastic Compliance Matrix: (Units=1/GPa)
#
#
# Indices 1 2 3 4 5 6 
#
# 1 0.009816 -0.003095 -0.001742 0.000000 0.002965 0.000000
# 2 -0.003095 0.012984 -0.002770 0.000000 -0.002169 0.000000
# 3 -0.001742 -0.002770 0.008987 0.000000 0.000943 0.000000
# 4 0.000000 0.000000 0.000000 0.037312 0.000000 0.001431
# 5 0.002965 -0.002169 0.000943 0.000000 0.030883 0.000000
# 6 0.000000 0.000000 0.000000 0.001431 0.000000 0.030981
#
#
# Mechanical properties :
#
#
# Convention : Reuss Voigt Hill
#
# Bulk Modulus (GPa) = 60.34738 61.90822 61.12780
# Shear Modulus (GPa) = 32.95944 34.52115 33.74029
#
# Velocity S-wave (km/s) = 3.93942 4.03167 3.98581
# Velocity P-wave (km/s) = 7.00762 7.12896 7.06855
#
# Compressibility (1/GPa) = 0.01657073
#
# Stress axis : x y z
#
# Youngs Moduli (GPa) = 101.87137 77.02057 111.27526
#
# Poissons Ratio (x) = 0.23841 0.19384
# Poissons Ratio (y) = 0.31533 0.30829
# Poissons Ratio (z) = 0.17746 0.21338
#
# Static dielectric constant tensor:
#      x y z
#    x 3.998150 0.000000 -0.097860 
#    y 0.000000 3.736490 0.000000 
#    z -0.097860 0.000000 4.091560 
# 
# 
# High freq. dielectric constant tensor:
#      x y z
#    x 1.841570 0.000000 -0.011340 
#    y 0.000000 1.819720 0.000000 
#    z -0.011340 0.000000 1.836320 
# 
# From -- ./inp_files/181725.got.cif
#   From: 2010.06.25/outbox.cif.g09.slc.cpg/sg15_91_cif.got.tgz:181725.got - 2010.06.28 07:06:18.
