data_PCOD8144502
_publ_section_title
;
Structure prediction by ZEFSAII (Michael W. Deem and Ramdas Pophale) SiO2 
 PCOD8144502
Probable space group: C 2/C
;
_chemical_formula_sum "Si O2"
_cell_formula_units_Z 52
_cell_length_a 20.173572
_cell_length_b 16.836059
_cell_length_c 10.152270
_cell_angle_alpha 90.000000
_cell_angle_beta 132.754791
_cell_angle_gamma 90.000000
_cell_volume 2531.859896
_symmetry_space_group_name_H-M "C 2/C"
_symmetry_group_IT_number 15
_symmetry_cell_setting 'monoclinic'
loop_
_space_group_symop_operation_xyz
x,y,z
-x,y,1/2-z
-x,-y,-z
x,-y,1/2+z
1/2+x,1/2+y,z
1/2-x,1/2+y,1/2-z
1/2-x,1/2-y,-z
1/2+x,1/2-y,1/2+z
loop_
_atom_site_type_symbol
_atom_site_label
_atom_site_fract_x
_atom_site_fract_y
_atom_site_fract_z
Si Si1 0.688838 0.327777 0.926579
Si Si2 0.415497 0.803569 0.890132
Si Si3 0.269776 0.074229 0.768793
Si Si4 0.184225 0.177268 0.880720
Si Si5 0.000000 0.239328 0.250000
Si Si6 0.023585 0.437782 0.921677
Si Si7 0.230494 0.111262 0.206502
O O1 0.589247 0.313375 0.849821
O O2 0.677497 0.365014 0.766699
O O3 0.750000 0.250000 0.000000
O O4 0.737972 0.389536 0.088293
O O5 0.403984 0.717965 0.802679
O O6 0.457610 0.862504 0.840990
O O7 0.322094 0.837826 0.821212
O O8 0.485624 0.795189 0.104409
O O9 0.221904 0.113933 0.828412
O O10 0.252178 0.981081 0.741229
O O11 0.374866 0.091526 0.928501
O O12 0.250000 0.250000 0.000000
O O13 0.166576 0.130934 0.994236
O O14 0.000000 0.478188 0.750000
O O15 0.000000 0.500000 0.000000
#
# Coordination Sequence:
#
# PCOD8144502 Si02
#       7
#     8   8   8   8   4   8   8
#     4  12  24  44  71 102 133 187 231 282 350 418
#     4  11  23  42  67  96 144 177 230 289 345 418
#     4  12  24  43  70 100 142 182 227 290 359 417
#     4  10  21  43  65  92 136 187 229 272 344 421
#     4  12  24  44  70 106 136 176 244 294 334 418
#     4  12  27  40  65 108 144 179 229 289 362 424
#     4  11  23  41  70 100 132 181 230 284 354 414
#
# _framework density 20.538260999999999
#
# number of rings (size 3 to 8) (size 9 to 14) (size 15 to 20)
#    0.000    0.615    4.615    4.615    3.231    1.231 
#    0.000    0.769    0.000    0.000    0.000    0.000 
#    0.000    0.000    0.000    0.000    0.000    0.000 
#
# Total GULP energy -322443.089479 kJ/mol
# GULP energy per Si atom -12401.657288 kJ/mol
# Density = 2.049151 g / cm^3
# Si number density = 20.538261 Si / 1000 Ang^3
#
#
#
# Elastic Constant Matrix: (Units=GPa)
#
#
# Indices 1 2 3 4 5 6 
#
# 1 100.7946 34.3268 50.2349 0.0000 -10.1193 0.0000
# 2 34.3268 63.3342 42.2662 0.0000 -0.7104 0.0000
# 3 50.2349 42.2662 145.8375 0.0000 -25.3626 0.0000
# 4 0.0000 0.0000 0.0000 38.1927 0.0000 -10.6408
# 5 -10.1193 -0.7104 -25.3626 0.0000 44.8701 0.0000
# 6 0.0000 0.0000 0.0000 -10.6408 0.0000 32.3347
#
#
#
# Elastic Compliance Matrix: (Units=1/GPa)
#
#
# Indices 1 2 3 4 5 6 
#
# 1 0.013254 -0.005301 -0.002799 0.000000 0.001323 0.000000
# 2 -0.005301 0.022122 -0.005248 0.000000 -0.003812 0.000000
# 3 -0.002799 -0.005248 0.010223 0.000000 0.005064 0.000000
# 4 0.000000 0.000000 0.000000 0.028826 0.000000 0.009486
# 5 0.001323 -0.003812 0.005064 0.000000 0.025387 0.000000
# 6 0.000000 0.000000 0.000000 0.009486 0.000000 0.034048
#
#
# Mechanical properties :
#
#
# Convention : Reuss Voigt Hill
#
# Bulk Modulus (GPa) = 52.90318 62.62469 57.76393
# Shear Modulus (GPa) = 29.96558 35.28873 32.62716
#
# Velocity S-wave (km/s) = 3.82385 4.14961 3.99005
# Velocity P-wave (km/s) = 6.73127 7.31553 7.02947
#
# Compressibility (1/GPa) = 0.01890246
#
# Stress axis : x y z
#
# Youngs Moduli (GPa) = 75.44681 45.20380 97.81958
#
# Poissons Ratio (x) = 0.23962 0.27382
# Poissons Ratio (y) = 0.39994 0.51339
# Poissons Ratio (z) = 0.21119 0.23724
#
# Static dielectric constant tensor:
#      x y z
#    x 3.912390 0.000000 -0.419650 
#    y 0.000000 3.857860 0.000000 
#    z -0.419650 0.000000 4.437650 
# 
# 
# High freq. dielectric constant tensor:
#      x y z
#    x 1.792450 0.000000 -0.021470 
#    y 0.000000 1.805730 0.000000 
#    z -0.021470 0.000000 1.822740 
# 
# From -- ./inp_files/57087.got.cif
#   From: 2010.06.25/outbox.cif.g09.slc.cpg/sg15_29_cif.got.tgz:57087.got - 2010.06.28 07:06:18.
