data_PCOD8144790
_publ_section_title
;
Structure prediction by ZEFSAII (Michael W. Deem and Ramdas Pophale) SiO2 
 PCOD8144790
Probable space group: C 2/C
;
_chemical_formula_sum "Si O2"
_cell_formula_units_Z 40
_cell_length_a 19.705217
_cell_length_b 8.628199
_cell_length_c 13.698776
_cell_angle_alpha 90.000000
_cell_angle_beta 139.823439
_cell_angle_gamma 90.000000
_cell_volume 1502.590339
_symmetry_space_group_name_H-M "C 2/C"
_symmetry_group_IT_number 15
_symmetry_cell_setting 'monoclinic'
loop_
_space_group_symop_operation_xyz
x,y,z
-x,y,1/2-z
-x,-y,-z
x,-y,1/2+z
1/2+x,1/2+y,z
1/2-x,1/2+y,1/2-z
1/2-x,1/2-y,-z
1/2+x,1/2-y,1/2+z
loop_
_atom_site_type_symbol
_atom_site_label
_atom_site_fract_x
_atom_site_fract_y
_atom_site_fract_z
Si Si1 0.737083 0.569593 0.477511
Si Si2 0.092660 0.462039 0.193777
Si Si3 0.243014 0.614749 0.684273
Si Si4 0.412263 0.353452 0.077920
Si Si5 0.467286 0.732633 0.960405
O O1 0.750000 0.750000 0.500000
O O2 0.848327 0.504537 0.640186
O O3 0.721588 0.524719 0.347633
O O4 0.638051 0.508595 0.431989
O O5 0.180300 0.452737 0.205203
O O6 0.019637 0.611291 0.094099
O O7 0.026425 0.297052 0.123111
O O8 0.182274 0.734454 0.547267
O O9 0.347156 0.691073 0.846111
O O10 0.500000 0.288920 0.250000
O O11 0.468257 0.394940 0.034042
#
# Coordination Sequence:
#
# PCOD8144790 Si02
#       5
#     8   8   8   8   8
#     4  12  26  44  66 106 151 186 240 315 371 427
#     4  10  24  44  72 110 145 184 250 314 369 429
#     4  11  23  44  79  98 149 201 242 304 373 455
#     4  11  21  42  73 101 130 193 256 289 356 454
#     4  10  21  44  75 102 136 193 253 293 358 453
#
# _framework density 26.620695999999999
#
# number of rings (size 3 to 8) (size 9 to 14) (size 15 to 20)
#    0.000    1.200    4.000    1.800    2.800    0.000 
#    3.600    3.000    0.000    0.000    0.000    0.000 
#    0.000    0.000    0.000    0.000    0.000    0.000 
#
# Total GULP energy -247897.256659 kJ/mol
# GULP energy per Si atom -12394.862833 kJ/mol
# Density = 2.656011 g / cm^3
# Si number density = 26.620696 Si / 1000 Ang^3
#
#
#
# Elastic Constant Matrix: (Units=GPa)
#
#
# Indices 1 2 3 4 5 6 
#
# 1 64.9884 22.0886 25.2252 0.0000 10.3024 0.0000
# 2 22.0886 53.3918 -9.2034 0.0000 12.4573 0.0000
# 3 25.2252 -9.2034 115.9733 0.0000 15.0256 0.0000
# 4 0.0000 0.0000 0.0000 41.1070 0.0000 -1.7817
# 5 10.3024 12.4573 15.0256 0.0000 38.5760 0.0000
# 6 0.0000 0.0000 0.0000 -1.7817 0.0000 26.7597
#
#
#
# Elastic Compliance Matrix: (Units=1/GPa)
#
#
# Indices 1 2 3 4 5 6 
#
# 1 0.020635 -0.009312 -0.005163 0.000000 -0.000493 0.000000
# 2 -0.009312 0.025222 0.005013 0.000000 -0.007610 0.000000
# 3 -0.005163 0.005013 0.010715 0.000000 -0.004414 0.000000
# 4 0.000000 0.000000 0.000000 0.024397 0.000000 0.001624
# 5 -0.000493 -0.007610 -0.004414 0.000000 0.030231 0.000000
# 6 0.000000 0.000000 0.000000 0.001624 0.000000 0.037478
#
#
# Mechanical properties :
#
#
# Convention : Reuss Voigt Hill
#
# Bulk Modulus (GPa) = 26.56239 34.50827 30.53533
# Shear Modulus (GPa) = 27.75448 34.37140 31.06294
#
# Velocity S-wave (km/s) = 3.23242 3.59716 3.41966
# Velocity P-wave (km/s) = 4.89195 5.49944 5.20456
#
# Compressibility (1/GPa) = 0.03764721
#
# Stress axis : x y z
#
# Youngs Moduli (GPa) = 48.46242 39.64856 93.32371
#
# Poissons Ratio (x) = 0.36920 0.48186
# Poissons Ratio (y) = 0.45127 -0.46783
# Poissons Ratio (z) = 0.25023 -0.19876
#
# Static dielectric constant tensor:
#      x y z
#    x 4.526940 0.000000 -0.294120 
#    y 0.000000 4.743890 0.000000 
#    z -0.294120 0.000000 6.076030 
# 
# 
# High freq. dielectric constant tensor:
#      x y z
#    x 2.045530 0.000000 0.006380 
#    y 0.000000 2.059680 0.000000 
#    z 0.006380 0.000000 2.094270 
# 
# From -- ./inp_files/218826.got.cif
#   From: 2010.06.25/outbox.cif.g09.slc.cpg/sg15_110_cif.got.tgz:218826.got - 2010.06.28 07:06:18.
