data_PCOD8144691
_publ_section_title
;
Structure prediction by ZEFSAII (Michael W. Deem and Ramdas Pophale) SiO2 
 PCOD8144691
Probable space group: C 2/C
;
_chemical_formula_sum "Si O2"
_cell_formula_units_Z 60
_cell_length_a 12.047385
_cell_length_b 29.467990
_cell_length_c 13.020222
_cell_angle_alpha 90.000000
_cell_angle_beta 145.623971
_cell_angle_gamma 90.000000
_cell_volume 2609.872524
_symmetry_space_group_name_H-M "C 2/C"
_symmetry_group_IT_number 15
_symmetry_cell_setting 'monoclinic'
loop_
_space_group_symop_operation_xyz
x,y,z
-x,y,1/2-z
-x,-y,-z
x,-y,1/2+z
1/2+x,1/2+y,z
1/2-x,1/2+y,1/2-z
1/2-x,1/2-y,-z
1/2+x,1/2-y,1/2+z
loop_
_atom_site_type_symbol
_atom_site_label
_atom_site_fract_x
_atom_site_fract_y
_atom_site_fract_z
Si Si1 0.969411 0.223853 0.837994
Si Si2 0.483368 0.424527 0.358765
Si Si3 0.048801 0.686720 0.496637
Si Si4 0.735798 0.349294 0.634294
Si Si5 0.500000 0.954028 0.250000
Si Si6 0.929992 0.021684 0.081206
Si Si7 0.977323 0.123424 0.111734
Si Si8 0.364857 0.881157 0.284987
O O1 0.782970 0.191323 0.683425
O O2 0.000000 0.247104 0.750000
O O3 0.948762 0.263353 0.908788
O O4 0.156893 0.192818 0.007139
O O5 0.500000 0.429268 0.250000
O O6 0.680592 0.397084 0.541732
O O7 0.481744 0.476185 0.405419
O O8 0.286369 0.398768 0.242380
O O9 0.998607 0.658663 0.562331
O O10 0.969549 0.657225 0.337403
O O11 0.635390 0.346491 0.671777
O O12 0.693557 0.984610 0.398786
O O13 0.506258 0.921854 0.356566
O O14 0.000000 0.024080 0.250000
O O15 0.993156 0.070589 0.081727
O O16 0.000000 0.129599 0.250000
O O17 0.758116 0.138163 0.907136
#
# Coordination Sequence:
#
# PCOD8144691 Si02
#       8
#     8   8   8   8   4   8   8   8
#     4  12  25  45  66  96 134 167 215 274 336 405
#     4  10  21  44  63  95 140 174 216 286 325 391
#     4  12  25  41  66  97 125 171 217 270 327 402
#     4  11  24  38  66  95 130 167 220 262 335 396
#     4  10  22  42  64  98 128 178 228 270 324 396
#     4   9  20  39  65  90 132 175 223 269 330 379
#     4   9  19  39  66  92 123 175 219 269 319 380
#     4  10  23  39  68  97 133 169 228 276 324 396
#
# _framework density 22.989628
#
# number of rings (size 3 to 8) (size 9 to 14) (size 15 to 20)
#    0.000    1.600    4.000    0.800    5.600    4.800 
#    4.800    2.667    1.467    2.400    0.000    0.000 
#    0.000    0.000    0.000    0.000    0.000    0.000 
#
# Total GULP energy -371655.579322 kJ/mol
# GULP energy per Si atom -12388.519311 kJ/mol
# Density = 2.293730 g / cm^3
# Si number density = 22.989628 Si / 1000 Ang^3
#
#
#
# Elastic Constant Matrix: (Units=GPa)
#
#
# Indices 1 2 3 4 5 6 
#
# 1 39.2381 13.8046 3.9664 0.0000 -11.3065 0.0000
# 2 13.8046 117.0754 47.6713 0.0000 -16.9330 0.0000
# 3 3.9664 47.6713 138.1216 0.0000 -10.6438 0.0000
# 4 0.0000 0.0000 0.0000 101.0342 0.0000 -56.2353
# 5 -11.3065 -16.9330 -10.6438 0.0000 33.4034 0.0000
# 6 0.0000 0.0000 0.0000 -56.2353 0.0000 47.4196
#
#
#
# Elastic Compliance Matrix: (Units=1/GPa)
#
#
# Indices 1 2 3 4 5 6 
#
# 1 0.028781 -0.002406 0.000677 0.000000 0.008738 0.000000
# 2 -0.002406 0.010702 -0.003352 0.000000 0.003543 0.000000
# 3 0.000677 -0.003352 0.008472 0.000000 0.001230 0.000000
# 4 0.000000 0.000000 0.000000 0.029117 0.000000 0.034530
# 5 0.008738 0.003543 0.001230 0.000000 0.035083 0.000000
# 6 0.000000 0.000000 0.000000 0.034530 0.000000 0.062038
#
#
# Mechanical properties :
#
#
# Convention : Reuss Voigt Hill
#
# Bulk Modulus (GPa) = 26.45814 47.25773 36.85794
# Shear Modulus (GPa) = 25.38694 51.63763 38.51228
#
# Velocity S-wave (km/s) = 3.32667 4.74447 4.09736
# Velocity P-wave (km/s) = 5.12732 7.11436 6.20095
#
# Compressibility (1/GPa) = 0.03779555
#
# Stress axis : x y z
#
# Youngs Moduli (GPa) = 34.74483 93.43742 118.03410
#
# Poissons Ratio (x) = 0.22477 -0.07993
# Poissons Ratio (y) = 0.08358 0.39562
# Poissons Ratio (z) = -0.02353 0.31317
#
# Static dielectric constant tensor:
#      x y z
#    x 3.981630 0.000000 -0.222290 
#    y 0.000000 4.371710 0.000000 
#    z -0.222290 0.000000 4.343190 
# 
# 
# High freq. dielectric constant tensor:
#      x y z
#    x 1.881230 0.000000 -0.018680 
#    y 0.000000 1.902300 0.000000 
#    z -0.018680 0.000000 1.928040 
# 
# From -- ./inp_files/157548.got.cif
#   From: 2010.06.25/outbox.cif.g09.slc.cpg/sg15_79_cif.got.tgz:157548.got - 2010.06.28 07:06:18.
