data_PCOD8144730
_publ_section_title
;
Structure prediction by ZEFSAII (Michael W. Deem and Ramdas Pophale) SiO2 
 PCOD8144730
Probable space group: C 2/C
;
_chemical_formula_sum "Si O2"
_cell_formula_units_Z 40
_cell_length_a 10.778818
_cell_length_b 7.679567
_cell_length_c 21.478086
_cell_angle_alpha 90.000000
_cell_angle_beta 68.350585
_cell_angle_gamma 90.000000
_cell_volume 1652.469769
_symmetry_space_group_name_H-M "C 2/C"
_symmetry_group_IT_number 15
_symmetry_cell_setting 'monoclinic'
loop_
_space_group_symop_operation_xyz
x,y,z
-x,y,1/2-z
-x,-y,-z
x,-y,1/2+z
1/2+x,1/2+y,z
1/2-x,1/2+y,1/2-z
1/2-x,1/2-y,-z
1/2+x,1/2-y,1/2+z
loop_
_atom_site_type_symbol
_atom_site_label
_atom_site_fract_x
_atom_site_fract_y
_atom_site_fract_z
Si Si1 0.874362 0.669893 0.661760
Si Si2 0.392374 0.153613 0.520058
Si Si3 0.153521 0.019541 0.000554
Si Si4 0.857038 0.944864 0.762090
Si Si5 0.657664 0.227996 0.613055
O O1 0.823464 0.663050 0.600443
O O2 0.875879 0.861508 0.690775
O O3 0.767565 0.570233 0.723562
O O4 0.027831 0.599074 0.639172
O O5 0.283724 0.099740 0.490039
O O6 0.451713 0.357164 0.497640
O O7 0.500000 0.000000 0.500000
O O8 0.203716 0.138607 0.933430
O O9 0.113200 0.130437 0.068256
O O10 0.818990 0.809115 0.823775
O O11 0.000000 0.037731 0.750000
#
# Coordination Sequence:
#
# PCOD8144730 Si02
#       5
#     8   8   8   8   8
#     4  11  23  44  66  93 128 174 218 264 330 391
#     4  11  22  42  66  99 128 168 222 266 332 399
#     4  10  22  40  67  97 133 167 204 285 330 383
#     4  10  24  45  62  91 129 169 219 268 316 397
#     4  10  21  44  67  96 132 165 220 271 331 397
#
# _framework density 24.206191
#
# number of rings (size 3 to 8) (size 9 to 14) (size 15 to 20)
#    0.000    1.600    4.000    0.000    2.800    0.800 
#   10.800    0.000    0.000    0.000    0.000    0.000 
#    0.000    0.000    0.000    0.000    0.000    0.000 
#
# Total GULP energy -247768.492978 kJ/mol
# GULP energy per Si atom -12388.424649 kJ/mol
# Density = 2.415110 g / cm^3
# Si number density = 24.206191 Si / 1000 Ang^3
#
#
#
# Elastic Constant Matrix: (Units=GPa)
#
#
# Indices 1 2 3 4 5 6 
#
# 1 67.3983 31.9589 13.2481 0.0000 -29.3203 0.0000
# 2 31.9589 101.4497 18.1356 0.0000 -18.1196 0.0000
# 3 13.2481 18.1356 85.9699 0.0000 -17.4895 0.0000
# 4 0.0000 0.0000 0.0000 32.1188 0.0000 -7.6086
# 5 -29.3203 -18.1196 -17.4895 0.0000 36.5936 0.0000
# 6 0.0000 0.0000 0.0000 -7.6086 0.0000 38.5757
#
#
#
# Elastic Compliance Matrix: (Units=1/GPa)
#
#
# Indices 1 2 3 4 5 6 
#
# 1 0.024672 -0.004737 0.000822 0.000000 0.017815 0.000000
# 2 -0.004737 0.011860 -0.001495 0.000000 0.001363 0.000000
# 3 0.000822 -0.001495 0.013075 0.000000 0.006167 0.000000
# 4 0.000000 0.000000 0.000000 0.032660 0.000000 0.006442
# 5 0.017815 0.001363 0.006167 0.000000 0.045224 0.000000
# 6 0.000000 0.000000 0.000000 0.006442 0.000000 0.027194
#
#
# Mechanical properties :
#
#
# Convention : Reuss Voigt Hill
#
# Bulk Modulus (GPa) = 25.78177 42.38921 34.08549
# Shear Modulus (GPa) = 28.02135 34.22262 31.12198
#
# Velocity S-wave (km/s) = 3.40606 3.76413 3.58956
# Velocity P-wave (km/s) = 5.11296 6.03666 5.59391
#
# Compressibility (1/GPa) = 0.03878710
#
# Stress axis : x y z
#
# Youngs Moduli (GPa) = 40.53137 84.31710 76.47965
#
# Poissons Ratio (x) = 0.39943 -0.06284
# Poissons Ratio (y) = 0.19201 0.11431
# Poissons Ratio (z) = -0.03330 0.12603
#
# Static dielectric constant tensor:
#      x y z
#    x 4.910600 0.000000 -0.034600 
#    y 0.000000 4.634930 0.000000 
#    z -0.034600 0.000000 4.350020 
# 
# 
# High freq. dielectric constant tensor:
#      x y z
#    x 1.978650 0.000000 -0.007190 
#    y 0.000000 1.942570 0.000000 
#    z -0.007190 0.000000 1.968510 
# 
# From -- ./inp_files/235720.got.cif
#   From: 2010.06.25/outbox.cif.g09.slc.cpg/sg15_118_cif.got.tgz:235720.got - 2010.06.28 07:06:18.
