data_PCOD8144698
_publ_section_title
;
Structure prediction by ZEFSAII (Michael W. Deem and Ramdas Pophale) SiO2 
 PCOD8144698
Probable space group: C 2/C
;
_chemical_formula_sum "Si O2"
_cell_formula_units_Z 44
_cell_length_a 16.953894
_cell_length_b 7.825498
_cell_length_c 27.841278
_cell_angle_alpha 90.000000
_cell_angle_beta 143.768778
_cell_angle_gamma 90.000000
_cell_volume 2183.189298
_symmetry_space_group_name_H-M "C 2/C"
_symmetry_group_IT_number 15
_symmetry_cell_setting 'monoclinic'
loop_
_space_group_symop_operation_xyz
x,y,z
-x,y,1/2-z
-x,-y,-z
x,-y,1/2+z
1/2+x,1/2+y,z
1/2-x,1/2+y,1/2-z
1/2-x,1/2-y,-z
1/2+x,1/2-y,1/2+z
loop_
_atom_site_type_symbol
_atom_site_label
_atom_site_fract_x
_atom_site_fract_y
_atom_site_fract_z
Si Si1 0.500000 0.692503 0.250000
Si Si2 0.339099 0.111391 0.745100
Si Si3 0.122720 0.370932 0.650608
Si Si4 0.344720 0.531845 0.930148
Si Si5 0.339305 0.763205 0.497401
Si Si6 0.284534 0.917528 0.906409
O O1 0.535375 0.814383 0.222449
O O2 0.375663 0.570578 0.176774
O O3 0.254570 0.263477 0.727708
O O4 0.400919 0.002027 0.818101
O O5 0.238497 0.009846 0.660081
O O6 0.143955 0.463242 0.609258
O O7 0.995775 0.243617 0.586706
O O8 0.176999 0.223252 0.559800
O O9 0.500000 0.500000 0.000000
O O10 0.288535 0.389298 0.938601
O O11 0.250000 0.750000 0.500000
O O12 0.328613 0.949867 0.468150
#
# Coordination Sequence:
#
# PCOD8144698 Si02
#       6
#     4   8   8   8   8   8
#     4   8  20  44  60  90 128 162 206 252 326 354
#     4  10  22  39  66  89 126 163 207 260 316 368
#     4  10  23  41  62  96 121 165 214 252 317 381
#     4  10  21  44  65  90 127 168 205 260 317 373
#     4  12  26  41  63  99 125 165 219 253 317 375
#     4  10  23  44  65  87 131 168 206 261 311 377
#
# _framework density 20.154001000000001
#
# number of rings (size 3 to 8) (size 9 to 14) (size 15 to 20)
#    0.000    2.182    3.636    0.545    7.636    3.636 
#    0.000    0.000    0.000    0.000    0.000    0.000 
#    0.000    0.000    0.000    0.000    0.000    0.000 
#
# Total GULP energy -272732.405678 kJ/mol
# GULP energy per Si atom -12396.927531 kJ/mol
# Density = 2.010813 g / cm^3
# Si number density = 20.154001 Si / 1000 Ang^3
#
#
#
# Elastic Constant Matrix: (Units=GPa)
#
#
# Indices 1 2 3 4 5 6 
#
# 1 130.9095 26.0228 33.5611 0.0000 -7.8452 0.0001
# 2 26.0228 106.8056 35.3302 0.0001 -21.3334 0.0002
# 3 33.5611 35.3302 62.9893 0.0001 -16.4374 0.0000
# 4 0.0000 0.0001 0.0001 33.6499 0.0000 -10.5439
# 5 -7.8452 -21.3334 -16.4374 0.0000 34.9544 0.0000
# 6 0.0001 0.0002 0.0000 -10.5439 0.0000 24.8655
#
#
#
# Elastic Compliance Matrix: (Units=1/GPa)
#
#
# Indices 1 2 3 4 5 6 
#
# 1 0.008904 -0.000819 -0.004439 0.000000 -0.000588 0.000000
# 2 -0.000819 0.012240 -0.005161 0.000000 0.004860 0.000000
# 3 -0.004439 -0.005161 0.022859 0.000000 0.006603 0.000000
# 4 0.000000 0.000000 0.000000 0.034271 0.000000 0.014532
# 5 -0.000588 0.004860 0.006603 0.000000 0.034548 0.000000
# 6 0.000000 0.000000 0.000000 0.014532 0.000000 0.046379
#
#
# Mechanical properties :
#
#
# Convention : Reuss Voigt Hill
#
# Bulk Modulus (GPa) = 43.16625 54.50362 48.83493
# Shear Modulus (GPa) = 26.62981 32.41331 29.52156
#
# Velocity S-wave (km/s) = 3.63893 4.01469 3.83142
# Velocity P-wave (km/s) = 6.25464 6.97084 6.62243
#
# Compressibility (1/GPa) = 0.02316625
#
# Stress axis : x y z
#
# Youngs Moduli (GPa) = 112.30562 81.69808 43.74736
#
# Poissons Ratio (x) = 0.06690 0.19418
# Poissons Ratio (y) = 0.09196 0.22578
# Poissons Ratio (z) = 0.49848 0.42164
#
# Static dielectric constant tensor:
#      x y z
#    x 3.814940 0.000000 0.056960 
#    y 0.000000 4.022380 0.000000 
#    z 0.056960 0.000000 3.600090 
# 
# 
# High freq. dielectric constant tensor:
#      x y z
#    x 1.803380 0.000000 0.007460 
#    y 0.000000 1.773450 0.000000 
#    z 0.007460 0.000000 1.779560 
# 
# From -- ./inp_files/247143.got.cif
#   From: 2010.06.25/outbox.cif.g09.slc.cpg/sg15_124_cif.got.tgz:247143.got - 2010.06.28 07:06:18.
