data_PCOD8144082
_publ_section_title
;
Structure prediction by ZEFSAII (Michael W. Deem and Ramdas Pophale) SiO2 
 PCOD8144082
Probable space group: C 2/C
;
_chemical_formula_sum "Si O2"
_cell_formula_units_Z 60
_cell_length_a 17.457022
_cell_length_b 17.549329
_cell_length_c 15.441241
_cell_angle_alpha 90.000000
_cell_angle_beta 138.968783
_cell_angle_gamma 90.000000
_cell_volume 3105.473621
_symmetry_space_group_name_H-M "C 2/C"
_symmetry_group_IT_number 15
_symmetry_cell_setting 'monoclinic'
loop_
_space_group_symop_operation_xyz
x,y,z
-x,y,1/2-z
-x,-y,-z
x,-y,1/2+z
1/2+x,1/2+y,z
1/2-x,1/2+y,1/2-z
1/2-x,1/2-y,-z
1/2+x,1/2-y,1/2+z
loop_
_atom_site_type_symbol
_atom_site_label
_atom_site_fract_x
_atom_site_fract_y
_atom_site_fract_z
Si Si1 0.997116 0.578546 0.446935
Si Si2 0.751893 0.577018 0.162158
Si Si3 0.906949 0.323876 0.324498
Si Si4 0.166854 0.539570 0.443410
Si Si5 0.680384 0.404993 0.072653
Si Si6 0.072405 0.852312 0.626867
Si Si7 0.871919 0.051602 0.160478
Si Si8 0.000000 0.587546 0.750000
O O1 0.059234 0.644895 0.552698
O O2 0.064449 0.575052 0.412874
O O3 0.000000 0.500000 0.500000
O O4 0.862341 0.596136 0.316180
O O5 0.787036 0.596248 0.092464
O O6 0.710236 0.489287 0.133135
O O7 0.649086 0.632401 0.106409
O O8 0.774928 0.344358 0.186545
O O9 0.924519 0.234480 0.341564
O O10 0.996590 0.360107 0.331992
O O11 0.278322 0.515951 0.597001
O O12 0.116164 0.464465 0.350733
O O13 0.557202 0.379236 0.007884
O O14 0.668915 0.400490 0.958531
O O15 0.127915 0.897605 0.754364
O O16 0.000000 0.016604 0.250000
#
# Coordination Sequence:
#
# PCOD8144082 Si02
#       8
#     8   8   8   8   8   8   8   4
#     4  12  20  37  63  94 117 153 214 259 308 367
#     4  11  21  40  63  87 119 164 212 256 305 362
#     4  12  26  37  60  96 129 161 201 259 322 377
#     4  11  19  39  64  91 116 155 210 270 303 352
#     4  10  21  42  57  87 124 161 211 252 299 370
#     4  11  26  38  59  88 130 171 196 250 317 384
#     4   9  20  36  55  86 118 161 203 236 306 373
#     4  12  20  36  60  94 128 150 198 262 322 356
#
# _framework density 19.320724999999999
#
# number of rings (size 3 to 8) (size 9 to 14) (size 15 to 20)
#    0.000    1.067    6.667    1.200    4.667    0.533 
#    0.000    0.667    0.000    0.000    0.000    0.000 
#    0.000    0.000    0.000    0.000    0.000    0.000 
#
# Total GULP energy -372012.189716 kJ/mol
# GULP energy per Si atom -12400.406324 kJ/mol
# Density = 1.927675 g / cm^3
# Si number density = 19.320725 Si / 1000 Ang^3
#
#
#
# Elastic Constant Matrix: (Units=GPa)
#
#
# Indices 1 2 3 4 5 6 
#
# 1 120.2593 15.6204 28.4687 0.0000 2.8633 0.0000
# 2 15.6204 32.2203 17.6573 0.0000 -2.2083 0.0000
# 3 28.4687 17.6573 109.9951 0.0000 14.9124 0.0000
# 4 0.0000 0.0000 0.0000 17.2761 0.0000 -2.1805
# 5 2.8633 -2.2083 14.9124 0.0000 33.5155 0.0000
# 6 0.0000 0.0000 0.0000 -2.1805 0.0000 22.3218
#
#
#
# Elastic Compliance Matrix: (Units=1/GPa)
#
#
# Indices 1 2 3 4 5 6 
#
# 1 0.009198 -0.003493 -0.001790 0.000000 -0.000219 0.000000
# 2 -0.003493 0.036154 -0.005601 0.000000 0.005173 0.000000
# 3 -0.001790 -0.005601 0.011156 0.000000 -0.005180 0.000000
# 4 0.000000 0.000000 0.000000 0.058606 0.000000 0.005725
# 5 -0.000219 0.005173 -0.005180 0.000000 0.032501 0.000000
# 6 0.000000 0.000000 0.000000 0.005725 0.000000 0.045358
#
#
# Mechanical properties :
#
#
# Convention : Reuss Voigt Hill
#
# Bulk Modulus (GPa) = 28.78579 42.88527 35.83553
# Shear Modulus (GPa) = 22.09245 28.00457 25.04851
#
# Velocity S-wave (km/s) = 3.38518 3.81130 3.60454
# Velocity P-wave (km/s) = 5.49641 6.45080 5.99263
#
# Compressibility (1/GPa) = 0.03473936
#
# Stress axis : x y z
#
# Youngs Moduli (GPa) = 108.71812 27.65970 89.63814
#
# Poissons Ratio (x) = 0.09662 0.16046
# Poissons Ratio (y) = 0.37978 0.50205
# Poissons Ratio (z) = 0.19462 0.15492
#
# Static dielectric constant tensor:
#      x y z
#    x 3.756710 0.000000 0.025490 
#    y 0.000000 3.298190 0.000000 
#    z 0.025490 0.000000 4.005230 
# 
# 
# High freq. dielectric constant tensor:
#      x y z
#    x 1.768650 0.000000 0.012280 
#    y 0.000000 1.702450 0.000000 
#    z 0.012280 0.000000 1.766360 
# 
# From -- ./inp_files/163286.got.cif
#   From: 2010.06.25/outbox.cif.g09.slc.cpg/sg15_82_cif.got.tgz:163286.got - 2010.06.28 07:06:18.
