data_PCOD8144252
_publ_section_title
;
Structure prediction by ZEFSAII (Michael W. Deem and Ramdas Pophale) SiO2 
 PCOD8144252
Probable space group: C 2/C
;
_chemical_formula_sum "Si O2"
_cell_formula_units_Z 56
_cell_length_a 8.963729
_cell_length_b 18.973128
_cell_length_c 18.684887
_cell_angle_alpha 90.000000
_cell_angle_beta 125.596226
_cell_angle_gamma 90.000000
_cell_volume 2583.943283
_symmetry_space_group_name_H-M "C 2/C"
_symmetry_group_IT_number 15
_symmetry_cell_setting 'monoclinic'
loop_
_space_group_symop_operation_xyz
x,y,z
-x,y,1/2-z
-x,-y,-z
x,-y,1/2+z
1/2+x,1/2+y,z
1/2-x,1/2+y,1/2-z
1/2-x,1/2-y,-z
1/2+x,1/2-y,1/2+z
loop_
_atom_site_type_symbol
_atom_site_label
_atom_site_fract_x
_atom_site_fract_y
_atom_site_fract_z
Si Si1 0.258329 0.750937 0.642349
Si Si2 0.958715 0.570498 0.532518
Si Si3 0.474214 0.887544 0.666980
Si Si4 0.794176 0.198966 0.215080
Si Si5 0.149044 0.904564 0.345973
Si Si6 0.882457 0.274213 0.973950
Si Si7 0.325320 0.521329 0.496782
O O1 0.402457 0.809359 0.661641
O O2 0.200639 0.756322 0.709920
O O3 0.367073 0.679695 0.652910
O O4 0.078767 0.761593 0.542578
O O5 0.913495 0.641254 0.476697
O O6 0.777426 0.554054 0.527334
O O7 0.000000 0.500000 0.500000
O O8 0.146569 0.581908 0.629492
O O9 0.500000 0.928139 0.750000
O O10 0.675741 0.874179 0.688861
O O11 0.325075 0.926598 0.578298
O O12 0.704536 0.247348 0.126824
O O13 0.000000 0.176999 0.250000
O O14 0.114577 0.943475 0.411868
O O15 0.000000 0.935854 0.250000
O O16 0.750000 0.250000 0.000000
O O17 0.500000 0.500000 0.500000
#
# Coordination Sequence:
#
# PCOD8144252 Si02
#       7
#     8   8   8   8   8   8   8
#     4  10  22  41  62  99 132 166 212 276 334 397
#     4   9  21  42  61  88 130 170 217 266 323 394
#     4  10  23  41  65  94 133 166 217 276 334 389
#     4  11  21  37  62  97 131 170 217 271 329 403
#     4  10  21  42  66  91 130 173 210 261 336 390
#     4  11  22  38  66  93 128 169 219 277 334 381
#     4  11  25  43  65  94 127 172 222 269 313 395
#
# _framework density 21.672301999999998
#
# number of rings (size 3 to 8) (size 9 to 14) (size 15 to 20)
#    0.000    1.714    1.429    3.857    2.000    4.571 
#    0.000    6.429    0.000    0.000    0.000    0.000 
#    0.000    0.000    0.000    0.000    0.000    0.000 
#
# Total GULP energy -346868.752051 kJ/mol
# GULP energy per Si atom -12388.169716 kJ/mol
# Density = 2.162298 g / cm^3
# Si number density = 21.672302 Si / 1000 Ang^3
#
#
#
# Elastic Constant Matrix: (Units=GPa)
#
#
# Indices 1 2 3 4 5 6 
#
# 1 124.1270 17.3791 51.8657 0.0000 16.9921 0.0000
# 2 17.3791 69.3734 20.8808 0.0000 6.3090 0.0000
# 3 51.8657 20.8808 180.7132 0.0000 4.7720 0.0000
# 4 0.0000 0.0000 0.0000 14.4629 0.0000 5.8347
# 5 16.9921 6.3090 4.7720 0.0000 36.6718 0.0000
# 6 0.0000 0.0000 0.0000 5.8347 0.0000 25.5550
#
#
#
# Elastic Compliance Matrix: (Units=1/GPa)
#
#
# Indices 1 2 3 4 5 6 
#
# 1 0.009866 -0.001333 -0.002572 0.000000 -0.004008 0.000000
# 2 -0.001333 0.015319 -0.001339 0.000000 -0.001844 0.000000
# 3 -0.002572 -0.001339 0.006411 0.000000 0.000588 0.000000
# 4 0.000000 0.000000 0.000000 0.076157 0.000000 -0.017388
# 5 -0.004008 -0.001844 0.000588 0.000000 0.029366 0.000000
# 6 0.000000 0.000000 0.000000 -0.017388 0.000000 0.043101
#
#
# Mechanical properties :
#
#
# Convention : Reuss Voigt Hill
#
# Bulk Modulus (GPa) = 47.37306 61.60721 54.49013
# Shear Modulus (GPa) = 25.28505 34.27714 29.78109
#
# Velocity S-wave (km/s) = 3.41940 3.98126 3.71098
# Velocity P-wave (km/s) = 6.12340 7.04431 6.59994
#
# Compressibility (1/GPa) = 0.02110905
#
# Stress axis : x y z
#
# Youngs Moduli (GPa) = 101.35709 65.27694 155.98393
#
# Poissons Ratio (x) = 0.08702 0.40115
# Poissons Ratio (y) = 0.13512 0.20883
# Poissons Ratio (z) = 0.26067 0.08739
#
# Static dielectric constant tensor:
#      x y z
#    x 4.105080 0.000000 0.320960 
#    y 0.000000 3.978840 0.000000 
#    z 0.320960 0.000000 4.237980 
# 
# 
# High freq. dielectric constant tensor:
#      x y z
#    x 1.856100 0.000000 0.016350 
#    y 0.000000 1.828940 0.000000 
#    z 0.016350 0.000000 1.870400 
# 
# From -- ./inp_files/233923.got.cif
#   From: 2010.06.25/outbox.cif.g09.slc.cpg/sg15_117_cif.got.tgz:233923.got - 2010.06.28 07:06:18.
