data_PCOD8144155
_publ_section_title
;
Structure prediction by ZEFSAII (Michael W. Deem and Ramdas Pophale) SiO2 
 PCOD8144155
Probable space group: C 2/C
;
_chemical_formula_sum "Si O2"
_cell_formula_units_Z 64
_cell_length_a 26.516220
_cell_length_b 14.475166
_cell_length_c 8.827688
_cell_angle_alpha 90.000000
_cell_angle_beta 119.965466
_cell_angle_gamma 90.000000
_cell_volume 2935.376394
_symmetry_space_group_name_H-M "C 2/C"
_symmetry_group_IT_number 15
_symmetry_cell_setting 'monoclinic'
loop_
_space_group_symop_operation_xyz
x,y,z
-x,y,1/2-z
-x,-y,-z
x,-y,1/2+z
1/2+x,1/2+y,z
1/2-x,1/2+y,1/2-z
1/2-x,1/2-y,-z
1/2+x,1/2-y,1/2+z
loop_
_atom_site_type_symbol
_atom_site_label
_atom_site_fract_x
_atom_site_fract_y
_atom_site_fract_z
Si Si1 0.789549 0.469640 0.967581
Si Si2 0.133549 0.788275 0.504179
Si Si3 0.449070 0.279140 0.389011
Si Si4 0.148836 0.606692 0.661134
Si Si5 0.441971 0.596745 0.407720
Si Si6 0.400080 0.576895 0.016982
Si Si7 0.207836 0.949703 0.584580
Si Si8 0.013191 0.597830 0.446752
O O1 0.824331 0.399785 0.129469
O O2 0.755082 0.537359 0.026142
O O3 0.834528 0.522483 0.924574
O O4 0.741161 0.421423 0.789607
O O5 0.079676 0.760822 0.317120
O O6 0.171139 0.699827 0.612474
O O7 0.112010 0.840571 0.621740
O O8 0.172923 0.861238 0.472304
O O9 0.499025 0.355534 0.448770
O O10 0.401278 0.322163 0.434949
O O11 0.475623 0.178777 0.474486
O O12 0.080324 0.618778 0.576661
O O13 0.438290 0.588658 0.223205
O O14 0.436528 0.495125 0.470415
O O15 0.334410 0.539314 0.951835
O O16 0.000000 0.594100 0.250000
O O17 0.000000 0.500000 0.500000
#
# Coordination Sequence:
#
# PCOD8144155 Si02
#       8
#     8   8   8   8   8   8   8   8
#     4  10  23  43  70  89 128 170 230 273 340 379
#     4  11  22  40  67  93 137 170 222 269 336 398
#     4  12  23  41  62  99 134 180 216 266 329 411
#     4  11  23  44  67  96 123 174 220 283 328 400
#     4  11  22  39  59  97 139 181 215 264 322 405
#     4  11  23  38  68  97 140 176 218 261 333 407
#     4  10  21  42  64 100 130 174 209 278 330 399
#     4  12  25  45  69  94 132 175 220 280 336 385
#
# _framework density 21.802996
#
# number of rings (size 3 to 8) (size 9 to 14) (size 15 to 20)
#    0.000    1.000    2.500    5.625    0.000    4.000 
#    2.250    0.000    0.000    0.000    0.000    0.000 
#    0.000    0.000    0.000    0.000    0.000    0.000 
#
# Total GULP energy -396654.475395 kJ/mol
# GULP energy per Si atom -12395.452356 kJ/mol
# Density = 2.175337 g / cm^3
# Si number density = 21.802996 Si / 1000 Ang^3
#
#
#
# Elastic Constant Matrix: (Units=GPa)
#
#
# Indices 1 2 3 4 5 6 
#
# 1 47.2207 31.8910 26.4458 0.0000 4.7322 0.0000
# 2 31.8910 117.7089 35.1727 0.0000 4.9267 0.0000
# 3 26.4458 35.1727 129.8083 0.0000 3.3130 0.0000
# 4 0.0000 0.0000 0.0000 34.5730 0.0000 2.2540
# 5 4.7322 4.9267 3.3130 0.0000 35.1249 0.0000
# 6 0.0000 0.0000 0.0000 2.2540 0.0000 20.9612
#
#
#
# Elastic Compliance Matrix: (Units=1/GPa)
#
#
# Indices 1 2 3 4 5 6 
#
# 1 0.027855 -0.006273 -0.003911 0.000000 -0.002504 0.000000
# 2 -0.006273 0.010697 -0.001607 0.000000 -0.000504 0.000000
# 3 -0.003911 -0.001607 0.008938 0.000000 -0.000091 0.000000
# 4 0.000000 0.000000 0.000000 0.029129 0.000000 -0.003132
# 5 -0.002504 -0.000504 -0.000091 0.000000 0.028886 0.000000
# 6 0.000000 0.000000 0.000000 -0.003132 0.000000 0.048044
#
#
# Mechanical properties :
#
#
# Convention : Reuss Voigt Hill
#
# Bulk Modulus (GPa) = 41.83004 53.52854 47.67929
# Shear Modulus (GPa) = 27.01217 31.54705 29.27961
#
# Velocity S-wave (km/s) = 3.52365 3.80796 3.66856
# Velocity P-wave (km/s) = 5.98180 6.62860 6.31349
#
# Compressibility (1/GPa) = 0.02390626
#
# Stress axis : x y z
#
# Youngs Moduli (GPa) = 35.89983 93.48803 111.87745
#
# Poissons Ratio (x) = 0.58648 0.43758
# Poissons Ratio (y) = 0.22521 0.17983
# Poissons Ratio (z) = 0.14041 0.15027
#
# Static dielectric constant tensor:
#      x y z
#    x 4.033500 0.000000 0.129130 
#    y 0.000000 4.326570 0.000000 
#    z 0.129130 0.000000 4.541440 
# 
# 
# High freq. dielectric constant tensor:
#      x y z
#    x 1.852330 0.000000 0.002160 
#    y 0.000000 1.848340 0.000000 
#    z 0.002160 0.000000 1.867400 
# 
# From -- ./inp_files/70156.got.cif
#   From: 2010.06.25/outbox.cif.g09.slc.cpg/sg15_36_cif.got.tgz:70156.got - 2010.06.28 07:06:18.
