data_PCOD8144548
_publ_section_title
;
Structure prediction by ZEFSAII (Michael W. Deem and Ramdas Pophale) SiO2 
 PCOD8144548
Probable space group: C 2/C
;
_chemical_formula_sum "Si O2"
_cell_formula_units_Z 48
_cell_length_a 18.319205
_cell_length_b 8.911387
_cell_length_c 20.048975
_cell_angle_alpha 90.000000
_cell_angle_beta 137.451339
_cell_angle_gamma 90.000000
_cell_volume 2213.245689
_symmetry_space_group_name_H-M "C 2/C"
_symmetry_group_IT_number 15
_symmetry_cell_setting 'monoclinic'
loop_
_space_group_symop_operation_xyz
x,y,z
-x,y,1/2-z
-x,-y,-z
x,-y,1/2+z
1/2+x,1/2+y,z
1/2-x,1/2+y,1/2-z
1/2-x,1/2-y,-z
1/2+x,1/2-y,1/2+z
loop_
_atom_site_type_symbol
_atom_site_label
_atom_site_fract_x
_atom_site_fract_y
_atom_site_fract_z
Si Si1 0.800394 0.118840 0.991832
Si Si2 0.349946 0.866117 0.425356
Si Si3 0.884641 0.563784 0.186966
Si Si4 0.898403 0.181275 0.587059
Si Si5 0.079982 0.694419 0.029079
Si Si6 0.365471 0.728731 0.787315
O O1 0.896326 0.179800 0.010003
O O2 0.704230 0.061082 0.881347
O O3 0.750000 0.250000 0.000000
O O4 0.843462 0.979618 0.065024
O O5 0.342913 0.758023 0.484921
O O6 0.450901 0.814152 0.448154
O O7 0.241006 0.859399 0.308375
O O8 0.370517 0.036497 0.462828
O O9 0.875455 0.713153 0.134659
O O10 0.873307 0.610046 0.256481
O O11 0.000000 0.487006 0.250000
O O12 0.024258 0.143818 0.659297
O O13 0.138318 0.742369 0.136732
#
# Coordination Sequence:
#
# PCOD8144548 Si02
#       6
#     8   8   8   8   8   8
#     4  12  25  42  64  95 133 168 208 274 316 372
#     4  10  21  43  67  86 131 168 208 263 314 387
#     4  10  22  43  66  92 125 172 218 257 321 382
#     4  10  22  42  69  92 122 173 219 251 320 389
#     4  10  25  40  62  99 123 165 214 259 330 372
#     4  10  22  39  70  91 121 167 215 261 312 381
#
# _framework density 21.687605000000001
#
# number of rings (size 3 to 8) (size 9 to 14) (size 15 to 20)
#    0.000    1.667    1.667    1.500    4.667    5.333 
#    3.000    0.000    0.000    0.000    0.000    0.000 
#    0.000    0.000    0.000    0.000    0.000    0.000 
#
# Total GULP energy -297578.288095 kJ/mol
# GULP energy per Si atom -12399.095337 kJ/mol
# Density = 2.163824 g / cm^3
# Si number density = 21.687605 Si / 1000 Ang^3
#
#
#
# Elastic Constant Matrix: (Units=GPa)
#
#
# Indices 1 2 3 4 5 6 
#
# 1 66.6308 21.3071 16.8900 0.0000 6.9148 0.0000
# 2 21.3071 83.4880 12.9810 0.0000 7.9909 0.0000
# 3 16.8900 12.9810 89.2643 0.0000 22.6181 0.0000
# 4 0.0000 0.0000 0.0000 20.7995 0.0000 15.0953
# 5 6.9148 7.9909 22.6181 0.0000 42.2268 0.0000
# 6 0.0000 0.0000 0.0000 15.0953 0.0000 29.3306
#
#
#
# Elastic Compliance Matrix: (Units=1/GPa)
#
#
# Indices 1 2 3 4 5 6 
#
# 1 0.016945 -0.003873 -0.002459 0.000000 -0.000725 0.000000
# 2 -0.003873 0.013232 -0.000830 0.000000 -0.001425 0.000000
# 3 -0.002459 -0.000830 0.013476 0.000000 -0.006658 0.000000
# 4 0.000000 0.000000 0.000000 0.076743 0.000000 -0.039497
# 5 -0.000725 -0.001425 -0.006658 0.000000 0.027636 0.000000
# 6 0.000000 0.000000 0.000000 -0.039497 0.000000 0.054421
#
#
# Mechanical properties :
#
#
# Convention : Reuss Voigt Hill
#
# Bulk Modulus (GPa) = 34.09773 37.97106 36.03440
# Shear Modulus (GPa) = 22.06973 31.01836 26.54404
#
# Velocity S-wave (km/s) = 3.19348 3.78595 3.50226
# Velocity P-wave (km/s) = 5.41794 6.05453 5.74506
#
# Compressibility (1/GPa) = 0.02932746
#
# Stress axis : x y z
#
# Youngs Moduli (GPa) = 59.01388 75.57629 74.20660
#
# Poissons Ratio (x) = 0.29270 0.18251
# Poissons Ratio (y) = 0.22855 0.06162
# Poissons Ratio (z) = 0.14514 0.06275
#
# Static dielectric constant tensor:
#      x y z
#    x 3.962500 0.000000 0.430290 
#    y 0.000000 2.632400 0.000000 
#    z 0.430290 0.000000 3.257470 
# 
# 
# High freq. dielectric constant tensor:
#      x y z
#    x 1.865390 0.000000 0.015700 
#    y 0.000000 1.833810 0.000000 
#    z 0.015700 0.000000 1.855370 
# 
# From -- ./inp_files/247643.got.cif
#   From: 2010.06.25/outbox.cif.g09.slc.cpg/sg15_124_cif.got.tgz:247643.got - 2010.06.28 07:06:18.
