data_PCOD8144584
_publ_section_title
;
Structure prediction by ZEFSAII (Michael W. Deem and Ramdas Pophale) SiO2 
 PCOD8144584
Probable space group: C 2/C
;
_chemical_formula_sum "Si O2"
_cell_formula_units_Z 40
_cell_length_a 13.342495
_cell_length_b 4.993112
_cell_length_c 30.278959
_cell_angle_alpha 90.000000
_cell_angle_beta 77.048956
_cell_angle_gamma 90.000000
_cell_volume 1965.887824
_symmetry_space_group_name_H-M "C 2/C"
_symmetry_group_IT_number 15
_symmetry_cell_setting 'monoclinic'
loop_
_space_group_symop_operation_xyz
x,y,z
-x,y,1/2-z
-x,-y,-z
x,-y,1/2+z
1/2+x,1/2+y,z
1/2-x,1/2+y,1/2-z
1/2-x,1/2-y,-z
1/2+x,1/2-y,1/2+z
loop_
_atom_site_type_symbol
_atom_site_label
_atom_site_fract_x
_atom_site_fract_y
_atom_site_fract_z
Si Si1 0.119731 0.927336 0.659745
Si Si2 0.820864 0.971307 0.445186
Si Si3 0.500916 0.942827 0.698529
Si Si4 0.225897 0.293018 0.780625
Si Si5 0.388891 0.980895 0.489112
O O1 0.164263 0.959605 0.606922
O O2 0.028158 0.709600 0.668363
O O3 0.208393 0.809002 0.681693
O O4 0.083222 0.209892 0.682502
O O5 0.874996 0.184973 0.471609
O O6 0.698434 0.955784 0.465748
O O7 0.876086 0.689703 0.450127
O O8 0.500000 0.021324 0.750000
O O9 0.390254 0.847526 0.693211
O O10 0.266016 0.494368 0.739157
O O11 0.500000 0.000000 0.500000
#
# Coordination Sequence:
#
# PCOD8144584 Si02
#       5
#     8   8   8   8   8
#     4  12  24  40  60  93 127 156 213 258 290 364
#     4  10  23  39  63  96 123 158 200 254 305 361
#     4  12  23  40  63  84 122 170 207 254 303 348
#     4  12  23  39  61  85 116 166 209 248 302 349
#     4  10  21  43  68  89 125 160 195 246 317 376
#
# _framework density 20.347041000000001
#
# number of rings (size 3 to 8) (size 9 to 14) (size 15 to 20)
#    0.000    0.800    4.000    3.600    0.000    3.200 
#    0.000    0.000    0.000    0.000    0.000    0.000 
#    0.000    0.000    0.000    0.000    0.000    0.000 
#
# Total GULP energy -248147.939505 kJ/mol
# GULP energy per Si atom -12407.396975 kJ/mol
# Density = 2.030073 g / cm^3
# Si number density = 20.347041 Si / 1000 Ang^3
#
#
#
# Elastic Constant Matrix: (Units=GPa)
#
#
# Indices 1 2 3 4 5 6 
#
# 1 124.0306 2.0893 29.3522 -0.0003 -3.2005 -0.0005
# 2 2.0893 75.6854 1.3296 -0.0008 -9.2991 -0.0020
# 3 29.3522 1.3296 86.4469 -0.0005 -2.6462 -0.0002
# 4 -0.0003 -0.0008 -0.0005 22.2068 0.0000 -2.7273
# 5 -3.2005 -9.2991 -2.6462 0.0000 18.0583 -0.0001
# 6 -0.0005 -0.0020 -0.0002 -2.7273 -0.0001 27.0998
#
#
#
# Elastic Compliance Matrix: (Units=1/GPa)
#
#
# Indices 1 2 3 4 5 6 
#
# 1 0.008790 -0.000056 -0.002950 0.000000 0.001097 0.000000
# 2 -0.000056 0.014105 0.000024 0.000001 0.007257 0.000001
# 3 -0.002950 0.000024 0.012610 0.000000 0.001337 0.000000
# 4 0.000000 0.000001 0.000000 0.045595 0.000001 0.004589
# 5 0.001097 0.007257 0.001337 0.000001 0.059504 0.000001
# 6 0.000000 0.000001 0.000000 0.004589 0.000001 0.037362
#
#
# Mechanical properties :
#
#
# Convention : Reuss Voigt Hill
#
# Bulk Modulus (GPa) = 33.85073 39.07834 36.46453
# Shear Modulus (GPa) = 25.80282 30.36577 28.08429
#
# Velocity S-wave (km/s) = 3.56495 3.86734 3.71922
# Velocity P-wave (km/s) = 5.79810 6.26014 6.03355
#
# Compressibility (1/GPa) = 0.02954146
#
# Stress axis : x y z
#
# Youngs Moduli (GPa) = 113.76671 70.89496 79.30192
#
# Poissons Ratio (x) = 0.00398 0.23395
# Poissons Ratio (y) = 0.00638 -0.00192
# Poissons Ratio (z) = 0.33562 -0.00172
#
# Static dielectric constant tensor:
#      x y z
#    x 3.794680 0.000000 -0.203740 
#    y 0.000000 3.932150 0.000000 
#    z -0.203740 0.000000 3.579320 
# 
# 
# High freq. dielectric constant tensor:
#      x y z
#    x 1.800570 0.000000 -0.007610 
#    y 0.000000 1.817090 0.000000 
#    z -0.007610 0.000000 1.783160 
# 
# From -- ./inp_files/120759.got.cif
#   From: 2010.06.25/outbox.cif.g09.slc.cpg/sg15_61_cif.got.tgz:120759.got - 2010.06.28 07:06:18.
