data_PCOD8144210
_publ_section_title
;
Structure prediction by ZEFSAII (Michael W. Deem and Ramdas Pophale) SiO2 
 PCOD8144210
Probable space group: C 2/C
;
_chemical_formula_sum "Si O2"
_cell_formula_units_Z 60
_cell_length_a 10.504387
_cell_length_b 22.281342
_cell_length_c 15.413097
_cell_angle_alpha 90.000000
_cell_angle_beta 124.246266
_cell_angle_gamma 90.000000
_cell_volume 2982.024825
_symmetry_space_group_name_H-M "C 2/C"
_symmetry_group_IT_number 15
_symmetry_cell_setting 'monoclinic'
loop_
_space_group_symop_operation_xyz
x,y,z
-x,y,1/2-z
-x,-y,-z
x,-y,1/2+z
1/2+x,1/2+y,z
1/2-x,1/2+y,1/2-z
1/2-x,1/2-y,-z
1/2+x,1/2-y,1/2+z
loop_
_atom_site_type_symbol
_atom_site_label
_atom_site_fract_x
_atom_site_fract_y
_atom_site_fract_z
Si Si1 0.210104 0.750385 0.086888
Si Si2 0.364765 0.117796 0.389338
Si Si3 0.144034 0.545699 0.423673
Si Si4 0.500000 0.180811 0.750000
Si Si5 0.115764 0.414061 0.409790
Si Si6 0.430787 0.369435 0.461157
Si Si7 0.539965 0.544502 0.865311
Si Si8 0.343040 0.569415 0.336797
O O1 0.150214 0.689367 0.107103
O O2 0.355616 0.774787 0.196218
O O3 0.073541 0.797785 0.048251
O O4 0.250000 0.750000 0.000000
O O5 0.529043 0.097342 0.413282
O O6 0.342525 0.090671 0.474515
O O7 0.224684 0.090944 0.280173
O O8 0.055467 0.482268 0.373416
O O9 0.279037 0.532414 0.546341
O O10 0.207651 0.566055 0.355362
O O11 0.508538 0.136037 0.668853
O O12 0.264955 0.400265 0.409004
O O13 0.503507 0.393915 0.400619
O O14 0.534345 0.381702 0.585111
O O15 0.500000 0.552747 0.750000
O O16 0.433338 0.492977 0.864625
#
# Coordination Sequence:
#
# PCOD8144210 Si02
#       8
#     8   8   8   4   8   8   8   8
#     4  11  24  44  62  94 130 172 226 271 318 385
#     4  12  26  37  64  99 132 169 222 270 323 398
#     4  11  23  43  60 100 140 165 208 275 345 392
#     4  10  24  38  68  88 132 178 214 276 326 374
#     4  11  21  40  64  97 129 164 214 276 335 381
#     4  10  21  42  65  92 129 169 220 271 321 388
#     4  11  22  41  69  96 127 177 219 265 327 412
#     4  11  23  40  68  93 131 174 208 270 334 400
#
# _framework density 20.120557000000002
#
# number of rings (size 3 to 8) (size 9 to 14) (size 15 to 20)
#    0.000    1.067    5.333    2.400    3.733    2.133 
#    0.000    4.000    0.000    0.000    0.000    0.000 
#    0.000    0.000    0.000    0.000    0.000    0.000 
#
# Total GULP energy -371912.592705 kJ/mol
# GULP energy per Si atom -12397.086423 kJ/mol
# Density = 2.007476 g / cm^3
# Si number density = 20.120557 Si / 1000 Ang^3
#
#
#
# Elastic Constant Matrix: (Units=GPa)
#
#
# Indices 1 2 3 4 5 6 
#
# 1 71.8116 52.7758 26.0795 0.0000 7.8389 0.0000
# 2 52.7758 164.9459 36.8285 0.0000 8.5875 0.0000
# 3 26.0795 36.8285 120.7057 0.0000 2.5305 0.0000
# 4 0.0000 0.0000 0.0000 32.4947 0.0000 2.9297
# 5 7.8389 8.5875 2.5305 0.0000 24.4794 0.0000
# 6 0.0000 0.0000 0.0000 2.9297 0.0000 40.9116
#
#
#
# Elastic Compliance Matrix: (Units=1/GPa)
#
#
# Indices 1 2 3 4 5 6 
#
# 1 0.019208 -0.005397 -0.002419 0.000000 -0.004007 0.000000
# 2 -0.005397 0.008130 -0.001294 0.000000 -0.000990 0.000000
# 3 -0.002419 -0.001294 0.009196 0.000000 0.000278 0.000000
# 4 0.000000 0.000000 0.000000 0.030974 0.000000 -0.002218
# 5 -0.004007 -0.000990 0.000278 0.000000 0.042453 0.000000
# 6 0.000000 0.000000 0.000000 -0.002218 0.000000 0.024602
#
#
# Mechanical properties :
#
#
# Convention : Reuss Voigt Hill
#
# Bulk Modulus (GPa) = 54.60330 65.42564 60.01447
# Shear Modulus (GPa) = 31.46899 35.69574 33.58237
#
# Velocity S-wave (km/s) = 3.95906 4.21657 4.08984
# Velocity P-wave (km/s) = 6.93512 7.50289 7.22458
#
# Compressibility (1/GPa) = 0.01831391
#
# Stress axis : x y z
#
# Youngs Moduli (GPa) = 52.06265 123.00513 108.74027
#
# Poissons Ratio (x) = 0.66384 0.26308
# Poissons Ratio (y) = 0.28097 0.14068
# Poissons Ratio (z) = 0.12596 0.15913
#
# Static dielectric constant tensor:
#      x y z
#    x 3.507140 0.000000 0.136930 
#    y 0.000000 3.870110 0.000000 
#    z 0.136930 0.000000 3.911060 
# 
# 
# High freq. dielectric constant tensor:
#      x y z
#    x 1.764970 0.000000 0.006020 
#    y 0.000000 1.788160 0.000000 
#    z 0.006020 0.000000 1.803090 
# 
# From -- ./inp_files/147201.got.cif
#   From: 2010.06.25/outbox.cif.g09.slc.cpg/sg15_74_cif.got.tgz:147201.got - 2010.06.28 07:06:18.
