data_PCOD8144687
_publ_section_title
;
Structure prediction by ZEFSAII (Michael W. Deem and Ramdas Pophale) SiO2 
 PCOD8144687
Probable space group: C 2/C
;
_chemical_formula_sum "Si O2"
_cell_formula_units_Z 52
_cell_length_a 22.147559
_cell_length_b 16.516329
_cell_length_c 8.819721
_cell_angle_alpha 90.000000
_cell_angle_beta 131.575875
_cell_angle_gamma 90.000000
_cell_volume 2413.464289
_symmetry_space_group_name_H-M "C 2/C"
_symmetry_group_IT_number 15
_symmetry_cell_setting 'monoclinic'
loop_
_space_group_symop_operation_xyz
x,y,z
-x,y,1/2-z
-x,-y,-z
x,-y,1/2+z
1/2+x,1/2+y,z
1/2-x,1/2+y,1/2-z
1/2-x,1/2-y,-z
1/2+x,1/2-y,1/2+z
loop_
_atom_site_type_symbol
_atom_site_label
_atom_site_fract_x
_atom_site_fract_y
_atom_site_fract_z
Si Si1 0.130672 0.109209 0.673613
Si Si2 0.264208 0.827119 0.208213
Si Si3 0.093267 0.965376 0.415526
Si Si4 0.063345 0.602970 0.575229
Si Si5 0.500000 0.972026 0.250000
Si Si6 0.002892 0.232185 0.579143
Si Si7 0.835624 0.165702 0.251308
O O1 0.220798 0.141597 0.788964
O O2 0.132270 0.045899 0.815247
O O3 0.077589 0.188660 0.621947
O O4 0.095485 0.058888 0.471569
O O5 0.349886 0.867453 0.330245
O O6 0.277173 0.730134 0.240182
O O7 0.206175 0.855946 0.975863
O O8 0.148322 0.912984 0.620974
O O9 0.000000 0.936537 0.250000
O O10 0.060791 0.582763 0.750575
O O11 0.993112 0.669992 0.425751
O O12 0.050620 0.524011 0.452989
O O13 0.921601 0.206312 0.357200
O O14 0.000000 0.205668 0.750000
#
# Coordination Sequence:
#
# PCOD8144687 Si02
#       7
#     8   8   8   8   4   8   8
#     4  12  25  40  65 100 135 180 223 268 345 387
#     4  10  25  41  64  99 136 174 209 281 334 403
#     4  12  24  41  64  97 132 178 229 282 318 397
#     4  10  23  44  70  99 129 165 226 274 335 386
#     4  10  22  44  76  96 122 172 220 280 322 400
#     4  11  21  42  68  94 128 177 227 273 313 405
#     4  10  21  44  63  89 137 171 222 273 323 390
#
# _framework density 21.545791999999999
#
# number of rings (size 3 to 8) (size 9 to 14) (size 15 to 20)
#    0.000    1.231    3.846    1.385    2.154    6.769 
#    0.000    3.077    0.000    0.000    0.000    0.000 
#    0.000    0.000    0.000    0.000    0.000    0.000 
#
# Total GULP energy -322324.110874 kJ/mol
# GULP energy per Si atom -12397.081187 kJ/mol
# Density = 2.149675 g / cm^3
# Si number density = 21.545792 Si / 1000 Ang^3
#
#
#
# Elastic Constant Matrix: (Units=GPa)
#
#
# Indices 1 2 3 4 5 6 
#
# 1 173.3579 70.5317 38.6839 0.0000 -5.7925 0.0000
# 2 70.5317 103.9912 27.8224 0.0000 -3.2385 0.0000
# 3 38.6839 27.8224 74.5340 0.0000 5.1619 0.0000
# 4 0.0000 0.0000 0.0000 34.0386 0.0000 -3.1381
# 5 -5.7925 -3.2385 5.1619 0.0000 23.3419 0.0000
# 6 0.0000 0.0000 0.0000 -3.1381 0.0000 33.9375
#
#
#
# Elastic Compliance Matrix: (Units=1/GPa)
#
#
# Indices 1 2 3 4 5 6 
#
# 1 0.008446 -0.004951 -0.002674 0.000000 0.002000 0.000000
# 2 -0.004951 0.013719 -0.002639 0.000000 0.001258 0.000000
# 3 -0.002674 -0.002639 0.016108 0.000000 -0.004592 0.000000
# 4 0.000000 0.000000 0.000000 0.029631 0.000000 0.002740
# 5 0.002000 0.001258 -0.004592 0.000000 0.044528 0.000000
# 6 0.000000 0.000000 0.000000 0.002740 0.000000 0.029719
#
#
# Mechanical properties :
#
#
# Convention : Reuss Voigt Hill
#
# Bulk Modulus (GPa) = 56.35217 69.55101 62.95159
# Shear Modulus (GPa) = 29.65696 32.58660 31.12178
#
# Velocity S-wave (km/s) = 3.71410 3.89322 3.80471
# Velocity P-wave (km/s) = 6.67863 7.24984 6.97009
#
# Compressibility (1/GPa) = 0.01774554
#
# Stress axis : x y z
#
# Youngs Moduli (GPa) = 118.39516 72.88982 62.08228
#
# Poissons Ratio (x) = 0.36087 0.16602
# Poissons Ratio (y) = 0.58616 0.16382
# Poissons Ratio (z) = 0.31661 0.19234
#
# Static dielectric constant tensor:
#      x y z
#    x 4.029840 0.000000 -0.101630 
#    y 0.000000 4.152890 0.000000 
#    z -0.101630 0.000000 3.763800 
# 
# 
# High freq. dielectric constant tensor:
#      x y z
#    x 1.836980 0.000000 -0.009070 
#    y 0.000000 1.861670 0.000000 
#    z -0.009070 0.000000 1.834000 
# 
# From -- ./inp_files/57067.got.cif
#   From: 2010.06.25/outbox.cif.g09.slc.cpg/sg15_29_cif.got.tgz:57067.got - 2010.06.28 07:06:18.
