data_PCOD8144128
_publ_section_title
;
Structure prediction by ZEFSAII (Michael W. Deem and Ramdas Pophale) SiO2 
 PCOD8144128
Probable space group: C 2/C
;
_chemical_formula_sum "Si O2"
_cell_formula_units_Z 52
_cell_length_a 19.227232
_cell_length_b 14.092779
_cell_length_c 8.947589
_cell_angle_alpha 90.000000
_cell_angle_beta 83.245256
_cell_angle_gamma 90.000000
_cell_volume 2407.655606
_symmetry_space_group_name_H-M "C 2/C"
_symmetry_group_IT_number 15
_symmetry_cell_setting 'monoclinic'
loop_
_space_group_symop_operation_xyz
x,y,z
-x,y,1/2-z
-x,-y,-z
x,-y,1/2+z
1/2+x,1/2+y,z
1/2-x,1/2+y,1/2-z
1/2-x,1/2-y,-z
1/2+x,1/2-y,1/2+z
loop_
_atom_site_type_symbol
_atom_site_label
_atom_site_fract_x
_atom_site_fract_y
_atom_site_fract_z
Si Si1 0.253735 0.723935 0.323699
Si Si2 0.155138 0.436992 0.781992
Si Si3 0.369710 0.491869 0.969834
Si Si4 0.500000 0.203347 0.750000
Si Si5 0.566763 0.031715 0.573727
Si Si6 0.723830 0.423520 0.256511
Si Si7 0.599053 0.633895 0.292593
O O1 0.250000 0.750000 0.500000
O O2 0.184101 0.669911 0.282110
O O3 0.256445 0.819637 0.226549
O O4 0.320303 0.659857 0.263606
O O5 0.085878 0.453937 0.696585
O O6 0.214353 0.507452 0.708744
O O7 0.135031 0.463705 0.955259
O O8 0.333273 0.420460 0.096094
O O9 0.409940 0.573313 0.053385
O O10 0.310036 0.543349 0.888746
O O11 0.422085 0.431479 0.847523
O O12 0.549991 0.137173 0.638303
O O13 0.448248 0.273097 0.672037
O O14 0.500000 0.000000 0.500000
#
# Coordination Sequence:
#
# PCOD8144128 Si02
#       7
#     8   8   8   4   8   8   8
#     4  12  22  37  67 103 130 178 224 284 351 403
#     4  12  23  42  71  95 136 181 222 286 351 397
#     4  10  21  42  62  96 131 170 216 293 344 399
#     4  12  26  48  68  94 136 190 236 272 334 426
#     4  12  26  46  65  95 136 185 228 276 338 419
#     4  11  21  39  62  99 137 164 219 280 351 410
#     4  11  24  42  69  93 136 175 233 279 344 412
#
# _framework density 21.597771999999999
#
# number of rings (size 3 to 8) (size 9 to 14) (size 15 to 20)
#    0.000    0.615    6.154    3.692    0.000    2.462 
#    0.000    0.000    0.000    0.000    0.000    0.000 
#    0.000    0.000    0.000    0.000    0.000    0.000 
#
# Total GULP energy -322289.688997 kJ/mol
# GULP energy per Si atom -12395.757269 kJ/mol
# Density = 2.154861 g / cm^3
# Si number density = 21.597772 Si / 1000 Ang^3
#
#
#
# Elastic Constant Matrix: (Units=GPa)
#
#
# Indices 1 2 3 4 5 6 
#
# 1 60.6757 30.0671 21.6398 0.0000 23.9571 0.0000
# 2 30.0671 130.1537 32.9124 0.0000 27.3701 0.0000
# 3 21.6398 32.9124 87.2876 0.0000 19.9021 0.0000
# 4 0.0000 0.0000 0.0000 32.2860 0.0000 4.8138
# 5 23.9571 27.3701 19.9021 0.0000 29.7956 0.0000
# 6 0.0000 0.0000 0.0000 4.8138 0.0000 40.7488
#
#
#
# Elastic Compliance Matrix: (Units=1/GPa)
#
#
# Indices 1 2 3 4 5 6 
#
# 1 0.024685 -0.001679 -0.001549 0.000000 -0.017271 0.000000
# 2 -0.001679 0.009907 -0.001831 0.000000 -0.006527 0.000000
# 3 -0.001549 -0.001831 0.013995 0.000000 -0.006421 0.000000
# 4 0.000000 0.000000 0.000000 0.031528 0.000000 -0.003725
# 5 -0.017271 -0.006527 -0.006421 0.000000 0.057733 0.000000
# 6 0.000000 0.000000 0.000000 -0.003725 0.000000 0.024981
#
#
# Mechanical properties :
#
#
# Convention : Reuss Voigt Hill
#
# Bulk Modulus (GPa) = 25.99503 49.70619 37.85061
# Shear Modulus (GPa) = 26.91521 33.46592 30.19057
#
# Velocity S-wave (km/s) = 3.53399 3.94065 3.74285
# Velocity P-wave (km/s) = 5.35857 6.61585 6.02012
#
# Compressibility (1/GPa) = 0.03846890
#
# Stress axis : x y z
#
# Youngs Moduli (GPa) = 40.51109 100.94170 71.45590
#
# Poissons Ratio (x) = 0.16947 0.11067
# Poissons Ratio (y) = 0.06801 0.13083
# Poissons Ratio (z) = 0.06274 0.18481
#
# Static dielectric constant tensor:
#      x y z
#    x 3.818580 0.000000 -0.059930 
#    y 0.000000 4.190310 0.000000 
#    z -0.059930 0.000000 4.282260 
# 
# 
# High freq. dielectric constant tensor:
#      x y z
#    x 1.839490 0.000000 0.000570 
#    y 0.000000 1.853920 0.000000 
#    z 0.000570 0.000000 1.848930 
# 
# From -- ./inp_files/55308.got.cif
#   From: 2010.06.25/outbox.cif.g09.slc.cpg/sg15_28_cif.got.tgz:55308.got - 2010.06.28 07:06:18.
