data_PCOD8144697
_publ_section_title
;
Structure prediction by ZEFSAII (Michael W. Deem and Ramdas Pophale) SiO2 
 PCOD8144697
Probable space group: C 2/C
;
_chemical_formula_sum "Si O2"
_cell_formula_units_Z 64
_cell_length_a 15.565679
_cell_length_b 14.642682
_cell_length_c 16.701636
_cell_angle_alpha 90.000000
_cell_angle_beta 50.033014
_cell_angle_gamma 90.000000
_cell_volume 2917.504514
_symmetry_space_group_name_H-M "C 2/C"
_symmetry_group_IT_number 15
_symmetry_cell_setting 'monoclinic'
loop_
_space_group_symop_operation_xyz
x,y,z
-x,y,1/2-z
-x,-y,-z
x,-y,1/2+z
1/2+x,1/2+y,z
1/2-x,1/2+y,1/2-z
1/2-x,1/2-y,-z
1/2+x,1/2-y,1/2+z
loop_
_atom_site_type_symbol
_atom_site_label
_atom_site_fract_x
_atom_site_fract_y
_atom_site_fract_z
Si Si1 0.499865 0.065904 0.154003
Si Si2 0.354474 0.484762 0.012621
Si Si3 0.250328 0.310880 0.138808
Si Si4 0.081501 0.885608 0.901872
Si Si5 0.875413 0.148806 0.298687
Si Si6 0.865403 0.587616 0.654192
Si Si7 0.273126 0.991069 0.053915
Si Si8 0.522527 0.211221 0.464593
O O1 0.500000 0.079479 0.250000
O O2 0.493008 0.165422 0.114408
O O3 0.396609 0.004168 0.184233
O O4 0.609418 0.008583 0.063282
O O5 0.278924 0.393537 0.062698
O O6 0.332714 0.549214 0.102140
O O7 0.481527 0.451347 0.931953
O O8 0.319848 0.543813 0.954903
O O9 0.149529 0.252896 0.157980
O O10 0.211072 0.347501 0.247621
O O11 0.350262 0.238800 0.094214
O O12 0.139578 0.847812 0.788224
O O13 0.047727 0.805004 0.983455
O O14 0.775321 0.089643 0.394332
O O15 0.000000 0.118145 0.250000
O O16 0.784267 0.568275 0.627051
O O17 0.979216 0.637125 0.555609
#
# Coordination Sequence:
#
# PCOD8144697 Si02
#       8
#     8   8   8   8   8   8   8   8
#     4  11  24  44  68  97 134 177 225 274 329 398
#     4  10  22  40  64  93 125 175 218 265 333 394
#     4  11  23  39  65  95 129 178 213 269 343 390
#     4  10  21  44  65  88 137 169 219 278 325 384
#     4  12  23  39  63 103 135 170 219 279 331 401
#     4  11  22  43  65  98 130 172 222 273 332 397
#     4  11  23  41  67  98 129 176 219 271 335 399
#     4  10  22  45  66  97 131 173 220 279 330 389
#
# _framework density 21.936556
#
# number of rings (size 3 to 8) (size 9 to 14) (size 15 to 20)
#    0.000    1.250    2.500    4.500    0.000    3.000 
#    4.500    1.250    0.000    0.000    0.000    0.000 
#    0.000    0.000    0.000    0.000    0.000    0.000 
#
# Total GULP energy -396484.337832 kJ/mol
# GULP energy per Si atom -12390.135557 kJ/mol
# Density = 2.188663 g / cm^3
# Si number density = 21.936556 Si / 1000 Ang^3
#
#
#
# Elastic Constant Matrix: (Units=GPa)
#
#
# Indices 1 2 3 4 5 6 
#
# 1 101.7966 54.6743 39.2457 0.0000 15.2484 0.0000
# 2 54.6743 83.7032 24.0831 0.0000 -3.9018 0.0000
# 3 39.2457 24.0831 86.0934 0.0000 6.1273 0.0000
# 4 0.0000 0.0000 0.0000 29.6740 0.0000 -2.6626
# 5 15.2484 -3.9018 6.1273 0.0000 27.6594 0.0000
# 6 0.0000 0.0000 0.0000 -2.6626 0.0000 28.0277
#
#
#
# Elastic Compliance Matrix: (Units=1/GPa)
#
#
# Indices 1 2 3 4 5 6 
#
# 1 0.020011 -0.012213 -0.004875 0.000000 -0.011675 0.000000
# 2 -0.012213 0.020645 -0.000909 0.000000 0.009846 0.000000
# 3 -0.004875 -0.000909 0.014132 0.000000 -0.000571 0.000000
# 4 0.000000 0.000000 0.000000 0.033989 0.000000 0.003229
# 5 -0.011675 0.009846 -0.000571 0.000000 0.044106 0.000000
# 6 0.000000 0.000000 0.000000 0.003229 0.000000 0.035986
#
#
# Mechanical properties :
#
#
# Convention : Reuss Voigt Hill
#
# Bulk Modulus (GPa) = 53.20354 56.39994 54.80174
# Shear Modulus (GPa) = 23.68249 27.31157 25.49703
#
# Velocity S-wave (km/s) = 3.28928 3.53232 3.41296
# Velocity P-wave (km/s) = 6.22349 6.51173 6.36924
#
# Compressibility (1/GPa) = 0.01879574
#
# Stress axis : x y z
#
# Youngs Moduli (GPa) = 49.97228 48.43873 70.75980
#
# Poissons Ratio (x) = 0.59157 0.34494
# Poissons Ratio (y) = 0.61030 0.06429
# Poissons Ratio (z) = 0.24361 0.04401
#
# Static dielectric constant tensor:
#      x y z
#    x 3.993960 0.000000 0.104980 
#    y 0.000000 3.987220 0.000000 
#    z 0.104980 0.000000 4.069290 
# 
# 
# High freq. dielectric constant tensor:
#      x y z
#    x 1.854860 0.000000 0.003890 
#    y 0.000000 1.857080 0.000000 
#    z 0.003890 0.000000 1.873540 
# 
# From -- ./inp_files/205700.got.cif
#   From: 2010.06.25/outbox.cif.g09.slc.cpg/sg15_103_cif.got.tgz:205700.got - 2010.06.28 07:06:18.
