data_PCOD8144503
_publ_section_title
;
Structure prediction by ZEFSAII (Michael W. Deem and Ramdas Pophale) SiO2 
 PCOD8144503
Probable space group: C 2/C
;
_chemical_formula_sum "Si O2"
_cell_formula_units_Z 60
_cell_length_a 13.767860
_cell_length_b 11.308172
_cell_length_c 18.151554
_cell_angle_alpha 90.000000
_cell_angle_beta 97.580143
_cell_angle_gamma 90.000000
_cell_volume 2801.307715
_symmetry_space_group_name_H-M "C 2/C"
_symmetry_group_IT_number 15
_symmetry_cell_setting 'monoclinic'
loop_
_space_group_symop_operation_xyz
x,y,z
-x,y,1/2-z
-x,-y,-z
x,-y,1/2+z
1/2+x,1/2+y,z
1/2-x,1/2+y,1/2-z
1/2-x,1/2-y,-z
1/2+x,1/2-y,1/2+z
loop_
_atom_site_type_symbol
_atom_site_label
_atom_site_fract_x
_atom_site_fract_y
_atom_site_fract_z
Si Si1 0.204465 0.719274 0.378815
Si Si2 0.397941 0.360235 0.249680
Si Si3 0.104533 0.639567 0.149378
Si Si4 0.199553 0.907823 0.747536
Si Si5 0.173052 0.355022 0.502013
Si Si6 0.501408 0.094184 0.882304
Si Si7 0.000000 0.773014 0.750000
Si Si8 0.163706 0.609449 0.517760
O O1 0.132886 0.809641 0.332209
O O2 0.266914 0.645819 0.326284
O O3 0.142888 0.636995 0.428964
O O4 0.277906 0.788612 0.437486
O O5 0.500000 0.430278 0.250000
O O6 0.422741 0.254151 0.307182
O O7 0.317810 0.452823 0.270756
O O8 0.214637 0.599773 0.183660
O O9 0.104545 0.679910 0.064220
O O10 0.025060 0.534406 0.156160
O O11 0.099777 0.849138 0.769328
O O12 0.250000 0.250000 0.500000
O O13 0.221070 0.482956 0.527633
O O14 0.112099 0.382042 0.421067
O O15 0.479337 0.192931 0.819370
O O16 0.438849 0.102319 0.950665
#
# Coordination Sequence:
#
# PCOD8144503 Si02
#       8
#     8   8   8   8   8   8   4   8
#     4  10  23  41  68  90 128 176 214 267 334 393
#     4  11  24  38  64  97 131 165 216 276 327 394
#     4  10  24  41  66  92 131 172 223 271 331 397
#     4  11  23  44  64  96 135 173 220 273 338 402
#     4  11  24  41  64  98 132 171 215 278 331 393
#     4  11  24  41  68  93 132 169 225 272 327 400
#     4  12  24  42  66  96 130 178 220 272 344 394
#     4  10  21  43  65  93 127 171 223 266 327 397
#
# _framework density 21.418569000000002
#
# number of rings (size 3 to 8) (size 9 to 14) (size 15 to 20)
#    0.000    1.333    2.000    4.000    8.400    1.067 
#    0.000    0.000    0.000    4.800    0.000    0.000 
#    0.000    0.000    0.000    0.000    0.000    0.000 
#
# Total GULP energy -371719.903120 kJ/mol
# GULP energy per Si atom -12390.663437 kJ/mol
# Density = 2.136982 g / cm^3
# Si number density = 21.418569 Si / 1000 Ang^3
#
#
#
# Elastic Constant Matrix: (Units=GPa)
#
#
# Indices 1 2 3 4 5 6 
#
# 1 83.1271 41.8901 27.0594 0.0000 9.4322 0.0000
# 2 41.8901 115.8996 44.0512 0.0000 3.3360 0.0000
# 3 27.0594 44.0512 106.4763 0.0000 1.6462 0.0000
# 4 0.0000 0.0000 0.0000 -2.1624 0.0000 17.2892
# 5 9.4322 3.3360 1.6462 0.0000 36.3622 0.0000
# 6 0.0000 0.0000 0.0000 17.2892 0.0000 30.6822
#
#
#
# Elastic Compliance Matrix: (Units=1/GPa)
#
#
# Indices 1 2 3 4 5 6 
#
# 1 0.015442 -0.004758 -0.001902 0.000000 -0.003483 0.000000
# 2 -0.004758 0.011725 -0.003646 0.000000 0.000324 0.000000
# 3 -0.001902 -0.003646 0.011379 0.000000 0.000313 0.000000
# 4 0.000000 0.000000 0.000000 -0.084000 0.000000 0.047333
# 5 -0.003483 0.000324 0.000313 0.000000 0.028361 0.000000
# 6 0.000000 0.000000 0.000000 0.047333 0.000000 0.005920
#
#
# Mechanical properties :
#
#
# Convention : Reuss Voigt Hill
#
# Bulk Modulus (GPa) = 55.76545 59.05605 57.41075
# Shear Modulus (GPa) = 324.32757 25.80990 175.06873
#
# Velocity S-wave (km/s) = 12.31878 3.47511 9.05065
# Velocity P-wave (km/s) = 15.11387 6.61318 11.66540
#
# Compressibility (1/GPa) = 0.01793225
#
# Stress axis : x y z
#
# Youngs Moduli (GPa) = 64.75930 85.29142 87.88206
#
# Poissons Ratio (x) = 0.40582 0.16715
# Poissons Ratio (y) = 0.30813 0.32046
# Poissons Ratio (z) = 0.12317 0.31101
#
# Static dielectric constant tensor:
#      x y z
#    x 3.952430 0.000000 -0.079060 
#    y 0.000000 4.042430 0.000000 
#    z -0.079060 0.000000 4.194950 
# 
# 
# High freq. dielectric constant tensor:
#      x y z
#    x 1.831370 0.000000 0.005520 
#    y 0.000000 1.850460 0.000000 
#    z 0.005520 0.000000 1.852500 
# 
# From -- ./inp_files/204070.got.cif
#   From: 2010.06.25/outbox.cif.g09.slc.cpg/sg15_103_cif.got.tgz:204070.got - 2010.06.28 07:06:18.
