data_PCOD8144772
_publ_section_title
;
Structure prediction by ZEFSAII (Michael W. Deem and Ramdas Pophale) SiO2 
 PCOD8144772
Probable space group: C 2/C
;
_chemical_formula_sum "Si O2"
_cell_formula_units_Z 36
_cell_length_a 13.237986
_cell_length_b 11.861435
_cell_length_c 19.950491
_cell_angle_alpha 90.000000
_cell_angle_beta 150.752346
_cell_angle_gamma 90.000000
_cell_volume 1530.570462
_symmetry_space_group_name_H-M "C 2/C"
_symmetry_group_IT_number 15
_symmetry_cell_setting 'monoclinic'
loop_
_space_group_symop_operation_xyz
x,y,z
-x,y,1/2-z
-x,-y,-z
x,-y,1/2+z
1/2+x,1/2+y,z
1/2-x,1/2+y,1/2-z
1/2-x,1/2-y,-z
1/2+x,1/2-y,1/2+z
loop_
_atom_site_type_symbol
_atom_site_label
_atom_site_fract_x
_atom_site_fract_y
_atom_site_fract_z
Si Si1 0.977858 0.478562 0.309686
Si Si2 0.568858 0.460650 0.928728
Si Si3 0.438642 0.348724 0.441793
Si Si4 0.449144 0.099175 0.020939
Si Si5 0.000000 0.969781 0.250000
O O1 0.801803 0.383155 0.206003
O O2 0.000000 0.538461 0.250000
O O3 0.198222 0.419537 0.453331
O O4 0.936811 0.572145 0.342649
O O5 0.567654 0.589436 0.957617
O O6 0.448148 0.455360 0.787199
O O7 0.472601 0.385474 0.933236
O O8 0.459571 0.215756 0.451398
O O9 0.500000 0.000000 0.000000
O O10 0.199082 0.106827 0.883445
#
# Coordination Sequence:
#
# PCOD8144772 Si02
#       5
#     8   8   8   8   4
#     4   9  20  43  69  99 133 177 227 281 339 404
#     4   9  20  43  67 102 135 180 231 274 350 399
#     4  10  21  44  71 100 136 184 227 287 343 405
#     4  11  24  46  68 105 140 179 234 279 346 410
#     4  10  22  44  66 106 140 176 228 286 330 416
#
# _framework density 23.520641999999999
#
# number of rings (size 3 to 8) (size 9 to 14) (size 15 to 20)
#    0.000    2.222    0.000    1.333    0.000    3.556 
#   50.000    5.556    0.000    0.000    0.000    0.000 
#    0.000    0.000    0.000    0.000    0.000    0.000 
#
# Total GULP energy -223040.218397 kJ/mol
# GULP energy per Si atom -12391.123244 kJ/mol
# Density = 2.346711 g / cm^3
# Si number density = 23.520642 Si / 1000 Ang^3
#
#
#
# Elastic Constant Matrix: (Units=GPa)
#
#
# Indices 1 2 3 4 5 6 
#
# 1 145.8556 66.8372 62.2780 0.0009 -41.5103 0.0001
# 2 66.8372 165.7721 56.5266 0.0032 -19.2929 0.0009
# 3 62.2780 56.5266 137.0001 0.0126 -27.6672 0.0040
# 4 0.0009 0.0032 0.0126 21.3403 0.0024 2.4718
# 5 -41.5103 -19.2929 -27.6672 0.0024 62.8477 0.0003
# 6 0.0001 0.0009 0.0040 2.4718 0.0003 20.6119
#
#
#
# Elastic Compliance Matrix: (Units=1/GPa)
#
#
# Indices 1 2 3 4 5 6 
#
# 1 0.010735 -0.002822 -0.002698 0.000001 0.005036 0.000000
# 2 -0.002822 0.007816 -0.002013 0.000000 -0.000351 0.000000
# 3 -0.002698 -0.002013 0.009737 -0.000005 0.001886 -0.000001
# 4 0.000001 0.000000 -0.000005 0.047520 -0.000004 -0.005698
# 5 0.005036 -0.000351 0.001886 -0.000004 0.019960 0.000000
# 6 0.000000 0.000000 -0.000001 -0.005698 0.000000 0.049199
#
#
# Mechanical properties :
#
#
# Convention : Reuss Voigt Hill
#
# Bulk Modulus (GPa) = 75.63478 91.10127 83.36802
# Shear Modulus (GPa) = 30.40621 38.49240 34.44930
#
# Velocity S-wave (km/s) = 3.59938 4.04980 3.83122
# Velocity P-wave (km/s) = 7.03567 7.79002 7.42243
#
# Compressibility (1/GPa) = 0.01322143
#
# Stress axis : x y z
#
# Youngs Moduli (GPa) = 93.15685 127.94858 102.69676
#
# Poissons Ratio (x) = 0.36105 0.27712
# Poissons Ratio (y) = 0.26287 0.20671
# Poissons Ratio (z) = 0.25138 0.25754
#
# Static dielectric constant tensor:
#      x y z
#    x 4.701780 0.000000 -0.027850 
#    y 0.000000 3.506760 0.000000 
#    z -0.027850 0.000000 4.777590 
# 
# 
# High freq. dielectric constant tensor:
#      x y z
#    x 1.958180 0.000000 -0.002180 
#    y 0.000000 1.862270 0.000000 
#    z -0.002180 0.000000 1.954380 
# 
# From -- ./inp_files/243866.got.cif
#   From: 2010.06.25/outbox.cif.g09.slc.cpg/sg15_122_cif.got.tgz:243866.got - 2010.06.28 07:06:18.
