data_PCOD8144407
_publ_section_title
;
Structure prediction by ZEFSAII (Michael W. Deem and Ramdas Pophale) SiO2 
 PCOD8144407
Probable space group: C 2/C
;
_chemical_formula_sum "Si O2"
_cell_formula_units_Z 44
_cell_length_a 24.726208
_cell_length_b 13.452002
_cell_length_c 18.420736
_cell_angle_alpha 90.000000
_cell_angle_beta 161.048541
_cell_angle_gamma 90.000000
_cell_volume 1989.863591
_symmetry_space_group_name_H-M "C 2/C"
_symmetry_group_IT_number 15
_symmetry_cell_setting 'monoclinic'
loop_
_space_group_symop_operation_xyz
x,y,z
-x,y,1/2-z
-x,-y,-z
x,-y,1/2+z
1/2+x,1/2+y,z
1/2-x,1/2+y,1/2-z
1/2-x,1/2-y,-z
1/2+x,1/2-y,1/2+z
loop_
_atom_site_type_symbol
_atom_site_label
_atom_site_fract_x
_atom_site_fract_y
_atom_site_fract_z
Si Si1 0.824312 0.721536 0.671658
Si Si2 0.815349 0.370680 0.427218
Si Si3 0.573121 0.038353 0.767132
Si Si4 0.592052 0.540928 0.757881
Si Si5 0.385031 0.642580 0.966612
Si Si6 0.000000 0.790099 0.250000
O O1 0.750000 0.750000 0.500000
O O2 0.941418 0.623099 0.812564
O O3 0.676575 0.702608 0.541006
O O4 0.945690 0.810035 0.851106
O O5 0.663892 0.432414 0.269943
O O6 0.760667 0.342613 0.277057
O O7 0.980630 0.437249 0.627938
O O8 0.855335 0.278168 0.530982
O O9 0.500000 0.079603 0.750000
O O10 0.770455 0.020037 0.023106
O O11 0.426122 0.472933 0.538157
O O12 0.560744 0.642257 0.761177
#
# Coordination Sequence:
#
# PCOD8144407 Si02
#       6
#     8   8   8   8   8   4
#     4  12  25  44  72 101 140 189 237 294 362 439
#     4  11  26  44  69 105 139 189 237 301 358 422
#     4  10  21  42  70  96 135 184 234 287 361 427
#     4  11  23  44  70 101 140 187 239 290 355 437
#     4  12  28  43  73 109 144 183 243 305 355 421
#     4  12  24  42  74  96 142 196 236 284 362 446
#
# _framework density 22.112069000000002
#
# number of rings (size 3 to 8) (size 9 to 14) (size 15 to 20)
#    0.000    0.727    4.545    3.818    5.091    2.182 
#    0.000    0.000    0.000    0.000    0.000    0.000 
#    0.000    0.000    0.000    0.000    0.000    0.000 
#
# Total GULP energy -272802.659675 kJ/mol
# GULP energy per Si atom -12400.120894 kJ/mol
# Density = 2.206174 g / cm^3
# Si number density = 22.112069 Si / 1000 Ang^3
#
#
#
# Elastic Constant Matrix: (Units=GPa)
#
#
# Indices 1 2 3 4 5 6 
#
# 1 89.6999 35.1097 43.2709 0.0006 -6.3111 0.0002
# 2 35.1097 116.9439 37.2279 0.0004 -4.2561 0.0008
# 3 43.2709 37.2279 91.2087 -0.0014 -14.8266 0.0001
# 4 0.0006 0.0004 -0.0014 23.3394 0.0001 4.1866
# 5 -6.3111 -4.2561 -14.8266 0.0001 37.0252 0.0006
# 6 0.0002 0.0008 0.0001 4.1866 0.0006 36.5870
#
#
#
# Elastic Compliance Matrix: (Units=1/GPa)
#
#
# Indices 1 2 3 4 5 6 
#
# 1 0.015112 -0.002588 -0.006142 -0.000001 -0.000181 0.000000
# 2 -0.002588 0.010280 -0.003046 0.000000 -0.000479 0.000000
# 3 -0.006142 -0.003046 0.015931 0.000001 0.004982 0.000000
# 4 -0.000001 0.000000 0.000001 0.043744 0.000000 -0.005006
# 5 -0.000181 -0.000479 0.004982 0.000000 0.028918 -0.000001
# 6 0.000000 0.000000 0.000000 -0.005006 -0.000001 0.027905
#
#
# Mechanical properties :
#
#
# Convention : Reuss Voigt Hill
#
# Bulk Modulus (GPa) = 56.27462 58.78549 57.53005
# Shear Modulus (GPa) = 29.17729 31.53990 30.35860
#
# Velocity S-wave (km/s) = 3.63646 3.78082 3.70934
# Velocity P-wave (km/s) = 6.56786 6.76036 6.66480
#
# Compressibility (1/GPa) = 0.01777000
#
# Stress axis : x y z
#
# Youngs Moduli (GPa) = 66.17449 97.27242 62.77031
#
# Poissons Ratio (x) = 0.25176 0.38555
# Poissons Ratio (y) = 0.17127 0.19121
# Poissons Ratio (z) = 0.40646 0.29630
#
# Static dielectric constant tensor:
#      x y z
#    x 3.872840 0.000000 0.115100 
#    y 0.000000 4.277490 0.000000 
#    z 0.115100 0.000000 3.869010 
# 
# 
# High freq. dielectric constant tensor:
#      x y z
#    x 1.862670 0.000000 0.009220 
#    y 0.000000 1.885220 0.000000 
#    z 0.009220 0.000000 1.857430 
# 
# From -- ./inp_files/219682.got.cif
#   From: 2010.06.25/outbox.cif.g09.slc.cpg/sg15_110_cif.got.tgz:219682.got - 2010.06.28 07:06:18.
