data_PCOD8144961
_publ_section_title
;
Structure prediction by ZEFSAII (Michael W. Deem and Ramdas Pophale) SiO2 
 PCOD8144961
Probable space group: C 2/C
;
_chemical_formula_sum "Si O2"
_cell_formula_units_Z 64
_cell_length_a 17.123925
_cell_length_b 10.333515
_cell_length_c 18.349067
_cell_angle_alpha 90.000000
_cell_angle_beta 88.959846
_cell_angle_gamma 90.000000
_cell_volume 3246.338544
_symmetry_space_group_name_H-M "C 2/C"
_symmetry_group_IT_number 15
_symmetry_cell_setting 'monoclinic'
loop_
_space_group_symop_operation_xyz
x,y,z
-x,y,1/2-z
-x,-y,-z
x,-y,1/2+z
1/2+x,1/2+y,z
1/2-x,1/2+y,1/2-z
1/2-x,1/2-y,-z
1/2+x,1/2-y,1/2+z
loop_
_atom_site_type_symbol
_atom_site_label
_atom_site_fract_x
_atom_site_fract_y
_atom_site_fract_z
Si Si1 0.264540 0.169479 0.185027
Si Si2 0.956312 0.421479 0.318845
Si Si3 0.868754 0.696995 0.539789
Si Si4 0.754670 0.918521 0.555018
Si Si5 0.192922 0.854665 0.536966
Si Si6 0.087035 0.558147 0.389335
Si Si7 0.280094 0.047664 0.796989
Si Si8 0.457026 0.213967 0.971553
O O1 0.199701 0.155984 0.123680
O O2 0.351415 0.154027 0.149610
O O3 0.254666 0.310979 0.222066
O O4 0.244504 0.059415 0.244024
O O5 0.873201 0.464560 0.288660
O O6 0.944892 0.331297 0.388806
O O7 0.000000 0.350757 0.250000
O O8 0.009047 0.546446 0.341256
O O9 0.817028 0.809748 0.576354
O O10 0.827369 0.646837 0.466379
O O11 0.876181 0.585220 0.600828
O O12 0.953466 0.755237 0.516942
O O13 0.784913 0.000335 0.485604
O O14 0.744464 0.017940 0.620372
O O15 0.250000 0.750000 0.500000
O O16 0.102935 0.831665 0.515023
O O17 0.064845 0.601475 0.471272
#
# Coordination Sequence:
#
# PCOD8144961 Si02
#       8
#     8   8   8   8   8   8   8   8
#     4  12  25  39  64  94 125 167 214 260 320 380
#     4  11  21  35  59  94 119 159 210 264 311 371
#     4  10  22  35  62  97 122 159 205 275 307 369
#     4  11  22  39  63  90 130 161 213 255 325 379
#     4  12  20  40  65  89 117 167 214 253 308 385
#     4  11  20  39  62  92 121 161 214 259 307 375
#     4  12  25  41  62  93 129 171 206 265 326 381
#     4  11  21  37  64  88 126 159 215 258 315 364
#
# _framework density 19.714518999999999
#
# number of rings (size 3 to 8) (size 9 to 14) (size 15 to 20)
#    0.000    0.750    6.250    3.000    1.750    0.500 
#    0.000    0.000    0.000    1.500    0.000    0.000 
#    0.000    0.000    0.000    0.000    0.000    0.000 
#
# Total GULP energy -396795.521582 kJ/mol
# GULP energy per Si atom -12399.860049 kJ/mol
# Density = 1.966965 g / cm^3
# Si number density = 19.714519 Si / 1000 Ang^3
#
#
#
# Elastic Constant Matrix: (Units=GPa)
#
#
# Indices 1 2 3 4 5 6 
#
# 1 148.3046 52.0500 19.8353 0.0000 7.7809 0.0000
# 2 52.0500 104.6867 37.6903 0.0000 3.7057 0.0000
# 3 19.8353 37.6903 84.5486 0.0000 -5.8821 0.0000
# 4 0.0000 0.0000 0.0000 31.0371 0.0000 0.3307
# 5 7.7809 3.7057 -5.8821 0.0000 25.0590 0.0000
# 6 0.0000 0.0000 0.0000 0.3307 0.0000 29.2517
#
#
#
# Elastic Compliance Matrix: (Units=1/GPa)
#
#
# Indices 1 2 3 4 5 6 
#
# 1 0.008272 -0.003918 -0.000338 0.000000 -0.002068 0.000000
# 2 -0.003918 0.013448 -0.005215 0.000000 -0.001996 0.000000
# 3 -0.000338 -0.005215 0.014530 0.000000 0.004287 0.000000
# 4 0.000000 0.000000 0.000000 0.032223 0.000000 -0.000364
# 5 -0.002068 -0.001996 0.004287 0.000000 0.041849 0.000000
# 6 0.000000 0.000000 0.000000 -0.000364 0.000000 0.034190
#
#
# Mechanical properties :
#
#
# Convention : Reuss Voigt Hill
#
# Bulk Modulus (GPa) = 57.77470 61.85455 59.81463
# Shear Modulus (GPa) = 29.54677 32.26718 30.90698
#
# Velocity S-wave (km/s) = 3.87555 4.05003 3.96375
# Velocity P-wave (km/s) = 7.02821 7.30161 7.16622
#
# Compressibility (1/GPa) = 0.01730861
#
# Stress axis : x y z
#
# Youngs Moduli (GPa) = 120.89576 74.35852 68.82444
#
# Poissons Ratio (x) = 0.29132 0.02326
# Poissons Ratio (y) = 0.47364 0.35891
# Poissons Ratio (z) = 0.04086 0.38777
#
# Static dielectric constant tensor:
#      x y z
#    x 3.835360 0.000000 0.081090 
#    y 0.000000 3.438570 0.000000 
#    z 0.081090 0.000000 3.612930 
# 
# 
# High freq. dielectric constant tensor:
#      x y z
#    x 1.775870 0.000000 0.001320 
#    y 0.000000 1.743810 0.000000 
#    z 0.001320 0.000000 1.771450 
# 
# From -- ./inp_files/210337.got.cif
#   From: 2010.06.25/outbox.cif.g09.slc.cpg/sg15_106_cif.got.tgz:210337.got - 2010.06.28 07:06:18.
