data_PCOD8144852
_publ_section_title
;
Structure prediction by ZEFSAII (Michael W. Deem and Ramdas Pophale) SiO2 
 PCOD8144852
Probable space group: C 2/C
;
_chemical_formula_sum "Si O2"
_cell_formula_units_Z 44
_cell_length_a 21.759826
_cell_length_b 17.429401
_cell_length_c 13.335995
_cell_angle_alpha 90.000000
_cell_angle_beta 156.663685
_cell_angle_gamma 90.000000
_cell_volume 2003.541541
_symmetry_space_group_name_H-M "C 2/C"
_symmetry_group_IT_number 15
_symmetry_cell_setting 'monoclinic'
loop_
_space_group_symop_operation_xyz
x,y,z
-x,y,1/2-z
-x,-y,-z
x,-y,1/2+z
1/2+x,1/2+y,z
1/2-x,1/2+y,1/2-z
1/2-x,1/2-y,-z
1/2+x,1/2-y,1/2+z
loop_
_atom_site_type_symbol
_atom_site_label
_atom_site_fract_x
_atom_site_fract_y
_atom_site_fract_z
Si Si1 0.620839 0.811906 0.675081
Si Si2 0.402214 0.772010 0.505783
Si Si3 0.514230 0.944843 0.385246
Si Si4 0.247931 0.071496 0.768595
Si Si5 0.000000 0.969697 0.750000
Si Si6 0.737130 0.560570 0.981751
O O1 0.506464 0.751362 0.562672
O O2 0.512170 0.869432 0.449791
O O3 0.719942 0.856774 0.907848
O O4 0.735970 0.770072 0.768074
O O5 0.500000 0.752753 0.750000
O O6 0.377551 0.862911 0.454828
O O7 0.500000 0.918012 0.250000
O O8 0.675438 0.989815 0.644079
O O9 0.374958 0.000403 0.207188
O O10 0.108800 0.085057 0.481150
O O11 0.190181 0.071843 0.796125
O O12 0.914648 0.027151 0.695999
#
# Coordination Sequence:
#
# PCOD8144852 Si02
#       6
#     8   8   8   8   4   8
#     4  12  24  42  69  98 134 172 219 278 330 392
#     4  12  25  43  66  97 134 175 222 271 333 396
#     4  10  21  45  74  93 124 179 226 267 327 401
#     4  11  22  42  66  98 128 173 222 272 327 391
#     4  12  24  36  64 102 136 160 216 290 326 378
#     4  11  22  40  70  96 127 168 228 273 329 386
#
# _framework density 21.961112
#
# number of rings (size 3 to 8) (size 9 to 14) (size 15 to 20)
#    0.000    0.727    5.455    3.273    1.273    0.000 
#    8.182    0.909    0.000    0.000    0.000    0.000 
#    0.000    0.000    0.000    0.000    0.000    0.000 
#
# Total GULP energy -272816.995713 kJ/mol
# GULP energy per Si atom -12400.772532 kJ/mol
# Density = 2.191113 g / cm^3
# Si number density = 21.961112 Si / 1000 Ang^3
#
#
#
# Elastic Constant Matrix: (Units=GPa)
#
#
# Indices 1 2 3 4 5 6 
#
# 1 106.9573 33.2002 32.7693 0.0000 13.1797 0.0000
# 2 33.2002 52.1222 12.4163 0.0000 4.8080 0.0000
# 3 32.7693 12.4163 85.2687 0.0000 -10.5622 0.0000
# 4 0.0000 0.0000 0.0000 20.6789 0.0000 7.6086
# 5 13.1797 4.8080 -10.5622 0.0000 43.4819 0.0000
# 6 0.0000 0.0000 0.0000 7.6086 0.0000 34.1923
#
#
#
# Elastic Compliance Matrix: (Units=1/GPa)
#
#
# Indices 1 2 3 4 5 6 
#
# 1 0.013551 -0.007093 -0.004729 0.000000 -0.004472 0.000000
# 2 -0.007093 0.023972 -0.000853 0.000000 -0.000708 0.000000
# 3 -0.004729 -0.000853 0.014288 0.000000 0.004998 0.000000
# 4 0.000000 0.000000 0.000000 0.052671 0.000000 -0.011720
# 5 -0.004472 -0.000708 0.004998 0.000000 0.025646 0.000000
# 6 0.000000 0.000000 0.000000 -0.011720 0.000000 0.031854
#
#
# Mechanical properties :
#
#
# Convention : Reuss Voigt Hill
#
# Bulk Modulus (GPa) = 37.78860 44.56885 41.17872
# Shear Modulus (GPa) = 25.49051 30.73477 28.11264
#
# Velocity S-wave (km/s) = 3.41062 3.74506 3.58174
# Velocity P-wave (km/s) = 5.72312 6.24813 5.99138
#
# Compressibility (1/GPa) = 0.02646301
#
# Stress axis : x y z
#
# Youngs Moduli (GPa) = 73.79558 41.71562 69.98747
#
# Poissons Ratio (x) = 0.29587 0.33096
# Poissons Ratio (y) = 0.52340 0.05967
# Poissons Ratio (z) = 0.34897 0.03557
#
# Static dielectric constant tensor:
#      x y z
#    x 4.308050 0.000000 0.093380 
#    y 0.000000 3.682050 0.000000 
#    z 0.093380 0.000000 3.854500 
# 
# 
# High freq. dielectric constant tensor:
#      x y z
#    x 1.889590 0.000000 0.008070 
#    y 0.000000 1.835420 0.000000 
#    z 0.008070 0.000000 1.854010 
# 
# From -- ./inp_files/86081.got.cif
#   From: 2010.06.25/outbox.cif.g09.slc.cpg/sg15_44_cif.got.tgz:86081.got - 2010.06.28 07:06:18.
