data_PCOD8144847
_publ_section_title
;
Structure prediction by ZEFSAII (Michael W. Deem and Ramdas Pophale) SiO2 
 PCOD8144847
Probable space group: C 2/C
;
_chemical_formula_sum "Si O2"
_cell_formula_units_Z 48
_cell_length_a 8.599351
_cell_length_b 15.909846
_cell_length_c 19.775511
_cell_angle_alpha 90.000000
_cell_angle_beta 124.886620
_cell_angle_gamma 90.000000
_cell_volume 2219.342766
_symmetry_space_group_name_H-M "C 2/C"
_symmetry_group_IT_number 15
_symmetry_cell_setting 'monoclinic'
loop_
_space_group_symop_operation_xyz
x,y,z
-x,y,1/2-z
-x,-y,-z
x,-y,1/2+z
1/2+x,1/2+y,z
1/2-x,1/2+y,1/2-z
1/2-x,1/2-y,-z
1/2+x,1/2-y,1/2+z
loop_
_atom_site_type_symbol
_atom_site_label
_atom_site_fract_x
_atom_site_fract_y
_atom_site_fract_z
Si Si1 0.445727 0.388584 0.643061
Si Si2 0.085570 0.201084 0.921544
Si Si3 0.495041 0.983487 0.328300
Si Si4 0.115653 0.915637 0.024175
Si Si5 0.676554 0.842553 0.689947
Si Si6 0.344302 0.572002 0.666136
O O1 0.405789 0.374232 0.554749
O O2 0.275618 0.344133 0.641108
O O3 0.653387 0.349375 0.712352
O O4 0.440376 0.486567 0.661666
O O5 0.203703 0.133184 0.907429
O O6 0.948858 0.154156 0.939339
O O7 0.951169 0.258773 0.840288
O O8 0.250000 0.250000 0.000000
O O9 0.500000 0.961703 0.250000
O O10 0.672945 0.943713 0.409023
O O11 0.327557 0.939334 0.326293
O O12 0.475472 0.083235 0.335060
O O13 0.000000 0.000000 0.000000
O O14 0.500000 0.618736 0.750000
#
# Coordination Sequence:
#
# PCOD8144847 Si02
#       6
#     8   8   8   8   8   8
#     4  10  21  45  73 100 134 190 238 291 338 426
#     4  12  28  45  66 109 147 184 228 301 369 411
#     4  11  23  43  75 102 134 188 241 289 350 425
#     4  12  24  42  73 104 140 180 246 286 342 431
#     4  10  23  45  69 100 145 179 234 292 363 407
#     4  11  22  46  72 100 138 184 240 287 348 430
#
# _framework density 21.628025999999998
#
# number of rings (size 3 to 8) (size 9 to 14) (size 15 to 20)
#    0.000    1.000    5.000    3.000    2.333    4.000 
#    9.000    0.000    0.000    0.000    0.000    0.000 
#    0.000    0.000    0.000    0.000    0.000    0.000 
#
# Total GULP energy -297499.773469 kJ/mol
# GULP energy per Si atom -12395.823895 kJ/mol
# Density = 2.157880 g / cm^3
# Si number density = 21.628026 Si / 1000 Ang^3
#
#
#
# Elastic Constant Matrix: (Units=GPa)
#
#
# Indices 1 2 3 4 5 6 
#
# 1 128.0444 54.1190 68.9905 0.0000 -6.3031 0.0000
# 2 54.1190 94.2996 53.0064 0.0000 6.9699 0.0000
# 3 68.9905 53.0064 139.2914 0.0000 -0.7071 0.0000
# 4 0.0000 0.0000 0.0000 37.9111 0.0000 -1.9675
# 5 -6.3031 6.9699 -0.7071 0.0000 45.5967 0.0000
# 6 0.0000 0.0000 0.0000 -1.9675 0.0000 22.6774
#
#
#
# Elastic Compliance Matrix: (Units=1/GPa)
#
#
# Indices 1 2 3 4 5 6 
#
# 1 0.012236 -0.004831 -0.004210 0.000000 0.002365 0.000000
# 2 -0.004831 0.015610 -0.003563 0.000000 -0.003109 0.000000
# 3 -0.004210 -0.003563 0.010621 0.000000 0.000127 0.000000
# 4 0.000000 0.000000 0.000000 0.026497 0.000000 0.002299
# 5 0.002365 -0.003109 0.000127 0.000000 0.022736 0.000000
# 6 0.000000 0.000000 0.000000 0.002299 0.000000 0.044296
#
#
# Mechanical properties :
#
#
# Convention : Reuss Voigt Hill
#
# Bulk Modulus (GPa) = 75.42287 79.31857 77.37072
# Shear Modulus (GPa) = 30.93596 33.60501 32.27049
#
# Velocity S-wave (km/s) = 3.78612 3.94607 3.86692
# Velocity P-wave (km/s) = 7.35264 7.58390 7.46917
#
# Compressibility (1/GPa) = 0.01325858
#
# Stress axis : x y z
#
# Youngs Moduli (GPa) = 81.72279 64.06316 94.15108
#
# Poissons Ratio (x) = 0.30947 0.39641
# Poissons Ratio (y) = 0.39477 0.33549
# Poissons Ratio (z) = 0.34409 0.22828
#
# Static dielectric constant tensor:
#      x y z
#    x 4.512930 0.000000 -0.131980 
#    y 0.000000 3.927600 0.000000 
#    z -0.131980 0.000000 3.984050 
# 
# 
# High freq. dielectric constant tensor:
#      x y z
#    x 1.864020 0.000000 -0.001860 
#    y 0.000000 1.839940 0.000000 
#    z -0.001860 0.000000 1.857980 
# 
# From -- ./inp_files/232866.got.cif
#   From: 2010.06.25/outbox.cif.g09.slc.cpg/sg15_117_cif.got.tgz:232866.got - 2010.06.28 07:06:18.
