data_PCOD8144071
_publ_section_title
;
Structure prediction by ZEFSAII (Michael W. Deem and Ramdas Pophale) SiO2 
 PCOD8144071
Probable space group: C 2/C
;
_chemical_formula_sum "Si O2"
_cell_formula_units_Z 36
_cell_length_a 8.535397
_cell_length_b 16.807319
_cell_length_c 13.380994
_cell_angle_alpha 90.000000
_cell_angle_beta 133.980307
_cell_angle_gamma 90.000000
_cell_volume 1381.302297
_symmetry_space_group_name_H-M "C 2/C"
_symmetry_group_IT_number 15
_symmetry_cell_setting 'monoclinic'
loop_
_space_group_symop_operation_xyz
x,y,z
-x,y,1/2-z
-x,-y,-z
x,-y,1/2+z
1/2+x,1/2+y,z
1/2-x,1/2+y,1/2-z
1/2-x,1/2-y,-z
1/2+x,1/2-y,1/2+z
loop_
_atom_site_type_symbol
_atom_site_label
_atom_site_fract_x
_atom_site_fract_y
_atom_site_fract_z
Si Si1 0.500000 0.132623 0.250000
Si Si2 0.074265 0.617168 0.996756
Si Si3 0.815966 0.089574 0.540940
Si Si4 0.000000 0.967375 0.750000
Si Si5 0.094536 0.241224 0.628538
Si Si6 0.000000 0.356510 0.250000
O O1 0.688561 0.075869 0.380092
O O2 0.393823 0.187382 0.287429
O O3 0.286032 0.586925 0.151224
O O4 0.055132 0.713379 0.005287
O O5 0.099237 0.595134 0.889107
O O6 0.855859 0.577370 0.944009
O O7 0.904769 0.179796 0.575328
O O8 0.000374 0.024405 0.649565
O O9 0.319039 0.195306 0.724491
#
# Coordination Sequence:
#
# PCOD8144071 Si02
#       6
#     4   8   8   4   8   4
#     4  10  21  41  72 101 131 182 240 282 335 417
#     4  11  25  44  68 102 143 183 230 286 347 412
#     4  11  24  45  71  97 137 187 234 281 343 419
#     4  12  26  46  68 104 148 182 226 296 350 400
#     4  11  22  43  72 107 137 178 234 292 342 413
#     4  12  23  39  68 103 139 184 230 284 347 409
#
# _framework density 26.062363999999999
#
# number of rings (size 3 to 8) (size 9 to 14) (size 15 to 20)
#    0.000    0.889    0.000    9.333    0.000    4.444 
#    0.000   11.111    0.000    0.000    0.000    0.000 
#    0.000    0.000    0.000    0.000    0.000    0.000 
#
# Total GULP energy -223038.692986 kJ/mol
# GULP energy per Si atom -12391.038499 kJ/mol
# Density = 2.600304 g / cm^3
# Si number density = 26.062364 Si / 1000 Ang^3
#
#
#
# Elastic Constant Matrix: (Units=GPa)
#
#
# Indices 1 2 3 4 5 6 
#
# 1 105.4375 32.1710 68.6213 0.0000 -8.0095 0.0000
# 2 32.1710 79.6287 49.3655 0.0000 -0.2981 0.0000
# 3 68.6213 49.3655 203.9135 -0.0002 -17.9531 0.0000
# 4 0.0000 0.0000 -0.0002 33.7965 -0.0001 0.4271
# 5 -8.0095 -0.2981 -17.9531 -0.0001 44.1128 0.0000
# 6 0.0000 0.0000 0.0000 0.4271 0.0000 26.6902
#
#
#
# Elastic Compliance Matrix: (Units=1/GPa)
#
#
# Indices 1 2 3 4 5 6 
#
# 1 0.012728 -0.002978 -0.003485 0.000000 0.000872 0.000000
# 2 -0.002978 0.015557 -0.002907 0.000000 -0.001619 0.000000
# 3 -0.003485 -0.002907 0.006973 0.000000 0.002185 0.000000
# 4 0.000000 0.000000 0.000000 0.029595 0.000000 -0.000474
# 5 0.000872 -0.001619 0.002185 0.000000 0.023706 0.000000
# 6 0.000000 0.000000 0.000000 -0.000474 0.000000 0.037474
#
#
# Mechanical properties :
#
#
# Convention : Reuss Voigt Hill
#
# Bulk Modulus (GPa) = 60.54058 76.58838 68.56448
# Shear Modulus (GPa) = 33.27140 36.84138 35.05639
#
# Velocity S-wave (km/s) = 3.57684 3.76385 3.67153
# Velocity P-wave (km/s) = 6.35121 6.95263 6.65872
#
# Compressibility (1/GPa) = 0.01651785
#
# Stress axis : x y z
#
# Youngs Moduli (GPa) = 78.56959 64.27834 143.41055
#
# Poissons Ratio (x) = 0.19143 0.49983
# Poissons Ratio (y) = 0.23399 0.41683
# Poissons Ratio (z) = 0.27384 0.18683
#
# Static dielectric constant tensor:
#      x y z
#    x 4.708350 0.000000 -0.318620 
#    y 0.000000 4.702240 0.000000 
#    z -0.318620 0.000000 5.242310 
# 
# 
# High freq. dielectric constant tensor:
#      x y z
#    x 2.025650 0.000000 0.000050 
#    y 0.000000 2.035380 0.000000 
#    z 0.000050 0.000000 2.065210 
# 
# From -- ./inp_files/22599.got.cif
#   From: 2010.06.25/outbox.cif.g09.slc.cpg/sg15_12_cif.got.tgz:22599.got - 2010.06.28 07:06:18.
