data_PCOD8144750
_publ_section_title
;
Structure prediction by ZEFSAII (Michael W. Deem and Ramdas Pophale) SiO2 
 PCOD8144750
Probable space group: C 2/C
;
_chemical_formula_sum "Si O2"
_cell_formula_units_Z 48
_cell_length_a 11.762481
_cell_length_b 13.434811
_cell_length_c 14.090385
_cell_angle_alpha 90.000000
_cell_angle_beta 63.137266
_cell_angle_gamma 90.000000
_cell_volume 1986.382184
_symmetry_space_group_name_H-M "C 2/C"
_symmetry_group_IT_number 15
_symmetry_cell_setting 'monoclinic'
loop_
_space_group_symop_operation_xyz
x,y,z
-x,y,1/2-z
-x,-y,-z
x,-y,1/2+z
1/2+x,1/2+y,z
1/2-x,1/2+y,1/2-z
1/2-x,1/2-y,-z
1/2+x,1/2-y,1/2+z
loop_
_atom_site_type_symbol
_atom_site_label
_atom_site_fract_x
_atom_site_fract_y
_atom_site_fract_z
Si Si1 0.312541 0.795332 0.093588
Si Si2 0.122635 0.892073 0.042273
Si Si3 0.061712 0.602372 0.504849
Si Si4 0.262587 0.324122 0.789436
Si Si5 0.138982 0.633843 0.670957
Si Si6 0.858779 0.989025 0.157592
O O1 0.230166 0.891347 0.085826
O O2 0.233946 0.730948 0.200119
O O3 0.367148 0.724029 0.989706
O O4 0.444202 0.832604 0.090899
O O5 0.148650 0.965264 0.945152
O O6 0.984471 0.924483 0.133791
O O7 0.127538 0.650789 0.388054
O O8 0.163937 0.598602 0.552551
O O9 0.000000 0.500000 0.500000
O O10 0.345373 0.253395 0.827474
O O11 0.343989 0.424694 0.741414
O O12 0.239720 0.586267 0.706645
O O13 0.000000 0.594731 0.750000
#
# Coordination Sequence:
#
# PCOD8144750 Si02
#       6
#     8   8   8   8   8   8
#     4  10  21  44  69 106 138 189 240 291 361 425
#     4   9  20  42  74  97 145 183 238 300 347 427
#     4  12  25  45  73 105 145 188 242 293 359 431
#     4  11  25  44  73 105 144 189 240 294 364 428
#     4  12  24  46  72 101 145 185 236 299 354 427
#     4  10  22  44  70 106 138 189 240 290 362 421
#
# _framework density 24.164535000000001
#
# number of rings (size 3 to 8) (size 9 to 14) (size 15 to 20)
#    0.000    1.333    1.667    3.500    0.000    0.000 
#    6.000   17.500    3.667    0.000    0.000    0.000 
#    0.000    0.000    0.000    0.000    0.000    0.000 
#
# Total GULP energy -297493.182655 kJ/mol
# GULP energy per Si atom -12395.549277 kJ/mol
# Density = 2.410954 g / cm^3
# Si number density = 24.164535 Si / 1000 Ang^3
#
#
#
# Elastic Constant Matrix: (Units=GPa)
#
#
# Indices 1 2 3 4 5 6 
#
# 1 118.4099 54.8428 42.5197 0.0000 -10.2520 0.0000
# 2 54.8428 124.7394 48.2126 0.0000 -10.2236 0.0000
# 3 42.5197 48.2126 108.3601 0.0000 -12.7537 0.0000
# 4 0.0000 0.0000 0.0000 33.4071 0.0000 -1.0027
# 5 -10.2520 -10.2236 -12.7537 0.0000 44.1990 0.0000
# 6 0.0000 0.0000 0.0000 -1.0027 0.0000 50.3719
#
#
#
# Elastic Compliance Matrix: (Units=1/GPa)
#
#
# Indices 1 2 3 4 5 6 
#
# 1 0.011247 -0.003869 -0.002578 0.000000 0.000970 0.000000
# 2 -0.003869 0.011058 -0.003319 0.000000 0.000703 0.000000
# 3 -0.002578 -0.003319 0.011962 0.000000 0.002086 0.000000
# 4 0.000000 0.000000 0.000000 0.029952 0.000000 0.000596
# 5 0.000970 0.000703 0.002086 0.000000 0.023614 0.000000
# 6 0.000000 0.000000 0.000000 0.000596 0.000000 0.019864
#
#
# Mechanical properties :
#
#
# Convention : Reuss Voigt Hill
#
# Bulk Modulus (GPa) = 67.86263 71.40662 69.63463
# Shear Modulus (GPa) = 37.83833 39.32455 38.58144
#
# Velocity S-wave (km/s) = 3.96139 4.03844 4.00010
# Velocity P-wave (km/s) = 7.00486 7.16656 7.08617
#
# Compressibility (1/GPa) = 0.01473565
#
# Stress axis : x y z
#
# Youngs Moduli (GPa) = 88.91444 90.43009 83.59615
#
# Poissons Ratio (x) = 0.34987 0.21547
# Poissons Ratio (y) = 0.34401 0.27748
# Poissons Ratio (z) = 0.22918 0.30016
#
# Static dielectric constant tensor:
#      x y z
#    x 4.617140 0.000000 -0.042940 
#    y 0.000000 4.394810 0.000000 
#    z -0.042940 0.000000 4.310020 
# 
# 
# High freq. dielectric constant tensor:
#      x y z
#    x 1.949650 0.000000 0.003250 
#    y 0.000000 1.963570 0.000000 
#    z 0.003250 0.000000 1.965840 
# 
# From -- ./inp_files/144060.got.cif
#   From: 2010.06.25/outbox.cif.g09.slc.cpg/sg15_73_cif.got.tgz:144060.got - 2010.06.28 07:06:18.
