data_PCOD8144613
_publ_section_title
;
Structure prediction by ZEFSAII (Michael W. Deem and Ramdas Pophale) SiO2 
 PCOD8144613
Probable space group: C 2/C
;
_chemical_formula_sum "Si O2"
_cell_formula_units_Z 64
_cell_length_a 12.548568
_cell_length_b 25.040554
_cell_length_c 9.046983
_cell_angle_alpha 90.000000
_cell_angle_beta 92.948314
_cell_angle_gamma 90.000000
_cell_volume 2839.008134
_symmetry_space_group_name_H-M "C 2/C"
_symmetry_group_IT_number 15
_symmetry_cell_setting 'monoclinic'
loop_
_space_group_symop_operation_xyz
x,y,z
-x,y,1/2-z
-x,-y,-z
x,-y,1/2+z
1/2+x,1/2+y,z
1/2-x,1/2+y,1/2-z
1/2-x,1/2-y,-z
1/2+x,1/2-y,1/2+z
loop_
_atom_site_type_symbol
_atom_site_label
_atom_site_fract_x
_atom_site_fract_y
_atom_site_fract_z
Si Si1 0.801365 0.019161 0.077263
Si Si2 0.615820 0.442522 0.214474
Si Si3 0.374568 0.739384 0.698714
Si Si4 0.616115 0.882974 0.220417
Si Si5 0.198234 0.158947 0.589529
Si Si6 0.924083 0.503819 0.360062
Si Si7 0.251911 0.169021 0.033771
Si Si8 0.122112 0.878134 0.779642
O O1 0.876387 0.060109 0.172135
O O2 0.815379 0.958020 0.135179
O O3 0.679296 0.037213 0.097673
O O4 0.833384 0.020675 0.909469
O O5 0.500000 0.462032 0.250000
O O6 0.616389 0.380202 0.173878
O O7 0.500000 0.742870 0.750000
O O8 0.316327 0.718033 0.844134
O O9 0.325316 0.795970 0.649451
O O10 0.342401 0.700550 0.559674
O O11 0.500000 0.858512 0.250000
O O12 0.686055 0.866130 0.368035
O O13 0.610151 0.946683 0.209503
O O14 0.667118 0.858967 0.074473
O O15 0.173907 0.158321 0.413825
O O16 0.000000 0.535496 0.250000
O O17 0.000000 0.500000 0.500000
O O18 0.188875 0.127835 0.133667
O O19 0.000000 0.859843 0.750000
#
# Coordination Sequence:
#
# PCOD8144613 Si02
#       8
#     8   8   8   8   8   8   8   8
#     4  11  24  39  61  93 129 166 221 264 310 384
#     4  11  22  37  59  90 123 171 211 260 315 376
#     4  10  21  43  69  97 130 169 215 267 337 395
#     4  10  23  43  67  91 129 176 221 265 324 392
#     4  10  22  42  65  91 131 171 219 264 329 402
#     4  11  24  41  64  91 129 179 217 269 324 380
#     4  10  24  43  69  99 129 169 219 274 325 390
#     4  11  25  42  64  99 135 171 217 273 324 381
#
# _framework density 22.543084
#
# number of rings (size 3 to 8) (size 9 to 14) (size 15 to 20)
#    0.000    1.500    1.250    2.625    8.750    5.500 
#    0.000    8.125    0.000    0.000    0.000    0.000 
#    0.000    0.000    0.000    0.000    0.000    0.000 
#
# Total GULP energy -396487.041877 kJ/mol
# GULP energy per Si atom -12390.220059 kJ/mol
# Density = 2.249178 g / cm^3
# Si number density = 22.543084 Si / 1000 Ang^3
#
#
#
# Elastic Constant Matrix: (Units=GPa)
#
#
# Indices 1 2 3 4 5 6 
#
# 1 178.1397 9.4752 74.7365 0.0000 -8.0609 0.0000
# 2 9.4752 30.4890 12.3824 0.0000 -4.6626 0.0000
# 3 74.7365 12.3824 111.1369 0.0000 -6.3545 0.0000
# 4 0.0000 0.0000 0.0000 40.5648 0.0000 -0.7293
# 5 -8.0609 -4.6626 -6.3545 0.0000 53.5130 0.0000
# 6 0.0000 0.0000 0.0000 -0.7293 0.0000 22.4168
#
#
#
# Elastic Compliance Matrix: (Units=1/GPa)
#
#
# Indices 1 2 3 4 5 6 
#
# 1 0.007838 -0.000236 -0.005214 0.000000 0.000541 0.000000
# 2 -0.000236 0.034711 -0.003562 0.000000 0.002566 0.000000
# 3 -0.005214 -0.003562 0.012926 0.000000 0.000439 0.000000
# 4 0.000000 0.000000 0.000000 0.024666 0.000000 0.000802
# 5 0.000541 0.002566 0.000439 0.000000 0.019044 0.000000
# 6 0.000000 0.000000 0.000000 0.000802 0.000000 0.044635
#
#
# Mechanical properties :
#
#
# Convention : Reuss Voigt Hill
#
# Bulk Modulus (GPa) = 26.70086 56.99487 41.84786
# Shear Modulus (GPa) = 28.68163 38.17702 33.42932
#
# Velocity S-wave (km/s) = 3.57080 4.11970 3.85503
# Velocity P-wave (km/s) = 5.37317 6.92580 6.19829
#
# Compressibility (1/GPa) = 0.03745198
#
# Stress axis : x y z
#
# Youngs Moduli (GPa) = 127.58549 28.80929 77.36419
#
# Poissons Ratio (x) = 0.00679 0.40334
# Poissons Ratio (y) = 0.03007 0.27558
# Poissons Ratio (z) = 0.66518 0.10262
#
# Static dielectric constant tensor:
#      x y z
#    x 4.456090 0.000000 -0.066340 
#    y 0.000000 3.747220 0.000000 
#    z -0.066340 0.000000 4.265920 
# 
# 
# High freq. dielectric constant tensor:
#      x y z
#    x 1.903630 0.000000 0.004250 
#    y 0.000000 1.858880 0.000000 
#    z 0.004250 0.000000 1.901220 
# 
# From -- ./inp_files/35698.got.cif
#   From: 2010.06.25/outbox.cif.g09.slc.cpg/sg15_18_cif.got.tgz:35698.got - 2010.06.28 07:06:18.
