data_PCOD8144205
_publ_section_title
;
Structure prediction by ZEFSAII (Michael W. Deem and Ramdas Pophale) SiO2 
 PCOD8144205
Probable space group: C 2/C
;
_chemical_formula_sum "Si O2"
_cell_formula_units_Z 56
_cell_length_a 9.238424
_cell_length_b 13.780351
_cell_length_c 23.089771
_cell_angle_alpha 90.000000
_cell_angle_beta 116.821362
_cell_angle_gamma 90.000000
_cell_volume 2623.287852
_symmetry_space_group_name_H-M "C 2/C"
_symmetry_group_IT_number 15
_symmetry_cell_setting 'monoclinic'
loop_
_space_group_symop_operation_xyz
x,y,z
-x,y,1/2-z
-x,-y,-z
x,-y,1/2+z
1/2+x,1/2+y,z
1/2-x,1/2+y,1/2-z
1/2-x,1/2-y,-z
1/2+x,1/2-y,1/2+z
loop_
_atom_site_type_symbol
_atom_site_label
_atom_site_fract_x
_atom_site_fract_y
_atom_site_fract_z
Si Si1 0.874819 0.971838 0.527891
Si Si2 0.734867 0.605001 0.267625
Si Si3 0.763638 0.846156 0.416545
Si Si4 0.953441 0.230635 0.803770
Si Si5 0.622177 0.317710 0.446005
Si Si6 0.689013 0.915857 0.287981
Si Si7 0.070977 0.846061 0.853416
O O1 0.740617 0.899774 0.474654
O O2 0.952788 0.916305 0.596142
O O3 0.804046 0.073457 0.538412
O O4 0.000000 0.000000 0.500000
O O5 0.911699 0.654601 0.292942
O O6 0.746474 0.497729 0.243395
O O7 0.605232 0.667263 0.207072
O O8 0.686859 0.601607 0.326801
O O9 0.733011 0.932126 0.363633
O O10 0.637560 0.758199 0.386231
O O11 0.948028 0.806338 0.445851
O O12 0.783783 0.183515 0.792258
O O13 0.000000 0.188333 0.750000
O O14 0.100462 0.211700 0.874679
O O15 0.750000 0.250000 0.500000
O O16 0.500000 0.896170 0.250000
#
# Coordination Sequence:
#
# PCOD8144205 Si02
#       7
#     8   8   8   8   8   8   8
#     4  10  22  39  64  91 123 175 219 267 326 392
#     4  11  23  38  68  95 133 171 216 275 342 394
#     4  10  21  42  65  90 127 171 227 270 323 403
#     4  11  24  41  65  99 134 173 223 276 336 393
#     4  10  22  41  62  88 134 169 218 277 331 390
#     4  11  23  42  67  97 133 171 221 273 327 409
#     4  11  21  40  68  97 130 172 221 280 335 395
#
# _framework density 21.347258
#
# number of rings (size 3 to 8) (size 9 to 14) (size 15 to 20)
#    0.000    1.429    2.857    4.286    4.000    4.571 
#    0.000    2.143    0.000    0.000    0.000    0.000 
#    0.000    0.000    0.000    0.000    0.000    0.000 
#
# Total GULP energy -347035.974373 kJ/mol
# GULP energy per Si atom -12394.141942 kJ/mol
# Density = 2.129867 g / cm^3
# Si number density = 21.347258 Si / 1000 Ang^3
#
#
#
# Elastic Constant Matrix: (Units=GPa)
#
#
# Indices 1 2 3 4 5 6 
#
# 1 54.8750 17.9774 54.5170 0.0000 4.5753 0.0000
# 2 17.9774 110.8088 65.8915 0.0000 -1.6920 0.0000
# 3 54.5170 65.8915 175.5538 0.0000 -10.3725 0.0000
# 4 0.0000 0.0000 0.0000 46.4052 0.0000 -2.9225
# 5 4.5753 -1.6920 -10.3725 0.0000 34.6329 0.0000
# 6 0.0000 0.0000 0.0000 -2.9225 0.0000 18.0238
#
#
#
# Elastic Compliance Matrix: (Units=1/GPa)
#
#
# Indices 1 2 3 4 5 6 
#
# 1 0.027736 0.000965 -0.009355 0.000000 -0.006419 0.000000
# 2 0.000965 0.011670 -0.004738 0.000000 -0.000976 0.000000
# 3 -0.009355 -0.004738 0.010627 0.000000 0.004187 0.000000
# 4 0.000000 0.000000 0.000000 0.021772 0.000000 0.003530
# 5 -0.006419 -0.000976 0.004187 0.000000 0.030929 0.000000
# 6 0.000000 0.000000 0.000000 0.003530 0.000000 0.056055
#
#
# Mechanical properties :
#
#
# Convention : Reuss Voigt Hill
#
# Bulk Modulus (GPa) = 42.05514 68.66771 55.36142
# Shear Modulus (GPa) = 25.91098 33.33582 29.62340
#
# Velocity S-wave (km/s) = 3.48772 3.95599 3.72921
# Velocity P-wave (km/s) = 5.99685 7.28720 6.67329
#
# Compressibility (1/GPa) = 0.02377831
#
# Stress axis : x y z
#
# Youngs Moduli (GPa) = 36.05446 85.68791 94.10186
#
# Poissons Ratio (x) = -0.08267 0.88028
# Poissons Ratio (y) = -0.03478 0.44581
# Poissons Ratio (z) = 0.33727 0.40595
#
# Static dielectric constant tensor:
#      x y z
#    x 3.575530 0.000000 -0.160290 
#    y 0.000000 3.959370 0.000000 
#    z -0.160290 0.000000 4.336260 
# 
# 
# High freq. dielectric constant tensor:
#      x y z
#    x 1.805380 0.000000 -0.009060 
#    y 0.000000 1.839510 0.000000 
#    z -0.009060 0.000000 1.858430 
# 
# From -- ./inp_files/264784.got.cif
#   From: 2010.06.25/outbox.cif.g09.slc.cpg/sg15_133_cif.got.tgz:264784.got - 2010.06.28 07:06:18.
