data_PCOD8144121
_publ_section_title
;
Structure prediction by ZEFSAII (Michael W. Deem and Ramdas Pophale) SiO2 
 PCOD8144121
Probable space group: C 2/C
;
_chemical_formula_sum "Si O2"
_cell_formula_units_Z 56
_cell_length_a 9.241157
_cell_length_b 12.494571
_cell_length_c 25.015362
_cell_angle_alpha 90.000000
_cell_angle_beta 58.447257
_cell_angle_gamma 90.000000
_cell_volume 2461.359412
_symmetry_space_group_name_H-M "C 2/C"
_symmetry_group_IT_number 15
_symmetry_cell_setting 'monoclinic'
loop_
_space_group_symop_operation_xyz
x,y,z
-x,y,1/2-z
-x,-y,-z
x,-y,1/2+z
1/2+x,1/2+y,z
1/2-x,1/2+y,1/2-z
1/2-x,1/2-y,-z
1/2+x,1/2-y,1/2+z
loop_
_atom_site_type_symbol
_atom_site_label
_atom_site_fract_x
_atom_site_fract_y
_atom_site_fract_z
Si Si1 0.923260 0.474463 0.591699
Si Si2 0.330573 0.824288 0.899312
Si Si3 0.042013 0.823189 0.489358
Si Si4 0.393573 0.330282 0.143790
Si Si5 0.188131 0.393655 0.993982
Si Si6 0.311181 0.036449 0.297534
Si Si7 0.697762 0.627742 0.214573
O O1 0.824040 0.472590 0.554280
O O2 0.787235 0.472235 0.666047
O O3 0.052888 0.373974 0.575637
O O4 0.040965 0.580425 0.566730
O O5 0.432829 0.715920 0.861734
O O6 0.308041 0.907733 0.855742
O O7 0.149711 0.795154 0.958614
O O8 0.061017 0.861607 0.425507
O O9 0.165405 0.722985 0.473935
O O10 0.127862 0.910863 0.513000
O O11 0.322535 0.439253 0.183194
O O12 0.247669 0.239590 0.177167
O O13 0.500000 0.992014 0.250000
O O14 0.260997 0.125799 0.263517
O O15 0.500000 0.610408 0.250000
#
# Coordination Sequence:
#
# PCOD8144121 Si02
#       7
#     8   8   8   8   8   8   8
#     4  10  21  42  62  92 138 173 225 295 338 418
#     4  11  24  45  68 102 139 174 240 293 342 438
#     4  11  23  41  67 101 134 179 229 289 358 421
#     4  11  24  45  72  95 140 186 231 292 364 412
#     4  10  22  38  65  96 133 176 224 281 361 412
#     4  12  25  47  71  97 139 192 235 295 356 422
#     4  11  25  46  66  98 138 178 242 292 345 435
#
# _framework density 22.751653999999998
#
# number of rings (size 3 to 8) (size 9 to 14) (size 15 to 20)
#    0.000    1.143    5.714    1.714    2.000    3.429 
#    5.143    0.000    0.000    0.000    0.000    0.000 
#    0.000    0.000    0.000    0.000    0.000    0.000 
#
# Total GULP energy -347050.129081 kJ/mol
# GULP energy per Si atom -12394.647467 kJ/mol
# Density = 2.269987 g / cm^3
# Si number density = 22.751654 Si / 1000 Ang^3
#
#
#
# Elastic Constant Matrix: (Units=GPa)
#
#
# Indices 1 2 3 4 5 6 
#
# 1 135.8658 23.3240 48.3167 0.0000 -16.5980 0.0000
# 2 23.3240 56.3000 22.9976 0.0000 3.0019 0.0000
# 3 48.3167 22.9976 102.2000 0.0000 -8.2682 0.0000
# 4 0.0000 0.0000 0.0000 26.3866 0.0000 -1.0734
# 5 -16.5980 3.0019 -8.2682 0.0000 39.6634 0.0000
# 6 0.0000 0.0000 0.0000 -1.0734 0.0000 27.9626
#
#
#
# Elastic Compliance Matrix: (Units=1/GPa)
#
#
# Indices 1 2 3 4 5 6 
#
# 1 0.009524 -0.002646 -0.003630 0.000000 0.003429 0.000000
# 2 -0.002646 0.020530 -0.003646 0.000000 -0.003421 0.000000
# 3 -0.003630 -0.003646 0.012430 0.000000 0.001348 0.000000
# 4 0.000000 0.000000 0.000000 0.037957 0.000000 0.001457
# 5 0.003429 -0.003421 0.001348 0.000000 0.027187 0.000000
# 6 0.000000 0.000000 0.000000 0.001457 0.000000 0.035818
#
#
# Mechanical properties :
#
#
# Convention : Reuss Voigt Hill
#
# Bulk Modulus (GPa) = 44.16677 53.73808 48.95242
# Shear Modulus (GPa) = 29.26779 32.11770 30.69274
#
# Velocity S-wave (km/s) = 3.59054 3.76129 3.67690
# Velocity P-wave (km/s) = 6.05343 6.52179 6.29197
#
# Compressibility (1/GPa) = 0.02264146
#
# Stress axis : x y z
#
# Youngs Moduli (GPa) = 104.99566 48.71002 80.44881
#
# Poissons Ratio (x) = 0.12888 0.29202
# Poissons Ratio (y) = 0.27780 0.29329
# Poissons Ratio (z) = 0.38113 0.17758
#
# Static dielectric constant tensor:
#      x y z
#    x 4.469070 0.000000 -0.014490 
#    y 0.000000 3.894410 0.000000 
#    z -0.014490 0.000000 4.190380 
# 
# 
# High freq. dielectric constant tensor:
#      x y z
#    x 1.907680 0.000000 -0.004040 
#    y 0.000000 1.873470 0.000000 
#    z -0.004040 0.000000 1.898190 
# 
# From -- ./inp_files/264595.got.cif
#   From: 2010.06.25/outbox.cif.g09.slc.cpg/sg15_133_cif.got.tgz:264595.got - 2010.06.28 07:06:18.
