data_PCOD8144689
_publ_section_title
;
Structure prediction by ZEFSAII (Michael W. Deem and Ramdas Pophale) SiO2 
 PCOD8144689
Probable space group: C 2/C
;
_chemical_formula_sum "Si O2"
_cell_formula_units_Z 60
_cell_length_a 11.947205
_cell_length_b 19.547443
_cell_length_c 21.088070
_cell_angle_alpha 90.000000
_cell_angle_beta 144.066989
_cell_angle_gamma 90.000000
_cell_volume 2890.094533
_symmetry_space_group_name_H-M "C 2/C"
_symmetry_group_IT_number 15
_symmetry_cell_setting 'monoclinic'
loop_
_space_group_symop_operation_xyz
x,y,z
-x,y,1/2-z
-x,-y,-z
x,-y,1/2+z
1/2+x,1/2+y,z
1/2-x,1/2+y,1/2-z
1/2-x,1/2-y,-z
1/2+x,1/2-y,1/2+z
loop_
_atom_site_type_symbol
_atom_site_label
_atom_site_fract_x
_atom_site_fract_y
_atom_site_fract_z
Si Si1 0.390613 0.260708 0.393498
Si Si2 0.078131 0.894791 0.015221
Si Si3 0.500000 0.301051 0.750000
Si Si4 0.185173 0.053563 0.938032
Si Si5 0.403459 0.671367 0.771125
Si Si6 0.558418 0.133673 0.535124
Si Si7 0.215509 0.529466 0.372162
Si Si8 0.162972 0.899944 0.916359
O O1 0.451924 0.331975 0.452005
O O2 0.398935 0.267774 0.320806
O O3 0.535765 0.201380 0.481162
O O4 0.180235 0.247136 0.323256
O O5 0.215656 0.951851 0.109962
O O6 0.177957 0.873752 0.995312
O O7 0.865469 0.923586 0.902528
O O8 0.507111 0.350801 0.813774
O O9 0.354891 0.073926 0.968462
O O10 0.013464 0.106885 0.851570
O O11 0.101202 0.979046 0.882277
O O12 0.269791 0.050231 0.047382
O O13 0.500000 0.697608 0.750000
O O14 0.189137 0.649197 0.656101
O O15 0.360661 0.108153 0.471017
O O16 0.000000 0.540781 0.250000
#
# Coordination Sequence:
#
# PCOD8144689 Si02
#       8
#     8   8   4   8   8   8   8   8
#     4  11  24  43  63  95 134 164 222 263 321 403
#     4  10  23  42  64  93 138 168 216 274 309 398
#     4  10  26  38  66  96 128 174 212 262 334 382
#     4  10  21  44  63  95 130 162 221 273 319 387
#     4  10  23  42  67  92 125 174 209 266 327 380
#     4  10  24  41  64  94 127 174 213 260 335 389
#     4  10  22  42  65 100 127 172 223 264 332 370
#     4  10  23  42  63  96 131 165 219 272 315 392
#
# _framework density 20.760566000000001
#
# number of rings (size 3 to 8) (size 9 to 14) (size 15 to 20)
#    0.000    1.867    1.333    0.400    7.467    6.400 
#    0.000    0.000    0.000    0.000    0.000    0.000 
#    0.000    0.000    0.000    0.000    0.000    0.000 
#
# Total GULP energy -371983.205091 kJ/mol
# GULP energy per Si atom -12399.440170 kJ/mol
# Density = 2.071331 g / cm^3
# Si number density = 20.760566 Si / 1000 Ang^3
#
#
#
# Elastic Constant Matrix: (Units=GPa)
#
#
# Indices 1 2 3 4 5 6 
#
# 1 69.2637 34.0782 14.9842 -0.0005 -15.1345 -0.0001
# 2 34.0782 78.8042 36.8597 -0.0002 -14.5647 0.0001
# 3 14.9842 36.8597 105.0802 -0.0003 1.8937 -0.0001
# 4 -0.0005 -0.0002 -0.0003 17.9791 -0.0002 -7.2488
# 5 -15.1345 -14.5647 1.8937 -0.0002 36.2192 0.0000
# 6 -0.0001 0.0001 -0.0001 -7.2488 0.0000 29.5663
#
#
#
# Elastic Compliance Matrix: (Units=1/GPa)
#
#
# Indices 1 2 3 4 5 6 
#
# 1 0.019165 -0.007200 -0.000300 0.000001 0.005129 0.000000
# 2 -0.007200 0.019521 -0.005914 0.000000 0.005151 0.000000
# 3 -0.000300 -0.005914 0.011690 0.000000 -0.003115 0.000000
# 4 0.000001 0.000000 0.000000 0.061721 0.000001 0.015132
# 5 0.005129 0.005151 -0.003115 0.000001 0.031987 0.000000
# 6 0.000000 0.000000 0.000000 0.015132 0.000000 0.037532
#
#
# Mechanical properties :
#
#
# Convention : Reuss Voigt Hill
#
# Bulk Modulus (GPa) = 42.46324 47.22137 44.84231
# Shear Modulus (GPa) = 23.11673 27.90133 25.50903
#
# Velocity S-wave (km/s) = 3.34052 3.66998 3.50912
# Velocity P-wave (km/s) = 5.94786 6.38384 6.16970
#
# Compressibility (1/GPa) = 0.02354978
#
# Stress axis : x y z
#
# Youngs Moduli (GPa) = 52.17713 51.22636 85.54441
#
# Poissons Ratio (x) = 0.36882 0.02565
# Poissons Ratio (y) = 0.37566 0.50589
# Poissons Ratio (z) = 0.01565 0.30294
#
# Static dielectric constant tensor:
#      x y z
#    x 3.842140 0.000000 -0.113190 
#    y 0.000000 3.779680 0.000000 
#    z -0.113190 0.000000 3.790380 
# 
# 
# High freq. dielectric constant tensor:
#      x y z
#    x 1.825150 0.000000 -0.003090 
#    y 0.000000 1.812060 0.000000 
#    z -0.003090 0.000000 1.806520 
# 
# From -- ./inp_files/239997.got.cif
#   From: 2010.06.25/outbox.cif.g09.slc.cpg/sg15_120_cif.got.tgz:239997.got - 2010.06.28 07:06:18.
