data_PCOD8144957
_publ_section_title
;
Structure prediction by ZEFSAII (Michael W. Deem and Ramdas Pophale) SiO2 
 PCOD8144957
Probable space group: C 2/C
;
_chemical_formula_sum "Si O2"
_cell_formula_units_Z 44
_cell_length_a 11.592436
_cell_length_b 20.454237
_cell_length_c 9.169879
_cell_angle_alpha 90.000000
_cell_angle_beta 98.425954
_cell_angle_gamma 90.000000
_cell_volume 2150.841281
_symmetry_space_group_name_H-M "C 2/C"
_symmetry_group_IT_number 15
_symmetry_cell_setting 'monoclinic'
loop_
_space_group_symop_operation_xyz
x,y,z
-x,y,1/2-z
-x,-y,-z
x,-y,1/2+z
1/2+x,1/2+y,z
1/2-x,1/2+y,1/2-z
1/2-x,1/2-y,-z
1/2+x,1/2-y,1/2+z
loop_
_atom_site_type_symbol
_atom_site_label
_atom_site_fract_x
_atom_site_fract_y
_atom_site_fract_z
Si Si1 0.201805 0.803963 0.098685
Si Si2 0.797789 0.714681 0.153280
Si Si3 0.171150 0.466824 0.602151
Si Si4 0.500000 0.120503 0.250000
Si Si5 0.632406 0.917803 0.287999
Si Si6 0.629367 0.629516 0.315239
O O1 0.144245 0.768811 0.227416
O O2 0.301899 0.850020 0.182170
O O3 0.250000 0.750000 0.000000
O O4 0.115847 0.845693 0.980608
O O5 0.902947 0.663619 0.144368
O O6 0.686904 0.682230 0.215552
O O7 0.750000 0.750000 0.000000
O O8 0.062830 0.424823 0.643447
O O9 0.156003 0.467374 0.425873
O O10 0.171492 0.542013 0.652265
O O11 0.292962 0.435424 0.673577
O O12 0.500000 0.896797 0.250000
O O13 0.500000 0.609482 0.250000
#
# Coordination Sequence:
#
# PCOD8144957 Si02
#       6
#     8   8   8   4   8   8
#     4   9  21  39  54  87 120 158 206 238 302 379
#     4  10  22  35  60  89 119 161 207 256 304 361
#     4  10  22  39  58  93 117 154 203 254 313 363
#     4  10  22  38  58  86 136 150 200 270 304 354
#     4  11  22  36  65  89 122 157 201 257 309 363
#     4   9  20  40  61  78 119 165 197 247 308 364
#
# _framework density 20.457111999999999
#
# number of rings (size 3 to 8) (size 9 to 14) (size 15 to 20)
#    0.000    2.182    0.909    1.636    5.091    4.364 
#    0.000    3.636    2.000    0.000    0.000    0.000 
#    0.000    0.000    0.000    0.000    0.000    0.000 
#
# Total GULP energy -272667.724974 kJ/mol
# GULP energy per Si atom -12393.987499 kJ/mol
# Density = 2.041055 g / cm^3
# Si number density = 20.457112 Si / 1000 Ang^3
#
#
#
# Elastic Constant Matrix: (Units=GPa)
#
#
# Indices 1 2 3 4 5 6 
#
# 1 97.9386 17.7621 10.9181 0.0000 18.9461 0.0000
# 2 17.7621 84.8297 9.7631 0.0000 5.5336 0.0000
# 3 10.9181 9.7631 59.3231 0.0000 3.8982 0.0000
# 4 0.0000 0.0000 0.0000 26.3946 0.0000 8.5917
# 5 18.9461 5.5336 3.8982 0.0000 27.7384 0.0000
# 6 0.0000 0.0000 0.0000 8.5917 0.0000 -0.9050
#
#
#
# Elastic Compliance Matrix: (Units=1/GPa)
#
#
# Indices 1 2 3 4 5 6 
#
# 1 0.012214 -0.001887 -0.001427 0.000000 -0.007766 0.000000
# 2 -0.001887 0.012434 -0.001636 0.000000 -0.000962 0.000000
# 3 -0.001427 -0.001636 0.017465 0.000000 -0.001153 0.000000
# 4 0.000000 0.000000 0.000000 0.009262 0.000000 0.087936
# 5 -0.007766 -0.000962 -0.001153 0.000000 0.041709 0.000000
# 6 0.000000 0.000000 0.000000 0.087936 0.000000 -0.270147
#
#
# Mechanical properties :
#
#
# Convention : Reuss Voigt Hill
#
# Bulk Modulus (GPa) = 31.04289 35.44199 33.24244
# Shear Modulus (GPa) = -31.96404 24.22214 -3.87095
#
# Velocity S-wave (km/s) = -3.95712 3.44473 -1.37707
# Velocity P-wave (km/s) = 2.38136 5.76057 3.70900
#
# Compressibility (1/GPa) = 0.03221349
#
# Stress axis : x y z
#
# Youngs Moduli (GPa) = 81.87345 80.42210 57.25898
#
# Poissons Ratio (x) = 0.15173 0.08172
# Poissons Ratio (y) = 0.15446 0.09367
# Poissons Ratio (z) = 0.11684 0.13157
#
# Static dielectric constant tensor:
#      x y z
#    x 3.477790 0.000000 -0.021620 
#    y 0.000000 3.755380 0.000000 
#    z -0.021620 0.000000 4.015490 
# 
# 
# High freq. dielectric constant tensor:
#      x y z
#    x 1.773800 0.000000 0.011590 
#    y 0.000000 1.801540 0.000000 
#    z 0.011590 0.000000 1.812050 
# 
# From -- ./inp_files/30945.got.cif
#   From: 2010.06.25/outbox.cif.g09.slc.cpg/sg15_16_cif.got.tgz:30945.got - 2010.06.28 07:06:18.
