data_PCOD8144836
_publ_section_title
;
Structure prediction by ZEFSAII (Michael W. Deem and Ramdas Pophale) SiO2 
 PCOD8144836
Probable space group: C 2/C
;
_chemical_formula_sum "Si O2"
_cell_formula_units_Z 40
_cell_length_a 10.134191
_cell_length_b 9.941445
_cell_length_c 19.810799
_cell_angle_alpha 90.000000
_cell_angle_beta 117.409288
_cell_angle_gamma 90.000000
_cell_volume 1771.849204
_symmetry_space_group_name_H-M "C 2/C"
_symmetry_group_IT_number 15
_symmetry_cell_setting 'monoclinic'
loop_
_space_group_symop_operation_xyz
x,y,z
-x,y,1/2-z
-x,-y,-z
x,-y,1/2+z
1/2+x,1/2+y,z
1/2-x,1/2+y,1/2-z
1/2-x,1/2-y,-z
1/2+x,1/2-y,1/2+z
loop_
_atom_site_type_symbol
_atom_site_label
_atom_site_fract_x
_atom_site_fract_y
_atom_site_fract_z
Si Si1 0.078415 0.004775 0.090352
Si Si2 0.611664 0.687970 0.215346
Si Si3 0.658336 0.935214 0.922973
Si Si4 0.674121 0.371893 0.407146
Si Si5 0.331074 0.023306 0.816849
O O1 0.049275 0.143512 0.126433
O O2 0.251593 0.976064 0.111985
O O3 0.002488 0.889478 0.118352
O O4 0.000000 0.000000 0.000000
O O5 0.500000 0.655552 0.250000
O O6 0.647701 0.846108 0.225094
O O7 0.761557 0.598508 0.257922
O O8 0.699897 0.785606 0.908312
O O9 0.487861 0.975698 0.884043
O O10 0.723222 0.948066 0.013521
O O11 0.714099 0.441382 0.346990
#
# Coordination Sequence:
#
# PCOD8144836 Si02
#       5
#     8   8   8   8   8
#     4  10  22  46  70  97 137 178 222 281 342 405
#     4  12  28  45  66 102 141 184 228 283 350 408
#     4  10  23  42  72 103 134 175 230 282 343 407
#     4  10  21  45  71 100 136 178 222 286 345 403
#     4  12  27  44  69  98 141 180 234 278 342 414
#
# _framework density 22.575282999999999
#
# number of rings (size 3 to 8) (size 9 to 14) (size 15 to 20)
#    0.000    1.200    4.000    0.600    5.600    0.000 
#    0.000    2.000    0.000    0.000    0.000    0.000 
#    0.000    0.000    0.000    0.000    0.000    0.000 
#
# Total GULP energy -247821.466606 kJ/mol
# GULP energy per Si atom -12391.073330 kJ/mol
# Density = 2.252390 g / cm^3
# Si number density = 22.575283 Si / 1000 Ang^3
#
#
#
# Elastic Constant Matrix: (Units=GPa)
#
#
# Indices 1 2 3 4 5 6 
#
# 1 117.4692 14.5095 33.6137 0.0000 -15.0576 0.0000
# 2 14.5095 66.0659 39.7917 0.0000 7.5693 0.0000
# 3 33.6137 39.7917 73.1626 0.0000 -14.1660 0.0000
# 4 0.0000 0.0000 0.0000 36.7472 0.0000 2.0205
# 5 -15.0576 7.5693 -14.1660 0.0000 32.4316 0.0000
# 6 0.0000 0.0000 0.0000 2.0205 0.0000 32.6081
#
#
#
# Elastic Compliance Matrix: (Units=1/GPa)
#
#
# Indices 1 2 3 4 5 6 
#
# 1 0.010045 -0.000172 -0.003944 0.000000 0.002981 0.000000
# 2 -0.000172 0.027351 -0.017531 0.000000 -0.014121 0.000000
# 3 -0.003944 -0.017531 0.027804 0.000000 0.014405 0.000000
# 4 0.000000 0.000000 0.000000 0.027306 0.000000 -0.001692
# 5 0.002981 -0.014121 0.014405 0.000000 0.041806 0.000000
# 6 0.000000 0.000000 0.000000 -0.001692 0.000000 0.030772
#
#
# Mechanical properties :
#
#
# Convention : Reuss Voigt Hill
#
# Bulk Modulus (GPa) = 45.64970 48.05860 46.85415
# Shear Modulus (GPa) = 23.18252 31.60957 27.39604
#
# Velocity S-wave (km/s) = 3.20800 3.74596 3.48737
# Velocity P-wave (km/s) = 5.82981 6.32803 6.08403
#
# Compressibility (1/GPa) = 0.02190595
#
# Stress axis : x y z
#
# Youngs Moduli (GPa) = 99.55322 36.56193 35.96587
#
# Poissons Ratio (x) = 0.00629 0.14186
# Poissons Ratio (y) = 0.01712 0.63051
# Poissons Ratio (z) = 0.39267 0.64096
#
# Static dielectric constant tensor:
#      x y z
#    x 4.421750 0.000000 -0.106470 
#    y 0.000000 3.935970 0.000000 
#    z -0.106470 0.000000 4.088550 
# 
# 
# High freq. dielectric constant tensor:
#      x y z
#    x 1.910030 0.000000 -0.016370 
#    y 0.000000 1.870480 0.000000 
#    z -0.016370 0.000000 1.891010 
# 
# From -- ./inp_files/230011.got.cif
#   From: 2010.06.25/outbox.cif.g09.slc.cpg/sg15_116_cif.got.tgz:230011.got - 2010.06.28 07:06:18.
