data_PCOD8144510
_publ_section_title
;
Structure prediction by ZEFSAII (Michael W. Deem and Ramdas Pophale) SiO2 
 PCOD8144510
Probable space group: C 2/C
;
_chemical_formula_sum "Si O2"
_cell_formula_units_Z 52
_cell_length_a 8.006369
_cell_length_b 20.451092
_cell_length_c 18.946913
_cell_angle_alpha 90.000000
_cell_angle_beta 128.492569
_cell_angle_gamma 90.000000
_cell_volume 2428.173602
_symmetry_space_group_name_H-M "C 2/C"
_symmetry_group_IT_number 15
_symmetry_cell_setting 'monoclinic'
loop_
_space_group_symop_operation_xyz
x,y,z
-x,y,1/2-z
-x,-y,-z
x,-y,1/2+z
1/2+x,1/2+y,z
1/2-x,1/2+y,1/2-z
1/2-x,1/2-y,-z
1/2+x,1/2-y,1/2+z
loop_
_atom_site_type_symbol
_atom_site_label
_atom_site_fract_x
_atom_site_fract_y
_atom_site_fract_z
Si Si1 0.899725 0.156159 0.028437
Si Si2 0.691256 0.232400 0.752033
Si Si3 0.046427 0.132891 0.844499
Si Si4 0.045294 0.292470 0.058471
Si Si5 0.000000 0.468287 0.750000
Si Si6 0.871083 0.953355 0.414443
Si Si7 0.655768 0.381956 0.728197
O O1 0.037811 0.216443 0.031458
O O2 0.035742 0.115871 0.121405
O O3 0.692290 0.180763 0.016424
O O4 0.820983 0.112358 0.943675
O O5 0.500000 0.209706 0.750000
O O6 0.617152 0.209770 0.657220
O O7 0.737125 0.309662 0.769607
O O8 0.901800 0.194090 0.830047
O O9 0.282802 0.157919 0.930033
O O10 0.000000 0.115854 0.750000
O O11 0.999623 0.067104 0.877178
O O12 0.850851 0.513902 0.663730
O O13 0.865105 0.426205 0.771575
O O14 0.000000 0.000000 0.500000
O O15 0.500000 0.408342 0.750000
#
# Coordination Sequence:
#
# PCOD8144510 Si02
#       7
#     8   8   8   8   4   8   8
#     4  10  21  43  65  98 138 170 227 285 353 415
#     4   9  18  35  66 101 133 170 218 289 357 414
#     4  10  23  39  67 105 135 176 229 282 356 419
#     4   9  20  37  66  99 133 169 214 300 348 407
#     4  12  28  46  70  92 142 196 232 292 334 418
#     4  12  27  46  65  97 136 189 235 276 340 417
#     4  10  23  44  70  98 134 181 236 288 355 410
#
# _framework density 21.415272000000002
#
# number of rings (size 3 to 8) (size 9 to 14) (size 15 to 20)
#    0.000    1.846    1.538    0.923   10.769    3.692 
#    0.000    1.538    0.000    0.000    0.000    0.000 
#    0.000    0.000    0.000    0.000    0.000    0.000 
#
# Total GULP energy -322267.194587 kJ/mol
# GULP energy per Si atom -12394.892099 kJ/mol
# Density = 2.136653 g / cm^3
# Si number density = 21.415272 Si / 1000 Ang^3
#
#
#
# Elastic Constant Matrix: (Units=GPa)
#
#
# Indices 1 2 3 4 5 6 
#
# 1 123.0573 61.9223 39.4347 0.0000 3.2933 0.0000
# 2 61.9223 95.6006 58.4715 0.0000 0.4654 0.0000
# 3 39.4347 58.4715 88.0868 0.0000 13.3679 0.0000
# 4 0.0000 0.0000 0.0000 54.2359 0.0000 4.5027
# 5 3.2933 0.4654 13.3679 0.0000 35.2574 0.0000
# 6 0.0000 0.0000 0.0000 4.5027 0.0000 47.9578
#
#
#
# Elastic Compliance Matrix: (Units=1/GPa)
#
#
# Indices 1 2 3 4 5 6 
#
# 1 0.012093 -0.007758 -0.000115 0.000000 -0.000984 0.000000
# 2 -0.007758 0.023272 -0.012773 0.000000 0.005260 0.000000
# 3 -0.000115 -0.012773 0.021067 0.000000 -0.007808 0.000000
# 4 0.000000 0.000000 0.000000 0.018583 0.000000 -0.001745
# 5 -0.000984 0.005260 -0.007808 0.000000 0.031346 0.000000
# 6 0.000000 0.000000 0.000000 -0.001745 0.000000 0.021015
#
#
# Mechanical properties :
#
#
# Convention : Reuss Voigt Hill
#
# Bulk Modulus (GPa) = 66.04622 69.60018 67.82320
# Shear Modulus (GPa) = 28.78281 37.28464 33.03373
#
# Velocity S-wave (km/s) = 3.67008 4.17709 3.93177
# Velocity P-wave (km/s) = 6.99049 7.47228 7.23540
#
# Compressibility (1/GPa) = 0.01514091
#
# Stress axis : x y z
#
# Youngs Moduli (GPa) = 82.69091 42.97076 47.46663
#
# Poissons Ratio (x) = 0.33336 0.00546
# Poissons Ratio (y) = 0.64151 0.60628
# Poissons Ratio (z) = 0.00951 0.54886
#
# Static dielectric constant tensor:
#      x y z
#    x 3.960350 0.000000 0.090300 
#    y 0.000000 4.005120 0.000000 
#    z 0.090300 0.000000 3.559580 
# 
# 
# High freq. dielectric constant tensor:
#      x y z
#    x 1.833720 0.000000 0.004440 
#    y 0.000000 1.840170 0.000000 
#    z 0.004440 0.000000 1.842940 
# 
# From -- ./inp_files/192626.got.cif
#   From: 2010.06.25/outbox.cif.g09.slc.cpg/sg15_97_cif.got.tgz:192626.got - 2010.06.28 07:06:18.
