data_PCOD8144247
_publ_section_title
;
Structure prediction by ZEFSAII (Michael W. Deem and Ramdas Pophale) SiO2 
 PCOD8144247
Probable space group: C 2/C
;
_chemical_formula_sum "Si O2"
_cell_formula_units_Z 56
_cell_length_a 8.846265
_cell_length_b 15.470028
_cell_length_c 23.671165
_cell_angle_alpha 90.000000
_cell_angle_beta 59.169719
_cell_angle_gamma 90.000000
_cell_volume 2781.676735
_symmetry_space_group_name_H-M "C 2/C"
_symmetry_group_IT_number 15
_symmetry_cell_setting 'monoclinic'
loop_
_space_group_symop_operation_xyz
x,y,z
-x,y,1/2-z
-x,-y,-z
x,-y,1/2+z
1/2+x,1/2+y,z
1/2-x,1/2+y,1/2-z
1/2-x,1/2-y,-z
1/2+x,1/2-y,1/2+z
loop_
_atom_site_type_symbol
_atom_site_label
_atom_site_fract_x
_atom_site_fract_y
_atom_site_fract_z
Si Si1 0.322264 0.675937 0.023644
Si Si2 0.502432 0.069200 0.049902
Si Si3 0.709760 0.766922 0.662249
Si Si4 0.000000 0.586688 0.250000
Si Si5 0.671836 0.248884 0.452227
Si Si6 0.494901 0.200224 0.818304
Si Si7 0.854161 0.474772 0.185482
Si Si8 0.000000 0.124048 0.750000
O O1 0.203206 0.589670 0.035128
O O2 0.320738 0.720896 0.085192
O O3 0.250000 0.750000 0.000000
O O4 0.532929 0.670246 0.971489
O O5 0.418809 0.156755 0.042256
O O6 0.382793 0.029780 0.123027
O O7 0.500000 0.000000 0.000000
O O8 0.610769 0.856883 0.685641
O O9 0.566447 0.688148 0.686448
O O10 0.836136 0.752536 0.691668
O O11 0.868560 0.531153 0.238288
O O12 0.750000 0.250000 0.500000
O O13 0.817554 0.258815 0.376115
O O14 0.500000 0.204197 0.750000
O O15 0.503914 0.102576 0.840439
O O16 0.660121 0.438156 0.233095
#
# Coordination Sequence:
#
# PCOD8144247 Si02
#       8
#     8   8   8   4   8   8   8   4
#     4  10  22  40  67  92 122 175 221 261 323 394
#     4  11  25  43  66  93 130 172 214 278 333 388
#     4  10  21  42  66  90 129 172 222 260 324 396
#     4  11  22  40  64  91 132 164 210 273 326 376
#     4  11  23  44  70  94 127 173 228 272 323 401
#     4  11  24  41  67  98 133 172 217 272 327 394
#     4  11  23  44  61  94 134 165 208 269 336 377
#     4   9  24  38  68  89 126 174 210 255 322 398
#
# _framework density 20.131741000000002
#
# number of rings (size 3 to 8) (size 9 to 14) (size 15 to 20)
#    0.000    1.429    3.571    0.857    8.000    4.571 
#    0.000    4.286    0.000    0.000    0.000    0.000 
#    0.000    0.000    0.000    0.000    0.000    0.000 
#
# Total GULP energy -346904.919678 kJ/mol
# GULP energy per Si atom -12389.461417 kJ/mol
# Density = 2.008592 g / cm^3
# Si number density = 20.131741 Si / 1000 Ang^3
#
#
#
# Elastic Constant Matrix: (Units=GPa)
#
#
# Indices 1 2 3 4 5 6 
#
# 1 127.7338 60.5553 59.0241 -0.0001 -5.0452 0.0001
# 2 60.5553 107.4879 34.3657 -0.0001 -5.6243 0.0001
# 3 59.0241 34.3657 112.5363 -0.0001 -0.5674 0.0001
# 4 -0.0001 -0.0001 -0.0001 36.8024 0.0001 3.0518
# 5 -5.0452 -5.6243 -0.5674 0.0001 42.3963 -0.0001
# 6 0.0001 0.0001 0.0001 3.0518 -0.0001 42.6407
#
#
#
# Elastic Compliance Matrix: (Units=1/GPa)
#
#
# Indices 1 2 3 4 5 6 
#
# 1 0.012821 -0.005582 -0.005017 0.000000 0.000718 0.000000
# 2 -0.005582 0.012815 -0.000981 0.000000 0.001023 0.000000
# 3 -0.005017 -0.000981 0.011814 0.000000 -0.000569 0.000000
# 4 0.000000 0.000000 0.000000 0.027334 0.000000 -0.001956
# 5 0.000718 0.001023 -0.000569 0.000000 0.023800 0.000000
# 6 0.000000 0.000000 0.000000 -0.001956 0.000000 0.023592
#
#
# Mechanical properties :
#
#
# Convention : Reuss Voigt Hill
#
# Bulk Modulus (GPa) = 69.96788 72.84978 71.40883
# Shear Modulus (GPa) = 35.68915 37.28875 36.48895
#
# Velocity S-wave (km/s) = 4.21501 4.30843 4.26198
# Velocity P-wave (km/s) = 7.64976 7.81122 7.73091
#
# Compressibility (1/GPa) = 0.01429227
#
# Stress axis : x y z
#
# Youngs Moduli (GPa) = 77.99480 78.03375 84.64712
#
# Poissons Ratio (x) = 0.43556 0.42464
# Poissons Ratio (y) = 0.43534 0.08301
# Poissons Ratio (z) = 0.39126 0.07652
#
# Static dielectric constant tensor:
#      x y z
#    x 4.298090 0.000000 -0.209760 
#    y 0.000000 3.892890 0.000000 
#    z -0.209760 0.000000 3.684960 
# 
# 
# High freq. dielectric constant tensor:
#      x y z
#    x 1.792840 0.000000 -0.001160 
#    y 0.000000 1.783790 0.000000 
#    z -0.001160 0.000000 1.793480 
# 
# From -- ./inp_files/231610.got.cif
#   From: 2010.06.25/outbox.cif.g09.slc.cpg/sg15_116_cif.got.tgz:231610.got - 2010.06.28 07:06:18.
