data_PCOD8144566
_publ_section_title
;
Structure prediction by ZEFSAII (Michael W. Deem and Ramdas Pophale) SiO2 
 PCOD8144566
Probable space group: C 2/C
;
_chemical_formula_sum "Si O2"
_cell_formula_units_Z 64
_cell_length_a 13.991281
_cell_length_b 18.309504
_cell_length_c 11.875508
_cell_angle_alpha 90.000000
_cell_angle_beta 87.301102
_cell_angle_gamma 90.000000
_cell_volume 3038.814989
_symmetry_space_group_name_H-M "C 2/C"
_symmetry_group_IT_number 15
_symmetry_cell_setting 'monoclinic'
loop_
_space_group_symop_operation_xyz
x,y,z
-x,y,1/2-z
-x,-y,-z
x,-y,1/2+z
1/2+x,1/2+y,z
1/2-x,1/2+y,1/2-z
1/2-x,1/2-y,-z
1/2+x,1/2-y,1/2+z
loop_
_atom_site_type_symbol
_atom_site_label
_atom_site_fract_x
_atom_site_fract_y
_atom_site_fract_z
Si Si1 0.863757 0.237217 0.291776
Si Si2 0.664160 0.796817 0.449660
Si Si3 0.682131 0.584674 0.268026
Si Si4 0.108720 0.068343 0.723943
Si Si5 0.045062 0.291964 0.998183
Si Si6 0.701404 0.907267 0.951201
Si Si7 0.737126 0.436133 0.010351
Si Si8 0.183950 0.814917 0.384810
O O1 0.867533 0.272182 0.170353
O O2 0.882568 0.150739 0.275547
O O3 0.942900 0.271919 0.369794
O O4 0.759004 0.251591 0.350140
O O5 0.750000 0.750000 0.500000
O O6 0.566699 0.794564 0.529399
O O7 0.691706 0.880961 0.432103
O O8 0.621963 0.510530 0.279651
O O9 0.774609 0.578524 0.181445
O O10 0.715251 0.601646 0.392359
O O11 0.139831 0.060126 0.591260
O O12 0.172801 0.129330 0.781977
O O13 0.000000 0.092050 0.750000
O O14 0.097070 0.370067 0.970882
O O15 0.086495 0.226824 0.919246
O O16 0.708720 0.986814 0.009778
O O17 0.781532 0.856942 0.005585
#
# Coordination Sequence:
#
# PCOD8144566 Si02
#       8
#     8   8   8   8   8   8   8   8
#     4  11  21  42  66  94 131 170 216 265 320 384
#     4  12  26  41  60  98 135 167 212 273 334 372
#     4  11  21  42  65  93 131 171 210 265 322 390
#     4  11  26  40  63  96 130 173 212 262 333 392
#     4  11  24  40  70  97 123 173 227 265 311 391
#     4  10  21  43  67  94 125 168 216 263 320 382
#     4  11  24  43  65  90 137 171 206 273 330 380
#     4  11  20  41  68  95 125 166 212 273 311 388
#
# _framework density 21.060841
#
# number of rings (size 3 to 8) (size 9 to 14) (size 15 to 20)
#    0.000    1.000    6.250    1.125    1.750    2.000 
#    0.000    1.875    0.000    0.000    0.000    0.000 
#    0.000    0.000    0.000    0.000    0.000    0.000 
#
# Total GULP energy -396740.211902 kJ/mol
# GULP energy per Si atom -12398.131622 kJ/mol
# Density = 2.101291 g / cm^3
# Si number density = 21.060841 Si / 1000 Ang^3
#
#
#
# Elastic Constant Matrix: (Units=GPa)
#
#
# Indices 1 2 3 4 5 6 
#
# 1 132.1726 41.2437 22.4901 0.0000 -9.9698 0.0000
# 2 41.2437 125.9073 18.5207 0.0000 -6.9941 0.0000
# 3 22.4901 18.5207 94.3284 0.0000 -7.5071 0.0000
# 4 0.0000 0.0000 0.0000 33.9848 0.0000 -7.9273
# 5 -9.9698 -6.9941 -7.5071 0.0000 15.3091 0.0000
# 6 0.0000 0.0000 0.0000 -7.9273 0.0000 8.2919
#
#
#
# Elastic Compliance Matrix: (Units=1/GPa)
#
#
# Indices 1 2 3 4 5 6 
#
# 1 0.008867 -0.002490 -0.001307 0.000000 0.003996 0.000000
# 2 -0.002490 0.009019 -0.001018 0.000000 0.001999 0.000000
# 3 -0.001307 -0.001018 0.011455 0.000000 0.004301 0.000000
# 4 0.000000 0.000000 0.000000 0.037870 0.000000 0.036205
# 5 0.003996 0.001999 0.004301 0.000000 0.070945 0.000000
# 6 0.000000 0.000000 0.000000 0.036205 0.000000 0.155212
#
#
# Mechanical properties :
#
#
# Convention : Reuss Voigt Hill
#
# Bulk Modulus (GPa) = 50.73542 57.43526 54.08534
# Shear Modulus (GPa) = 16.15151 29.52743 22.83947
#
# Velocity S-wave (km/s) = 2.77230 3.74840 3.29667
# Velocity P-wave (km/s) = 5.86428 6.78707 6.34248
#
# Compressibility (1/GPa) = 0.01971010
#
# Stress axis : x y z
#
# Youngs Moduli (GPa) = 112.78095 110.87835 87.29776
#
# Poissons Ratio (x) = 0.27612 0.11411
# Poissons Ratio (y) = 0.28085 0.08886
# Poissons Ratio (z) = 0.14742 0.11287
#
# Static dielectric constant tensor:
#      x y z
#    x 3.559450 0.000000 -0.119430 
#    y 0.000000 4.006160 0.000000 
#    z -0.119430 0.000000 3.843030 
# 
# 
# High freq. dielectric constant tensor:
#      x y z
#    x 1.797620 0.000000 -0.013010 
#    y 0.000000 1.841470 0.000000 
#    z -0.013010 0.000000 1.831950 
# 
# From -- ./inp_files/98759.got.cif
#   From: 2010.06.25/outbox.cif.g09.slc.cpg/sg15_50_cif.got.tgz:98759.got - 2010.06.28 07:06:18.
