data_PCOD8144579
_publ_section_title
;
Structure prediction by ZEFSAII (Michael W. Deem and Ramdas Pophale) SiO2 
 PCOD8144579
Probable space group: C 2/C
;
_chemical_formula_sum "Si O2"
_cell_formula_units_Z 56
_cell_length_a 19.580390
_cell_length_b 8.886674
_cell_length_c 28.222819
_cell_angle_alpha 90.000000
_cell_angle_beta 148.639228
_cell_angle_gamma 90.000000
_cell_volume 2555.755051
_symmetry_space_group_name_H-M "C 2/C"
_symmetry_group_IT_number 15
_symmetry_cell_setting 'monoclinic'
loop_
_space_group_symop_operation_xyz
x,y,z
-x,y,1/2-z
-x,-y,-z
x,-y,1/2+z
1/2+x,1/2+y,z
1/2-x,1/2+y,1/2-z
1/2-x,1/2-y,-z
1/2+x,1/2-y,1/2+z
loop_
_atom_site_type_symbol
_atom_site_label
_atom_site_fract_x
_atom_site_fract_y
_atom_site_fract_z
Si Si1 0.351639 0.967305 0.396966
Si Si2 0.524432 0.474851 0.069558
Si Si3 0.208635 0.417389 0.989044
Si Si4 0.246816 0.643024 0.323877
Si Si5 0.257302 0.056331 0.585565
Si Si6 0.439330 0.850445 0.867895
Si Si7 0.847157 0.103734 0.147890
O O1 0.322992 0.791450 0.385074
O O2 0.500000 0.000000 0.500000
O O3 0.344731 0.032229 0.339317
O O4 0.239709 0.047669 0.360340
O O5 0.660060 0.561109 0.159867
O O6 0.546891 0.302205 0.094767
O O7 0.500000 0.500000 0.000000
O O8 0.397731 0.545842 0.020576
O O9 0.166685 0.493699 0.914918
O O10 0.083875 0.420479 0.949671
O O11 0.250000 0.250000 0.000000
O O12 0.320324 0.509752 0.083742
O O13 0.212504 0.541834 0.349512
O O14 0.114621 0.681821 0.216979
O O15 0.308194 0.223450 0.620596
O O16 0.000000 0.084891 0.250000
#
# Coordination Sequence:
#
# PCOD8144579 Si02
#       7
#     8   8   8   8   8   8   8
#     4  12  23  47  73 104 143 190 244 300 372 430
#     4  10  21  43  68 100 139 192 237 295 368 435
#     4  12  26  48  73 102 146 192 241 298 375 445
#     4  11  25  42  75 107 140 188 247 310 356 442
#     4  11  24  49  70 100 149 194 233 297 380 439
#     4  12  25  43  73 108 142 191 248 303 367 438
#     4  12  29  47  74 109 145 191 249 307 367 449
#
# _framework density 21.911332999999999
#
# number of rings (size 3 to 8) (size 9 to 14) (size 15 to 20)
#    0.000    0.571    2.857    6.429    4.000    1.143 
#    0.000    0.000    0.000    0.000    0.000    0.000 
#    0.000    0.000    0.000    0.000    0.000    0.000 
#
# Total GULP energy -347119.905003 kJ/mol
# GULP energy per Si atom -12397.139464 kJ/mol
# Density = 2.186146 g / cm^3
# Si number density = 21.911333 Si / 1000 Ang^3
#
#
#
# Elastic Constant Matrix: (Units=GPa)
#
#
# Indices 1 2 3 4 5 6 
#
# 1 127.5711 73.1390 35.8856 0.0000 -0.3909 0.0000
# 2 73.1390 177.2240 66.3457 0.0000 -8.0908 -0.0001
# 3 35.8856 66.3457 109.5455 0.0000 -3.6221 0.0001
# 4 0.0000 0.0000 0.0000 16.2991 0.0000 6.5191
# 5 -0.3909 -8.0908 -3.6221 0.0000 36.2847 0.0000
# 6 0.0000 -0.0001 0.0001 6.5191 0.0000 44.4035
#
#
#
# Elastic Compliance Matrix: (Units=1/GPa)
#
#
# Indices 1 2 3 4 5 6 
#
# 1 0.010386 -0.003933 -0.001049 0.000000 -0.000870 0.000000
# 2 -0.003933 0.008838 -0.004014 0.000000 0.001528 0.000000
# 3 -0.001049 -0.004014 0.011913 0.000000 0.000283 0.000000
# 4 0.000000 0.000000 0.000000 0.065181 0.000000 -0.009569
# 5 -0.000870 0.001528 0.000283 0.000000 0.027919 0.000000
# 6 0.000000 0.000000 0.000000 -0.009569 0.000000 0.023926
#
#
# Mechanical properties :
#
#
# Convention : Reuss Voigt Hill
#
# Bulk Modulus (GPa) = 76.07568 85.00903 80.54236
# Shear Modulus (GPa) = 29.31928 35.32881 32.32404
#
# Velocity S-wave (km/s) = 3.66196 4.01977 3.84503
# Velocity P-wave (km/s) = 7.25776 7.77340 7.52000
#
# Compressibility (1/GPa) = 0.01314480
#
# Stress axis : x y z
#
# Youngs Moduli (GPa) = 96.28127 113.14542 83.94534
#
# Poissons Ratio (x) = 0.44504 0.08805
# Poissons Ratio (y) = 0.37871 0.33694
# Poissons Ratio (z) = 0.10099 0.45414
#
# Static dielectric constant tensor:
#      x y z
#    x 4.333240 0.000000 0.253240 
#    y 0.000000 4.083880 0.000000 
#    z 0.253240 0.000000 4.215020 
# 
# 
# High freq. dielectric constant tensor:
#      x y z
#    x 1.873720 0.000000 0.000150 
#    y 0.000000 1.872330 0.000000 
#    z 0.000150 0.000000 1.863830 
# 
# From -- ./inp_files/317541.got.cif
#   From: 2010.06.25/outbox.cif.g09.slc.cpg/sg15_159_cif.got.tgz:317541.got - 2010.06.28 07:06:18.
