data_PCOD8144002
_publ_section_title
;
Structure prediction by ZEFSAII (Michael W. Deem and Ramdas Pophale) SiO2 
 PCOD8144002
Probable space group: C 2/C
;
_chemical_formula_sum "Si O2"
_cell_formula_units_Z 48
_cell_length_a 9.384845
_cell_length_b 23.519034
_cell_length_c 9.719206
_cell_angle_alpha 90.000000
_cell_angle_beta 103.919154
_cell_angle_gamma 90.000000
_cell_volume 2082.254548
_symmetry_space_group_name_H-M "C 2/C"
_symmetry_group_IT_number 15
_symmetry_cell_setting 'monoclinic'
loop_
_space_group_symop_operation_xyz
x,y,z
-x,y,1/2-z
-x,-y,-z
x,-y,1/2+z
1/2+x,1/2+y,z
1/2-x,1/2+y,1/2-z
1/2-x,1/2-y,-z
1/2+x,1/2-y,1/2+z
loop_
_atom_site_type_symbol
_atom_site_label
_atom_site_fract_x
_atom_site_fract_y
_atom_site_fract_z
Si Si1 0.050073 0.811015 0.969349
Si Si2 0.704849 0.889029 0.586360
Si Si3 0.395661 0.000516 0.847759
Si Si4 0.500000 0.268025 0.250000
Si Si5 0.712341 0.827349 0.858794
Si Si6 0.603798 0.122895 0.606272
Si Si7 0.500000 0.781374 0.250000
O O1 0.148403 0.864750 0.948993
O O2 0.885311 0.821966 0.881416
O O3 0.090466 0.754630 0.887733
O O4 0.064167 0.804811 0.138000
O O5 0.648891 0.852557 0.703154
O O6 0.572055 0.885884 0.447244
O O7 0.731487 0.953676 0.649626
O O8 0.500000 0.979571 0.750000
O O9 0.330524 0.064535 0.811253
O O10 0.500000 0.000000 0.000000
O O11 0.369486 0.232989 0.145351
O O12 0.683777 0.868082 0.980786
O O13 0.624127 0.178376 0.707277
#
# Coordination Sequence:
#
# PCOD8144002 Si02
#       7
#     8   8   8   4   8   8   4
#     4  12  27  40  67  99 144 187 227 279 356 422
#     4  11  22  42  65  96 136 182 228 287 347 404
#     4  10  21  41  69 102 129 174 235 291 336 399
#     4  12  26  42  65  96 145 188 230 280 348 422
#     4  12  22  43  66 100 138 188 228 279 352 421
#     4  11  23  38  69 101 134 175 237 289 334 403
#     4  12  22  40  63 104 137 172 234 280 334 418
#
# _framework density 23.051936999999999
#
# number of rings (size 3 to 8) (size 9 to 14) (size 15 to 20)
#    0.000    0.667    5.833    2.500    2.333    1.333 
#    0.000    0.833    0.000    2.000    0.000    0.000 
#    0.000    0.000    0.000    0.000    0.000    0.000 
#
# Total GULP energy -297501.040331 kJ/mol
# GULP energy per Si atom -12395.876680 kJ/mol
# Density = 2.299947 g / cm^3
# Si number density = 23.051937 Si / 1000 Ang^3
#
#
#
# Elastic Constant Matrix: (Units=GPa)
#
#
# Indices 1 2 3 4 5 6 
#
# 1 105.3467 65.2377 23.3736 0.0000 -18.2235 0.0000
# 2 65.2377 162.0070 40.5932 0.0000 -23.4852 0.0000
# 3 23.3736 40.5932 102.6752 0.0000 -37.6826 0.0000
# 4 0.0000 0.0000 0.0000 33.5111 0.0000 -16.4744
# 5 -18.2235 -23.4852 -37.6826 0.0000 35.5263 0.0000
# 6 0.0000 0.0000 0.0000 -16.4744 0.0000 30.5336
#
#
#
# Elastic Compliance Matrix: (Units=1/GPa)
#
#
# Indices 1 2 3 4 5 6 
#
# 1 0.013048 -0.004776 0.000353 0.000000 0.003910 0.000000
# 2 -0.004776 0.008763 -0.001884 0.000000 0.001345 0.000000
# 3 0.000353 -0.001884 0.016396 0.000000 0.016327 0.000000
# 4 0.000000 0.000000 0.000000 0.040613 0.000000 0.021913
# 5 0.003910 0.001345 0.016327 0.000000 0.048361 0.000000
# 6 0.000000 0.000000 0.000000 0.021913 0.000000 0.044574
#
#
# Mechanical properties :
#
#
# Convention : Reuss Voigt Hill
#
# Bulk Modulus (GPa) = 39.07193 69.82644 54.44918
# Shear Modulus (GPa) = 25.92027 35.96917 30.94472
#
# Velocity S-wave (km/s) = 3.35689 3.95442 3.66784
# Velocity P-wave (km/s) = 5.65785 7.15588 6.45050
#
# Compressibility (1/GPa) = 0.02559382
#
# Stress axis : x y z
#
# Youngs Moduli (GPa) = 76.63937 114.12063 60.99077
#
# Poissons Ratio (x) = 0.54502 -0.02153
# Poissons Ratio (y) = 0.36602 0.11488
# Poissons Ratio (z) = -0.02705 0.21495
#
# Static dielectric constant tensor:
#      x y z
#    x 3.805250 0.000000 -0.284130 
#    y 0.000000 5.514960 0.000000 
#    z -0.284130 0.000000 4.222910 
# 
# 
# High freq. dielectric constant tensor:
#      x y z
#    x 1.877440 0.000000 -0.030580 
#    y 0.000000 1.909260 0.000000 
#    z -0.030580 0.000000 1.927270 
# 
# From -- ./inp_files/79398.got.cif
#   From: 2010.06.25/outbox.cif.g09.slc.cpg/sg15_40_cif.got.tgz:79398.got - 2010.06.28 07:06:18.
