data_PCOD8144540
_publ_section_title
;
Structure prediction by ZEFSAII (Michael W. Deem and Ramdas Pophale) SiO2 
 PCOD8144540
Probable space group: C 2/C
;
_chemical_formula_sum "Si O2"
_cell_formula_units_Z 64
_cell_length_a 19.242502
_cell_length_b 19.033832
_cell_length_c 25.000945
_cell_angle_alpha 90.000000
_cell_angle_beta 18.725999
_cell_angle_gamma 90.000000
_cell_volume 2939.727619
_symmetry_space_group_name_H-M "C 2/C"
_symmetry_group_IT_number 15
_symmetry_cell_setting 'monoclinic'
loop_
_space_group_symop_operation_xyz
x,y,z
-x,y,1/2-z
-x,-y,-z
x,-y,1/2+z
1/2+x,1/2+y,z
1/2-x,1/2+y,1/2-z
1/2-x,1/2-y,-z
1/2+x,1/2-y,1/2+z
loop_
_atom_site_type_symbol
_atom_site_label
_atom_site_fract_x
_atom_site_fract_y
_atom_site_fract_z
Si Si1 0.233009 0.095712 0.805362
Si Si2 0.256296 0.570681 0.942554
Si Si3 0.272783 0.279006 0.397298
Si Si4 0.737278 0.811075 0.051847
Si Si5 0.089596 0.152527 0.375758
Si Si6 0.119225 0.530418 0.362464
Si Si7 0.165902 0.787138 0.268719
Si Si8 0.100557 0.551328 0.619489
O O1 0.267156 0.160113 0.738631
O O2 0.435428 0.084315 0.696801
O O3 0.210587 0.025802 0.786072
O O4 0.020954 0.108549 0.995768
O O5 0.500000 0.551261 0.750000
O O6 0.229939 0.654736 0.968461
O O7 0.206745 0.524288 0.030935
O O8 0.081409 0.544097 0.028833
O O9 0.500000 0.244348 0.250000
O O10 0.280593 0.310674 0.330983
O O11 0.093276 0.218792 0.534687
O O12 0.500000 0.809519 0.250000
O O13 0.780528 0.886921 0.992761
O O14 0.750000 0.750000 0.000000
O O15 0.917933 0.803591 0.965884
O O16 0.238937 0.100716 0.231064
O O17 0.243733 0.209214 0.290119
O O18 0.000000 0.500000 0.500000
O O19 0.000000 0.538921 0.750000
#
# Coordination Sequence:
#
# PCOD8144540 Si02
#       8
#     8   8   8   8   8   8   8   8
#     4  11  23  43  70  97 138 177 226 278 335 407
#     4  10  23  42  65  97 133 170 223 278 337 401
#     4  11  24  46  68  96 135 171 228 286 342 407
#     4  11  24  44  66 101 140 180 229 277 337 411
#     4  12  24  43  70  97 139 181 227 276 344 411
#     4  11  25  43  67 101 134 174 229 287 341 409
#     4  12  24  44  72  99 132 181 226 282 345 402
#     4  10  21  43  66  98 138 179 222 269 332 407
#
# _framework density 21.770724999999999
#
# number of rings (size 3 to 8) (size 9 to 14) (size 15 to 20)
#    0.000    1.000    5.000    2.250    1.750    0.500 
#    2.250    3.125    0.000    0.000    0.000    0.000 
#    0.000    0.000    0.000    0.000    0.000    0.000 
#
# Total GULP energy -396588.919568 kJ/mol
# GULP energy per Si atom -12393.403737 kJ/mol
# Density = 2.172117 g / cm^3
# Si number density = 21.770725 Si / 1000 Ang^3
#
#
#
# Elastic Constant Matrix: (Units=GPa)
#
#
# Indices 1 2 3 4 5 6 
#
# 1 81.0455 30.7330 30.3953 0.2229 7.3170 0.0964
# 2 30.7330 98.2028 38.8287 -0.3556 2.2905 -0.0992
# 3 30.3953 38.8287 90.2558 0.1936 -8.9360 -0.0989
# 4 0.2229 -0.3556 0.1936 16.5561 -0.2057 2.1613
# 5 7.3170 2.2905 -8.9360 -0.2057 31.0833 0.0468
# 6 0.0964 -0.0992 -0.0989 2.1613 0.0468 26.0529
#
#
#
# Elastic Compliance Matrix: (Units=1/GPa)
#
#
# Indices 1 2 3 4 5 6 
#
# 1 0.015563 -0.003019 -0.004408 -0.000274 -0.004710 -0.000055
# 2 -0.003019 0.013048 -0.004757 0.000354 -0.001616 0.000016
# 3 -0.004408 -0.004757 0.015181 -0.000156 0.005751 0.000058
# 4 -0.000274 0.000354 -0.000156 0.061080 0.000405 -0.005066
# 5 -0.004710 -0.001616 0.005751 0.000405 0.035056 -0.000063
# 6 -0.000055 0.000016 0.000058 -0.005066 -0.000063 0.038804
#
#
# Mechanical properties :
#
#
# Convention : Reuss Voigt Hill
#
# Bulk Modulus (GPa) = 51.48632 52.15757 51.82194
# Shear Modulus (GPa) = 23.85790 26.04160 24.94975
#
# Velocity S-wave (km/s) = 3.31399 3.46233 3.38897
# Velocity P-wave (km/s) = 6.19225 6.32403 6.25849
#
# Compressibility (1/GPa) = 0.01942264
#
# Stress axis : x y z
#
# Youngs Moduli (GPa) = 64.25598 76.64146 65.87326
#
# Poissons Ratio (x) = 0.23135 0.29038
# Poissons Ratio (y) = 0.19397 0.31339
# Poissons Ratio (z) = 0.28325 0.36462
#
# Static dielectric constant tensor:
#      x y z
#    x 4.108380 -0.000250 0.120790 
#    y -0.000250 4.297380 0.002340 
#    z 0.120790 0.002340 4.146470 
# 
# 
# High freq. dielectric constant tensor:
#      x y z
#    x 1.859460 0.000000 -0.007180 
#    y 0.000000 1.860300 0.000140 
#    z -0.007180 0.000140 1.854170 
# 
# From -- ./inp_files/278105.got.cif
#   From: 2010.06.25/outbox.cif.g09.slc.cpg/sg15_140_cif.got.tgz:278105.got - 2010.06.28 07:06:18.
