data_PCOD8144037
_publ_section_title
;
Structure prediction by ZEFSAII (Michael W. Deem and Ramdas Pophale) SiO2 
 PCOD8144037
Probable space group: C 2/C
;
_chemical_formula_sum "Si O2"
_cell_formula_units_Z 48
_cell_length_a 7.545953
_cell_length_b 28.364339
_cell_length_c 10.623688
_cell_angle_alpha 90.000000
_cell_angle_beta 114.262668
_cell_angle_gamma 90.000000
_cell_volume 2073.004821
_symmetry_space_group_name_H-M "C 2/C"
_symmetry_group_IT_number 15
_symmetry_cell_setting 'monoclinic'
loop_
_space_group_symop_operation_xyz
x,y,z
-x,y,1/2-z
-x,-y,-z
x,-y,1/2+z
1/2+x,1/2+y,z
1/2-x,1/2+y,1/2-z
1/2-x,1/2-y,-z
1/2+x,1/2-y,1/2+z
loop_
_atom_site_type_symbol
_atom_site_label
_atom_site_fract_x
_atom_site_fract_y
_atom_site_fract_z
Si Si1 0.170201 0.298332 0.696847
Si Si2 0.567841 0.733017 0.024606
Si Si3 0.222896 0.408110 0.139889
Si Si4 0.951846 0.871038 0.426445
Si Si5 0.374027 0.007430 0.338927
Si Si6 0.706908 0.896539 0.585703
O O1 0.364036 0.273122 0.810342
O O2 0.223216 0.352007 0.682262
O O3 0.000000 0.297344 0.750000
O O4 0.105032 0.271238 0.549439
O O5 0.750000 0.750000 0.000000
O O6 0.495859 0.683576 0.951619
O O7 0.290332 0.373174 0.269683
O O8 0.353228 0.399605 0.053993
O O9 0.261230 0.461075 0.205115
O O10 0.000758 0.397427 0.043725
O O11 0.875837 0.894161 0.532220
O O12 0.500000 0.010621 0.250000
O O13 0.257250 0.056444 0.320625
O O14 0.500000 0.000000 0.500000
#
# Coordination Sequence:
#
# PCOD8144037 Si02
#       6
#     8   8   8   8   8   8
#     4  10  22  40  66  95 133 181 228 287 358 421
#     4  10  23  41  66  97 134 179 233 289 358 423
#     4  10  22  41  68 101 140 183 238 287 353 421
#     4  11  24  40  68 101 136 181 238 293 353 425
#     4  10  21  41  70 100 141 189 235 288 357 427
#     4  11  23  42  68  99 141 182 235 292 357 425
#
# _framework density 23.154793999999999
#
# number of rings (size 3 to 8) (size 9 to 14) (size 15 to 20)
#    0.000    1.667    0.000    5.000    9.333    3.333 
#    0.000    5.000    0.000    0.000    0.000    0.000 
#    0.000    0.000    0.000    0.000    0.000    0.000 
#
# Total GULP energy -297524.074196 kJ/mol
# GULP energy per Si atom -12396.836425 kJ/mol
# Density = 2.310209 g / cm^3
# Si number density = 23.154794 Si / 1000 Ang^3
#
#
#
# Elastic Constant Matrix: (Units=GPa)
#
#
# Indices 1 2 3 4 5 6 
#
# 1 86.6883 58.5512 25.3128 0.0000 -27.1373 0.0000
# 2 58.5512 149.5070 46.0753 0.0000 -3.1587 0.0000
# 3 25.3128 46.0753 107.4261 0.0000 5.2178 0.0000
# 4 0.0000 0.0000 0.0000 38.8935 0.0000 -5.8720
# 5 -27.1373 -3.1587 5.2178 0.0000 40.1327 0.0000
# 6 0.0000 0.0000 0.0000 -5.8720 0.0000 28.4771
#
#
#
# Elastic Compliance Matrix: (Units=1/GPa)
#
#
# Indices 1 2 3 4 5 6 
#
# 1 0.021911 -0.007448 -0.002676 0.000000 0.014578 0.000000
# 2 -0.007448 0.010283 -0.002466 0.000000 -0.003907 0.000000
# 3 -0.002676 -0.002466 0.011165 0.000000 -0.003455 0.000000
# 4 0.000000 0.000000 0.000000 0.026537 0.000000 0.005472
# 5 0.014578 -0.003907 -0.003455 0.000000 0.034917 0.000000
# 6 0.000000 0.000000 0.000000 0.005472 0.000000 0.036244
#
#
# Mechanical properties :
#
#
# Convention : Reuss Voigt Hill
#
# Bulk Modulus (GPa) = 55.01044 67.05556 61.03300
# Shear Modulus (GPa) = 29.01957 35.74616 32.38286
#
# Velocity S-wave (km/s) = 3.54402 3.93337 3.74376
# Velocity P-wave (km/s) = 6.36836 7.04635 6.71592
#
# Compressibility (1/GPa) = 0.01817837
#
# Stress axis : x y z
#
# Youngs Moduli (GPa) = 45.63824 97.24853 89.56798
#
# Poissons Ratio (x) = 0.72434 0.23973
# Poissons Ratio (y) = 0.33993 0.22084
# Poissons Ratio (z) = 0.12215 0.23977
#
# Static dielectric constant tensor:
#      x y z
#    x 4.128070 0.000000 0.083100 
#    y 0.000000 4.812420 0.000000 
#    z 0.083100 0.000000 4.444350 
# 
# 
# High freq. dielectric constant tensor:
#      x y z
#    x 1.908560 0.000000 -0.002460 
#    y 0.000000 1.929390 0.000000 
#    z -0.002460 0.000000 1.917360 
# 
# From -- ./inp_files/80907.got.cif
#   From: 2010.06.25/outbox.cif.g09.slc.cpg/sg15_41_cif.got.tgz:80907.got - 2010.06.28 07:06:18.
