data_PCOD8144371
_publ_section_title
;
Structure prediction by ZEFSAII (Michael W. Deem and Ramdas Pophale) SiO2 
 PCOD8144371
Probable space group: C 2/C
;
_chemical_formula_sum "Si O2"
_cell_formula_units_Z 48
_cell_length_a 11.639876
_cell_length_b 15.134936
_cell_length_c 21.200804
_cell_angle_alpha 90.000000
_cell_angle_beta 38.301334
_cell_angle_gamma 90.000000
_cell_volume 2314.893183
_symmetry_space_group_name_H-M "C 2/C"
_symmetry_group_IT_number 15
_symmetry_cell_setting 'monoclinic'
loop_
_space_group_symop_operation_xyz
x,y,z
-x,y,1/2-z
-x,-y,-z
x,-y,1/2+z
1/2+x,1/2+y,z
1/2-x,1/2+y,1/2-z
1/2-x,1/2-y,-z
1/2+x,1/2-y,1/2+z
loop_
_atom_site_type_symbol
_atom_site_label
_atom_site_fract_x
_atom_site_fract_y
_atom_site_fract_z
Si Si1 0.624949 0.626805 0.635137
Si Si2 0.200998 0.946463 0.541729
Si Si3 0.457699 0.171560 0.017029
Si Si4 0.059697 0.293892 0.836669
Si Si5 0.153892 0.549529 0.133444
Si Si6 0.405820 0.663127 0.108292
O O1 0.500000 0.627984 0.750000
O O2 0.605655 0.534239 0.608827
O O3 0.558536 0.703891 0.616297
O O4 0.835271 0.638066 0.564387
O O5 0.347440 0.903324 0.526434
O O6 0.029649 0.880469 0.608778
O O7 0.295023 0.966560 0.433083
O O8 0.460274 0.265174 0.981018
O O9 0.365498 0.188491 0.125123
O O10 0.230303 0.287965 0.714914
O O11 0.925259 0.373884 0.876757
O O12 0.335587 0.588193 0.089880
O O13 0.000000 0.517018 0.250000
#
# Coordination Sequence:
#
# PCOD8144371 Si02
#       6
#     8   8   8   8   8   8
#     4  12  23  42  71  97 124 172 228 265 316 387
#     4  12  27  40  65 104 137 163 212 280 330 376
#     4  12  24  44  67  95 136 172 210 269 328 389
#     4  11  22  43  72  92 124 178 225 261 311 396
#     4  10  21  42  69  93 129 174 222 265 313 380
#     4  11  24  45  66  94 136 177 214 257 330 394
#
# _framework density 20.735298
#
# number of rings (size 3 to 8) (size 9 to 14) (size 15 to 20)
#    0.000    0.667    5.000    3.500    2.333    1.333 
#    3.000    0.000    0.000    0.000    0.000    0.000 
#    0.000    0.000    0.000    0.000    0.000    0.000 
#
# Total GULP energy -297706.261819 kJ/mol
# GULP energy per Si atom -12404.427576 kJ/mol
# Density = 2.068810 g / cm^3
# Si number density = 20.735298 Si / 1000 Ang^3
#
#
#
# Elastic Constant Matrix: (Units=GPa)
#
#
# Indices 1 2 3 4 5 6 
#
# 1 115.3582 60.8031 36.4859 -0.0015 8.8169 -0.0011
# 2 60.8031 64.3987 17.7618 -0.0054 -4.0409 -0.0025
# 3 36.4859 17.7618 58.7802 -0.0129 12.4142 -0.0066
# 4 -0.0015 -0.0054 -0.0129 10.0589 0.0030 -5.5320
# 5 8.8169 -4.0409 12.4142 0.0030 28.8673 0.0015
# 6 -0.0011 -0.0025 -0.0066 -5.5320 0.0015 38.5738
#
#
#
# Elastic Compliance Matrix: (Units=1/GPa)
#
#
# Indices 1 2 3 4 5 6 
#
# 1 0.020663 -0.018255 -0.005980 -0.000014 -0.006295 -0.000003
# 2 -0.018255 0.033759 -0.001150 0.000012 0.010796 0.000003
# 3 -0.005980 -0.001150 0.022790 0.000035 -0.008135 0.000009
# 4 -0.000014 0.000012 0.000035 0.107926 -0.000021 0.015478
# 5 -0.006295 0.010796 -0.008135 -0.000021 0.041574 -0.000006
# 6 -0.000003 0.000003 0.000009 0.015478 -0.000006 0.028144
#
#
# Mechanical properties :
#
#
# Convention : Reuss Voigt Hill
#
# Bulk Modulus (GPa) = 37.81915 52.07098 44.94507
# Shear Modulus (GPa) = 15.90128 23.73241 19.81685
#
# Velocity S-wave (km/s) = 2.77225 3.38678 3.09480
# Velocity P-wave (km/s) = 5.34095 6.36085 5.87308
#
# Compressibility (1/GPa) = 0.02644163
#
# Stress axis : x y z
#
# Youngs Moduli (GPa) = 48.39545 29.62214 43.87853
#
# Poissons Ratio (x) = 0.54075 0.26241
# Poissons Ratio (y) = 0.88346 0.05045
# Poissons Ratio (z) = 0.28942 0.03406
#
# Static dielectric constant tensor:
#      x y z
#    x 3.772760 0.000000 0.190650 
#    y 0.000000 3.807790 0.000000 
#    z 0.190650 0.000000 3.979790 
# 
# 
# High freq. dielectric constant tensor:
#      x y z
#    x 1.813450 0.000000 0.008520 
#    y 0.000000 1.810870 0.000000 
#    z 0.008520 0.000000 1.817600 
# 
# From -- ./inp_files/143833.got.cif
#   From: 2010.06.25/outbox.cif.g09.slc.cpg/sg15_72_cif.got.tgz:143833.got - 2010.06.28 07:06:18.
