data_PCOD8144412
_publ_section_title
;
Structure prediction by ZEFSAII (Michael W. Deem and Ramdas Pophale) SiO2 
 PCOD8144412
Probable space group: C 2/C
;
_chemical_formula_sum "Si O2"
_cell_formula_units_Z 40
_cell_length_a 17.674238
_cell_length_b 6.885945
_cell_length_c 20.565072
_cell_angle_alpha 90.000000
_cell_angle_beta 47.676899
_cell_angle_gamma 90.000000
_cell_volume 1850.504938
_symmetry_space_group_name_H-M "C 2/C"
_symmetry_group_IT_number 15
_symmetry_cell_setting 'monoclinic'
loop_
_space_group_symop_operation_xyz
x,y,z
-x,y,1/2-z
-x,-y,-z
x,-y,1/2+z
1/2+x,1/2+y,z
1/2-x,1/2+y,1/2-z
1/2-x,1/2-y,-z
1/2+x,1/2-y,1/2+z
loop_
_atom_site_type_symbol
_atom_site_label
_atom_site_fract_x
_atom_site_fract_y
_atom_site_fract_z
Si Si1 0.078036 0.446349 0.759698
Si Si2 0.179829 0.883467 0.127241
Si Si3 0.538173 0.150582 0.424132
Si Si4 0.363155 0.397014 0.491649
Si Si5 0.738220 0.718871 0.870495
O O1 0.111466 0.229116 0.719601
O O2 0.023734 0.445458 0.861235
O O3 0.178200 0.579232 0.709792
O O4 0.000000 0.530202 0.750000
O O5 0.116584 0.898056 0.097016
O O6 0.201342 0.099358 0.137298
O O7 0.285682 0.773929 0.054757
O O8 0.468808 0.344680 0.467018
O O9 0.656117 0.211768 0.364567
O O10 0.500000 0.000000 0.500000
O O11 0.322265 0.607321 0.537120
#
# Coordination Sequence:
#
# PCOD8144412 Si02
#       5
#     8   8   8   8   8
#     4  11  26  47  66  95 140 185 225 276 344 417
#     4  10  21  43  68  97 134 179 221 280 337 405
#     4  12  25  45  70 102 140 179 225 290 345 399
#     4  10  21  42  70  98 137 173 223 276 338 407
#     4  11  25  41  71 104 133 175 230 282 343 405
#
# _framework density 21.61572
#
# number of rings (size 3 to 8) (size 9 to 14) (size 15 to 20)
#    0.000    1.200    4.000    1.200    2.800    2.400 
#    3.600    0.000    0.000    0.000    0.000    0.000 
#    0.000    0.000    0.000    0.000    0.000    0.000 
#
# Total GULP energy -248055.797756 kJ/mol
# GULP energy per Si atom -12402.789888 kJ/mol
# Density = 2.156652 g / cm^3
# Si number density = 21.615720 Si / 1000 Ang^3
#
#
#
# Elastic Constant Matrix: (Units=GPa)
#
#
# Indices 1 2 3 4 5 6 
#
# 1 123.4476 38.8566 48.2356 0.0000 -1.9919 0.0002
# 2 38.8566 104.9765 27.6704 -0.0001 1.2485 -0.0002
# 3 48.2356 27.6704 96.8463 -0.0001 15.6645 0.0004
# 4 0.0000 -0.0001 -0.0001 21.7139 -0.0001 -5.4999
# 5 -1.9919 1.2485 15.6645 -0.0001 42.9977 0.0001
# 6 0.0002 -0.0002 0.0004 -5.4999 0.0001 35.9292
#
#
#
# Elastic Compliance Matrix: (Units=1/GPa)
#
#
# Indices 1 2 3 4 5 6 
#
# 1 0.010994 -0.002759 -0.005082 0.000000 0.002441 0.000000
# 2 -0.002759 0.011021 -0.001809 0.000000 0.000211 0.000000
# 3 -0.005082 -0.001809 0.014243 0.000000 -0.005372 0.000000
# 4 0.000000 0.000000 0.000000 0.047911 0.000000 0.007334
# 5 0.002441 0.000211 -0.005372 0.000000 0.025321 0.000000
# 6 0.000000 0.000000 0.000000 0.007334 0.000000 0.028955
#
#
# Mechanical properties :
#
#
# Convention : Reuss Voigt Hill
#
# Bulk Modulus (GPa) = 58.97003 61.64397 60.30700
# Shear Modulus (GPa) = 30.59995 34.16202 32.38098
#
# Velocity S-wave (km/s) = 3.76657 3.97977 3.87464
# Velocity P-wave (km/s) = 6.80121 7.04969 6.92656
#
# Compressibility (1/GPa) = 0.01695777
#
# Stress axis : x y z
#
# Youngs Moduli (GPa) = 90.95654 90.73212 70.21118
#
# Poissons Ratio (x) = 0.25032 0.35684
# Poissons Ratio (y) = 0.25094 0.12702
# Poissons Ratio (z) = 0.46228 0.16414
#
# Static dielectric constant tensor:
#      x y z
#    x 4.020820 0.000000 -0.100320 
#    y 0.000000 3.817170 0.000000 
#    z -0.100320 0.000000 3.766470 
# 
# 
# High freq. dielectric constant tensor:
#      x y z
#    x 1.860010 0.000000 -0.007840 
#    y 0.000000 1.844900 0.000000 
#    z -0.007840 0.000000 1.845000 
# 
# From -- ./inp_files/278796.got.cif
#   From: 2010.06.25/outbox.cif.g09.slc.cpg/sg15_140_cif.got.tgz:278796.got - 2010.06.28 07:06:18.
