data_PCOD8144146
_publ_section_title
;
Structure prediction by ZEFSAII (Michael W. Deem and Ramdas Pophale) SiO2 
 PCOD8144146
Probable space group: C 2/C
;
_chemical_formula_sum "Si O2"
_cell_formula_units_Z 64
_cell_length_a 24.416186
_cell_length_b 11.606440
_cell_length_c 10.963190
_cell_angle_alpha 90.000000
_cell_angle_beta 97.086167
_cell_angle_gamma 90.000000
_cell_volume 3083.073033
_symmetry_space_group_name_H-M "C 2/C"
_symmetry_group_IT_number 15
_symmetry_cell_setting 'monoclinic'
loop_
_space_group_symop_operation_xyz
x,y,z
-x,y,1/2-z
-x,-y,-z
x,-y,1/2+z
1/2+x,1/2+y,z
1/2-x,1/2+y,1/2-z
1/2-x,1/2-y,-z
1/2+x,1/2-y,1/2+z
loop_
_atom_site_type_symbol
_atom_site_label
_atom_site_fract_x
_atom_site_fract_y
_atom_site_fract_z
Si Si1 0.900294 0.573043 0.557579
Si Si2 0.106123 0.343463 0.817171
Si Si3 0.048477 0.251101 0.581862
Si Si4 0.684894 0.972376 0.666067
Si Si5 0.136547 0.707820 0.735532
Si Si6 0.185932 0.947063 0.800323
Si Si7 0.871689 0.956502 0.450776
Si Si8 0.074499 0.193408 0.010320
O O1 0.921229 0.458169 0.631020
O O2 0.946961 0.623453 0.481518
O O3 0.843288 0.547145 0.471886
O O4 0.889706 0.679660 0.643081
O O5 0.059876 0.279191 0.725298
O O6 0.160889 0.379664 0.757526
O O7 0.118150 0.249172 0.925596
O O8 0.094636 0.162212 0.544592
O O9 0.988013 0.201409 0.550504
O O10 0.749217 0.958550 0.668495
O O11 0.673649 0.101945 0.703150
O O12 0.175488 0.818209 0.752204
O O13 0.084009 0.733246 0.635215
O O14 0.164306 0.032403 0.685377
O O15 0.161438 0.966751 0.929855
O O16 0.915184 0.059889 0.463657
#
# Coordination Sequence:
#
# PCOD8144146 Si02
#       8
#     8   8   8   8   8   8   8   8
#     4  10  21  42  63  93 133 164 222 265 320 399
#     4  10  22  41  62  98 131 164 220 273 316 406
#     4  11  23  43  67  94 130 179 215 273 334 385
#     4  10  23  41  68  94 130 174 213 270 338 387
#     4  10  22  42  60  95 132 162 217 271 316 405
#     4  11  25  42  70  96 131 179 216 276 337 391
#     4  11  25  45  66 101 134 168 236 272 320 412
#     4  11  23  42  67  95 133 173 215 274 339 379
#
# _framework density 20.758507999999999
#
# number of rings (size 3 to 8) (size 9 to 14) (size 15 to 20)
#    0.000    1.500    2.500    1.500    3.500    4.500 
#    4.500    3.750    0.000    0.000    0.000    0.000 
#    0.000    0.000    0.000    0.000    0.000    0.000 
#
# Total GULP energy -396604.172981 kJ/mol
# GULP energy per Si atom -12393.880406 kJ/mol
# Density = 2.071126 g / cm^3
# Si number density = 20.758508 Si / 1000 Ang^3
#
#
#
# Elastic Constant Matrix: (Units=GPa)
#
#
# Indices 1 2 3 4 5 6 
#
# 1 85.1662 13.4649 40.5610 0.0000 13.0973 0.0000
# 2 13.4649 64.1979 28.0339 0.0000 5.5987 0.0000
# 3 40.5610 28.0339 126.1302 0.0000 -5.0256 0.0000
# 4 0.0000 0.0000 0.0000 38.9538 0.0000 -2.6696
# 5 13.0973 5.5987 -5.0256 0.0000 26.4489 0.0000
# 6 0.0000 0.0000 0.0000 -2.6696 0.0000 15.0240
#
#
#
# Elastic Compliance Matrix: (Units=1/GPa)
#
#
# Indices 1 2 3 4 5 6 
#
# 1 0.015658 -0.000191 -0.005341 0.000000 -0.008728 0.000000
# 2 -0.000191 0.017780 -0.004068 0.000000 -0.004442 0.000000
# 3 -0.005341 -0.004068 0.010771 0.000000 0.005552 0.000000
# 4 0.000000 0.000000 0.000000 0.025988 0.000000 0.004618
# 5 -0.008728 -0.004442 0.005552 0.000000 0.044126 0.000000
# 6 0.000000 0.000000 0.000000 0.004618 0.000000 0.067381
#
#
# Mechanical properties :
#
#
# Convention : Reuss Voigt Hill
#
# Bulk Modulus (GPa) = 39.98183 48.84598 44.41391
# Shear Modulus (GPa) = 23.89615 28.98096 26.43855
#
# Velocity S-wave (km/s) = 3.39654 3.74050 3.57266
# Velocity P-wave (km/s) = 5.88933 6.49898 6.20165
#
# Compressibility (1/GPa) = 0.02501136
#
# Stress axis : x y z
#
# Youngs Moduli (GPa) = 63.86679 56.24143 92.84176
#
# Poissons Ratio (x) = 0.01073 0.49582
# Poissons Ratio (y) = 0.01218 0.37764
# Poissons Ratio (z) = 0.34108 0.22877
#
# Static dielectric constant tensor:
#      x y z
#    x 3.374150 0.000000 -0.117730 
#    y 0.000000 3.913170 0.000000 
#    z -0.117730 0.000000 4.181390 
# 
# 
# High freq. dielectric constant tensor:
#      x y z
#    x 1.784840 0.000000 -0.008240 
#    y 0.000000 1.827530 0.000000 
#    z -0.008240 0.000000 1.837220 
# 
# From -- ./inp_files/118040.got.cif
#   From: 2010.06.25/outbox.cif.g09.slc.cpg/sg15_60_cif.got.tgz:118040.got - 2010.06.28 07:06:18.
