data_PCOD8144742
_publ_section_title
;
Structure prediction by ZEFSAII (Michael W. Deem and Ramdas Pophale) SiO2 
 PCOD8144742
Probable space group: C 2/C
;
_chemical_formula_sum "Si O2"
_cell_formula_units_Z 56
_cell_length_a 11.440094
_cell_length_b 16.832534
_cell_length_c 16.820577
_cell_angle_alpha 90.000000
_cell_angle_beta 51.108240
_cell_angle_gamma 90.000000
_cell_volume 2521.074494
_symmetry_space_group_name_H-M "C 2/C"
_symmetry_group_IT_number 15
_symmetry_cell_setting 'monoclinic'
loop_
_space_group_symop_operation_xyz
x,y,z
-x,y,1/2-z
-x,-y,-z
x,-y,1/2+z
1/2+x,1/2+y,z
1/2-x,1/2+y,1/2-z
1/2-x,1/2-y,-z
1/2+x,1/2-y,1/2+z
loop_
_atom_site_type_symbol
_atom_site_label
_atom_site_fract_x
_atom_site_fract_y
_atom_site_fract_z
Si Si1 0.391757 0.210340 0.368591
Si Si2 0.591916 0.210791 0.966976
Si Si3 0.862073 0.184600 0.480177
Si Si4 0.111381 0.544558 0.880065
Si Si5 0.831394 0.405204 0.311010
Si Si6 0.860502 0.960362 0.865159
Si Si7 0.816130 0.463665 0.935036
O O1 0.500000 0.197640 0.250000
O O2 0.475612 0.231359 0.416019
O O3 0.270606 0.275377 0.394331
O O4 0.308769 0.128452 0.422827
O O5 0.517611 0.271160 0.935384
O O6 0.570803 0.117293 0.957037
O O7 0.750000 0.250000 0.500000
O O8 0.792524 0.145443 0.589198
O O9 0.880904 0.126772 0.395869
O O10 0.199289 0.587207 0.769661
O O11 0.213976 0.474676 0.872909
O O12 0.957147 0.500745 0.923495
O O13 0.819932 0.494979 0.347950
O O14 0.000000 0.369526 0.250000
O O15 0.000000 0.982314 0.750000
O O16 0.837870 0.018583 0.950502
#
# Coordination Sequence:
#
# PCOD8144742 Si02
#       7
#     8   8   8   8   8   8   8
#     4  11  25  44  70  98 138 181 230 277 344 407
#     4  11  26  44  65 103 139 178 226 285 341 407
#     4  11  25  44  65 102 145 179 224 288 346 412
#     4  11  22  43  71  94 129 182 229 277 334 407
#     4   9  20  38  66  98 128 174 228 281 336 402
#     4  11  25  41  67 101 135 174 224 282 344 399
#     4  10  21  44  68  98 129 172 238 274 323 413
#
# _framework density 22.212751000000001
#
# number of rings (size 3 to 8) (size 9 to 14) (size 15 to 20)
#    0.000    1.429    1.429    4.286    4.000    5.714 
#    0.000    2.857    0.000    0.000    0.000    0.000 
#    0.000    0.000    0.000    0.000    0.000    0.000 
#
# Total GULP energy -346896.849398 kJ/mol
# GULP energy per Si atom -12389.173193 kJ/mol
# Density = 2.216219 g / cm^3
# Si number density = 22.212751 Si / 1000 Ang^3
#
#
#
# Elastic Constant Matrix: (Units=GPa)
#
#
# Indices 1 2 3 4 5 6 
#
# 1 86.6733 38.1934 31.7930 -0.0004 26.8248 0.0002
# 2 38.1934 97.5959 26.3202 -0.0002 2.6319 0.0001
# 3 31.7930 26.3202 150.6505 -0.0007 10.7632 0.0005
# 4 -0.0004 -0.0002 -0.0007 22.1236 0.0005 7.2426
# 5 26.8248 2.6319 10.7632 0.0005 23.2576 -0.0003
# 6 0.0002 0.0001 0.0005 7.2426 -0.0003 35.4485
#
#
#
# Elastic Compliance Matrix: (Units=1/GPa)
#
#
# Indices 1 2 3 4 5 6 
#
# 1 0.023659 -0.008097 -0.001752 0.000001 -0.025561 0.000000
# 2 -0.008097 0.013527 -0.001254 0.000000 0.008388 0.000000
# 3 -0.001752 -0.001254 0.007314 0.000000 -0.001222 0.000000
# 4 0.000001 0.000000 0.000000 0.048440 -0.000002 -0.009897
# 5 -0.025561 0.008388 -0.001222 -0.000002 0.072094 0.000001
# 6 0.000000 0.000000 0.000000 -0.009897 0.000001 0.030232
#
#
# Mechanical properties :
#
#
# Convention : Reuss Voigt Hill
#
# Bulk Modulus (GPa) = 44.85476 58.61475 51.73475
# Shear Modulus (GPa) = 22.23165 32.07348 27.15257
#
# Velocity S-wave (km/s) = 3.16705 3.80402 3.50006
# Velocity P-wave (km/s) = 5.79748 6.76308 6.29881
#
# Compressibility (1/GPa) = 0.02229418
#
# Stress axis : x y z
#
# Youngs Moduli (GPa) = 42.26674 73.92638 136.72380
#
# Poissons Ratio (x) = 0.59858 0.23956
# Poissons Ratio (y) = 0.34224 0.17143
# Poissons Ratio (z) = 0.07406 0.09269
#
# Static dielectric constant tensor:
#      x y z
#    x 3.901140 -0.000010 0.386640 
#    y -0.000010 1.079020 0.000000 
#    z 0.386640 0.000000 4.662870 
# 
# 
# High freq. dielectric constant tensor:
#      x y z
#    x 1.860680 0.000000 0.023890 
#    y 0.000000 1.874750 0.000000 
#    z 0.023890 0.000000 1.889460 
# 
# From -- ./inp_files/199459.got.cif
#   From: 2010.06.25/outbox.cif.g09.slc.cpg/sg15_100_cif.got.tgz:199459.got - 2010.06.28 07:06:18.
