data_PCOD8144397
_publ_section_title
;
Structure prediction by ZEFSAII (Michael W. Deem and Ramdas Pophale) SiO2 
 PCOD8144397
Probable space group: C 2/C
;
_chemical_formula_sum "Si O2"
_cell_formula_units_Z 36
_cell_length_a 21.091008
_cell_length_b 8.706627
_cell_length_c 15.070739
_cell_angle_alpha 90.000000
_cell_angle_beta 40.248550
_cell_angle_gamma 90.000000
_cell_volume 1788.070757
_symmetry_space_group_name_H-M "C 2/C"
_symmetry_group_IT_number 15
_symmetry_cell_setting 'monoclinic'
loop_
_space_group_symop_operation_xyz
x,y,z
-x,y,1/2-z
-x,-y,-z
x,-y,1/2+z
1/2+x,1/2+y,z
1/2-x,1/2+y,1/2-z
1/2-x,1/2-y,-z
1/2+x,1/2-y,1/2+z
loop_
_atom_site_type_symbol
_atom_site_label
_atom_site_fract_x
_atom_site_fract_y
_atom_site_fract_z
Si Si1 0.722516 0.582865 0.850265
Si Si2 0.509709 0.520005 0.141675
Si Si3 0.000000 0.720921 0.250000
Si Si4 0.299191 0.581103 0.302914
Si Si5 0.297314 0.913320 0.935178
O O1 0.742147 0.530730 0.728777
O O2 0.770431 0.747341 0.810489
O O3 0.777450 0.464990 0.856362
O O4 0.606195 0.585430 0.992131
O O5 0.500000 0.596192 0.250000
O O6 0.515057 0.333136 0.148130
O O7 0.417041 0.567582 0.181188
O O8 0.912067 0.602366 0.329828
O O9 0.251727 0.536712 0.447358
O O10 0.250000 0.750000 0.000000
#
# Coordination Sequence:
#
# PCOD8144397 Si02
#       5
#     8   8   4   8   8
#     4  12  26  43  69  98 134 174 221 270 327 390
#     4  10  21  42  70  91 134 176 212 267 341 380
#     4  10  22  38  76  94 128 172 220 266 334 382
#     4  12  26  43  69  98 134 174 221 270 327 390
#     4  12  21  44  67  97 131 169 219 267 325 389
#
# _framework density 20.133431999999999
#
# number of rings (size 3 to 8) (size 9 to 14) (size 15 to 20)
#    0.667    0.000    6.667    2.667    0.000    1.778 
#    0.000    2.222    0.000    0.000    0.000    0.000 
#    0.000    0.000    0.000    0.000    0.000    0.000 
#
# Total GULP energy -223240.949013 kJ/mol
# GULP energy per Si atom -12402.274945 kJ/mol
# Density = 2.008761 g / cm^3
# Si number density = 20.133432 Si / 1000 Ang^3
#
#
#
# Elastic Constant Matrix: (Units=GPa)
#
#
# Indices 1 2 3 4 5 6 
#
# 1 148.5981 53.0942 38.8280 0.0000 -22.4276 0.0000
# 2 53.0942 95.0196 2.0346 0.0001 -8.8288 -0.0001
# 3 38.8280 2.0346 47.6640 0.0000 -15.8037 0.0000
# 4 0.0000 0.0001 0.0000 30.6873 0.0000 0.3402
# 5 -22.4276 -8.8288 -15.8037 0.0000 51.4260 0.0000
# 6 0.0000 -0.0001 0.0000 0.3402 0.0000 41.4598
#
#
#
# Elastic Compliance Matrix: (Units=1/GPa)
#
#
# Indices 1 2 3 4 5 6 
#
# 1 0.011297 -0.006011 -0.008523 0.000000 0.001275 0.000000
# 2 -0.006011 0.013895 0.004705 0.000000 0.001210 0.000000
# 3 -0.008523 0.004705 0.029794 0.000000 0.006247 0.000000
# 4 0.000000 0.000000 0.000000 0.032590 0.000000 -0.000267
# 5 0.001275 0.001210 0.006247 0.000000 0.022129 0.000000
# 6 0.000000 0.000000 0.000000 -0.000267 0.000000 0.024122
#
#
# Mechanical properties :
#
#
# Convention : Reuss Voigt Hill
#
# Bulk Modulus (GPa) = 28.30766 53.24394 40.77580
# Shear Modulus (GPa) = 30.25517 37.86963 34.06240
#
# Velocity S-wave (km/s) = 3.88072 4.34168 4.11765
# Velocity P-wave (km/s) = 5.84555 7.18585 6.55008
#
# Compressibility (1/GPa) = 0.03532612
#
# Stress axis : x y z
#
# Youngs Moduli (GPa) = 88.51860 71.96925 33.56413
#
# Poissons Ratio (x) = 0.43264 0.28608
# Poissons Ratio (y) = 0.53213 -0.15792
# Poissons Ratio (z) = 0.75447 -0.33862
#
# Static dielectric constant tensor:
#      x y z
#    x 4.336240 0.000000 -0.425380 
#    y 0.000000 3.319940 -0.000020 
#    z -0.425380 -0.000020 8.393000 
# 
# 
# High freq. dielectric constant tensor:
#      x y z
#    x 1.805220 0.000000 -0.003640 
#    y 0.000000 1.774760 0.000000 
#    z -0.003640 0.000000 1.778460 
# 
# From -- ./inp_files/166738.got.cif
#   From: 2010.06.25/outbox.cif.g09.slc.cpg/sg15_84_cif.got.tgz:166738.got - 2010.06.28 07:06:18.
