data_PCOD8144973
_publ_section_title
;
Structure prediction by ZEFSAII (Michael W. Deem and Ramdas Pophale) SiO2 
 PCOD8144973
Probable space group: C 2/C
;
_chemical_formula_sum "Si O2"
_cell_formula_units_Z 48
_cell_length_a 19.748898
_cell_length_b 19.909801
_cell_length_c 8.955138
_cell_angle_alpha 90.000000
_cell_angle_beta 43.395964
_cell_angle_gamma 90.000000
_cell_volume 2419.144278
_symmetry_space_group_name_H-M "C 2/C"
_symmetry_group_IT_number 15
_symmetry_cell_setting 'monoclinic'
loop_
_space_group_symop_operation_xyz
x,y,z
-x,y,1/2-z
-x,-y,-z
x,-y,1/2+z
1/2+x,1/2+y,z
1/2-x,1/2+y,1/2-z
1/2-x,1/2-y,-z
1/2+x,1/2-y,1/2+z
loop_
_atom_site_type_symbol
_atom_site_label
_atom_site_fract_x
_atom_site_fract_y
_atom_site_fract_z
Si Si1 0.785385 0.566886 0.935150
Si Si2 0.178464 0.441302 0.775965
Si Si3 0.272459 0.207477 0.321704
Si Si4 0.482945 0.223302 0.935722
Si Si5 0.986285 0.593822 0.446732
Si Si6 0.672198 0.697256 0.184810
O O1 0.749512 0.496331 0.919053
O O2 0.875170 0.586186 0.682443
O O3 0.818599 0.554731 0.050934
O O4 0.700127 0.623777 0.073247
O O5 0.206328 0.369070 0.665357
O O6 0.063961 0.453815 0.911779
O O7 0.250000 0.250000 0.500000
O O8 0.183540 0.202721 0.345863
O O9 0.369128 0.246129 0.102621
O O10 0.500000 0.185130 0.750000
O O11 0.558580 0.285977 0.828530
O O12 0.492016 0.172581 0.058502
O O13 0.000000 0.579048 0.250000
O O14 0.750000 0.750000 0.000000
#
# Coordination Sequence:
#
# PCOD8144973 Si02
#       6
#     8   8   8   8   8   8
#     4  11  21  38  55  82 119 157 199 239 302 368
#     4  10  22  36  55  82 116 157 193 245 301 358
#     4  10  23  38  60  91 120 150 199 257 304 355
#     4  11  21  38  57  88 123 158 199 244 300 360
#     4  11  21  32  55  85 120 156 192 241 306 369
#     4  11  21  36  62  84 118 162 196 243 298 359
#
# _framework density 19.841726999999999
#
# number of rings (size 3 to 8) (size 9 to 14) (size 15 to 20)
#    0.000    1.333    3.333    4.000    4.667    1.333 
#    0.000    0.000    0.000    1.000    0.000    0.000 
#    0.000    0.000    0.000    0.000    0.000    0.000 
#
# Total GULP energy -297333.533431 kJ/mol
# GULP energy per Si atom -12388.897226 kJ/mol
# Density = 1.979657 g / cm^3
# Si number density = 19.841727 Si / 1000 Ang^3
#
#
#
# Elastic Constant Matrix: (Units=GPa)
#
#
# Indices 1 2 3 4 5 6 
#
# 1 69.9946 33.2326 30.1566 0.0000 3.1474 0.0000
# 2 33.2326 105.7954 41.2616 0.0000 3.5232 0.0000
# 3 30.1566 41.2616 91.2179 0.0000 19.3550 0.0000
# 4 0.0000 0.0000 0.0000 42.0850 0.0000 -0.5799
# 5 3.1474 3.5232 19.3550 0.0000 35.2388 0.0000
# 6 0.0000 0.0000 0.0000 -0.5799 0.0000 27.6823
#
#
#
# Elastic Compliance Matrix: (Units=1/GPa)
#
#
# Indices 1 2 3 4 5 6 
#
# 1 0.018025 -0.003980 -0.004416 0.000000 0.001214 0.000000
# 2 -0.003980 0.012473 -0.004683 0.000000 0.001680 0.000000
# 3 -0.004416 -0.004683 0.016252 0.000000 -0.008064 0.000000
# 4 0.000000 0.000000 0.000000 0.023768 0.000000 0.000498
# 5 0.001214 0.001680 -0.008064 0.000000 0.032530 0.000000
# 6 0.000000 0.000000 0.000000 0.000498 0.000000 0.036135
#
#
# Mechanical properties :
#
#
# Convention : Reuss Voigt Hill
#
# Bulk Modulus (GPa) = 48.56345 52.92326 50.74336
# Shear Modulus (GPa) = 29.03533 31.82503 30.43018
#
# Velocity S-wave (km/s) = 3.82952 4.00927 3.92043
# Velocity P-wave (km/s) = 6.63944 6.93995 6.79136
#
# Compressibility (1/GPa) = 0.02059162
#
# Stress axis : x y z
#
# Youngs Moduli (GPa) = 55.48002 80.17469 61.53128
#
# Poissons Ratio (x) = 0.31909 0.27173
# Poissons Ratio (y) = 0.22081 0.28813
# Poissons Ratio (z) = 0.24500 0.37544
#
# Static dielectric constant tensor:
#      x y z
#    x 3.896360 0.000000 0.071730 
#    y 0.000000 3.938020 0.000000 
#    z 0.071730 0.000000 3.412370 
# 
# 
# High freq. dielectric constant tensor:
#      x y z
#    x 1.767700 0.000000 0.023630 
#    y 0.000000 1.771250 0.000000 
#    z 0.023630 0.000000 1.758820 
# 
# From -- ./inp_files/57700.got.cif
#   From: 2010.06.25/outbox.cif.g09.slc.cpg/sg15_29_cif.got.tgz:57700.got - 2010.06.28 07:06:18.
