data_PCOD8144784
_publ_section_title
;
Structure prediction by ZEFSAII (Michael W. Deem and Ramdas Pophale) SiO2 
 PCOD8144784
Probable space group: C 2/C
;
_chemical_formula_sum "Si O2"
_cell_formula_units_Z 48
_cell_length_a 14.691010
_cell_length_b 11.524732
_cell_length_c 14.294842
_cell_angle_alpha 90.000000
_cell_angle_beta 109.810576
_cell_angle_gamma 90.000000
_cell_volume 2277.023807
_symmetry_space_group_name_H-M "C 2/C"
_symmetry_group_IT_number 15
_symmetry_cell_setting 'monoclinic'
loop_
_space_group_symop_operation_xyz
x,y,z
-x,y,1/2-z
-x,-y,-z
x,-y,1/2+z
1/2+x,1/2+y,z
1/2-x,1/2+y,1/2-z
1/2-x,1/2-y,-z
1/2+x,1/2-y,1/2+z
loop_
_atom_site_type_symbol
_atom_site_label
_atom_site_fract_x
_atom_site_fract_y
_atom_site_fract_z
Si Si1 0.867263 0.469625 0.344186
Si Si2 0.783733 0.563295 0.622108
Si Si3 0.527504 0.203574 0.150919
Si Si4 0.566778 0.611854 0.527809
Si Si5 0.824916 0.354843 0.517118
Si Si6 0.464455 0.203684 0.637759
O O1 0.792004 0.434218 0.237108
O O2 0.893370 0.606181 0.349417
O O3 0.811358 0.432794 0.419038
O O4 0.969475 0.405474 0.367185
O O5 0.677079 0.580528 0.544841
O O6 0.815172 0.434510 0.604353
O O7 0.854050 0.659779 0.602216
O O8 0.500000 0.203506 0.250000
O O9 0.568191 0.327926 0.131078
O O10 0.432986 0.192840 0.053733
O O11 0.500000 0.500000 0.500000
O O12 0.525652 0.695578 0.433668
O O13 0.750000 0.250000 0.500000
O O14 0.500000 0.253254 0.750000
#
# Coordination Sequence:
#
# PCOD8144784 Si02
#       6
#     8   8   8   8   8   8
#     4  11  22  43  74 102 128 172 234 287 321 391
#     4  11  24  43  67 102 133 173 233 270 333 408
#     4  12  23  45  74  97 135 177 229 277 338 400
#     4  12  27  45  62  99 145 176 214 279 352 405
#     4  12  24  41  69 103 136 174 220 276 335 402
#     4  10  21  44  72  95 129 178 227 277 329 399
#
# _framework density 21.080148999999999
#
# number of rings (size 3 to 8) (size 9 to 14) (size 15 to 20)
#    0.000    0.667    5.000    3.500    2.333    0.667 
#    6.000    0.000    0.000    0.000    0.000    0.000 
#    0.000    0.000    0.000    0.000    0.000    0.000 
#
# Total GULP energy -297632.560264 kJ/mol
# GULP energy per Si atom -12401.356678 kJ/mol
# Density = 2.103217 g / cm^3
# Si number density = 21.080149 Si / 1000 Ang^3
#
#
#
# Elastic Constant Matrix: (Units=GPa)
#
#
# Indices 1 2 3 4 5 6 
#
# 1 84.0075 45.7073 39.5954 0.0000 -2.2353 0.0000
# 2 45.7073 127.9997 46.6609 0.0000 -8.0139 0.0000
# 3 39.5954 46.6609 97.4701 0.0000 -11.8429 0.0000
# 4 0.0000 0.0000 0.0000 21.2794 0.0000 7.8274
# 5 -2.2353 -8.0139 -11.8429 0.0000 37.6829 0.0000
# 6 0.0000 0.0000 0.0000 7.8274 0.0000 24.6357
#
#
#
# Elastic Compliance Matrix: (Units=1/GPa)
#
#
# Indices 1 2 3 4 5 6 
#
# 1 0.016428 -0.004191 -0.004842 0.000000 -0.001439 0.000000
# 2 -0.004191 0.010547 -0.003227 0.000000 0.000980 0.000000
# 3 -0.004842 -0.003227 0.014195 0.000000 0.003488 0.000000
# 4 0.000000 0.000000 0.000000 0.053213 0.000000 -0.016907
# 5 -0.001439 0.000980 0.003488 0.000000 0.027756 0.000000
# 6 0.000000 0.000000 0.000000 -0.016907 0.000000 0.045963
#
#
# Mechanical properties :
#
#
# Convention : Reuss Voigt Hill
#
# Bulk Modulus (GPa) = 60.06297 63.71163 61.88730
# Shear Modulus (GPa) = 25.23035 28.55383 26.89209
#
# Velocity S-wave (km/s) = 3.46334 3.68440 3.57558
# Velocity P-wave (km/s) = 6.67439 6.95621 6.81676
#
# Compressibility (1/GPa) = 0.01664919
#
# Stress axis : x y z
#
# Youngs Moduli (GPa) = 60.87182 94.81336 70.44599
#
# Poissons Ratio (x) = 0.39739 0.34109
# Poissons Ratio (y) = 0.25513 0.22736
# Poissons Ratio (z) = 0.29474 0.30600
#
# Static dielectric constant tensor:
#      x y z
#    x 3.706880 0.000000 -0.056410 
#    y 0.000000 3.756700 0.000000 
#    z -0.056410 0.000000 3.973180 
# 
# 
# High freq. dielectric constant tensor:
#      x y z
#    x 1.823650 0.000000 -0.005650 
#    y 0.000000 1.821090 0.000000 
#    z -0.005650 0.000000 1.837410 
# 
# From -- ./inp_files/152743.got.cif
#   From: 2010.06.25/outbox.cif.g09.slc.cpg/sg15_77_cif.got.tgz:152743.got - 2010.06.28 07:06:18.
