data_PCOD8144160
_publ_section_title
;
Structure prediction by ZEFSAII (Michael W. Deem and Ramdas Pophale) SiO2 
 PCOD8144160
Probable space group: C 2/C
;
_chemical_formula_sum "Si O2"
_cell_formula_units_Z 40
_cell_length_a 4.929380
_cell_length_b 28.906660
_cell_length_c 13.001406
_cell_angle_alpha 90.000000
_cell_angle_beta 103.284847
_cell_angle_gamma 90.000000
_cell_volume 1803.019155
_symmetry_space_group_name_H-M "C 2/C"
_symmetry_group_IT_number 15
_symmetry_cell_setting 'monoclinic'
loop_
_space_group_symop_operation_xyz
x,y,z
-x,y,1/2-z
-x,-y,-z
x,-y,1/2+z
1/2+x,1/2+y,z
1/2-x,1/2+y,1/2-z
1/2-x,1/2-y,-z
1/2+x,1/2-y,1/2+z
loop_
_atom_site_type_symbol
_atom_site_label
_atom_site_fract_x
_atom_site_fract_y
_atom_site_fract_z
Si Si1 0.919793 0.305554 0.857774
Si Si2 0.473048 0.656279 0.463588
Si Si3 0.657324 0.028851 0.871801
Si Si4 0.793407 0.200128 0.821337
Si Si5 0.264046 0.440353 0.011190
O O1 0.671419 0.337681 0.880773
O O2 0.810351 0.253461 0.855717
O O3 0.000000 0.321832 0.750000
O O4 0.210561 0.308578 0.944757
O O5 0.661532 0.666978 0.578270
O O6 0.338385 0.605552 0.454578
O O7 0.500000 0.027837 0.750000
O O8 0.495319 0.064664 0.933240
O O9 0.976291 0.045272 0.893652
O O10 0.667316 0.977262 0.917978
O O11 0.500000 0.187482 0.750000
O O12 0.000000 0.186535 0.750000
#
# Coordination Sequence:
#
# PCOD8144160 Si02
#       5
#     8   8   8   8   8
#     4  11  23  41  61  88 125 170 214 256 314 373
#     4  12  23  40  64  92 126 160 207 271 314 356
#     4  10  21  42  64  86 125 164 193 246 313 374
#     4  11  23  40  61  90 126 170 217 256 310 375
#     4  10  23  39  62  96 120 154 210 247 302 386
#
# _framework density 22.185012
#
# number of rings (size 3 to 8) (size 9 to 14) (size 15 to 20)
#    0.000    1.200    0.000    7.200    0.000    3.200 
#    0.000    6.000    0.000    0.000    0.000    0.000 
#    0.000    0.000    0.000    0.000    0.000    0.000 
#
# Total GULP energy -248004.702502 kJ/mol
# GULP energy per Si atom -12400.235125 kJ/mol
# Density = 2.213452 g / cm^3
# Si number density = 22.185012 Si / 1000 Ang^3
#
#
#
# Elastic Constant Matrix: (Units=GPa)
#
#
# Indices 1 2 3 4 5 6 
#
# 1 126.1443 22.3669 14.0719 0.0000 -14.4583 0.0000
# 2 22.3669 75.8307 25.9695 0.0000 -25.0255 0.0000
# 3 14.0719 25.9695 60.8485 0.0000 -12.3809 0.0000
# 4 0.0000 0.0000 0.0000 14.8078 0.0000 -3.9347
# 5 -14.4583 -25.0255 -12.3809 0.0000 44.6226 0.0000
# 6 0.0000 0.0000 0.0000 -3.9347 0.0000 34.8218
#
#
#
# Elastic Compliance Matrix: (Units=1/GPa)
#
#
# Indices 1 2 3 4 5 6 
#
# 1 0.008507 -0.001675 -0.000936 0.000000 0.001558 0.000000
# 2 -0.001675 0.018351 -0.005788 0.000000 0.008143 0.000000
# 3 -0.000936 -0.005788 0.019499 0.000000 0.001861 0.000000
# 4 0.000000 0.000000 0.000000 0.069622 0.000000 0.007867
# 5 0.001558 0.008143 0.001861 0.000000 0.027998 0.000000
# 6 0.000000 0.000000 0.000000 0.007867 0.000000 0.029607
#
#
# Mechanical properties :
#
#
# Convention : Reuss Voigt Hill
#
# Bulk Modulus (GPa) = 33.82827 43.07113 38.44970
# Shear Modulus (GPa) = 24.97073 32.21147 28.59110
#
# Velocity S-wave (km/s) = 3.35859 3.81458 3.59382
# Velocity P-wave (km/s) = 5.50650 6.23362 5.88130
#
# Compressibility (1/GPa) = 0.02956107
#
# Stress axis : x y z
#
# Youngs Moduli (GPa) = 117.54606 54.49380 51.28347
#
# Poissons Ratio (x) = 0.09127 0.04799
# Poissons Ratio (y) = 0.19687 0.29681
# Poissons Ratio (z) = 0.10999 0.31539
#
# Static dielectric constant tensor:
#      x y z
#    x 4.384120 0.000000 0.041360 
#    y 0.000000 3.748750 0.000000 
#    z 0.041360 0.000000 3.949340 
# 
# 
# High freq. dielectric constant tensor:
#      x y z
#    x 1.902540 0.000000 0.004600 
#    y 0.000000 1.855950 0.000000 
#    z 0.004600 0.000000 1.872400 
# 
# From -- ./inp_files/73346.got.cif
#   From: 2010.06.25/outbox.cif.g09.slc.cpg/sg15_37_cif.got.tgz:73346.got - 2010.06.28 07:06:18.
