data_PCOD8144005
_publ_section_title
;
Structure prediction by ZEFSAII (Michael W. Deem and Ramdas Pophale) SiO2 
 PCOD8144005
Probable space group: C 2/C
;
_chemical_formula_sum "Si O2"
_cell_formula_units_Z 60
_cell_length_a 8.329236
_cell_length_b 22.551248
_cell_length_c 15.422106
_cell_angle_alpha 90.000000
_cell_angle_beta 100.348544
_cell_angle_gamma 90.000000
_cell_volume 2849.684357
_symmetry_space_group_name_H-M "C 2/C"
_symmetry_group_IT_number 15
_symmetry_cell_setting 'monoclinic'
loop_
_space_group_symop_operation_xyz
x,y,z
-x,y,1/2-z
-x,-y,-z
x,-y,1/2+z
1/2+x,1/2+y,z
1/2-x,1/2+y,1/2-z
1/2-x,1/2-y,-z
1/2+x,1/2-y,1/2+z
loop_
_atom_site_type_symbol
_atom_site_label
_atom_site_fract_x
_atom_site_fract_y
_atom_site_fract_z
Si Si1 0.188959 0.547308 0.865021
Si Si2 0.176995 0.513438 0.677753
Si Si3 0.707714 0.552360 0.991188
Si Si4 0.572703 0.729582 0.072551
Si Si5 0.385899 0.622233 0.992998
Si Si6 0.894848 0.331516 0.550287
Si Si7 0.500000 0.309761 0.750000
Si Si8 0.290557 0.119821 0.345305
O O1 0.258400 0.535166 0.775455
O O2 0.256656 0.611880 0.902326
O O3 0.994550 0.546694 0.849491
O O4 0.255051 0.500322 0.940262
O O5 0.290780 0.529834 0.607944
O O6 0.149353 0.442978 0.686009
O O7 0.529915 0.575384 0.995548
O O8 0.842698 0.603207 0.016379
O O9 0.756269 0.703780 0.089585
O O10 0.508033 0.730895 0.164976
O O11 0.455910 0.688903 0.000500
O O12 0.562882 0.795448 0.033446
O O13 0.298624 0.607200 0.073697
O O14 0.053658 0.337057 0.626905
O O15 0.337847 0.350570 0.733430
#
# Coordination Sequence:
#
# PCOD8144005 Si02
#       8
#     8   8   8   8   8   8   4   8
#     4  11  22  37  56  91 122 160 208 259 309 386
#     4  11  24  35  60  89 124 164 211 248 323 379
#     4  11  21  40  60  89 125 163 203 262 315 381
#     4   9  22  43  63  93 118 167 213 261 321 376
#     4  10  22  37  59  88 126 162 202 253 317 372
#     4  10  21  41  69  84 121 170 214 253 318 381
#     4  10  24  36  60  96 126 148 214 268 312 370
#     4  11  22  38  61  91 123 165 202 261 309 377
#
# _framework density 21.054963999999998
#
# number of rings (size 3 to 8) (size 9 to 14) (size 15 to 20)
#    0.000    1.600    2.667    1.600    5.600    3.200 
#    0.000    4.000    0.000    6.400    0.000    0.000 
#    0.000    0.000    0.000    0.000    0.000    0.000 
#
# Total GULP energy -372023.468059 kJ/mol
# GULP energy per Si atom -12400.782269 kJ/mol
# Density = 2.100704 g / cm^3
# Si number density = 21.054964 Si / 1000 Ang^3
#
#
#
# Elastic Constant Matrix: (Units=GPa)
#
#
# Indices 1 2 3 4 5 6 
#
# 1 80.4907 27.9103 31.5260 0.0000 13.0108 0.0000
# 2 27.9103 55.3896 27.2058 0.0000 10.7557 0.0000
# 3 31.5260 27.2058 115.6028 0.0000 -0.6569 0.0000
# 4 0.0000 0.0000 0.0000 16.6838 0.0000 -2.2477
# 5 13.0108 10.7557 -0.6569 0.0000 32.9616 0.0000
# 6 0.0000 0.0000 0.0000 -2.2477 0.0000 24.2496
#
#
#
# Elastic Compliance Matrix: (Units=1/GPa)
#
#
# Indices 1 2 3 4 5 6 
#
# 1 0.016425 -0.005837 -0.003132 0.000000 -0.004641 0.000000
# 2 -0.005837 0.024113 -0.004115 0.000000 -0.005646 0.000000
# 3 -0.003132 -0.004115 0.010489 0.000000 0.002788 0.000000
# 4 0.000000 0.000000 0.000000 0.060696 0.000000 0.005626
# 5 -0.004641 -0.005646 0.002788 0.000000 0.034068 0.000000
# 6 0.000000 0.000000 0.000000 0.005626 0.000000 0.041759
#
#
# Mechanical properties :
#
#
# Convention : Reuss Voigt Hill
#
# Bulk Modulus (GPa) = 40.22745 47.19637 43.71191
# Shear Modulus (GPa) = 22.52221 25.76840 24.14531
#
# Velocity S-wave (km/s) = 3.27415 3.50217 3.39008
# Velocity P-wave (km/s) = 5.78281 6.23041 6.01078
#
# Compressibility (1/GPa) = 0.02485865
#
# Stress axis : x y z
#
# Youngs Moduli (GPa) = 60.88453 41.47223 95.34106
#
# Poissons Ratio (x) = 0.24206 0.29860
# Poissons Ratio (y) = 0.35536 0.39233
# Poissons Ratio (z) = 0.19068 0.17066
#
# Static dielectric constant tensor:
#      x y z
#    x 3.992080 0.000000 0.124680 
#    y 0.000000 3.718690 0.000000 
#    z 0.124680 0.000000 3.948240 
# 
# 
# High freq. dielectric constant tensor:
#      x y z
#    x 1.837250 0.000000 -0.000780 
#    y 0.000000 1.810140 0.000000 
#    z -0.000780 0.000000 1.820230 
# 
# From -- ./inp_files/137891.got.cif
#   From: 2010.06.25/outbox.cif.g09.slc.cpg/sg15_69_cif.got.tgz:137891.got - 2010.06.28 07:06:18.
