data_PCOD8144203
_publ_section_title
;
Structure prediction by ZEFSAII (Michael W. Deem and Ramdas Pophale) SiO2 
 PCOD8144203
Probable space group: C 2/C
;
_chemical_formula_sum "Si O2"
_cell_formula_units_Z 56
_cell_length_a 13.871639
_cell_length_b 18.375774
_cell_length_c 18.829917
_cell_angle_alpha 90.000000
_cell_angle_beta 147.458246
_cell_angle_gamma 90.000000
_cell_volume 2581.872186
_symmetry_space_group_name_H-M "C 2/C"
_symmetry_group_IT_number 15
_symmetry_cell_setting 'monoclinic'
loop_
_space_group_symop_operation_xyz
x,y,z
-x,y,1/2-z
-x,-y,-z
x,-y,1/2+z
1/2+x,1/2+y,z
1/2-x,1/2+y,1/2-z
1/2-x,1/2-y,-z
1/2+x,1/2-y,1/2+z
loop_
_atom_site_type_symbol
_atom_site_label
_atom_site_fract_x
_atom_site_fract_y
_atom_site_fract_z
Si Si1 0.845831 0.085589 0.711008
Si Si2 0.500000 0.320675 0.750000
Si Si3 0.807294 0.074341 0.219356
Si Si4 0.002175 0.325697 0.526075
Si Si5 0.503251 0.796362 0.367298
Si Si6 0.601949 0.679127 0.626206
Si Si7 0.000000 0.416429 0.250000
Si Si8 0.100930 0.940658 0.016408
O O1 0.693057 0.139903 0.591478
O O2 0.938188 0.119417 0.838358
O O3 0.000000 0.075076 0.750000
O O4 0.750834 0.008092 0.666295
O O5 0.659578 0.375070 0.828389
O O6 0.426356 0.271808 0.637236
O O7 0.994842 0.068908 0.377589
O O8 0.637340 0.116480 0.149094
O O9 0.079002 0.305298 0.494299
O O10 0.974370 0.249845 0.551380
O O11 0.294090 0.782854 0.249920
O O12 0.531820 0.870176 0.340968
O O13 0.584995 0.638785 0.540800
O O14 0.186502 0.462815 0.359079
O O15 0.000000 0.000000 0.000000
#
# Coordination Sequence:
#
# PCOD8144203 Si02
#       8
#     8   4   8   8   8   8   4   8
#     4  11  25  45  63  93 132 170 222 274 324 384
#     4  11  20  36  64 102 133 164 210 266 335 408
#     4  12  24  40  65 101 130 170 210 271 337 398
#     4  11  24  42  71  93 133 173 218 273 333 394
#     4   9  20  38  61 103 130 161 210 268 338 397
#     4  10  21  42  65  90 126 175 215 272 319 384
#     4   9  22  38  66  92 137 180 204 270 333 394
#     4  11  23  43  64  94 136 174 223 263 331 394
#
# _framework density 21.689686999999999
#
# number of rings (size 3 to 8) (size 9 to 14) (size 15 to 20)
#    0.000    1.429    3.571    1.286    4.000    1.143 
#    2.571    0.000    1.571    0.000    0.000    0.000 
#    0.000    0.000    0.000    0.000    0.000    0.000 
#
# Total GULP energy -346892.688927 kJ/mol
# GULP energy per Si atom -12389.024605 kJ/mol
# Density = 2.164032 g / cm^3
# Si number density = 21.689687 Si / 1000 Ang^3
#
#
#
# Elastic Constant Matrix: (Units=GPa)
#
#
# Indices 1 2 3 4 5 6 
#
# 1 52.1732 31.6302 16.1963 0.0000 1.8919 -0.0001
# 2 31.6302 136.0860 39.4351 -0.0007 9.2159 -0.0002
# 3 16.1963 39.4351 81.6036 -0.0025 7.0941 0.0004
# 4 0.0000 -0.0007 -0.0025 21.3053 -0.0005 8.4894
# 5 1.8919 9.2159 7.0941 -0.0005 24.8364 0.0005
# 6 -0.0001 -0.0002 0.0004 8.4894 0.0005 36.3503
#
#
#
# Elastic Compliance Matrix: (Units=1/GPa)
#
#
# Indices 1 2 3 4 5 6 
#
# 1 0.022677 -0.004645 -0.002313 -0.000001 0.000657 0.000000
# 2 -0.004645 0.009599 -0.003525 0.000000 -0.002201 0.000000
# 3 -0.002313 -0.003525 0.014652 0.000002 -0.002701 -0.000001
# 4 -0.000001 0.000000 0.000002 0.051753 0.000001 -0.012087
# 5 0.000657 -0.002201 -0.002701 0.000001 0.041801 -0.000001
# 6 0.000000 0.000000 -0.000001 -0.012087 -0.000001 0.030333
#
#
# Mechanical properties :
#
#
# Convention : Reuss Voigt Hill
#
# Bulk Modulus (GPa) = 38.51989 49.37621 43.94805
# Shear Modulus (GPa) = 24.94571 28.67182 26.80877
#
# Velocity S-wave (km/s) = 3.39502 3.63975 3.51951
# Velocity P-wave (km/s) = 5.75902 6.36223 6.06813
#
# Compressibility (1/GPa) = 0.02596061
#
# Stress axis : x y z
#
# Youngs Moduli (GPa) = 44.09704 104.18278 68.25071
#
# Poissons Ratio (x) = 0.48393 0.15788
# Poissons Ratio (y) = 0.20483 0.24060
# Poissons Ratio (z) = 0.10201 0.36727
#
# Static dielectric constant tensor:
#      x y z
#    x 3.756350 0.000000 -0.124180 
#    y 0.000000 4.053190 0.000000 
#    z -0.124180 0.000000 4.190250 
# 
# 
# High freq. dielectric constant tensor:
#      x y z
#    x 1.821470 0.000000 0.000710 
#    y 0.000000 1.858940 0.000000 
#    z 0.000710 0.000000 1.855380 
# 
# From -- ./inp_files/245214.got.cif
#   From: 2010.06.25/outbox.cif.g09.slc.cpg/sg15_123_cif.got.tgz:245214.got - 2010.06.28 07:06:18.
