data_PCOD8144241
_publ_section_title
;
Structure prediction by ZEFSAII (Michael W. Deem and Ramdas Pophale) SiO2 
 PCOD8144241
Probable space group: C 2/C
;
_chemical_formula_sum "Si O2"
_cell_formula_units_Z 64
_cell_length_a 14.622443
_cell_length_b 9.178815
_cell_length_c 28.918383
_cell_angle_alpha 90.000000
_cell_angle_beta 52.400142
_cell_angle_gamma 90.000000
_cell_volume 3075.143360
_symmetry_space_group_name_H-M "C 2/C"
_symmetry_group_IT_number 15
_symmetry_cell_setting 'monoclinic'
loop_
_space_group_symop_operation_xyz
x,y,z
-x,y,1/2-z
-x,-y,-z
x,-y,1/2+z
1/2+x,1/2+y,z
1/2-x,1/2+y,1/2-z
1/2-x,1/2-y,-z
1/2+x,1/2-y,1/2+z
loop_
_atom_site_type_symbol
_atom_site_label
_atom_site_fract_x
_atom_site_fract_y
_atom_site_fract_z
Si Si1 0.668449 0.557613 0.641012
Si Si2 0.201868 0.006100 0.867138
Si Si3 0.600872 0.841279 0.040342
Si Si4 0.775701 0.249208 0.411648
Si Si5 0.539224 0.675297 0.847423
Si Si6 0.127536 0.327530 0.535505
Si Si7 0.386543 0.760974 0.056957
Si Si8 0.124062 0.721057 0.229570
O O1 0.709853 0.390984 0.625980
O O2 0.545920 0.564651 0.652716
O O3 0.763790 0.659641 0.587707
O O4 0.655282 0.621698 0.696981
O O5 0.273609 0.115163 0.877411
O O6 0.116488 0.091062 0.860029
O O7 0.126403 0.906162 0.924457
O O8 0.285507 0.904644 0.810915
O O9 0.618335 0.763378 0.084615
O O10 0.464868 0.844132 0.070688
O O11 0.653875 0.001499 0.026474
O O12 0.661894 0.755701 0.979124
O O13 0.457596 0.796014 0.895925
O O14 0.622577 0.757147 0.785258
O O15 0.250000 0.250000 0.500000
O O16 0.058489 0.271605 0.511167
O O17 0.000000 0.666869 0.250000
#
# Coordination Sequence:
#
# PCOD8144241 Si02
#       8
#     8   8   8   8   8   8   8   8
#     4  10  21  42  66  89 128 171 209 269 320 387
#     4  11  25  42  67  99 129 172 218 277 320 386
#     4  11  24  37  61  97 138 171 213 266 329 403
#     4  11  23  40  61  96 134 168 217 272 327 380
#     4  11  23  42  68  94 131 171 219 264 332 387
#     4  12  22  38  68 100 132 175 214 268 336 400
#     4  11  22  40  62  95 134 170 215 256 331 392
#     4   9  23  46  67  88 127 175 222 266 325 391
#
# _framework density 20.812038000000001
#
# number of rings (size 3 to 8) (size 9 to 14) (size 15 to 20)
#    0.000    1.250    2.500    2.625    5.250    5.000 
#    2.250    3.125    0.000    0.000    0.000    0.000 
#    0.000    0.000    0.000    0.000    0.000    0.000 
#
# Total GULP energy -396775.789838 kJ/mol
# GULP energy per Si atom -12399.243432 kJ/mol
# Density = 2.076467 g / cm^3
# Si number density = 20.812038 Si / 1000 Ang^3
#
#
#
# Elastic Constant Matrix: (Units=GPa)
#
#
# Indices 1 2 3 4 5 6 
#
# 1 98.0671 36.8942 30.0007 0.0000 8.0438 0.0000
# 2 36.8942 113.8262 50.2583 -0.0001 11.3421 -0.0001
# 3 30.0007 50.2583 120.1582 0.0000 16.2189 0.0000
# 4 0.0000 -0.0001 0.0000 34.3203 0.0000 -0.1773
# 5 8.0438 11.3421 16.2189 0.0000 25.1244 0.0000
# 6 0.0000 -0.0001 0.0000 -0.1773 0.0000 28.6751
#
#
#
# Elastic Compliance Matrix: (Units=1/GPa)
#
#
# Indices 1 2 3 4 5 6 
#
# 1 0.011927 -0.003057 -0.001501 0.000000 -0.001470 0.000000
# 2 -0.003057 0.011665 -0.003875 0.000000 -0.001786 0.000000
# 3 -0.001501 -0.003875 0.010973 0.000000 -0.004854 0.000000
# 4 0.000000 0.000000 0.000000 0.029138 0.000000 0.000180
# 5 -0.001470 -0.001786 -0.004854 0.000000 0.044212 0.000000
# 6 0.000000 0.000000 0.000000 0.000180 0.000000 0.034875
#
#
# Mechanical properties :
#
#
# Convention : Reuss Voigt Hill
#
# Bulk Modulus (GPa) = 56.49765 62.92864 59.71315
# Shear Modulus (GPa) = 30.20157 31.95051 31.07604
#
# Velocity S-wave (km/s) = 3.81354 3.92241 3.86836
# Velocity P-wave (km/s) = 6.82615 7.12853 6.97898
#
# Compressibility (1/GPa) = 0.01769985
#
# Stress axis : x y z
#
# Youngs Moduli (GPa) = 83.84509 85.72739 91.13284
#
# Poissons Ratio (x) = 0.26204 0.13679
# Poissons Ratio (y) = 0.25628 0.35312
# Poissons Ratio (z) = 0.12585 0.33218
#
# Static dielectric constant tensor:
#      x y z
#    x 3.804770 0.000000 0.097820 
#    y 0.000000 3.633310 0.000000 
#    z 0.097820 0.000000 3.992370 
# 
# 
# High freq. dielectric constant tensor:
#      x y z
#    x 1.819960 0.000000 0.008250 
#    y 0.000000 1.808880 0.000000 
#    z 0.008250 0.000000 1.811620 
# 
# From -- ./inp_files/312894.got.cif
#   From: 2010.06.25/outbox.cif.g09.slc.cpg/sg15_157_cif.got.tgz:312894.got - 2010.06.28 07:06:18.
