data_PCOD8144218
_publ_section_title
;
Structure prediction by ZEFSAII (Michael W. Deem and Ramdas Pophale) SiO2 
 PCOD8144218
Probable space group: C 2/C
;
_chemical_formula_sum "Si O2"
_cell_formula_units_Z 52
_cell_length_a 16.839390
_cell_length_b 26.924756
_cell_length_c 8.147828
_cell_angle_alpha 90.000000
_cell_angle_beta 142.011865
_cell_angle_gamma 90.000000
_cell_volume 2273.771541
_symmetry_space_group_name_H-M "C 2/C"
_symmetry_group_IT_number 15
_symmetry_cell_setting 'monoclinic'
loop_
_space_group_symop_operation_xyz
x,y,z
-x,y,1/2-z
-x,-y,-z
x,-y,1/2+z
1/2+x,1/2+y,z
1/2-x,1/2+y,1/2-z
1/2-x,1/2-y,-z
1/2+x,1/2-y,1/2+z
loop_
_atom_site_type_symbol
_atom_site_label
_atom_site_fract_x
_atom_site_fract_y
_atom_site_fract_z
Si Si1 0.987882 0.270736 0.037537
Si Si2 0.650176 0.432366 0.984742
Si Si3 0.783886 0.496090 0.938583
Si Si4 0.410654 0.933723 0.869704
Si Si5 0.226611 0.657823 0.307826
Si Si6 0.148217 0.633226 0.814211
Si Si7 0.500000 0.699613 0.750000
O O1 0.000000 0.252862 0.250000
O O2 0.085137 0.315581 0.150868
O O3 0.842074 0.289489 0.765698
O O4 0.019035 0.229173 0.952213
O O5 0.680741 0.468653 0.884334
O O6 0.700299 0.459495 0.227592
O O7 0.721976 0.379001 0.075407
O O8 0.500000 0.420217 0.750000
O O9 0.906376 0.521664 0.230888
O O10 0.841897 0.454210 0.919056
O O11 0.324903 0.886890 0.660885
O O12 0.556345 0.915216 0.137828
O O13 0.378742 0.663396 0.571553
O O14 0.175016 0.640047 0.048148
#
# Coordination Sequence:
#
# PCOD8144218 Si02
#       7
#     8   8   8   8   8   8   4
#     4   9  22  44  70  99 132 167 218 283 336 393
#     4  11  23  39  57  91 134 182 221 262 325 393
#     4  10  23  38  64  93 128 175 227 272 310 388
#     4  10  21  42  65  94 128 171 219 277 324 373
#     4  10  22  43  65  96 136 169 208 274 339 394
#     4  10  22  41  67  92 135 170 209 278 338 385
#     4  12  24  42  74  98 126 180 220 264 344 428
#
# _framework density 22.869492000000001
#
# number of rings (size 3 to 8) (size 9 to 14) (size 15 to 20)
#    0.000    1.846    1.538    2.308    0.000   10.462 
#    5.538    3.846    0.000    0.000    0.000    0.000 
#    0.000    0.000    0.000    0.000    0.000    0.000 
#
# Total GULP energy -322262.164583 kJ/mol
# GULP energy per Si atom -12394.698638 kJ/mol
# Density = 2.281744 g / cm^3
# Si number density = 22.869492 Si / 1000 Ang^3
#
#
#
# Elastic Constant Matrix: (Units=GPa)
#
#
# Indices 1 2 3 4 5 6 
#
# 1 84.5206 16.0986 29.9036 0.0000 11.2492 0.0000
# 2 16.0986 61.8422 21.1502 0.0000 0.6420 0.0000
# 3 29.9036 21.1502 79.5634 0.0000 19.4425 0.0000
# 4 0.0000 0.0000 0.0000 16.6857 0.0000 -0.4097
# 5 11.2492 0.6420 19.4425 0.0000 44.5339 0.0000
# 6 0.0000 0.0000 0.0000 -0.4097 0.0000 11.8167
#
#
#
# Elastic Compliance Matrix: (Units=1/GPa)
#
#
# Indices 1 2 3 4 5 6 
#
# 1 0.013974 -0.002157 -0.004280 0.000000 -0.001630 0.000000
# 2 -0.002157 0.018285 -0.004611 0.000000 0.002294 0.000000
# 3 -0.004280 -0.004611 0.016928 0.000000 -0.006243 0.000000
# 4 0.000000 0.000000 0.000000 0.059983 0.000000 0.002080
# 5 -0.001630 0.002294 -0.006243 0.000000 0.025559 0.000000
# 6 0.000000 0.000000 0.000000 0.002080 0.000000 0.084698
#
#
# Mechanical properties :
#
#
# Convention : Reuss Voigt Hill
#
# Bulk Modulus (GPa) = 36.91196 40.02565 38.46881
# Shear Modulus (GPa) = 19.95594 25.19218 22.57406
#
# Velocity S-wave (km/s) = 2.95719 3.32258 3.14519
# Velocity P-wave (km/s) = 5.27591 5.67971 5.48153
#
# Compressibility (1/GPa) = 0.02709149
#
# Stress axis : x y z
#
# Youngs Moduli (GPa) = 71.56387 54.69074 59.07200
#
# Poissons Ratio (x) = 0.11795 0.25284
# Poissons Ratio (y) = 0.15435 0.27235
# Poissons Ratio (z) = 0.30631 0.25215
#
# Static dielectric constant tensor:
#      x y z
#    x 4.102150 0.000000 -0.035190 
#    y 0.000000 4.180800 0.000000 
#    z -0.035190 0.000000 4.228060 
# 
# 
# High freq. dielectric constant tensor:
#      x y z
#    x 1.894630 0.000000 -0.000080 
#    y 0.000000 1.906590 0.000000 
#    z -0.000080 0.000000 1.898830 
# 
# From -- ./inp_files/52228.got.cif
#   From: 2010.06.25/outbox.cif.g09.slc.cpg/sg15_27_cif.got.tgz:52228.got - 2010.06.28 07:06:18.
