data_PCOD8144557
_publ_section_title
;
Structure prediction by ZEFSAII (Michael W. Deem and Ramdas Pophale) SiO2 
 PCOD8144557
Probable space group: C 2/C
;
_chemical_formula_sum "Si O2"
_cell_formula_units_Z 56
_cell_length_a 8.591737
_cell_length_b 17.156060
_cell_length_c 24.325842
_cell_angle_alpha 90.000000
_cell_angle_beta 132.960872
_cell_angle_gamma 90.000000
_cell_volume 2624.038829
_symmetry_space_group_name_H-M "C 2/C"
_symmetry_group_IT_number 15
_symmetry_cell_setting 'monoclinic'
loop_
_space_group_symop_operation_xyz
x,y,z
-x,y,1/2-z
-x,-y,-z
x,-y,1/2+z
1/2+x,1/2+y,z
1/2-x,1/2+y,1/2-z
1/2-x,1/2-y,-z
1/2+x,1/2-y,1/2+z
loop_
_atom_site_type_symbol
_atom_site_label
_atom_site_fract_x
_atom_site_fract_y
_atom_site_fract_z
Si Si1 0.332099 0.121579 0.661202
Si Si2 0.785294 0.624372 0.436870
Si Si3 0.225508 0.989759 0.828373
Si Si4 0.001501 0.767542 0.449537
Si Si5 0.085876 0.448611 0.829529
Si Si6 0.422761 0.853760 0.389133
Si Si7 0.593805 0.315640 0.587431
O O1 0.500000 0.137045 0.750000
O O2 0.429871 0.153923 0.628607
O O3 0.110106 0.169319 0.618537
O O4 0.280550 0.029223 0.644281
O O5 0.761676 0.543977 0.398103
O O6 0.939023 0.615496 0.526026
O O7 0.552213 0.650391 0.399861
O O8 0.876333 0.686398 0.414873
O O9 0.400843 0.959038 0.828642
O O10 0.000000 0.964079 0.750000
O O11 0.236714 0.083448 0.835047
O O12 0.250000 0.750000 0.500000
O O13 0.958661 0.802487 0.499791
O O14 0.225082 0.377045 0.884434
O O15 0.000000 0.422879 0.750000
O O16 0.314734 0.769526 0.373636
#
# Coordination Sequence:
#
# PCOD8144557 Si02
#       7
#     8   8   8   8   8   8   8
#     4  10  21  43  67  92 132 177 220 274 334 394
#     4  11  21  42  68  93 132 170 216 270 338 387
#     4  11  24  42  65  95 130 171 221 271 328 400
#     4  11  22  41  64 101 132 169 226 276 327 405
#     4  10  23  43  62  94 132 171 220 267 335 398
#     4  10  21  44  66  94 128 170 219 265 332 394
#     4  11  21  42  68  91 131 171 214 276 330 388
#
# _framework density 21.341145999999998
#
# number of rings (size 3 to 8) (size 9 to 14) (size 15 to 20)
#    0.000    1.429    2.857    3.000    0.000    1.714 
#   28.286    0.000    0.000    0.000    0.000    0.000 
#    0.000    0.000    0.000    0.000    0.000    0.000 
#
# Total GULP energy -347148.300071 kJ/mol
# GULP energy per Si atom -12398.153574 kJ/mol
# Density = 2.129257 g / cm^3
# Si number density = 21.341146 Si / 1000 Ang^3
#
#
#
# Elastic Constant Matrix: (Units=GPa)
#
#
# Indices 1 2 3 4 5 6 
#
# 1 92.8132 48.9637 36.8488 0.0000 8.3424 0.0000
# 2 48.9637 134.0131 58.1256 0.0000 16.6804 0.0000
# 3 36.8488 58.1256 90.3451 0.0000 1.5845 0.0000
# 4 0.0000 0.0000 0.0000 27.8868 0.0000 1.1897
# 5 8.3424 16.6804 1.5845 0.0000 37.7532 0.0000
# 6 0.0000 0.0000 0.0000 1.1897 0.0000 34.0296
#
#
#
# Elastic Compliance Matrix: (Units=1/GPa)
#
#
# Indices 1 2 3 4 5 6 
#
# 1 0.014122 -0.003457 -0.003510 0.000000 -0.001446 0.000000
# 2 -0.003457 0.011943 -0.006199 0.000000 -0.004253 0.000000
# 3 -0.003510 -0.006199 0.016439 0.000000 0.002825 0.000000
# 4 0.000000 0.000000 0.000000 0.035913 0.000000 -0.001256
# 5 -0.001446 -0.004253 0.002825 0.000000 0.028568 0.000000
# 6 0.000000 0.000000 0.000000 -0.001256 0.000000 0.029430
#
#
# Mechanical properties :
#
#
# Convention : Reuss Voigt Hill
#
# Bulk Modulus (GPa) = 61.83935 67.22752 64.53344
# Shear Modulus (GPa) = 29.73739 31.48281 30.61010
#
# Velocity S-wave (km/s) = 3.73692 3.84502 3.79135
# Velocity P-wave (km/s) = 6.90354 7.16115 7.03352
#
# Compressibility (1/GPa) = 0.01617093
#
# Stress axis : x y z
#
# Youngs Moduli (GPa) = 70.81286 83.72923 60.82990
#
# Poissons Ratio (x) = 0.28947 0.21352
# Poissons Ratio (y) = 0.24481 0.37710
# Poissons Ratio (z) = 0.24857 0.51906
#
# Static dielectric constant tensor:
#      x y z
#    x 3.775750 0.000000 -0.126820 
#    y 0.000000 4.029650 0.000000 
#    z -0.126820 0.000000 3.700280 
# 
# 
# High freq. dielectric constant tensor:
#      x y z
#    x 1.834740 0.000000 -0.008840 
#    y 0.000000 1.847610 0.000000 
#    z -0.008840 0.000000 1.826150 
# 
# From -- ./inp_files/289782.got.cif
#   From: 2010.06.25/outbox.cif.g09.slc.cpg/sg15_145_cif.got.tgz:289782.got - 2010.06.28 07:06:18.
