data_PCOD8144356
_publ_section_title
;
Structure prediction by ZEFSAII (Michael W. Deem and Ramdas Pophale) SiO2 
 PCOD8144356
Probable space group: C 2/C
;
_chemical_formula_sum "Si O2"
_cell_formula_units_Z 56
_cell_length_a 10.516453
_cell_length_b 16.906524
_cell_length_c 16.698553
_cell_angle_alpha 90.000000
_cell_angle_beta 124.724005
_cell_angle_gamma 90.000000
_cell_volume 2440.193778
_symmetry_space_group_name_H-M "C 2/C"
_symmetry_group_IT_number 15
_symmetry_cell_setting 'monoclinic'
loop_
_space_group_symop_operation_xyz
x,y,z
-x,y,1/2-z
-x,-y,-z
x,-y,1/2+z
1/2+x,1/2+y,z
1/2-x,1/2+y,1/2-z
1/2-x,1/2-y,-z
1/2+x,1/2-y,1/2+z
loop_
_atom_site_type_symbol
_atom_site_label
_atom_site_fract_x
_atom_site_fract_y
_atom_site_fract_z
Si Si1 0.639650 0.232360 0.182920
Si Si2 0.572568 0.105002 0.458485
Si Si3 0.861808 0.431308 0.024445
Si Si4 0.081385 0.820750 0.618039
Si Si5 0.870484 0.711082 0.638433
Si Si6 0.915474 0.139841 0.565236
Si Si7 0.037608 0.973864 0.853252
O O1 0.537372 0.153469 0.140080
O O2 0.760655 0.222943 0.298838
O O3 0.724900 0.248187 0.128828
O O4 0.524629 0.305525 0.159951
O O5 0.503357 0.101650 0.522945
O O6 0.737981 0.147528 0.529359
O O7 0.592252 0.018241 0.426097
O O8 0.824163 0.373424 0.084559
O O9 0.710536 0.438983 0.915049
O O10 0.072017 0.828836 0.520360
O O11 0.931428 0.770732 0.592022
O O12 0.080965 0.906889 0.659627
O O13 0.000000 0.693668 0.750000
O O14 0.976104 0.049844 0.593862
O O15 0.000000 0.000142 0.750000
#
# Coordination Sequence:
#
# PCOD8144356 Si02
#       7
#     8   8   8   8   8   8   8
#     4  11  23  44  65 100 130 179 223 278 333 396
#     4  10  22  41  64  97 136 178 221 269 341 402
#     4  10  21  42  68  98 132 175 221 280 333 395
#     4  11  23  42  71 101 131 170 228 280 335 393
#     4  10  22  42  69 102 135 173 228 282 333 393
#     4  11  25  44  64  99 139 178 218 271 339 410
#     4  11  23  44  69  97 131 175 225 277 337 399
#
# _framework density 22.948995
#
# number of rings (size 3 to 8) (size 9 to 14) (size 15 to 20)
#    0.000    1.429    0.000    5.571    0.000    3.429 
#   33.429    0.000    0.000    0.000    0.000    0.000 
#    0.000    0.000    0.000    0.000    0.000    0.000 
#
# Total GULP energy -347336.162029 kJ/mol
# GULP energy per Si atom -12404.862930 kJ/mol
# Density = 2.289676 g / cm^3
# Si number density = 22.948995 Si / 1000 Ang^3
#
#
#
# Elastic Constant Matrix: (Units=GPa)
#
#
# Indices 1 2 3 4 5 6 
#
# 1 90.9474 40.0314 46.8984 0.0000 16.8295 0.0000
# 2 40.0314 127.2405 52.4224 0.0000 9.5705 0.0000
# 3 46.8984 52.4224 89.4314 0.0000 -0.3128 0.0000
# 4 0.0000 0.0000 0.0000 40.2317 0.0000 4.6176
# 5 16.8295 9.5705 -0.3128 0.0000 31.7571 0.0000
# 6 0.0000 0.0000 0.0000 4.6176 0.0000 42.0076
#
#
#
# Elastic Compliance Matrix: (Units=1/GPa)
#
#
# Indices 1 2 3 4 5 6 
#
# 1 0.017641 -0.001381 -0.008473 0.000000 -0.009016 0.000000
# 2 -0.001381 0.010801 -0.005616 0.000000 -0.002579 0.000000
# 3 -0.008473 -0.005616 0.018939 0.000000 0.006369 0.000000
# 4 0.000000 0.000000 0.000000 0.025174 0.000000 -0.002767
# 5 -0.009016 -0.002579 0.006369 0.000000 0.037107 0.000000
# 6 0.000000 0.000000 0.000000 -0.002767 0.000000 0.024109
#
#
# Mechanical properties :
#
#
# Convention : Reuss Voigt Hill
#
# Bulk Modulus (GPa) = 60.82337 65.14709 62.98523
# Shear Modulus (GPa) = 29.37850 34.01709 31.69779
#
# Velocity S-wave (km/s) = 3.58182 3.85423 3.72052
# Velocity P-wave (km/s) = 6.60811 6.94667 6.77950
#
# Compressibility (1/GPa) = 0.01644105
#
# Stress axis : x y z
#
# Youngs Moduli (GPa) = 56.68676 92.57986 52.79989
#
# Poissons Ratio (x) = 0.12786 0.44737
# Poissons Ratio (y) = 0.07829 0.29654
# Poissons Ratio (z) = 0.48030 0.51996
#
# Static dielectric constant tensor:
#      x y z
#    x 4.197540 0.000000 0.278210 
#    y 0.000000 4.364320 0.000000 
#    z 0.278210 0.000000 3.880910 
# 
# 
# High freq. dielectric constant tensor:
#      x y z
#    x 1.904250 0.000000 0.019060 
#    y 0.000000 1.921620 0.000000 
#    z 0.019060 0.000000 1.897910 
# 
# From -- ./inp_files/199599.got.cif
#   From: 2010.06.25/outbox.cif.g09.slc.cpg/sg15_100_cif.got.tgz:199599.got - 2010.06.28 07:06:18.
