data_PCOD8144726
_publ_section_title
;
Structure prediction by ZEFSAII (Michael W. Deem and Ramdas Pophale) SiO2 
 PCOD8144726
Probable space group: C 2/C
;
_chemical_formula_sum "Si O2"
_cell_formula_units_Z 48
_cell_length_a 13.424279
_cell_length_b 20.405216
_cell_length_c 10.488650
_cell_angle_alpha 90.000000
_cell_angle_beta 48.635142
_cell_angle_gamma 90.000000
_cell_volume 2156.314122
_symmetry_space_group_name_H-M "C 2/C"
_symmetry_group_IT_number 15
_symmetry_cell_setting 'monoclinic'
loop_
_space_group_symop_operation_xyz
x,y,z
-x,y,1/2-z
-x,-y,-z
x,-y,1/2+z
1/2+x,1/2+y,z
1/2-x,1/2+y,1/2-z
1/2-x,1/2-y,-z
1/2+x,1/2-y,1/2+z
loop_
_atom_site_type_symbol
_atom_site_label
_atom_site_fract_x
_atom_site_fract_y
_atom_site_fract_z
Si Si1 0.745599 0.167641 0.274147
Si Si2 0.853290 0.691266 0.402243
Si Si3 0.005714 0.895018 0.027439
Si Si4 0.251655 0.677832 0.750494
Si Si5 0.887186 0.011202 0.437957
Si Si6 0.849573 0.404001 0.402431
O O1 0.687034 0.146343 0.184826
O O2 0.750166 0.245701 0.282166
O O3 0.656945 0.136862 0.460883
O O4 0.895272 0.139515 0.156711
O O5 0.750000 0.750000 0.500000
O O6 0.843968 0.657105 0.549566
O O7 0.000000 0.718101 0.250000
O O8 0.902906 0.840344 0.164789
O O9 0.910100 0.951212 0.051215
O O10 0.094387 0.932382 0.060571
O O11 0.203676 0.641457 0.665211
O O12 0.740369 0.030031 0.510626
O O13 0.000000 0.039133 0.250000
O O14 0.000000 0.426123 0.250000
#
# Coordination Sequence:
#
# PCOD8144726 Si02
#       6
#     8   8   8   8   8   8
#     4  11  23  39  66  99 138 173 220 278 341 408
#     4  10  23  38  57  87 134 181 220 259 323 403
#     4  10  23  40  69  97 128 185 226 281 325 403
#     4  10  24  39  66  98 141 179 220 269 349 412
#     4  10  21  44  67  93 130 176 241 275 324 391
#     4  11  23  42  68 100 135 174 220 287 344 398
#
# _framework density 22.260207000000001
#
# number of rings (size 3 to 8) (size 9 to 14) (size 15 to 20)
#    0.000    1.667    1.667    1.500   14.000    0.000 
#    0.000    1.667    0.000    0.000    0.000    0.000 
#    0.000    0.000    0.000    0.000    0.000    0.000 
#
# Total GULP energy -297388.520041 kJ/mol
# GULP energy per Si atom -12391.188335 kJ/mol
# Density = 2.220954 g / cm^3
# Si number density = 22.260207 Si / 1000 Ang^3
#
#
#
# Elastic Constant Matrix: (Units=GPa)
#
#
# Indices 1 2 3 4 5 6 
#
# 1 95.2598 43.9906 63.6750 0.0000 -3.2276 0.0000
# 2 43.9906 94.1393 40.5494 0.0000 -16.0932 0.0000
# 3 63.6750 40.5494 183.6292 0.0000 -18.0044 0.0000
# 4 0.0000 0.0000 0.0000 26.2170 0.0000 -1.3410
# 5 -3.2276 -16.0932 -18.0044 0.0000 56.1790 0.0000
# 6 0.0000 0.0000 0.0000 -1.3410 0.0000 22.8398
#
#
#
# Elastic Compliance Matrix: (Units=1/GPa)
#
#
# Indices 1 2 3 4 5 6 
#
# 1 0.016218 -0.006017 -0.004515 0.000000 -0.002239 0.000000
# 2 -0.006017 0.014355 -0.000738 0.000000 0.003530 0.000000
# 3 -0.004515 -0.000738 0.007359 0.000000 0.001888 0.000000
# 4 0.000000 0.000000 0.000000 0.038258 0.000000 0.002246
# 5 -0.002239 0.003530 0.001888 0.000000 0.019288 0.000000
# 6 0.000000 0.000000 0.000000 0.002246 0.000000 0.043915
#
#
# Mechanical properties :
#
#
# Convention : Reuss Voigt Hill
#
# Bulk Modulus (GPa) = 64.95646 74.38423 69.67035
# Shear Modulus (GPa) = 29.92891 36.03471 32.98181
#
# Velocity S-wave (km/s) = 3.67072 4.02779 3.85339
# Velocity P-wave (km/s) = 6.87092 7.42423 7.15292
#
# Compressibility (1/GPa) = 0.01539493
#
# Stress axis : x y z
#
# Youngs Moduli (GPa) = 61.66025 69.66102 135.88453
#
# Poissons Ratio (x) = 0.41912 0.61346
# Poissons Ratio (y) = 0.37098 0.10022
# Poissons Ratio (z) = 0.27837 0.05138
#
# Static dielectric constant tensor:
#      x y z
#    x 4.217580 0.000000 0.181130 
#    y 0.000000 3.857440 0.000000 
#    z 0.181130 0.000000 4.569710 
# 
# 
# High freq. dielectric constant tensor:
#      x y z
#    x 1.871820 0.000000 0.003570 
#    y 0.000000 1.854920 0.000000 
#    z 0.003570 0.000000 1.890830 
# 
# From -- ./inp_files/99972.got.cif
#   From: 2010.06.25/outbox.cif.g09.slc.cpg/sg15_50_cif.got.tgz:99972.got - 2010.06.28 07:06:18.
