data_PCOD8144498
_publ_section_title
;
Structure prediction by ZEFSAII (Michael W. Deem and Ramdas Pophale) SiO2 
 PCOD8144498
Probable space group: C 2/C
;
_chemical_formula_sum "Si O2"
_cell_formula_units_Z 44
_cell_length_a 11.284653
_cell_length_b 9.620526
_cell_length_c 26.351112
_cell_angle_alpha 90.000000
_cell_angle_beta 130.801311
_cell_angle_gamma 90.000000
_cell_volume 2165.561086
_symmetry_space_group_name_H-M "C 2/C"
_symmetry_group_IT_number 15
_symmetry_cell_setting 'monoclinic'
loop_
_space_group_symop_operation_xyz
x,y,z
-x,y,1/2-z
-x,-y,-z
x,-y,1/2+z
1/2+x,1/2+y,z
1/2-x,1/2+y,1/2-z
1/2-x,1/2-y,-z
1/2+x,1/2-y,1/2+z
loop_
_atom_site_type_symbol
_atom_site_label
_atom_site_fract_x
_atom_site_fract_y
_atom_site_fract_z
Si Si1 0.546357 0.249433 0.344476
Si Si2 0.749587 0.501009 0.423012
Si Si3 0.000000 0.602534 0.750000
Si Si4 0.454764 0.753833 0.134081
Si Si5 0.481600 0.974326 0.577208
Si Si6 0.710607 0.149562 0.296605
O O1 0.597580 0.403292 0.374957
O O2 0.685197 0.184744 0.348831
O O3 0.387046 0.255121 0.266873
O O4 0.518816 0.157522 0.386393
O O5 0.691992 0.655940 0.419249
O O6 0.856777 0.443915 0.498267
O O7 0.846059 0.504382 0.397601
O O8 0.055630 0.701807 0.810430
O O9 0.143481 0.506758 0.769323
O O10 0.436548 0.886824 0.093926
O O11 0.609366 0.663015 0.166745
#
# Coordination Sequence:
#
# PCOD8144498 Si02
#       6
#     8   8   4   8   8   8
#     4  10  21  43  65  87 127 169 198 257 319 364
#     4  11  26  39  65  95 121 172 213 250 312 363
#     4  10  24  40  60  96 124 164 194 258 322 368
#     4  12  24  40  67  93 125 159 211 260 312 368
#     4  11  23  46  61  88 135 164 210 261 294 380
#     4  10  22  40  65  89 128 158 201 262 316 365
#
# _framework density 20.318061
#
# number of rings (size 3 to 8) (size 9 to 14) (size 15 to 20)
#    0.000    1.455    5.455    1.091    5.091    1.455 
#    0.000    0.909    0.000    0.000    0.000    0.000 
#    0.000    0.000    0.000    0.000    0.000    0.000 
#
# Total GULP energy -272859.505720 kJ/mol
# GULP energy per Si atom -12402.704805 kJ/mol
# Density = 2.027182 g / cm^3
# Si number density = 20.318061 Si / 1000 Ang^3
#
#
#
# Elastic Constant Matrix: (Units=GPa)
#
#
# Indices 1 2 3 4 5 6 
#
# 1 66.7134 26.6036 30.5633 0.0000 -19.3745 0.0000
# 2 26.6036 72.5018 8.9948 0.0000 -14.5159 0.0000
# 3 30.5633 8.9948 62.9346 0.0000 -19.6890 0.0000
# 4 0.0000 0.0000 0.0000 29.5968 0.0000 -0.8897
# 5 -19.3745 -14.5159 -19.6890 0.0000 26.9044 0.0000
# 6 0.0000 0.0000 0.0000 -0.8897 0.0000 25.1421
#
#
#
# Elastic Compliance Matrix: (Units=1/GPa)
#
#
# Indices 1 2 3 4 5 6 
#
# 1 0.023303 -0.006023 -0.008070 0.000000 0.007626 0.000000
# 2 -0.006023 0.017033 0.002605 0.000000 0.006759 0.000000
# 3 -0.008070 0.002605 0.023420 0.000000 0.012733 0.000000
# 4 0.000000 0.000000 0.000000 0.033823 0.000000 0.001197
# 5 0.007626 0.006759 0.012733 0.000000 0.055625 0.000000
# 6 0.000000 0.000000 0.000000 0.001197 0.000000 0.039816
#
#
# Mechanical properties :
#
#
# Convention : Reuss Voigt Hill
#
# Bulk Modulus (GPa) = 24.52201 37.16369 30.84285
# Shear Modulus (GPa) = 21.77798 25.39453 23.58626
#
# Velocity S-wave (km/s) = 3.27747 3.53916 3.41082
# Velocity P-wave (km/s) = 5.13981 5.91874 5.54298
#
# Compressibility (1/GPa) = 0.04077969
#
# Stress axis : x y z
#
# Youngs Moduli (GPa) = 42.91282 58.71019 42.69866
#
# Poissons Ratio (x) = 0.35360 0.34459
# Poissons Ratio (y) = 0.25845 -0.11123
# Poissons Ratio (z) = 0.34632 -0.15294
#
# Static dielectric constant tensor:
#      x y z
#    x 3.693980 0.000000 -0.137770 
#    y 0.000000 3.575410 0.000000 
#    z -0.137770 0.000000 3.592680 
# 
# 
# High freq. dielectric constant tensor:
#      x y z
#    x 1.796350 0.000000 -0.011610 
#    y 0.000000 1.792920 0.000000 
#    z -0.011610 0.000000 1.790900 
# 
# From -- ./inp_files/236068.got.cif
#   From: 2010.06.25/outbox.cif.g09.slc.cpg/sg15_119_cif.got.tgz:236068.got - 2010.06.28 07:06:18.
