data_PCOD8144877
_publ_section_title
;
Structure prediction by ZEFSAII (Michael W. Deem and Ramdas Pophale) SiO2 
 PCOD8144877
Probable space group: C 2/C
;
_chemical_formula_sum "Si O2"
_cell_formula_units_Z 56
_cell_length_a 14.520107
_cell_length_b 27.367298
_cell_length_c 9.400091
_cell_angle_alpha 90.000000
_cell_angle_beta 47.886097
_cell_angle_gamma 90.000000
_cell_volume 2770.947622
_symmetry_space_group_name_H-M "C 2/C"
_symmetry_group_IT_number 15
_symmetry_cell_setting 'monoclinic'
loop_
_space_group_symop_operation_xyz
x,y,z
-x,y,1/2-z
-x,-y,-z
x,-y,1/2+z
1/2+x,1/2+y,z
1/2-x,1/2+y,1/2-z
1/2-x,1/2-y,-z
1/2+x,1/2-y,1/2+z
loop_
_atom_site_type_symbol
_atom_site_label
_atom_site_fract_x
_atom_site_fract_y
_atom_site_fract_z
Si Si1 0.504791 0.638662 0.899303
Si Si2 0.925571 0.526095 0.451215
Si Si3 0.400325 0.534655 0.034831
Si Si4 0.728910 0.535369 0.042721
Si Si5 0.115438 0.800336 0.734937
Si Si6 0.370802 0.189264 0.807430
Si Si7 0.241375 0.393113 0.230487
O O1 0.500000 0.664929 0.750000
O O2 0.644785 0.633716 0.811119
O O3 0.453188 0.585076 0.926791
O O4 0.413732 0.669628 0.093473
O O5 0.869826 0.482468 0.411225
O O6 0.819015 0.562310 0.619568
O O7 0.000000 0.555584 0.250000
O O8 0.000000 0.500000 0.500000
O O9 0.304711 0.546216 0.259513
O O10 0.500000 0.500000 0.000000
O O11 0.347074 0.508699 0.950420
O O12 0.712178 0.584404 0.967912
O O13 0.248819 0.816453 0.534012
O O14 0.123168 0.743101 0.766093
O O15 0.000000 0.810320 0.750000
O O16 0.500000 0.177129 0.750000
O O17 0.359322 0.149300 0.693915
#
# Coordination Sequence:
#
# PCOD8144877 Si02
#       7
#     8   8   8   8   8   8   8
#     4  12  25  42  67 100 137 173 223 280 342 403
#     4  12  24  42  60  84 129 182 225 267 319 393
#     4  12  22  36  59  92 130 165 211 264 325 390
#     4  12  23  39  58  89 128 173 218 266 325 387
#     4  10  21  46  74 101 132 173 224 289 345 398
#     4  10  23  42  74 104 132 168 231 285 336 411
#     4  12  24  42  66  95 132 177 228 273 338 403
#
# _framework density 20.209693999999999
#
# number of rings (size 3 to 8) (size 9 to 14) (size 15 to 20)
#    0.000    0.571    5.714    3.000    2.000    0.000 
#    5.143    1.429    0.000    0.000    0.000    0.000 
#    0.000    0.000    0.000    0.000    0.000    0.000 
#
# Total GULP energy -347030.462970 kJ/mol
# GULP energy per Si atom -12393.945106 kJ/mol
# Density = 2.016370 g / cm^3
# Si number density = 20.209694 Si / 1000 Ang^3
#
#
#
# Elastic Constant Matrix: (Units=GPa)
#
#
# Indices 1 2 3 4 5 6 
#
# 1 138.0090 44.2401 29.5915 0.0000 -6.4077 0.0000
# 2 44.2401 88.1869 29.6739 0.0000 5.0702 0.0000
# 3 29.5915 29.6739 98.8776 0.0000 0.6928 0.0000
# 4 0.0000 0.0000 0.0000 26.0654 0.0000 -5.8338
# 5 -6.4077 5.0702 0.6928 0.0000 33.5701 0.0000
# 6 0.0000 0.0000 0.0000 -5.8338 0.0000 31.3961
#
#
#
# Elastic Compliance Matrix: (Units=1/GPa)
#
#
# Indices 1 2 3 4 5 6 
#
# 1 0.009004 -0.004162 -0.001462 0.000000 0.002377 0.000000
# 2 -0.004162 0.014650 -0.003130 0.000000 -0.002942 0.000000
# 3 -0.001462 -0.003130 0.011491 0.000000 -0.000043 0.000000
# 4 0.000000 0.000000 0.000000 0.040030 0.000000 0.007438
# 5 0.002377 -0.002942 -0.000043 0.000000 0.030687 0.000000
# 6 0.000000 0.000000 0.000000 0.007438 0.000000 0.033233
#
#
# Mechanical properties :
#
#
# Convention : Reuss Voigt Hill
#
# Bulk Modulus (GPa) = 56.70262 59.12052 57.91157
# Shear Modulus (GPa) = 30.77260 32.97752 31.87506
#
# Velocity S-wave (km/s) = 3.90637 4.04390 3.97573
# Velocity P-wave (km/s) = 6.96163 7.14991 7.05640
#
# Compressibility (1/GPa) = 0.01763587
#
# Stress axis : x y z
#
# Youngs Moduli (GPa) = 111.06357 68.26053 87.02507
#
# Poissons Ratio (x) = 0.28407 0.12726
# Poissons Ratio (y) = 0.46219 0.27243
# Poissons Ratio (z) = 0.16242 0.21369
#
# Static dielectric constant tensor:
#      x y z
#    x 8.249010 0.000000 7.986770 
#    y 0.000000 3.716660 0.000000 
#    z 7.986770 0.000000 18.325230 
# 
# 
# High freq. dielectric constant tensor:
#      x y z
#    x 1.798820 0.000000 -0.004070 
#    y 0.000000 1.781830 0.000000 
#    z -0.004070 0.000000 1.793670 
# 
# From -- ./inp_files/43455.got.cif
#   From: 2010.06.25/outbox.cif.g09.slc.cpg/sg15_22_cif.got.tgz:43455.got - 2010.06.28 07:06:18.
