data_PCOD8144314
_publ_section_title
;
Structure prediction by ZEFSAII (Michael W. Deem and Ramdas Pophale) SiO2 
 PCOD8144314
Probable space group: C 2/C
;
_chemical_formula_sum "Si O2"
_cell_formula_units_Z 60
_cell_length_a 8.790812
_cell_length_b 28.723798
_cell_length_c 11.134296
_cell_angle_alpha 90.000000
_cell_angle_beta 94.419626
_cell_angle_gamma 90.000000
_cell_volume 2803.110920
_symmetry_space_group_name_H-M "C 2/C"
_symmetry_group_IT_number 15
_symmetry_cell_setting 'monoclinic'
loop_
_space_group_symop_operation_xyz
x,y,z
-x,y,1/2-z
-x,-y,-z
x,-y,1/2+z
1/2+x,1/2+y,z
1/2-x,1/2+y,1/2-z
1/2-x,1/2-y,-z
1/2+x,1/2-y,1/2+z
loop_
_atom_site_type_symbol
_atom_site_label
_atom_site_fract_x
_atom_site_fract_y
_atom_site_fract_z
Si Si1 0.223984 0.395511 0.813308
Si Si2 0.046918 0.968406 0.388502
Si Si3 0.204408 0.801355 0.960141
Si Si4 0.412287 0.369690 0.357824
Si Si5 0.624759 0.924809 0.353282
Si Si6 0.830460 0.514638 0.029743
Si Si7 0.000000 0.840412 0.750000
Si Si8 0.946065 0.627751 0.423896
O O1 0.194818 0.444477 0.875457
O O2 0.395604 0.374732 0.826870
O O3 0.170232 0.399907 0.671783
O O4 0.108195 0.359728 0.873322
O O5 0.231909 0.973276 0.404936
O O6 0.000000 0.984652 0.250000
O O7 0.003930 0.914711 0.412202
O O8 0.000000 0.000000 0.500000
O O9 0.369566 0.824482 0.959079
O O10 0.109121 0.805605 0.831085
O O11 0.250000 0.750000 0.000000
O O12 0.097596 0.827885 0.048964
O O13 0.500000 0.348288 0.250000
O O14 0.241319 0.385957 0.310787
O O15 0.500000 0.939931 0.250000
O O16 0.528402 0.905931 0.461255
O O17 0.728940 0.968997 0.399926
O O18 0.000000 0.500000 0.000000
#
# Coordination Sequence:
#
# PCOD8144314 Si02
#       8
#     8   8   8   8   8   8   4   8
#     4  10  21  42  67  97 134 175 228 282 342 399
#     4  11  25  45  63  96 139 188 240 282 343 415
#     4  10  22  46  72 100 132 169 225 287 350 424
#     4  10  23  46  66  94 140 183 227 283 355 411
#     4  11  24  38  60  94 138 181 229 277 329 404
#     4  12  25  39  65  96 131 180 234 282 333 399
#     4  10  22  44  74 100 132 174 228 282 350 412
#     4   9  21  42  63  93 134 175 219 281 349 396
#
# _framework density 21.404789000000001
#
# number of rings (size 3 to 8) (size 9 to 14) (size 15 to 20)
#    0.000    1.600    2.667    0.800    5.600    2.133 
#   15.600    0.667    0.000    0.000    0.000    0.000 
#    0.000    0.000    0.000    0.000    0.000    0.000 
#
# Total GULP energy -371731.293536 kJ/mol
# GULP energy per Si atom -12391.043118 kJ/mol
# Density = 2.135607 g / cm^3
# Si number density = 21.404789 Si / 1000 Ang^3
#
#
#
# Elastic Constant Matrix: (Units=GPa)
#
#
# Indices 1 2 3 4 5 6 
#
# 1 115.1994 49.0072 48.8484 0.0000 -5.5163 0.0000
# 2 49.0072 131.3666 65.6183 0.0000 2.2703 0.0000
# 3 48.8484 65.6183 124.8339 0.0000 1.0026 0.0000
# 4 0.0000 0.0000 0.0000 22.7414 0.0000 2.2001
# 5 -5.5163 2.2703 1.0026 0.0000 43.9569 0.0000
# 6 0.0000 0.0000 0.0000 2.2001 0.0000 27.7496
#
#
#
# Elastic Compliance Matrix: (Units=1/GPa)
#
#
# Indices 1 2 3 4 5 6 
#
# 1 0.011166 -0.002718 -0.002954 0.000000 0.001609 0.000000
# 2 -0.002718 0.010992 -0.004708 0.000000 -0.000801 0.000000
# 3 -0.002954 -0.004708 0.011644 0.000000 -0.000393 0.000000
# 4 0.000000 0.000000 0.000000 0.044312 0.000000 -0.003513
# 5 0.001609 -0.000801 -0.000393 0.000000 0.023002 0.000000
# 6 0.000000 0.000000 0.000000 -0.003513 0.000000 0.036315
#
#
# Mechanical properties :
#
#
# Convention : Reuss Voigt Hill
#
# Bulk Modulus (GPa) = 76.66750 77.59421 77.13085
# Shear Modulus (GPa) = 30.76199 32.75133 31.75666
#
# Velocity S-wave (km/s) = 3.79509 3.91588 3.85596
# Velocity P-wave (km/s) = 7.42289 7.53492 7.47912
#
# Compressibility (1/GPa) = 0.01304334
#
# Stress axis : x y z
#
# Youngs Moduli (GPa) = 89.55414 90.97813 85.88020
#
# Poissons Ratio (x) = 0.24729 0.25366
# Poissons Ratio (y) = 0.24342 0.40429
# Poissons Ratio (z) = 0.26451 0.42829
#
# Static dielectric constant tensor:
#      x y z
#    x 4.405840 0.000000 -0.199670 
#    y 0.000000 3.555920 0.000000 
#    z -0.199670 0.000000 4.048980 
# 
# 
# High freq. dielectric constant tensor:
#      x y z
#    x 1.859790 0.000000 -0.010760 
#    y 0.000000 1.800790 0.000000 
#    z -0.010760 0.000000 1.848130 
# 
# From -- ./inp_files/81364.got.cif
#   From: 2010.06.25/outbox.cif.g09.slc.cpg/sg15_41_cif.got.tgz:81364.got - 2010.06.28 07:06:18.
