data_PCOD8144180
_publ_section_title
;
Structure prediction by ZEFSAII (Michael W. Deem and Ramdas Pophale) SiO2 
 PCOD8144180
Probable space group: C 2/C
;
_chemical_formula_sum "Si O2"
_cell_formula_units_Z 60
_cell_length_a 8.308109
_cell_length_b 11.994525
_cell_length_c 27.270392
_cell_angle_alpha 90.000000
_cell_angle_beta 97.852813
_cell_angle_gamma 90.000000
_cell_volume 2692.059971
_symmetry_space_group_name_H-M "C 2/C"
_symmetry_group_IT_number 15
_symmetry_cell_setting 'monoclinic'
loop_
_space_group_symop_operation_xyz
x,y,z
-x,y,1/2-z
-x,-y,-z
x,-y,1/2+z
1/2+x,1/2+y,z
1/2-x,1/2+y,1/2-z
1/2-x,1/2-y,-z
1/2+x,1/2-y,1/2+z
loop_
_atom_site_type_symbol
_atom_site_label
_atom_site_fract_x
_atom_site_fract_y
_atom_site_fract_z
Si Si1 0.680717 0.311164 0.066786
Si Si2 0.486320 0.479488 0.941884
Si Si3 0.900028 0.638159 0.362192
Si Si4 0.190517 0.588157 0.247754
Si Si5 0.695438 0.926517 0.092587
Si Si6 0.665650 0.268550 0.325332
Si Si7 0.996400 0.741006 0.970376
Si Si8 0.000000 0.933159 0.250000
O O1 0.653749 0.438308 0.084461
O O2 0.706030 0.227749 0.112424
O O3 0.835273 0.313346 0.038988
O O4 0.519275 0.272996 0.028571
O O5 0.643383 0.510079 0.916647
O O6 0.449198 0.348013 0.934477
O O7 0.500000 0.500000 0.000000
O O8 0.798864 0.622547 0.308309
O O9 0.924751 0.523513 0.393524
O O10 0.078475 0.686421 0.360047
O O11 0.239113 0.692872 0.284514
O O12 0.336150 0.499059 0.259859
O O13 0.000000 0.548301 0.250000
O O14 0.704993 0.840291 0.138680
O O15 0.633579 0.857680 0.042557
O O16 0.536315 0.355541 0.298006
#
# Coordination Sequence:
#
# PCOD8144180 Si02
#       8
#     8   8   8   8   8   8   8   4
#     4  10  21  42  64  92 134 180 215 279 337 390
#     4  10  22  42  63  92 133 172 226 280 326 404
#     4  11  21  42  66  94 135 171 220 279 328 410
#     4  10  24  45  67 103 136 171 232 284 340 423
#     4  12  24  41  69  98 132 176 229 279 339 412
#     4  11  24  45  66 101 137 172 225 288 345 410
#     4  10  24  42  62  97 133 171 228 273 333 406
#     4  12  22  48  78  90 140 188 214 296 362 394
#
# _framework density 22.287765
#
# number of rings (size 3 to 8) (size 9 to 14) (size 15 to 20)
#    0.000    1.333    6.000    0.000    0.000    5.867 
#    6.000    0.000    0.000    0.000    0.000    0.000 
#    0.000    0.000    0.000    0.000    0.000    0.000 
#
# Total GULP energy -371698.453334 kJ/mol
# GULP energy per Si atom -12389.948444 kJ/mol
# Density = 2.223704 g / cm^3
# Si number density = 22.287765 Si / 1000 Ang^3
#
#
#
# Elastic Constant Matrix: (Units=GPa)
#
#
# Indices 1 2 3 4 5 6 
#
# 1 64.8835 44.1365 8.6015 0.0000 -7.4946 0.0000
# 2 44.1365 140.8157 21.4134 0.0000 -9.8547 0.0000
# 3 8.6015 21.4134 59.7701 0.0000 -11.3813 0.0000
# 4 0.0000 0.0000 0.0000 32.3310 0.0000 1.6592
# 5 -7.4946 -9.8547 -11.3813 0.0000 21.6050 0.0000
# 6 0.0000 0.0000 0.0000 1.6592 0.0000 36.6875
#
#
#
# Elastic Compliance Matrix: (Units=1/GPa)
#
#
# Indices 1 2 3 4 5 6 
#
# 1 0.019952 -0.005968 0.000074 0.000000 0.004238 0.000000
# 2 -0.005968 0.009394 -0.002317 0.000000 0.000994 0.000000
# 3 0.000074 -0.002317 0.019289 0.000000 0.009130 0.000000
# 4 0.000000 0.000000 0.000000 0.031002 0.000000 -0.001402
# 5 0.004238 0.000994 0.009130 0.000000 0.053018 0.000000
# 6 0.000000 0.000000 0.000000 -0.001402 0.000000 0.027321
#
#
# Mechanical properties :
#
#
# Convention : Reuss Voigt Hill
#
# Bulk Modulus (GPa) = 31.04511 45.97468 38.50989
# Shear Modulus (GPa) = 26.71849 30.87925 28.79887
#
# Velocity S-wave (km/s) = 3.46612 3.72624 3.59853
# Velocity P-wave (km/s) = 5.47523 6.25985 5.88064
#
# Compressibility (1/GPa) = 0.03221119
#
# Stress axis : x y z
#
# Youngs Moduli (GPa) = 50.12078 106.44996 51.84334
#
# Poissons Ratio (x) = 0.63532 -0.00383
# Poissons Ratio (y) = 0.29913 0.12014
# Poissons Ratio (z) = -0.00370 0.24669
#
# Static dielectric constant tensor:
#      x y z
#    x 3.770690 0.000000 0.033520 
#    y 0.000000 4.600230 0.000000 
#    z 0.033520 0.000000 4.146110 
# 
# 
# High freq. dielectric constant tensor:
#      x y z
#    x 1.846970 0.000000 -0.011320 
#    y 0.000000 1.896140 0.000000 
#    z -0.011320 0.000000 1.876180 
# 
# From -- ./inp_files/307157.got.cif
#   From: 2010.06.25/outbox.cif.g09.slc.cpg/sg15_154_cif.got.tgz:307157.got - 2010.06.28 07:06:18.
