data_PCOD8144979
_publ_section_title
;
Structure prediction by ZEFSAII (Michael W. Deem and Ramdas Pophale) SiO2 
 PCOD8144979
Probable space group: C 2/C
;
_chemical_formula_sum "Si O2"
_cell_formula_units_Z 64
_cell_length_a 21.603590
_cell_length_b 27.449224
_cell_length_c 5.210883
_cell_angle_alpha 90.000000
_cell_angle_beta 89.840700
_cell_angle_gamma 90.000000
_cell_volume 3090.050957
_symmetry_space_group_name_H-M "C 2/C"
_symmetry_group_IT_number 15
_symmetry_cell_setting 'monoclinic'
loop_
_space_group_symop_operation_xyz
x,y,z
-x,y,1/2-z
-x,-y,-z
x,-y,1/2+z
1/2+x,1/2+y,z
1/2-x,1/2+y,1/2-z
1/2-x,1/2-y,-z
1/2+x,1/2-y,1/2+z
loop_
_atom_site_type_symbol
_atom_site_label
_atom_site_fract_x
_atom_site_fract_y
_atom_site_fract_z
Si Si1 0.354533 0.471449 0.119738
Si Si2 0.439865 0.299561 0.094807
Si Si3 0.653734 0.730999 0.558390
Si Si4 0.210860 0.530599 0.624102
Si Si5 0.183982 0.639617 0.686326
Si Si6 0.761821 0.687494 0.300619
Si Si7 0.071693 0.294123 0.236707
Si Si8 0.962328 0.096391 0.489680
O O1 0.370049 0.486493 0.411311
O O2 0.283209 0.456370 0.110598
O O3 0.395327 0.426269 0.030583
O O4 0.500000 0.285458 0.250000
O O5 0.381760 0.310593 0.281789
O O6 0.421401 0.252535 0.939533
O O7 0.451752 0.346887 0.920985
O O8 0.688894 0.701406 0.331160
O O9 0.704445 0.760189 0.724969
O O10 0.602142 0.772653 0.494503
O O11 0.192205 0.505869 0.354783
O O12 0.175546 0.581391 0.671475
O O13 0.229126 0.656779 0.456969
O O14 0.114714 0.661188 0.643119
O O15 0.213923 0.656495 0.954416
O O16 0.000000 0.311664 0.250000
O O17 0.000000 0.072757 0.250000
O O18 0.000000 0.089561 0.750000
#
# Coordination Sequence:
#
# PCOD8144979 Si02
#       8
#     8   8   8   8   8   8   8   8
#     4  10  22  41  63  85 110 147 199 251 304 358
#     4  11  22  38  56  82 125 168 204 244 291 345
#     4  10  22  36  56  83 126 164 202 249 291 343
#     4  10  22  42  64  90 117 147 188 249 315 367
#     4  11  23  41  64  92 121 159 203 247 302 361
#     4  10  23  37  57  93 121 158 204 245 297 350
#     4  11  22  38  61  87 124 165 207 242 285 355
#     4  11  25  39  56  85 117 157 204 246 300 347
#
# _framework density 20.711632000000002
#
# number of rings (size 3 to 8) (size 9 to 14) (size 15 to 20)
#    0.000    1.500    2.500    1.875    5.250    3.000 
#    0.000    0.000    0.000    0.750    0.000    0.000 
#    0.000    0.000    0.000    0.000    0.000    0.000 
#
# Total GULP energy -396594.952003 kJ/mol
# GULP energy per Si atom -12393.592250 kJ/mol
# Density = 2.066449 g / cm^3
# Si number density = 20.711632 Si / 1000 Ang^3
#
#
#
# Elastic Constant Matrix: (Units=GPa)
#
#
# Indices 1 2 3 4 5 6 
#
# 1 85.1919 25.2065 13.6666 0.0000 -13.2640 0.0000
# 2 25.2065 76.1001 11.4221 0.0000 -0.3651 0.0000
# 3 13.6666 11.4221 89.2011 0.0000 -10.7031 0.0000
# 4 0.0000 0.0000 0.0000 28.2656 0.0000 -6.1818
# 5 -13.2640 -0.3651 -10.7031 0.0000 22.3671 0.0000
# 6 0.0000 0.0000 0.0000 -6.1818 0.0000 33.5562
#
#
#
# Elastic Compliance Matrix: (Units=1/GPa)
#
#
# Indices 1 2 3 4 5 6 
#
# 1 0.014501 -0.004668 -0.000638 0.000000 0.008218 0.000000
# 2 -0.004668 0.014909 -0.001588 0.000000 -0.003285 0.000000
# 3 -0.000638 -0.001588 0.012161 0.000000 0.005415 0.000000
# 4 0.000000 0.000000 0.000000 0.036864 0.000000 0.006791
# 5 0.008218 -0.003285 0.005415 0.000000 0.052120 0.000000
# 6 0.000000 0.000000 0.000000 0.006791 0.000000 0.031052
#
#
# Mechanical properties :
#
#
# Convention : Reuss Voigt Hill
#
# Bulk Modulus (GPa) = 35.99199 39.00930 37.50064
# Shear Modulus (GPa) = 27.07721 30.18429 28.63075
#
# Velocity S-wave (km/s) = 3.61964 3.82168 3.72203
# Velocity P-wave (km/s) = 5.90631 6.19266 6.05118
#
# Compressibility (1/GPa) = 0.02778396
#
# Stress axis : x y z
#
# Youngs Moduli (GPa) = 68.95965 67.07183 82.22678
#
# Poissons Ratio (x) = 0.31310 0.05246
# Poissons Ratio (y) = 0.32191 0.13058
# Poissons Ratio (z) = 0.04399 0.10652
#
# Static dielectric constant tensor:
#      x y z
#    x 3.875900 0.000000 -0.017210 
#    y 0.000000 3.599790 0.000000 
#    z -0.017210 0.000000 3.982040 
# 
# 
# High freq. dielectric constant tensor:
#      x y z
#    x 1.805470 0.000000 -0.009000 
#    y 0.000000 1.788920 0.000000 
#    z -0.009000 0.000000 1.818320 
# 
# From -- ./inp_files/14287.got.cif
#   From: 2010.06.25/outbox.cif.g09.slc.cpg/sg15_8_cif.got.tgz:14287.got - 2010.06.28 07:06:18.
