data_PCOD8144955
_publ_section_title
;
Structure prediction by ZEFSAII (Michael W. Deem and Ramdas Pophale) SiO2 
 PCOD8144955
Probable space group: C 2/C
;
_chemical_formula_sum "Si O2"
_cell_formula_units_Z 64
_cell_length_a 17.475783
_cell_length_b 12.208008
_cell_length_c 14.392586
_cell_angle_alpha 90.000000
_cell_angle_beta 91.250985
_cell_angle_gamma 90.000000
_cell_volume 3069.847178
_symmetry_space_group_name_H-M "C 2/C"
_symmetry_group_IT_number 15
_symmetry_cell_setting 'monoclinic'
loop_
_space_group_symop_operation_xyz
x,y,z
-x,y,1/2-z
-x,-y,-z
x,-y,1/2+z
1/2+x,1/2+y,z
1/2-x,1/2+y,1/2-z
1/2-x,1/2-y,-z
1/2+x,1/2-y,1/2+z
loop_
_atom_site_type_symbol
_atom_site_label
_atom_site_fract_x
_atom_site_fract_y
_atom_site_fract_z
Si Si1 0.596744 0.832273 0.435727
Si Si2 0.954274 0.767560 0.841245
Si Si3 0.832005 0.840729 0.275044
Si Si4 0.585211 0.500296 0.084559
Si Si5 0.661529 0.891299 0.625058
Si Si6 0.658051 0.098787 0.746527
Si Si7 0.440369 0.542827 0.667638
Si Si8 0.333935 0.602200 0.079461
O O1 0.509998 0.795943 0.415056
O O2 0.603518 0.894030 0.535307
O O3 0.628305 0.906836 0.352113
O O4 0.652563 0.727233 0.447289
O O5 0.884399 0.689754 0.814372
O O6 0.000000 0.799554 0.750000
O O7 0.919629 0.872359 0.891034
O O8 0.861003 0.936626 0.342025
O O9 0.840238 0.724068 0.323070
O O10 0.746050 0.866826 0.243975
O O11 0.888427 0.848623 0.185554
O O12 0.497838 0.447579 0.079401
O O13 0.630055 0.487016 0.989883
O O14 0.745025 0.918863 0.588111
O O15 0.639186 0.982063 0.699922
O O16 0.500000 0.517722 0.750000
O O17 0.384300 0.434643 0.669904
#
# Coordination Sequence:
#
# PCOD8144955 Si02
#       8
#     8   8   8   8   8   8   8   8
#     4  11  23  43  67  97 129 177 231 273 325 405
#     4  10  23  41  66  95 131 177 229 266 332 400
#     4  11  22  39  64  95 135 170 214 276 336 393
#     4  11  22  37  65 102 129 167 212 288 337 386
#     4  12  25  44  66 100 135 178 229 269 336 407
#     4  11  25  42  66  94 132 186 219 273 329 399
#     4  10  22  35  59  98 130 164 209 271 344 381
#     4  12  21  38  65  98 133 164 217 279 337 398
#
# _framework density 20.847943000000001
#
# number of rings (size 3 to 8) (size 9 to 14) (size 15 to 20)
#    0.000    1.000    5.000    2.625    5.250    0.500 
#    0.000    7.500    0.000    0.000    0.000    0.000 
#    0.000    0.000    0.000    0.000    0.000    0.000 
#
# Total GULP energy -396616.026345 kJ/mol
# GULP energy per Si atom -12394.250823 kJ/mol
# Density = 2.080049 g / cm^3
# Si number density = 20.847943 Si / 1000 Ang^3
#
#
#
# Elastic Constant Matrix: (Units=GPa)
#
#
# Indices 1 2 3 4 5 6 
#
# 1 121.3174 65.3240 38.2688 0.0000 8.1598 0.0000
# 2 65.3240 120.0464 80.2754 0.0000 2.1618 0.0000
# 3 38.2688 80.2754 93.1921 0.0000 -0.0446 0.0000
# 4 0.0000 0.0000 0.0000 39.8773 0.0000 -1.6286
# 5 8.1598 2.1618 -0.0446 0.0000 31.9819 0.0000
# 6 0.0000 0.0000 0.0000 -1.6286 0.0000 32.9546
#
#
#
# Elastic Compliance Matrix: (Units=1/GPa)
#
#
# Indices 1 2 3 4 5 6 
#
# 1 0.011963 -0.007496 0.001543 0.000000 -0.002543 0.000000
# 2 -0.007496 0.024403 -0.017942 0.000000 0.000238 0.000000
# 3 0.001543 -0.017942 0.025553 0.000000 0.000855 0.000000
# 4 0.000000 0.000000 0.000000 0.025128 0.000000 0.001242
# 5 -0.002543 0.000238 0.000855 0.000000 0.031902 0.000000
# 6 0.000000 0.000000 0.000000 0.001242 0.000000 0.030406
#
#
# Mechanical properties :
#
#
# Convention : Reuss Voigt Hill
#
# Bulk Modulus (GPa) = 70.77815 78.03247 74.40531
# Shear Modulus (GPa) = 24.77031 31.00860 27.88946
#
# Velocity S-wave (km/s) = 3.45068 3.86083 3.66150
# Velocity P-wave (km/s) = 7.06397 7.57530 7.32410
#
# Compressibility (1/GPa) = 0.01412865
#
# Stress axis : x y z
#
# Youngs Moduli (GPa) = 83.58791 40.97866 39.13489
#
# Poissons Ratio (x) = 0.30718 -0.06039
# Poissons Ratio (y) = 0.62659 0.70217
# Poissons Ratio (z) = -0.12899 0.73525
#
# Static dielectric constant tensor:
#      x y z
#    x 4.262860 0.000000 -0.342120 
#    y 0.000000 3.682720 0.000000 
#    z -0.342120 0.000000 4.912460 
# 
# 
# High freq. dielectric constant tensor:
#      x y z
#    x 1.827990 0.000000 0.015290 
#    y 0.000000 1.797300 0.000000 
#    z 0.015290 0.000000 1.823690 
# 
# From -- ./inp_files/161338.got.cif
#   From: 2010.06.25/outbox.cif.g09.slc.cpg/sg15_81_cif.got.tgz:161338.got - 2010.06.28 07:06:18.
