data_PCOD8144030
_publ_section_title
;
Structure prediction by ZEFSAII (Michael W. Deem and Ramdas Pophale) SiO2 
 PCOD8144030
Probable space group: C 2/C
;
_chemical_formula_sum "Si O2"
_cell_formula_units_Z 44
_cell_length_a 12.007163
_cell_length_b 14.306272
_cell_length_c 11.712196
_cell_angle_alpha 90.000000
_cell_angle_beta 97.819100
_cell_angle_gamma 90.000000
_cell_volume 1993.189055
_symmetry_space_group_name_H-M "C 2/C"
_symmetry_group_IT_number 15
_symmetry_cell_setting 'monoclinic'
loop_
_space_group_symop_operation_xyz
x,y,z
-x,y,1/2-z
-x,-y,-z
x,-y,1/2+z
1/2+x,1/2+y,z
1/2-x,1/2+y,1/2-z
1/2-x,1/2-y,-z
1/2+x,1/2-y,1/2+z
loop_
_atom_site_type_symbol
_atom_site_label
_atom_site_fract_x
_atom_site_fract_y
_atom_site_fract_z
Si Si1 0.500000 0.577256 0.250000
Si Si2 0.414537 0.968880 0.149452
Si Si3 0.464955 0.869064 0.520469
Si Si4 0.724703 0.346292 0.431204
Si Si5 0.330851 0.426804 0.303549
Si Si6 0.003575 0.846886 0.504626
O O1 0.390528 0.513170 0.248680
O O2 0.517614 0.643717 0.363059
O O3 0.500000 0.920614 0.250000
O O4 0.430594 0.910813 0.035019
O O5 0.286623 0.964364 0.168112
O O6 0.456296 0.076876 0.140014
O O7 0.344107 0.898960 0.446679
O O8 0.484536 0.759356 0.536395
O O9 0.750000 0.250000 0.500000
O O10 0.685456 0.343130 0.292230
O O11 0.622722 0.396677 0.487590
O O12 0.402619 0.392670 0.421027
#
# Coordination Sequence:
#
# PCOD8144030 Si02
#       6
#     4   8   8   8   8   8
#     4  12  26  40  72 100 140 182 230 302 354 412
#     4  11  24  42  68  94 137 179 230 285 352 419
#     4  10  24  43  66  97 133 180 227 283 349 420
#     4  10  21  41  69  98 136 180 224 285 350 406
#     4  12  24  42  71 103 139 184 240 291 346 430
#     4  11  25  44  70 101 140 179 237 290 355 422
#
# _framework density 22.075177
#
# number of rings (size 3 to 8) (size 9 to 14) (size 15 to 20)
#    0.000    1.091    3.636    1.636    3.818    3.636 
#    0.000    0.000    0.000    0.000    0.000    0.000 
#    0.000    0.000    0.000    0.000    0.000    0.000 
#
# Total GULP energy -272572.549639 kJ/mol
# GULP energy per Si atom -12389.661347 kJ/mol
# Density = 2.202493 g / cm^3
# Si number density = 22.075177 Si / 1000 Ang^3
#
#
#
# Elastic Constant Matrix: (Units=GPa)
#
#
# Indices 1 2 3 4 5 6 
#
# 1 169.8965 31.0996 40.7759 0.0000 -23.7912 0.0000
# 2 31.0996 86.8759 26.1350 0.0000 -13.1584 0.0000
# 3 40.7759 26.1350 127.5246 0.0000 -12.0262 0.0000
# 4 0.0000 0.0000 0.0000 22.2974 0.0000 -1.2490
# 5 -23.7912 -13.1584 -12.0262 0.0000 36.8433 0.0000
# 6 0.0000 0.0000 0.0000 -1.2490 0.0000 23.2542
#
#
#
# Elastic Compliance Matrix: (Units=1/GPa)
#
#
# Indices 1 2 3 4 5 6 
#
# 1 0.007036 -0.001507 -0.001613 0.000000 0.003479 0.000000
# 2 -0.001507 0.013091 -0.001911 0.000000 0.003079 0.000000
# 3 -0.001613 -0.001911 0.008859 0.000000 0.001168 0.000000
# 4 0.000000 0.000000 0.000000 0.044984 0.000000 0.002416
# 5 0.003479 0.003079 0.001168 0.000000 0.030869 0.000000
# 6 0.000000 0.000000 0.000000 0.002416 0.000000 0.043133
#
#
# Mechanical properties :
#
#
# Convention : Reuss Voigt Hill
#
# Bulk Modulus (GPa) = 52.83864 64.47980 58.65922
# Shear Modulus (GPa) = 30.42455 35.56475 32.99465
#
# Velocity S-wave (km/s) = 3.71647 4.01817 3.87026
# Velocity P-wave (km/s) = 6.51183 7.12743 6.82657
#
# Compressibility (1/GPa) = 0.01892554
#
# Stress axis : x y z
#
# Youngs Moduli (GPa) = 142.12661 76.38741 112.87845
#
# Poissons Ratio (x) = 0.11508 0.18206
# Poissons Ratio (y) = 0.21413 0.21569
# Poissons Ratio (z) = 0.22924 0.14596
#
# Static dielectric constant tensor:
#      x y z
#    x 4.542450 0.000000 0.021440 
#    y 0.000000 3.752760 0.000000 
#    z 0.021440 0.000000 4.090710 
# 
# 
# High freq. dielectric constant tensor:
#      x y z
#    x 1.891690 0.000000 -0.007850 
#    y 0.000000 1.845280 0.000000 
#    z -0.007850 0.000000 1.872000 
# 
# From -- ./inp_files/86172.got.cif
#   From: 2010.06.25/outbox.cif.g09.slc.cpg/sg15_44_cif.got.tgz:86172.got - 2010.06.28 07:06:18.
