data_PCOD8144202
_publ_section_title
;
Structure prediction by ZEFSAII (Michael W. Deem and Ramdas Pophale) SiO2 
 PCOD8144202
Probable space group: C 2/C
;
_chemical_formula_sum "Si O2"
_cell_formula_units_Z 48
_cell_length_a 26.982395
_cell_length_b 8.949305
_cell_length_c 9.729165
_cell_angle_alpha 90.000000
_cell_angle_beta 90.178623
_cell_angle_gamma 90.000000
_cell_volume 2349.325883
_symmetry_space_group_name_H-M "C 2/C"
_symmetry_group_IT_number 15
_symmetry_cell_setting 'monoclinic'
loop_
_space_group_symop_operation_xyz
x,y,z
-x,y,1/2-z
-x,-y,-z
x,-y,1/2+z
1/2+x,1/2+y,z
1/2-x,1/2+y,1/2-z
1/2-x,1/2-y,-z
1/2+x,1/2-y,1/2+z
loop_
_atom_site_type_symbol
_atom_site_label
_atom_site_fract_x
_atom_site_fract_y
_atom_site_fract_z
Si Si1 0.763487 0.826660 0.358471
Si Si2 0.873115 0.172725 0.797161
Si Si3 0.113010 0.904794 0.509682
Si Si4 0.041111 0.620910 0.138495
Si Si5 0.478431 0.785080 0.394293
Si Si6 0.217030 0.174685 0.113556
O O1 0.750000 0.750000 0.500000
O O2 0.816854 0.770291 0.305715
O O3 0.721993 0.769380 0.252723
O O4 0.764181 0.005389 0.367473
O O5 0.882123 0.083489 0.655090
O O6 0.906894 0.319010 0.805515
O O7 0.886419 0.069922 0.927387
O O8 0.061285 0.830422 0.549086
O O9 0.159575 0.814220 0.571126
O O10 0.048341 0.444641 0.119623
O O11 0.000000 0.658348 0.250000
O O12 0.025115 0.700646 0.996995
O O13 0.500000 0.726685 0.250000
O O14 0.250000 0.250000 0.000000
#
# Coordination Sequence:
#
# PCOD8144202 Si02
#       6
#     8   8   8   8   8   8
#     4  11  25  42  68  97 129 171 216 268 323 382
#     4  11  25  43  65  93 129 168 211 263 317 380
#     4  11  25  43  64  93 130 167 212 263 317 383
#     4  10  21  42  65  89 129 165 211 266 316 375
#     4  10  23  40  64  94 125 167 212 265 319 374
#     4  11  23  44  67  94 132 170 215 268 321 383
#
# _framework density 20.431391999999999
#
# number of rings (size 3 to 8) (size 9 to 14) (size 15 to 20)
#    0.000    1.333    3.333    1.000    9.333    4.000 
#    0.000    0.000    0.000    0.000    0.000    0.000 
#    0.000    0.000    0.000    0.000    0.000    0.000 
#
# Total GULP energy -297691.510926 kJ/mol
# GULP energy per Si atom -12403.812955 kJ/mol
# Density = 2.038489 g / cm^3
# Si number density = 20.431392 Si / 1000 Ang^3
#
#
#
# Elastic Constant Matrix: (Units=GPa)
#
#
# Indices 1 2 3 4 5 6 
#
# 1 70.9501 20.0632 2.8909 0.0000 -6.0863 0.0000
# 2 20.0632 51.4452 6.6770 0.0000 7.4543 0.0000
# 3 2.8909 6.6770 119.8928 0.0000 -3.7225 0.0000
# 4 0.0000 0.0000 0.0000 31.9895 0.0000 9.1366
# 5 -6.0863 7.4543 -3.7225 0.0000 33.8786 0.0000
# 6 0.0000 0.0000 0.0000 9.1366 0.0000 29.4061
#
#
#
# Elastic Compliance Matrix: (Units=1/GPa)
#
#
# Indices 1 2 3 4 5 6 
#
# 1 0.016488 -0.007106 0.000139 0.000000 0.004541 0.000000
# 2 -0.007106 0.023332 -0.001332 0.000000 -0.006557 0.000000
# 3 0.000139 -0.001332 0.008450 0.000000 0.001247 0.000000
# 4 0.000000 0.000000 0.000000 0.034304 0.000000 -0.010658
# 5 0.004541 -0.006557 0.001247 0.000000 0.031913 0.000000
# 6 0.000000 0.000000 0.000000 -0.010658 0.000000 0.037318
#
#
# Mechanical properties :
#
#
# Convention : Reuss Voigt Hill
#
# Bulk Modulus (GPa) = 31.57238 33.50560 32.53899
# Shear Modulus (GPa) = 27.93913 33.23198 30.58556
#
# Velocity S-wave (km/s) = 3.70193 4.03738 3.87329
# Velocity P-wave (km/s) = 5.81023 6.17808 5.99698
#
# Compressibility (1/GPa) = 0.03167325
#
# Stress axis : x y z
#
# Youngs Moduli (GPa) = 60.65122 42.85885 118.33911
#
# Poissons Ratio (x) = 0.30456 -0.01647
# Poissons Ratio (y) = 0.43099 0.15759
# Poissons Ratio (z) = -0.00844 0.05707
#
# Static dielectric constant tensor:
#      x y z
#    x 4.016530 0.000000 0.061790 
#    y 0.000000 3.555860 0.000000 
#    z 0.061790 0.000000 3.938710 
# 
# 
# High freq. dielectric constant tensor:
#      x y z
#    x 1.800910 0.000000 0.001040 
#    y 0.000000 1.789580 0.000000 
#    z 0.001040 0.000000 1.820230 
# 
# From -- ./inp_files/68559.got.cif
#   From: 2010.06.25/outbox.cif.g09.slc.cpg/sg15_35_cif.got.tgz:68559.got - 2010.06.28 07:06:18.
