data_PCOD8144204
_publ_section_title
;
Structure prediction by ZEFSAII (Michael W. Deem and Ramdas Pophale) SiO2 
 PCOD8144204
Probable space group: C 2/C
;
_chemical_formula_sum "Si O2"
_cell_formula_units_Z 44
_cell_length_a 8.573290
_cell_length_b 28.057024
_cell_length_c 11.760339
_cell_angle_alpha 90.000000
_cell_angle_beta 42.848737
_cell_angle_gamma 90.000000
_cell_volume 1923.798141
_symmetry_space_group_name_H-M "C 2/C"
_symmetry_group_IT_number 15
_symmetry_cell_setting 'monoclinic'
loop_
_space_group_symop_operation_xyz
x,y,z
-x,y,1/2-z
-x,-y,-z
x,-y,1/2+z
1/2+x,1/2+y,z
1/2-x,1/2+y,1/2-z
1/2-x,1/2-y,-z
1/2+x,1/2-y,1/2+z
loop_
_atom_site_type_symbol
_atom_site_label
_atom_site_fract_x
_atom_site_fract_y
_atom_site_fract_z
Si Si1 0.060037 0.833892 0.590797
Si Si2 0.447384 0.815268 0.110525
Si Si3 0.000000 0.015556 0.750000
Si Si4 0.663753 0.437694 0.509469
Si Si5 0.338603 0.227367 0.229087
Si Si6 0.854078 0.577574 0.664968
O O1 0.329167 0.820750 0.425357
O O2 0.012173 0.889840 0.598920
O O3 0.000000 0.817905 0.750000
O O4 0.879586 0.804406 0.610672
O O5 0.265276 0.777835 0.258862
O O6 0.315462 0.865738 0.174831
O O7 0.521119 0.798716 0.945133
O O8 0.775872 0.049529 0.865875
O O9 0.015359 0.982848 0.628827
O O10 0.748152 0.443571 0.336851
O O11 0.876082 0.433277 0.484380
O O12 0.500000 0.236064 0.250000
#
# Coordination Sequence:
#
# PCOD8144204 Si02
#       6
#     8   8   4   8   8   8
#     4   9  19  39  62  88 121 166 218 252 304 369
#     4  10  23  41  61  90 131 171 208 256 305 385
#     4  12  22  40  72  92 124 164 212 262 324 372
#     4  10  21  42  65  90 127 165 209 260 310 384
#     4  11  23  38  62  91 129 167 212 258 312 364
#     4  10  24  40  63  95 130 163 207 263 318 365
#
# _framework density 22.871423
#
# number of rings (size 3 to 8) (size 9 to 14) (size 15 to 20)
#    0.000    1.818    0.909    2.182    3.818    1.455 
#    6.545    0.000    0.000    0.000    0.000    0.000 
#    0.000    0.000    0.000    0.000    0.000    0.000 
#
# Total GULP energy -272800.121903 kJ/mol
# GULP energy per Si atom -12400.005541 kJ/mol
# Density = 2.281937 g / cm^3
# Si number density = 22.871423 Si / 1000 Ang^3
#
#
#
# Elastic Constant Matrix: (Units=GPa)
#
#
# Indices 1 2 3 4 5 6 
#
# 1 80.2057 53.1887 -2.0343 0.0000 -15.2586 0.0000
# 2 53.1887 167.6625 22.8564 0.0000 -17.9249 0.0000
# 3 -2.0343 22.8564 64.4675 0.0000 -7.2979 0.0000
# 4 0.0000 0.0000 0.0000 36.6998 0.0000 -14.0126
# 5 -15.2586 -17.9249 -7.2979 0.0000 23.7255 0.0000
# 6 0.0000 0.0000 0.0000 -14.0126 0.0000 27.7704
#
#
#
# Elastic Compliance Matrix: (Units=1/GPa)
#
#
# Indices 1 2 3 4 5 6 
#
# 1 0.017553 -0.005119 0.003325 0.000000 0.008444 0.000000
# 2 -0.005119 0.008191 -0.002837 0.000000 0.002024 0.000000
# 3 0.003325 -0.002837 0.017221 0.000000 0.005292 0.000000
# 4 0.000000 0.000000 0.000000 0.033750 0.000000 0.017030
# 5 0.008444 0.002024 0.005292 0.000000 0.050737 0.000000
# 6 0.000000 0.000000 0.000000 0.017030 0.000000 0.044603
#
#
# Mechanical properties :
#
#
# Convention : Reuss Voigt Hill
#
# Bulk Modulus (GPa) = 29.66963 51.15080 40.41021
# Shear Modulus (GPa) = 25.96690 33.52745 29.74718
#
# Velocity S-wave (km/s) = 3.37314 3.83287 3.61033
# Velocity P-wave (km/s) = 5.30766 6.48081 5.92335
#
# Compressibility (1/GPa) = 0.03370450
#
# Stress axis : x y z
#
# Youngs Moduli (GPa) = 56.96880 122.07934 58.06714
#
# Poissons Ratio (x) = 0.62493 -0.19306
# Poissons Ratio (y) = 0.29163 0.16471
# Poissons Ratio (z) = -0.18941 0.34629
#
# Static dielectric constant tensor:
#      x y z
#    x 4.020710 0.000000 -0.329380 
#    y 0.000000 4.184190 0.000000 
#    z -0.329380 0.000000 4.017840 
# 
# 
# High freq. dielectric constant tensor:
#      x y z
#    x 1.879590 0.000000 -0.011020 
#    y 0.000000 1.913760 0.000000 
#    z -0.011020 0.000000 1.900310 
# 
# From -- ./inp_files/25565.got.cif
#   From: 2010.06.25/outbox.cif.g09.slc.cpg/sg15_13_cif.got.tgz:25565.got - 2010.06.28 07:06:18.
