data_PCOD8144922
_publ_section_title
;
Structure prediction by ZEFSAII (Michael W. Deem and Ramdas Pophale) SiO2 
 PCOD8144922
Probable space group: C 2/C
;
_chemical_formula_sum "Si O2"
_cell_formula_units_Z 56
_cell_length_a 21.041465
_cell_length_b 26.131683
_cell_length_c 5.198656
_cell_angle_alpha 90.000000
_cell_angle_beta 83.786657
_cell_angle_gamma 90.000000
_cell_volume 2841.683953
_symmetry_space_group_name_H-M "C 2/C"
_symmetry_group_IT_number 15
_symmetry_cell_setting 'monoclinic'
loop_
_space_group_symop_operation_xyz
x,y,z
-x,y,1/2-z
-x,-y,-z
x,-y,1/2+z
1/2+x,1/2+y,z
1/2-x,1/2+y,1/2-z
1/2-x,1/2-y,-z
1/2+x,1/2-y,1/2+z
loop_
_atom_site_type_symbol
_atom_site_label
_atom_site_fract_x
_atom_site_fract_y
_atom_site_fract_z
Si Si1 0.794205 0.282924 0.665973
Si Si2 0.853920 0.814035 0.270501
Si Si3 0.461098 0.912551 0.029357
Si Si4 0.386972 0.185469 0.719639
Si Si5 0.831098 0.468016 0.019791
Si Si6 0.235449 0.636944 0.974218
Si Si7 0.571800 0.703259 0.284829
O O1 0.750000 0.250000 0.500000
O O2 0.819801 0.240504 0.860864
O O3 0.858701 0.308168 0.518039
O O4 0.749922 0.331305 0.770569
O O5 0.798764 0.857890 0.272288
O O6 0.904055 0.828253 0.474992
O O7 0.885857 0.810448 0.979213
O O8 0.500000 0.939176 0.250000
O O9 0.437477 0.860125 0.170462
O O10 0.403702 0.949387 0.971251
O O11 0.500000 0.902071 0.750000
O O12 0.325415 0.171536 0.577202
O O13 0.424210 0.237308 0.631981
O O14 0.817666 0.489902 0.308805
O O15 0.781818 0.422085 0.988971
O O16 0.500000 0.687294 0.250000
#
# Coordination Sequence:
#
# PCOD8144922 Si02
#       7
#     8   8   8   8   8   8   8
#     4  11  20  34  58  90 122 151 197 247 301 367
#     4  11  22  36  59  87 117 157 199 237 291 358
#     4  11  25  40  61  83 112 159 216 259 304 355
#     4  10  22  34  56  82 120 157 203 249 299 345
#     4  11  27  44  64  87 117 154 201 266 327 358
#     4  11  22  38  63  86 120 151 203 254 309 361
#     4  11  23  37  52  82 127 166 195 233 276 352
#
# _framework density 19.706627000000001
#
# number of rings (size 3 to 8) (size 9 to 14) (size 15 to 20)
#    0.000    1.143    2.857    3.857    8.000    2.857 
#    0.000    0.000    0.000    0.000    0.000    0.000 
#    0.000   11.429    0.000    0.000    0.000    0.000 
#
# Total GULP energy -346952.196553 kJ/mol
# GULP energy per Si atom -12391.149877 kJ/mol
# Density = 1.966177 g / cm^3
# Si number density = 19.706627 Si / 1000 Ang^3
#
#
#
# Elastic Constant Matrix: (Units=GPa)
#
#
# Indices 1 2 3 4 5 6 
#
# 1 87.6329 39.8242 33.4031 0.0000 1.1138 0.0000
# 2 39.8242 84.5140 32.5718 0.0000 -4.7693 0.0000
# 3 33.4031 32.5718 86.8689 0.0000 10.6571 0.0000
# 4 0.0000 0.0000 0.0000 24.8836 0.0000 1.6758
# 5 1.1138 -4.7693 10.6571 0.0000 27.9479 0.0000
# 6 0.0000 0.0000 0.0000 1.6758 0.0000 21.1781
#
#
#
# Elastic Compliance Matrix: (Units=1/GPa)
#
#
# Indices 1 2 3 4 5 6 
#
# 1 0.015510 -0.005880 -0.003735 0.000000 -0.000197 0.000000
# 2 -0.005880 0.016635 -0.004567 0.000000 0.004815 0.000000
# 3 -0.003735 -0.004567 0.015461 0.000000 -0.006526 0.000000
# 4 0.000000 0.000000 0.000000 0.040402 0.000000 -0.003197
# 5 -0.000197 0.004815 -0.006526 0.000000 0.039099 0.000000
# 6 0.000000 0.000000 0.000000 -0.003197 0.000000 0.047472
#
#
# Mechanical properties :
#
#
# Convention : Reuss Voigt Hill
#
# Bulk Modulus (GPa) = 51.97089 52.29044 52.13066
# Shear Modulus (GPa) = 23.88283 25.01637 24.44960
#
# Velocity S-wave (km/s) = 3.48504 3.56678 3.52615
# Velocity P-wave (km/s) = 6.52867 6.59959 6.56423
#
# Compressibility (1/GPa) = 0.01924154
#
# Stress axis : x y z
#
# Youngs Moduli (GPa) = 64.47660 60.11447 64.67998
#
# Poissons Ratio (x) = 0.35348 0.24157
# Poissons Ratio (y) = 0.37913 0.29539
# Poissons Ratio (z) = 0.24081 0.27454
#
# Static dielectric constant tensor:
#      x y z
#    x 3.772050 0.000000 0.008780 
#    y 0.000000 3.325230 0.000000 
#    z 0.008780 0.000000 3.688810 
# 
# 
# High freq. dielectric constant tensor:
#      x y z
#    x 1.765920 0.000000 0.004860 
#    y 0.000000 1.724950 0.000000 
#    z 0.004860 0.000000 1.781120 
# 
# From -- ./inp_files/13694.got.cif
#   From: 2010.06.25/outbox.cif.g09.slc.cpg/sg15_7_cif.got.tgz:13694.got - 2010.06.28 07:06:18.
