data_PCOD8144511
_publ_section_title
;
Structure prediction by ZEFSAII (Michael W. Deem and Ramdas Pophale) SiO2 
 PCOD8144511
Probable space group: C 2/C
;
_chemical_formula_sum "Si O2"
_cell_formula_units_Z 44
_cell_length_a 18.364330
_cell_length_b 11.897290
_cell_length_c 10.722104
_cell_angle_alpha 90.000000
_cell_angle_beta 120.240370
_cell_angle_gamma 90.000000
_cell_volume 2023.842737
_symmetry_space_group_name_H-M "C 2/C"
_symmetry_group_IT_number 15
_symmetry_cell_setting 'monoclinic'
loop_
_space_group_symop_operation_xyz
x,y,z
-x,y,1/2-z
-x,-y,-z
x,-y,1/2+z
1/2+x,1/2+y,z
1/2-x,1/2+y,1/2-z
1/2-x,1/2-y,-z
1/2+x,1/2-y,1/2+z
loop_
_atom_site_type_symbol
_atom_site_label
_atom_site_fract_x
_atom_site_fract_y
_atom_site_fract_z
Si Si1 0.921384 0.768126 0.440773
Si Si2 0.000000 0.144382 0.250000
Si Si3 0.474903 0.920784 0.588758
Si Si4 0.361125 0.503201 0.768228
Si Si5 0.259242 0.829003 0.706008
Si Si6 0.206019 0.616247 0.532507
O O1 0.956045 0.774813 0.611229
O O2 0.832130 0.700748 0.369742
O O3 0.989730 0.704908 0.411033
O O4 0.907513 0.895551 0.380019
O O5 0.069517 0.067531 0.244001
O O6 0.500000 0.957306 0.750000
O O7 0.375796 0.946544 0.491741
O O8 0.500000 0.000000 0.500000
O O9 0.305233 0.426621 0.812117
O O10 0.294208 0.550433 0.611335
O O11 0.204574 0.720766 0.626136
O O12 0.311705 0.855317 0.626311
#
# Coordination Sequence:
#
# PCOD8144511 Si02
#       6
#     8   4   8   8   8   8
#     4  11  25  44  71 103 143 189 240 298 361 427
#     4  12  26  42  68 110 148 188 246 298 358 428
#     4  12  26  46  72 104 142 189 238 295 360 438
#     4  11  24  43  70 100 141 187 240 295 360 421
#     4  10  21  43  65  99 132 186 232 290 356 420
#     4  10  22  40  69  95 136 179 236 286 353 428
#
# _framework density 21.740818000000001
#
# number of rings (size 3 to 8) (size 9 to 14) (size 15 to 20)
#    0.000    1.091    1.818    3.818    2.545    0.727 
#    0.000    0.000    0.000    0.000    0.000    0.000 
#    0.000    0.000    0.000    0.000    0.000    0.000 
#
# Total GULP energy -272608.219463 kJ/mol
# GULP energy per Si atom -12391.282703 kJ/mol
# Density = 2.169134 g / cm^3
# Si number density = 21.740818 Si / 1000 Ang^3
#
#
#
# Elastic Constant Matrix: (Units=GPa)
#
#
# Indices 1 2 3 4 5 6 
#
# 1 166.8249 87.7283 46.8408 0.0000 -59.5054 0.0000
# 2 87.7283 137.7702 49.5856 0.0000 -67.1069 0.0000
# 3 46.8408 49.5856 170.5764 0.0000 15.1688 0.0000
# 4 0.0000 0.0000 0.0000 28.5970 0.0000 -0.7123
# 5 -59.5054 -67.1069 15.1688 0.0000 121.8947 0.0000
# 6 0.0000 0.0000 0.0000 -0.7123 0.0000 55.4041
#
#
#
# Elastic Compliance Matrix: (Units=1/GPa)
#
#
# Indices 1 2 3 4 5 6 
#
# 1 0.009614 -0.004317 -0.001609 0.000000 0.002517 0.000000
# 2 -0.004317 0.014295 -0.003522 0.000000 0.006201 0.000000
# 3 -0.001609 -0.003522 0.007655 0.000000 -0.003677 0.000000
# 4 0.000000 0.000000 0.000000 0.034980 0.000000 0.000450
# 5 0.002517 0.006201 -0.003677 0.000000 0.013304 0.000000
# 6 0.000000 0.000000 0.000000 0.000450 0.000000 0.018055
#
#
# Mechanical properties :
#
#
# Convention : Reuss Voigt Hill
#
# Bulk Modulus (GPa) = 78.93043 93.72011 86.32527
# Shear Modulus (GPa) = 41.31537 60.58027 50.94782
#
# Velocity S-wave (km/s) = 4.36404 5.28444 4.84614
# Velocity P-wave (km/s) = 7.85984 8.96857 8.43245
#
# Compressibility (1/GPa) = 0.01266938
#
# Stress axis : x y z
#
# Youngs Moduli (GPa) = 104.01570 69.95403 130.63458
#
# Poissons Ratio (x) = 0.30198 0.21019
# Poissons Ratio (y) = 0.44902 0.46003
# Poissons Ratio (z) = 0.16736 0.24634
#
# Static dielectric constant tensor:
#      x y z
#    x 4.165330 0.000000 0.300340 
#    y 0.000000 4.041430 0.000000 
#    z 0.300340 0.000000 4.071350 
# 
# 
# High freq. dielectric constant tensor:
#      x y z
#    x 1.866050 0.000000 0.015440 
#    y 0.000000 1.852580 0.000000 
#    z 0.015440 0.000000 1.862810 
# 
# From -- ./inp_files/47210.got.cif
#   From: 2010.06.25/outbox.cif.g09.slc.cpg/sg15_24_cif.got.tgz:47210.got - 2010.06.28 07:06:18.
