data_PCOD8144889
_publ_section_title
;
Structure prediction by ZEFSAII (Michael W. Deem and Ramdas Pophale) SiO2 
 PCOD8144889
Probable space group: C 2/C
;
_chemical_formula_sum "Si O2"
_cell_formula_units_Z 44
_cell_length_a 14.803440
_cell_length_b 5.053293
_cell_length_c 22.364022
_cell_angle_alpha 90.000000
_cell_angle_beta 78.805562
_cell_angle_gamma 90.000000
_cell_volume 1641.135872
_symmetry_space_group_name_H-M "C 2/C"
_symmetry_group_IT_number 15
_symmetry_cell_setting 'monoclinic'
loop_
_space_group_symop_operation_xyz
x,y,z
-x,y,1/2-z
-x,-y,-z
x,-y,1/2+z
1/2+x,1/2+y,z
1/2-x,1/2+y,1/2-z
1/2-x,1/2-y,-z
1/2+x,1/2-y,1/2+z
loop_
_atom_site_type_symbol
_atom_site_label
_atom_site_fract_x
_atom_site_fract_y
_atom_site_fract_z
Si Si1 0.284387 0.441687 0.163286
Si Si2 0.566385 0.932582 0.836982
Si Si3 0.170430 0.059257 0.668444
Si Si4 0.095612 0.801989 0.935254
Si Si5 0.575325 0.346784 0.070161
Si Si6 0.000000 0.841412 0.750000
O O1 0.234356 0.714175 0.191306
O O2 0.327324 0.475949 0.090711
O O3 0.373430 0.330450 0.190927
O O4 0.206253 0.227853 0.179539
O O5 0.622078 0.065327 0.885988
O O6 0.557073 0.148754 0.786626
O O7 0.468619 0.867252 0.879170
O O8 0.166674 0.077314 0.596081
O O9 0.065045 0.049458 0.706321
O O10 0.103122 0.713638 0.003322
O O11 0.992397 0.907208 0.934399
#
# Coordination Sequence:
#
# PCOD8144889 Si02
#       6
#     8   8   8   8   8   4
#     4  11  26  49  76 112 162 184 257 310 408 440
#     4  11  23  52  76 116 146 207 253 320 375 464
#     4  12  26  50  73 117 143 208 252 324 371 472
#     4  10  21  47  74 116 153 204 238 322 377 471
#     4  10  23  41  81 112 155 197 260 300 383 462
#     4  12  28  52  86 102 156 206 284 314 382 462
#
# _framework density 26.810697999999999
#
# number of rings (size 3 to 8) (size 9 to 14) (size 15 to 20)
#    0.000    1.091    3.636    1.636    0.000    4.364 
#    3.273    0.000    0.000    0.000    0.000    0.000 
#    0.000    0.000    0.000    0.000    0.000    0.000 
#
# Total GULP energy -272555.350820 kJ/mol
# GULP energy per Si atom -12388.879583 kJ/mol
# Density = 2.674968 g / cm^3
# Si number density = 26.810698 Si / 1000 Ang^3
#
#
#
# Elastic Constant Matrix: (Units=GPa)
#
#
# Indices 1 2 3 4 5 6 
#
# 1 78.3357 32.7361 33.9144 -0.0001 -9.5906 0.0000
# 2 32.7361 141.2455 42.2972 -0.0002 -5.4733 0.0001
# 3 33.9144 42.2972 124.8922 -0.0002 16.2213 0.0000
# 4 -0.0001 -0.0002 -0.0002 24.8299 -0.0001 -7.7716
# 5 -9.5906 -5.4733 16.2213 -0.0001 40.4873 0.0000
# 6 0.0000 0.0001 0.0000 -7.7716 0.0000 52.7221
#
#
#
# Elastic Compliance Matrix: (Units=1/GPa)
#
#
# Indices 1 2 3 4 5 6 
#
# 1 0.016229 -0.002262 -0.004326 0.000000 0.005272 0.000000
# 2 -0.002262 0.008394 -0.002433 0.000000 0.001574 0.000000
# 3 -0.004326 -0.002433 0.010740 0.000000 -0.005657 0.000000
# 4 0.000000 0.000000 0.000000 0.042222 0.000000 0.006224
# 5 0.005272 0.001574 -0.005657 0.000000 0.028427 0.000000
# 6 0.000000 0.000000 0.000000 0.006224 0.000000 0.019885
#
#
# Mechanical properties :
#
#
# Convention : Reuss Voigt Hill
#
# Bulk Modulus (GPa) = 57.72957 62.48543 60.10750
# Shear Modulus (GPa) = 33.39769 39.30957 36.35363
#
# Velocity S-wave (km/s) = 3.53326 3.83324 3.68630
# Velocity P-wave (km/s) = 6.18257 6.55350 6.37074
#
# Compressibility (1/GPa) = 0.01732215
#
# Stress axis : x y z
#
# Youngs Moduli (GPa) = 61.61866 119.13866 93.10832
#
# Poissons Ratio (x) = 0.26945 0.40276
# Poissons Ratio (y) = 0.13936 0.22652
# Poissons Ratio (z) = 0.26654 0.28985
#
# Static dielectric constant tensor:
#      x y z
#    x 4.955040 0.000000 -0.080920 
#    y 0.000000 4.968340 0.000000 
#    z -0.080920 0.000000 4.900150 
# 
# 
# High freq. dielectric constant tensor:
#      x y z
#    x 2.076630 0.000000 -0.009770 
#    y 0.000000 2.076220 0.000000 
#    z -0.009770 0.000000 2.074970 
# 
# From -- ./inp_files/271857.got.cif
#   From: 2010.06.25/outbox.cif.g09.slc.cpg/sg15_136_cif.got.tgz:271857.got - 2010.06.28 07:06:18.
