data_PCOD8144318
_publ_section_title
;
Structure prediction by ZEFSAII (Michael W. Deem and Ramdas Pophale) SiO2 
 PCOD8144318
Probable space group: C 2/C
;
_chemical_formula_sum "Si O2"
_cell_formula_units_Z 44
_cell_length_a 19.898609
_cell_length_b 12.921767
_cell_length_c 8.119481
_cell_angle_alpha 90.000000
_cell_angle_beta 85.538097
_cell_angle_gamma 90.000000
_cell_volume 2081.395788
_symmetry_space_group_name_H-M "C 2/C"
_symmetry_group_IT_number 15
_symmetry_cell_setting 'monoclinic'
loop_
_space_group_symop_operation_xyz
x,y,z
-x,y,1/2-z
-x,-y,-z
x,-y,1/2+z
1/2+x,1/2+y,z
1/2-x,1/2+y,1/2-z
1/2-x,1/2-y,-z
1/2+x,1/2-y,1/2+z
loop_
_atom_site_type_symbol
_atom_site_label
_atom_site_fract_x
_atom_site_fract_y
_atom_site_fract_z
Si Si1 0.200570 0.988127 0.408060
Si Si2 0.317764 0.129318 0.443342
Si Si3 0.027195 0.393053 0.561566
Si Si4 0.360034 0.358057 0.821674
Si Si5 0.000000 0.748564 0.750000
Si Si6 0.752286 0.280050 0.257084
O O1 0.144493 0.950192 0.546712
O O2 0.216894 0.889334 0.291999
O O3 0.271761 0.026046 0.469756
O O4 0.166181 0.089346 0.339824
O O5 0.393727 0.091800 0.431936
O O6 0.303700 0.193338 0.277094
O O7 0.304499 0.206830 0.595915
O O8 0.009054 0.312892 0.419462
O O9 0.000000 0.362238 0.750000
O O10 0.000000 0.500000 0.500000
O O11 0.435491 0.320023 0.790725
O O12 0.304640 0.267840 0.884550
#
# Coordination Sequence:
#
# PCOD8144318 Si02
#       6
#     8   8   8   8   4   8
#     4  11  23  42  71 101 130 178 232 284 350 405
#     4  10  23  42  68  99 137 173 225 287 345 405
#     4  12  28  46  72 102 142 190 226 281 353 417
#     4  11  25  43  68 100 137 179 231 287 343 416
#     4  12  28  50  66 102 148 182 240 282 334 434
#     4  10  21  42  67  98 134 171 226 292 337 405
#
# _framework density 21.139659999999999
#
# number of rings (size 3 to 8) (size 9 to 14) (size 15 to 20)
#    0.000    1.091    4.545    0.545    7.636    0.727 
#    0.000    0.000    0.000    0.000    0.000    0.000 
#    0.000    0.000    0.000    0.000    0.000    0.000 
#
# Total GULP energy -272593.766726 kJ/mol
# GULP energy per Si atom -12390.625760 kJ/mol
# Density = 2.109154 g / cm^3
# Si number density = 21.139660 Si / 1000 Ang^3
#
#
#
# Elastic Constant Matrix: (Units=GPa)
#
#
# Indices 1 2 3 4 5 6 
#
# 1 191.1761 78.1355 42.9463 0.0000 -5.4724 0.0000
# 2 78.1355 125.3027 31.6244 0.0000 -2.5509 0.0000
# 3 42.9463 31.6244 87.8393 0.0000 -0.7331 0.0000
# 4 0.0000 0.0000 0.0000 38.7077 0.0000 -5.8161
# 5 -5.4724 -2.5509 -0.7331 0.0000 21.8110 0.0000
# 6 0.0000 0.0000 0.0000 -5.8161 0.0000 38.9597
#
#
#
# Elastic Compliance Matrix: (Units=1/GPa)
#
#
# Indices 1 2 3 4 5 6 
#
# 1 0.007407 -0.004049 -0.002153 0.000000 0.001312 0.000000
# 2 -0.004049 0.011010 -0.001983 0.000000 0.000205 0.000000
# 3 -0.002153 -0.001983 0.013148 0.000000 -0.000330 0.000000
# 4 0.000000 0.000000 0.000000 0.026427 0.000000 0.003945
# 5 0.001312 0.000205 -0.000330 0.000000 0.046191 0.000000
# 6 0.000000 0.000000 0.000000 0.003945 0.000000 0.026256
#
#
# Mechanical properties :
#
#
# Convention : Reuss Voigt Hill
#
# Bulk Modulus (GPa) = 65.80443 78.85894 72.33168
# Shear Modulus (GPa) = 32.92239 36.66982 34.79610
#
# Velocity S-wave (km/s) = 3.95064 4.16943 4.06151
# Velocity P-wave (km/s) = 7.21152 7.78226 7.50232
#
# Compressibility (1/GPa) = 0.01519655
#
# Stress axis : x y z
#
# Youngs Moduli (GPa) = 135.01434 90.82796 76.05728
#
# Poissons Ratio (x) = 0.36772 0.16373
# Poissons Ratio (y) = 0.54661 0.15080
# Poissons Ratio (z) = 0.29065 0.18008
#
# Static dielectric constant tensor:
#      x y z
#    x 3.757210 0.000000 0.214680 
#    y 0.000000 3.879350 0.000000 
#    z 0.214680 0.000000 4.283190 
# 
# 
# High freq. dielectric constant tensor:
#      x y z
#    x 1.819740 0.000000 0.003910 
#    y 0.000000 1.843340 0.000000 
#    z 0.003910 0.000000 1.833050 
# 
# From -- ./inp_files/47121.got.cif
#   From: 2010.06.25/outbox.cif.g09.slc.cpg/sg15_24_cif.got.tgz:47121.got - 2010.06.28 07:06:18.
