data_PCOD8144021
_publ_section_title
;
Structure prediction by ZEFSAII (Michael W. Deem and Ramdas Pophale) SiO2 
 PCOD8144021
Probable space group: C 2/C
;
_chemical_formula_sum "Si O2"
_cell_formula_units_Z 64
_cell_length_a 19.792568
_cell_length_b 24.061078
_cell_length_c 12.847585
_cell_angle_alpha 90.000000
_cell_angle_beta 29.674901
_cell_angle_gamma 90.000000
_cell_volume 3029.091895
_symmetry_space_group_name_H-M "C 2/C"
_symmetry_group_IT_number 15
_symmetry_cell_setting 'monoclinic'
loop_
_space_group_symop_operation_xyz
x,y,z
-x,y,1/2-z
-x,-y,-z
x,-y,1/2+z
1/2+x,1/2+y,z
1/2-x,1/2+y,1/2-z
1/2-x,1/2-y,-z
1/2+x,1/2-y,1/2+z
loop_
_atom_site_type_symbol
_atom_site_label
_atom_site_fract_x
_atom_site_fract_y
_atom_site_fract_z
Si Si1 0.089864 0.206617 0.535893
Si Si2 0.360518 0.329194 0.875575
Si Si3 0.286711 0.416489 0.816097
Si Si4 0.509274 0.053414 0.413200
Si Si5 0.487494 0.409310 0.144313
Si Si6 0.882167 0.273723 0.199935
Si Si7 0.792234 0.537437 0.537765
Si Si8 0.631098 0.845500 0.871621
O O1 0.115617 0.257860 0.424765
O O2 0.236587 0.178018 0.369738
O O3 0.000000 0.231929 0.750000
O O4 0.994574 0.157246 0.616839
O O5 0.500000 0.324893 0.750000
O O6 0.356455 0.389052 0.824217
O O7 0.349238 0.282467 0.803442
O O8 0.233352 0.320439 0.124618
O O9 0.388964 0.435649 0.587034
O O10 0.210401 0.471198 0.953368
O O11 0.179173 0.371838 0.915949
O O12 0.369582 0.060981 0.535628
O O13 0.539931 0.109956 0.432760
O O14 0.500000 0.000000 0.500000
O O15 0.634046 0.048230 0.168416
O O16 0.500000 0.424880 0.250000
O O17 0.352764 0.433114 0.272534
O O18 0.031131 0.295084 0.034466
#
# Coordination Sequence:
#
# PCOD8144021 Si02
#       8
#     8   8   8   8   8   8   8   8
#     4  10  21  44  69  95 130 173 217 275 333 392
#     4  11  25  42  63  99 135 170 218 273 327 395
#     4  11  23  43  67  96 131 170 218 263 334 395
#     4  11  24  42  63  92 130 170 218 269 320 386
#     4  10  21  41  69  95 130 169 212 270 331 388
#     4  11  24  42  68  95 129 177 218 275 327 391
#     4  11  24  41  67  96 128 173 215 267 326 393
#     4  11  23  44  66  95 129 175 222 266 333 384
#
# _framework density 21.128443999999998
#
# number of rings (size 3 to 8) (size 9 to 14) (size 15 to 20)
#    0.000    1.250    3.750    3.375    3.500    2.000 
#    4.500    0.000    0.000    0.000    0.000    0.000 
#    0.000    0.000    0.000    0.000    0.000    0.000 
#
# Total GULP energy -396764.267576 kJ/mol
# GULP energy per Si atom -12398.883362 kJ/mol
# Density = 2.108036 g / cm^3
# Si number density = 21.128444 Si / 1000 Ang^3
#
#
#
# Elastic Constant Matrix: (Units=GPa)
#
#
# Indices 1 2 3 4 5 6 
#
# 1 83.6012 23.7442 32.5792 -0.0027 -9.5594 0.0008
# 2 23.7442 63.8879 37.3195 -0.0040 -5.5476 0.0021
# 3 32.5792 37.3195 79.7669 -0.0035 -11.8716 -0.0030
# 4 -0.0027 -0.0040 -0.0035 23.1181 0.0038 -11.4384
# 5 -9.5594 -5.5476 -11.8716 0.0038 35.9513 -0.0017
# 6 0.0008 0.0021 -0.0030 -11.4384 -0.0017 36.3874
#
#
#
# Elastic Compliance Matrix: (Units=1/GPa)
#
#
# Indices 1 2 3 4 5 6 
#
# 1 0.014687 -0.002690 -0.004439 0.000000 0.002024 0.000000
# 2 -0.002690 0.022031 -0.009265 0.000001 -0.000375 -0.000002
# 3 -0.004439 -0.009265 0.019241 0.000002 0.003744 0.000003
# 4 0.000000 0.000001 0.000002 0.051223 -0.000004 0.016102
# 5 0.002024 -0.000375 0.003744 -0.000004 0.029532 0.000000
# 6 0.000000 -0.000002 0.000003 0.016102 0.000000 0.032544
#
#
# Mechanical properties :
#
#
# Convention : Reuss Voigt Hill
#
# Bulk Modulus (GPa) = 43.15407 46.06021 44.60714
# Shear Modulus (GPa) = 23.83573 27.99891 25.91732
#
# Velocity S-wave (km/s) = 3.36242 3.64425 3.50616
# Velocity P-wave (km/s) = 5.96183 6.28926 6.12773
#
# Compressibility (1/GPa) = 0.02317279
#
# Stress axis : x y z
#
# Youngs Moduli (GPa) = 68.08856 45.38971 51.97168
#
# Poissons Ratio (x) = 0.12208 0.23069
# Poissons Ratio (y) = 0.18314 0.48151
# Poissons Ratio (z) = 0.30223 0.42053
#
# Static dielectric constant tensor:
#      x y z
#    x 3.832440 0.000000 0.025410 
#    y 0.000000 3.685040 0.000010 
#    z 0.025410 0.000010 4.139920 
# 
# 
# High freq. dielectric constant tensor:
#      x y z
#    x 1.820680 0.000000 -0.000650 
#    y 0.000000 1.820750 0.000000 
#    z -0.000650 0.000000 1.843930 
# 
# From -- ./inp_files/108637.got.cif
#   From: 2010.06.25/outbox.cif.g09.slc.cpg/sg15_55_cif.got.tgz:108637.got - 2010.06.28 07:06:18.
