data_PCOD8144527
_publ_section_title
;
Structure prediction by ZEFSAII (Michael W. Deem and Ramdas Pophale) SiO2 
 PCOD8144527
Probable space group: C 2/C
;
_chemical_formula_sum "Si O2"
_cell_formula_units_Z 48
_cell_length_a 18.872306
_cell_length_b 17.963017
_cell_length_c 8.726727
_cell_angle_alpha 90.000000
_cell_angle_beta 129.387167
_cell_angle_gamma 90.000000
_cell_volume 2286.468932
_symmetry_space_group_name_H-M "C 2/C"
_symmetry_group_IT_number 15
_symmetry_cell_setting 'monoclinic'
loop_
_space_group_symop_operation_xyz
x,y,z
-x,y,1/2-z
-x,-y,-z
x,-y,1/2+z
1/2+x,1/2+y,z
1/2-x,1/2+y,1/2-z
1/2-x,1/2-y,-z
1/2+x,1/2-y,1/2+z
loop_
_atom_site_type_symbol
_atom_site_label
_atom_site_fract_x
_atom_site_fract_y
_atom_site_fract_z
Si Si1 0.256313 0.420091 0.657884
Si Si2 0.092520 0.315194 0.796467
Si Si3 0.595323 0.186732 0.936357
Si Si4 0.936149 0.844305 0.284538
Si Si5 0.744729 0.578985 0.978358
Si Si6 0.569827 0.340686 0.734769
O O1 0.179595 0.362950 0.494001
O O2 0.228969 0.499726 0.553806
O O3 0.263810 0.423767 0.850588
O O4 0.352270 0.394950 0.717463
O O5 0.091683 0.316713 0.613065
O O6 0.106470 0.228367 0.861616
O O7 0.177751 0.363774 0.973481
O O8 0.000000 0.346634 0.750000
O O9 0.500000 0.150734 0.750000
O O10 0.608451 0.268850 0.879866
O O11 0.000000 0.888620 0.250000
O O12 0.002813 0.813004 0.507793
O O13 0.852994 0.895891 0.227667
O O14 0.500000 0.386509 0.750000
#
# Coordination Sequence:
#
# PCOD8144527 Si02
#       6
#     8   8   8   8   8   8
#     4  11  26  43  62  91 132 167 207 252 310 376
#     4  10  22  42  67  94 123 160 211 261 310 364
#     4  10  21  43  66  94 122 161 211 261 310 362
#     4  11  21  42  67  92 124 158 208 262 310 369
#     4  11  26  43  62  94 128 170 205 251 313 373
#     4  11  22  42  66  96 121 162 210 258 313 364
#
# _framework density 20.993068999999998
#
# number of rings (size 3 to 8) (size 9 to 14) (size 15 to 20)
#    0.000    1.333    5.000    1.000    2.333    3.333 
#    0.000    3.333    0.000    0.000    0.000    0.000 
#    0.000    0.000    0.000    0.000    0.000    0.000 
#
# Total GULP energy -297447.180510 kJ/mol
# GULP energy per Si atom -12393.632521 kJ/mol
# Density = 2.094529 g / cm^3
# Si number density = 20.993069 Si / 1000 Ang^3
#
#
#
# Elastic Constant Matrix: (Units=GPa)
#
#
# Indices 1 2 3 4 5 6 
#
# 1 107.7299 19.1181 12.0748 0.0000 9.2389 0.0000
# 2 19.1181 60.8074 17.4326 0.0000 2.1791 0.0000
# 3 12.0748 17.4326 61.4342 0.0000 8.7355 0.0000
# 4 0.0000 0.0000 0.0000 21.7871 0.0000 -5.8245
# 5 9.2389 2.1791 8.7355 0.0000 29.5539 0.0000
# 6 0.0000 0.0000 0.0000 -5.8245 0.0000 23.3935
#
#
#
# Elastic Compliance Matrix: (Units=1/GPa)
#
#
# Indices 1 2 3 4 5 6 
#
# 1 0.010111 -0.002855 -0.000791 0.000000 -0.002716 0.000000
# 2 -0.002855 0.018709 -0.004884 0.000000 0.000957 0.000000
# 3 -0.000791 -0.004884 0.018510 0.000000 -0.004864 0.000000
# 4 0.000000 0.000000 0.000000 0.049172 0.000000 0.012243
# 5 -0.002716 0.000957 -0.004864 0.000000 0.036053 0.000000
# 6 0.000000 0.000000 0.000000 0.012243 0.000000 0.045795
#
#
# Mechanical properties :
#
#
# Convention : Reuss Voigt Hill
#
# Bulk Modulus (GPa) = 33.03478 36.35805 34.69642
# Shear Modulus (GPa) = 24.33106 27.03662 25.68384
#
# Velocity S-wave (km/s) = 3.40811 3.59260 3.50157
# Velocity P-wave (km/s) = 5.59081 5.87926 5.73685
#
# Compressibility (1/GPa) = 0.03027113
#
# Stress axis : x y z
#
# Youngs Moduli (GPa) = 98.90514 53.45099 54.02349
#
# Poissons Ratio (x) = 0.15259 0.04273
# Poissons Ratio (y) = 0.28235 0.26384
# Poissons Ratio (z) = 0.07823 0.26104
#
# Static dielectric constant tensor:
#      x y z
#    x 4.156290 0.000000 0.075730 
#    y 0.000000 3.624940 0.000000 
#    z 0.075730 0.000000 3.832900 
# 
# 
# High freq. dielectric constant tensor:
#      x y z
#    x 1.844200 0.000000 0.001630 
#    y 0.000000 1.801080 0.000000 
#    z 0.001630 0.000000 1.820820 
# 
# From -- ./inp_files/50402.got.cif
#   From: 2010.06.25/outbox.cif.g09.slc.cpg/sg15_26_cif.got.tgz:50402.got - 2010.06.28 07:06:18.
