data_PCOD8144308
_publ_section_title
;
Structure prediction by ZEFSAII (Michael W. Deem and Ramdas Pophale) SiO2 
 PCOD8144308
Probable space group: C 2/C
;
_chemical_formula_sum "Si O2"
_cell_formula_units_Z 60
_cell_length_a 11.900097
_cell_length_b 20.917954
_cell_length_c 21.424335
_cell_angle_alpha 90.000000
_cell_angle_beta 146.946234
_cell_angle_gamma 90.000000
_cell_volume 2908.792431
_symmetry_space_group_name_H-M "C 2/C"
_symmetry_group_IT_number 15
_symmetry_cell_setting 'monoclinic'
loop_
_space_group_symop_operation_xyz
x,y,z
-x,y,1/2-z
-x,-y,-z
x,-y,1/2+z
1/2+x,1/2+y,z
1/2-x,1/2+y,1/2-z
1/2-x,1/2-y,-z
1/2+x,1/2-y,1/2+z
loop_
_atom_site_type_symbol
_atom_site_label
_atom_site_fract_x
_atom_site_fract_y
_atom_site_fract_z
Si Si1 0.733598 0.933919 0.531288
Si Si2 0.188786 0.400752 0.124535
Si Si3 0.343215 0.744369 0.267778
Si Si4 0.000000 0.146990 0.250000
Si Si5 0.759623 0.757518 0.149659
Si Si6 0.497270 0.326864 0.446902
Si Si7 0.429481 0.431472 0.116673
Si Si8 0.647307 0.849324 0.373941
O O1 0.520651 0.942433 0.470280
O O2 0.886761 0.894667 0.645881
O O3 0.658548 0.899098 0.434385
O O4 0.852337 0.997411 0.565615
O O5 0.150181 0.325075 0.115722
O O6 0.274632 0.403253 0.094940
O O7 0.341168 0.430852 0.247495
O O8 0.334483 0.689234 0.211424
O O9 0.305015 0.715570 0.319280
O O10 0.560822 0.781473 0.359291
O O11 0.154700 0.793148 0.172146
O O12 0.000000 0.768891 0.250000
O O13 0.680491 0.721441 0.051023
O O14 0.584819 0.390096 0.453574
O O15 0.377121 0.342492 0.454670
O O16 0.500000 0.875691 0.250000
#
# Coordination Sequence:
#
# PCOD8144308 Si02
#       8
#     8   8   8   4   8   8   8   8
#     4  12  25  41  68  95 133 173 217 273 320 387
#     4  11  21  44  64  88 128 176 218 265 335 382
#     4  11  21  40  65 100 133 164 213 275 333 391
#     4  12  24  38  66 114 130 158 226 280 326 384
#     4  12  23  38  64  96 130 172 214 270 331 396
#     4  11  22  40  64  91 130 173 212 264 330 387
#     4  11  24  43  63  92 129 177 225 257 320 407
#     4  10  21  42  67  96 125 175 215 263 336 390
#
# _framework density 20.627116000000001
#
# number of rings (size 3 to 8) (size 9 to 14) (size 15 to 20)
#    0.000    0.800    6.000    3.600    0.000    4.800 
#    0.000    2.000    0.000    0.000    0.000    0.000 
#    0.000    0.000    0.000    0.000    0.000    0.000 
#
# Total GULP energy -371904.878552 kJ/mol
# GULP energy per Si atom -12396.829285 kJ/mol
# Density = 2.058017 g / cm^3
# Si number density = 20.627116 Si / 1000 Ang^3
#
#
#
# Elastic Constant Matrix: (Units=GPa)
#
#
# Indices 1 2 3 4 5 6 
#
# 1 92.0943 29.0971 41.8910 -0.0005 -3.5267 -0.0008
# 2 29.0971 109.4208 57.1117 0.0010 2.3620 -0.0003
# 3 41.8910 57.1117 76.4301 -0.0090 -0.9004 -0.0118
# 4 -0.0005 0.0010 -0.0090 30.0313 -0.0028 -10.0598
# 5 -3.5267 2.3620 -0.9004 -0.0028 30.7875 -0.0024
# 6 -0.0008 -0.0003 -0.0118 -10.0598 -0.0024 29.5087
#
#
#
# Elastic Compliance Matrix: (Units=1/GPa)
#
#
# Indices 1 2 3 4 5 6 
#
# 1 0.014539 0.000417 -0.008264 -0.000003 0.001392 -0.000004
# 2 0.000417 0.015062 -0.011501 -0.000006 -0.001444 -0.000007
# 3 -0.008264 -0.011501 0.026215 0.000013 0.000702 0.000015
# 4 -0.000003 -0.000006 0.000013 0.037591 0.000005 0.012815
# 5 0.001392 -0.001444 0.000702 0.000005 0.032771 0.000005
# 6 -0.000004 -0.000007 0.000015 0.012815 0.000005 0.038257
#
#
# Mechanical properties :
#
#
# Convention : Reuss Voigt Hill
#
# Bulk Modulus (GPa) = 58.40677 59.34943 58.87810
# Shear Modulus (GPa) = 23.94195 28.05519 25.99857
#
# Velocity S-wave (km/s) = 3.41060 3.69197 3.55407
# Velocity P-wave (km/s) = 6.62470 6.85632 6.74151
#
# Compressibility (1/GPa) = 0.01712130
#
# Stress axis : x y z
#
# Youngs Moduli (GPa) = 68.78038 66.39247 38.14558
#
# Poissons Ratio (x) = -0.02770 0.31524
# Poissons Ratio (y) = -0.02869 0.43870
# Poissons Ratio (z) = 0.56841 0.76355
#
# Static dielectric constant tensor:
#      x y z
#    x 3.782940 -0.000010 0.211740 
#    y -0.000010 3.614090 0.000020 
#    z 0.211740 0.000020 3.530220 
# 
# 
# High freq. dielectric constant tensor:
#      x y z
#    x 1.825000 0.000000 -0.002910 
#    y 0.000000 1.782680 0.000000 
#    z -0.002910 0.000000 1.803450 
# 
# From -- ./inp_files/240874.got.cif
#   From: 2010.06.25/outbox.cif.g09.slc.cpg/sg15_121_cif.got.tgz:240874.got - 2010.06.28 07:06:18.
