data_PCOD8144990
_publ_section_title
;
Structure prediction by ZEFSAII (Michael W. Deem and Ramdas Pophale) SiO2 
 PCOD8144990
Probable space group: C 2/C
;
_chemical_formula_sum "Si O2"
_cell_formula_units_Z 60
_cell_length_a 13.673114
_cell_length_b 19.653572
_cell_length_c 12.057965
_cell_angle_alpha 90.000000
_cell_angle_beta 104.181167
_cell_angle_gamma 90.000000
_cell_volume 3141.538427
_symmetry_space_group_name_H-M "C 2/C"
_symmetry_group_IT_number 15
_symmetry_cell_setting 'monoclinic'
loop_
_space_group_symop_operation_xyz
x,y,z
-x,y,1/2-z
-x,-y,-z
x,-y,1/2+z
1/2+x,1/2+y,z
1/2-x,1/2+y,1/2-z
1/2-x,1/2-y,-z
1/2+x,1/2-y,1/2+z
loop_
_atom_site_type_symbol
_atom_site_label
_atom_site_fract_x
_atom_site_fract_y
_atom_site_fract_z
Si Si1 0.465039 0.246338 0.438018
Si Si2 0.390821 0.132850 0.260364
Si Si3 0.428987 0.329611 0.633287
Si Si4 0.315435 0.580839 0.606011
Si Si5 0.211048 0.938955 0.806973
Si Si6 0.824743 0.311907 0.511885
Si Si7 0.567712 0.442175 0.571683
Si Si8 0.000000 0.849604 0.250000
O O1 0.397643 0.190954 0.356205
O O2 0.405485 0.273380 0.531229
O O3 0.568565 0.211716 0.508595
O O4 0.493245 0.305104 0.358816
O O5 0.500000 0.105393 0.250000
O O6 0.323941 0.072004 0.292022
O O7 0.333598 0.162172 0.139384
O O8 0.500000 0.297673 0.750000
O O9 0.328361 0.367069 0.652082
O O10 0.491055 0.387169 0.591433
O O11 0.282946 0.501858 0.606419
O O12 0.217825 0.630069 0.583575
O O13 0.359887 0.592448 0.496696
O O14 0.400130 0.603228 0.718714
O O15 0.135670 0.967498 0.692240
O O16 0.750000 0.250000 0.500000
O O17 0.500000 0.500000 0.500000
#
# Coordination Sequence:
#
# PCOD8144990 Si02
#       8
#     8   8   8   8   8   8   8   4
#     4  11  21  39  63  88 120 160 213 255 301 357
#     4  10  22  42  63  87 119 169 216 255 298 369
#     4  10  22  36  58  90 126 161 194 252 325 379
#     4  12  22  34  61  92 122 158 204 253 306 373
#     4  11  24  37  59  91 123 169 197 247 333 365
#     4  11  19  37  62  89 115 162 210 258 300 356
#     4  11  19  35  55  85 129 154 191 245 314 384
#     4  12  20  34  60  98 122 146 202 274 300 356
#
# _framework density 19.098922999999999
#
# number of rings (size 3 to 8) (size 9 to 14) (size 15 to 20)
#    0.000    1.067    7.333    0.800    2.800    0.533 
#    0.000    2.667    2.933    0.000    0.000    0.000 
#    0.000    0.000    0.000    0.000    0.000    0.000 
#
# Total GULP energy -371883.160508 kJ/mol
# GULP energy per Si atom -12396.105350 kJ/mol
# Density = 1.905545 g / cm^3
# Si number density = 19.098923 Si / 1000 Ang^3
#
#
#
# Elastic Constant Matrix: (Units=GPa)
#
#
# Indices 1 2 3 4 5 6 
#
# 1 98.6317 40.6793 37.9966 0.0000 6.2751 0.0000
# 2 40.6793 61.7911 30.6185 0.0000 17.2835 0.0000
# 3 37.9966 30.6185 89.7259 0.0000 8.8117 0.0000
# 4 0.0000 0.0000 0.0000 4.1307 0.0000 -33.9094
# 5 6.2751 17.2835 8.8117 0.0000 22.7491 0.0000
# 6 0.0000 0.0000 0.0000 -33.9094 0.0000 -42.1425
#
#
#
# Elastic Compliance Matrix: (Units=1/GPa)
#
#
# Indices 1 2 3 4 5 6 
#
# 1 0.015130 -0.009379 -0.003635 0.000000 0.004360 0.000000
# 2 -0.009379 0.029607 -0.004342 0.000000 -0.018225 0.000000
# 3 -0.003635 -0.004342 0.014287 0.000000 -0.001233 0.000000
# 4 0.000000 0.000000 0.000000 0.031831 0.000000 -0.025613
# 5 0.004360 -0.018225 -0.001233 0.000000 0.057079 0.000000
# 6 0.000000 0.000000 0.000000 -0.025613 0.000000 -0.003120
#
#
# Mechanical properties :
#
#
# Convention : Reuss Voigt Hill
#
# Bulk Modulus (GPa) = 41.13021 52.08197 46.60609
# Shear Modulus (GPa) = 26.64824 6.33774 16.49299
#
# Velocity S-wave (km/s) = 3.73939 1.82362 2.94182
# Velocity P-wave (km/s) = 6.34241 5.63586 5.99954
#
# Compressibility (1/GPa) = 0.02431303
#
# Stress axis : x y z
#
# Youngs Moduli (GPa) = 66.09469 33.77555 69.99402
#
# Poissons Ratio (x) = 0.31678 0.25441
# Poissons Ratio (y) = 0.61990 0.30390
# Poissons Ratio (z) = 0.24024 0.14664
#
# Static dielectric constant tensor:
#      x y z
#    x 2.887060 0.000000 0.809620 
#    y 0.000000 3.155310 0.000000 
#    z 0.809620 0.000000 2.743240 
# 
# 
# High freq. dielectric constant tensor:
#      x y z
#    x 1.729340 0.000000 0.006830 
#    y 0.000000 1.729670 0.000000 
#    z 0.006830 0.000000 1.747250 
# 
# From -- ./inp_files/98818.got.cif
#   From: 2010.06.25/outbox.cif.g09.slc.cpg/sg15_50_cif.got.tgz:98818.got - 2010.06.28 07:06:18.
