data_PCOD8144266
_publ_section_title
;
Structure prediction by ZEFSAII (Michael W. Deem and Ramdas Pophale) SiO2 
 PCOD8144266
Probable space group: C 2/C
;
_chemical_formula_sum "Si O2"
_cell_formula_units_Z 32
_cell_length_a 11.376083
_cell_length_b 8.153056
_cell_length_c 14.987375
_cell_angle_alpha 90.000000
_cell_angle_beta 88.514466
_cell_angle_gamma 90.000000
_cell_volume 1389.609458
_symmetry_space_group_name_H-M "C 2/C"
_symmetry_group_IT_number 15
_symmetry_cell_setting 'monoclinic'
loop_
_space_group_symop_operation_xyz
x,y,z
-x,y,1/2-z
-x,-y,-z
x,-y,1/2+z
1/2+x,1/2+y,z
1/2-x,1/2+y,1/2-z
1/2-x,1/2-y,-z
1/2+x,1/2-y,1/2+z
loop_
_atom_site_type_symbol
_atom_site_label
_atom_site_fract_x
_atom_site_fract_y
_atom_site_fract_z
Si Si1 0.156738 0.395185 0.006589
Si Si2 0.008387 0.857289 0.427906
Si Si3 0.253682 0.630928 0.858606
Si Si4 0.226961 0.004997 0.331041
O O1 0.031625 0.317328 0.978978
O O2 0.192282 0.545195 0.942836
O O3 0.250000 0.250000 0.000000
O O4 0.160778 0.459862 0.108369
O O5 0.891260 0.841875 0.373467
O O6 0.114458 0.893957 0.357535
O O7 0.000000 0.000000 0.500000
O O8 0.191777 0.805603 0.845292
O O9 0.235638 0.520532 0.771539
#
# Coordination Sequence:
#
# PCOD8144266 Si02
#       4
#     8   8   8   8
#     4  10  21  42  66  95 128 169 215 263 323 385
#     4  11  23  42  69  91 130 172 211 264 330 381
#     4  12  24  44  66  95 134 169 217 272 319 385
#     4  11  24  42  67  96 131 171 218 267 324 384
#
# _framework density 23.028053
#
# number of rings (size 3 to 8) (size 9 to 14) (size 15 to 20)
#    0.000    1.000    5.000    4.500    0.000    1.000 
#    0.000    0.000    0.000    0.000    0.000    0.000 
#    0.000    0.000    0.000    0.000    0.000    0.000 
#
# Total GULP energy -198448.302678 kJ/mol
# GULP energy per Si atom -12403.018917 kJ/mol
# Density = 2.297564 g / cm^3
# Si number density = 23.028053 Si / 1000 Ang^3
#
#
#
# Elastic Constant Matrix: (Units=GPa)
#
#
# Indices 1 2 3 4 5 6 
#
# 1 78.4504 20.5154 41.0066 0.0000 19.3470 0.0000
# 2 20.5154 117.4216 25.6947 0.0000 25.4942 0.0000
# 3 41.0066 25.6947 133.9502 0.0000 36.2731 0.0000
# 4 0.0000 0.0000 0.0000 47.4744 0.0000 4.7505
# 5 19.3470 25.4942 36.2731 0.0000 25.9193 0.0000
# 6 0.0000 0.0000 0.0000 4.7505 0.0000 30.5749
#
#
#
# Elastic Compliance Matrix: (Units=1/GPa)
#
#
# Indices 1 2 3 4 5 6 
#
# 1 0.016243 -0.000563 -0.002788 0.000000 -0.007669 0.000000
# 2 -0.000563 0.010991 0.001413 0.000000 -0.012368 0.000000
# 3 -0.002788 0.001413 0.012658 0.000000 -0.017023 0.000000
# 4 0.000000 0.000000 0.000000 0.021397 0.000000 -0.003324
# 5 -0.007669 -0.012368 -0.017023 0.000000 0.080294 0.000000
# 6 0.000000 0.000000 0.000000 -0.003324 0.000000 0.033223
#
#
# Mechanical properties :
#
#
# Convention : Reuss Voigt Hill
#
# Bulk Modulus (GPa) = 27.76498 56.02840 41.89669
# Shear Modulus (GPa) = 26.22135 36.96744 31.59439
#
# Velocity S-wave (km/s) = 3.37808 4.01099 3.70806
# Velocity P-wave (km/s) = 5.22479 6.77009 6.04700
#
# Compressibility (1/GPa) = 0.03601659
#
# Stress axis : x y z
#
# Youngs Moduli (GPa) = 61.56677 90.98590 79.00447
#
# Poissons Ratio (x) = 0.05120 0.22023
# Poissons Ratio (y) = 0.03464 -0.11165
# Poissons Ratio (z) = 0.17163 -0.12858
#
# Static dielectric constant tensor:
#      x y z
#    x 4.551210 0.000000 0.258830 
#    y 0.000000 4.535360 0.000000 
#    z 0.258830 0.000000 4.313730 
# 
# 
# High freq. dielectric constant tensor:
#      x y z
#    x 1.890410 0.000000 0.018720 
#    y 0.000000 1.931190 0.000000 
#    z 0.018720 0.000000 1.914060 
# 
# From -- ./inp_files/140523.got.cif
#   From: 2010.06.25/outbox.cif.g09.slc.cpg/sg15_71_cif.got.tgz:140523.got - 2010.06.28 07:06:18.
