data_PCOD8144148
_publ_section_title
;
Structure prediction by ZEFSAII (Michael W. Deem and Ramdas Pophale) SiO2 
 PCOD8144148
Probable space group: C 2/C
;
_chemical_formula_sum "Si O2"
_cell_formula_units_Z 56
_cell_length_a 10.984474
_cell_length_b 17.692987
_cell_length_c 27.079524
_cell_angle_alpha 90.000000
_cell_angle_beta 149.001004
_cell_angle_gamma 90.000000
_cell_volume 2710.491939
_symmetry_space_group_name_H-M "C 2/C"
_symmetry_group_IT_number 15
_symmetry_cell_setting 'monoclinic'
loop_
_space_group_symop_operation_xyz
x,y,z
-x,y,1/2-z
-x,-y,-z
x,-y,1/2+z
1/2+x,1/2+y,z
1/2-x,1/2+y,1/2-z
1/2-x,1/2-y,-z
1/2+x,1/2-y,1/2+z
loop_
_atom_site_type_symbol
_atom_site_label
_atom_site_fract_x
_atom_site_fract_y
_atom_site_fract_z
Si Si1 0.095136 0.941928 0.730871
Si Si2 0.422396 0.799198 0.421136
Si Si3 0.783608 0.521817 0.959663
Si Si4 0.532944 0.060166 0.622005
Si Si5 0.833167 0.189410 0.569783
Si Si6 0.106215 0.661683 0.735650
Si Si7 0.535849 0.301086 0.871126
O O1 0.114521 0.873271 0.698946
O O2 0.000000 0.911009 0.750000
O O3 0.341485 0.979557 0.829932
O O4 0.947898 0.009037 0.653700
O O5 0.326977 0.875689 0.361414
O O6 0.249032 0.777398 0.405649
O O7 0.428262 0.728372 0.385548
O O8 0.687895 0.820334 0.529884
O O9 0.796848 0.608839 0.982288
O O10 0.000000 0.500000 0.000000
O O11 0.790149 0.465241 0.009713
O O12 0.502260 0.095440 0.664956
O O13 0.750000 0.250000 0.500000
O O14 0.112363 0.174035 0.665673
O O15 0.983535 0.738875 0.677774
O O16 0.000000 0.635693 0.750000
#
# Coordination Sequence:
#
# PCOD8144148 Si02
#       7
#     8   8   8   8   8   8   8
#     4  12  21  35  64  99 128 167 222 274 320 394
#     4  10  21  42  63  94 130 176 215 275 332 410
#     4  12  22  40  66 100 131 168 226 277 332 395
#     4  11  23  39  67  92 130 171 221 277 331 388
#     4  12  25  41  66  99 137 172 226 281 342 403
#     4  11  25  44  64  93 133 177 220 275 344 406
#     4  10  22  38  66  95 130 169 222 265 340 399
#
# _framework density 20.660457000000001
#
# number of rings (size 3 to 8) (size 9 to 14) (size 15 to 20)
#    0.000    0.857    5.714    1.286    2.000    1.714 
#    0.000    2.143    0.000    0.000    0.000    0.000 
#    0.000    0.000    0.000    0.000    0.000    0.000 
#
# Total GULP energy -347022.708403 kJ/mol
# GULP energy per Si atom -12393.668157 kJ/mol
# Density = 2.061343 g / cm^3
# Si number density = 20.660457 Si / 1000 Ang^3
#
#
#
# Elastic Constant Matrix: (Units=GPa)
#
#
# Indices 1 2 3 4 5 6 
#
# 1 137.0316 51.7291 45.6264 0.0014 -21.2612 0.0001
# 2 51.7291 127.4599 36.7337 0.0013 -18.0981 0.0002
# 3 45.6264 36.7337 91.8527 0.0067 -17.0199 0.0017
# 4 0.0014 0.0013 0.0067 43.0311 0.0023 -8.8507
# 5 -21.2612 -18.0981 -17.0199 0.0023 32.4998 0.0004
# 6 0.0001 0.0002 0.0017 -8.8507 0.0004 24.9103
#
#
#
# Elastic Compliance Matrix: (Units=1/GPa)
#
#
# Indices 1 2 3 4 5 6 
#
# 1 0.009876 -0.002601 -0.003252 0.000000 0.003309 0.000000
# 2 -0.002601 0.009908 -0.002174 0.000000 0.002677 0.000000
# 3 -0.003252 -0.002174 0.014124 -0.000003 0.004058 -0.000002
# 4 0.000000 0.000000 -0.000003 0.025071 -0.000003 0.008908
# 5 0.003309 0.002677 0.004058 -0.000003 0.036550 -0.000002
# 6 0.000000 0.000000 -0.000002 0.008908 -0.000002 0.043309
#
#
# Mechanical properties :
#
#
# Convention : Reuss Voigt Hill
#
# Bulk Modulus (GPa) = 56.01407 69.39139 62.70273
# Shear Modulus (GPa) = 31.08596 34.90523 32.99560
#
# Velocity S-wave (km/s) = 3.88314 4.11478 4.00063
# Velocity P-wave (km/s) = 6.87573 7.49898 7.19410
#
# Compressibility (1/GPa) = 0.01785266
#
# Stress axis : x y z
#
# Youngs Moduli (GPa) = 101.25836 100.92911 70.80114
#
# Poissons Ratio (x) = 0.26250 0.23027
# Poissons Ratio (y) = 0.26336 0.15395
# Poissons Ratio (z) = 0.32932 0.21946
#
# Static dielectric constant tensor:
#      x y z
#    x 3.719910 0.000010 -0.566050 
#    y 0.000010 3.840040 -0.000010 
#    z -0.566050 -0.000010 4.354210 
# 
# 
# High freq. dielectric constant tensor:
#      x y z
#    x 1.776460 0.000000 -0.027180 
#    y 0.000000 1.818160 0.000000 
#    z -0.027180 0.000000 1.823090 
# 
# From -- ./inp_files/293688.got.cif
#   From: 2010.06.25/outbox.cif.g09.slc.cpg/sg15_147_cif.got.tgz:293688.got - 2010.06.28 07:06:18.
