data_PCOD8144611
_publ_section_title
;
Structure prediction by ZEFSAII (Michael W. Deem and Ramdas Pophale) SiO2 
 PCOD8144611
Probable space group: C 2/C
;
_chemical_formula_sum "Si O2"
_cell_formula_units_Z 48
_cell_length_a 14.418157
_cell_length_b 15.281857
_cell_length_c 30.718765
_cell_angle_alpha 90.000000
_cell_angle_beta 160.713105
_cell_angle_gamma 90.000000
_cell_volume 2235.611071
_symmetry_space_group_name_H-M "C 2/C"
_symmetry_group_IT_number 15
_symmetry_cell_setting 'monoclinic'
loop_
_space_group_symop_operation_xyz
x,y,z
-x,y,1/2-z
-x,-y,-z
x,-y,1/2+z
1/2+x,1/2+y,z
1/2-x,1/2+y,1/2-z
1/2-x,1/2-y,-z
1/2+x,1/2-y,1/2+z
loop_
_atom_site_type_symbol
_atom_site_label
_atom_site_fract_x
_atom_site_fract_y
_atom_site_fract_z
Si Si1 0.570448 0.260952 0.132014
Si Si2 0.342517 0.579998 0.225751
Si Si3 0.511224 0.585836 0.064729
Si Si4 0.696301 0.592241 0.623998
Si Si5 0.644885 0.940478 0.483454
Si Si6 0.563461 0.233563 0.623839
O O1 0.734723 0.177645 0.185969
O O2 0.543882 0.337708 0.085810
O O3 0.729243 0.291699 0.245601
O O4 0.250000 0.250000 0.000000
O O5 0.500000 0.573216 0.250000
O O6 0.565708 0.549892 0.361232
O O7 0.061349 0.521729 0.101517
O O8 0.710715 0.500522 0.156645
O O9 0.668970 0.677158 0.146937
O O10 0.450183 0.589027 0.987078
O O11 0.235700 0.569526 0.972834
O O12 0.000000 0.629692 0.750000
O O13 0.466398 0.853738 0.419388
O O14 0.250000 0.250000 0.500000
#
# Coordination Sequence:
#
# PCOD8144611 Si02
#       6
#     8   8   8   8   8   8
#     4  12  26  43  73 105 137 183 238 289 352 427
#     4  12  27  46  71 102 142 185 243 294 351 423
#     4  10  23  42  67 101 136 181 227 286 352 419
#     4  11  24  40  70 101 136 176 234 287 346 413
#     4  11  25  45  73  97 143 189 234 286 363 421
#     4  10  21  43  69  96 134 185 223 279 355 414
#
# _framework density 21.470641000000001
#
# number of rings (size 3 to 8) (size 9 to 14) (size 15 to 20)
#    0.000    1.000    3.333    4.000    9.333    2.667 
#    0.000    0.833    0.000    0.000    0.000    0.000 
#    0.000    0.000    0.000    0.000    0.000    0.000 
#
# Total GULP energy -297394.786072 kJ/mol
# GULP energy per Si atom -12391.449420 kJ/mol
# Density = 2.142177 g / cm^3
# Si number density = 21.470641 Si / 1000 Ang^3
#
#
#
# Elastic Constant Matrix: (Units=GPa)
#
#
# Indices 1 2 3 4 5 6 
#
# 1 90.1543 42.4174 40.0030 -0.0063 -3.7065 0.0044
# 2 42.4174 118.5493 33.5085 -0.0291 -10.0888 -0.0039
# 3 40.0030 33.5085 124.4635 -0.1161 -1.9553 -0.0302
# 4 -0.0063 -0.0291 -0.1161 39.4402 -0.0364 -2.3571
# 5 -3.7065 -10.0888 -1.9553 -0.0364 25.5598 0.0053
# 6 0.0044 -0.0039 -0.0302 -2.3571 0.0053 44.9184
#
#
#
# Elastic Compliance Matrix: (Units=1/GPa)
#
#
# Indices 1 2 3 4 5 6 
#
# 1 0.014674 -0.004224 -0.003576 -0.000011 0.000187 -0.000005
# 2 -0.004224 0.010654 -0.001456 0.000006 0.003482 0.000000
# 3 -0.003576 -0.001456 0.009570 0.000027 -0.000361 0.000008
# 4 -0.000011 0.000006 0.000027 0.025435 0.000039 0.001335
# 5 0.000187 0.003482 -0.000361 0.000039 0.040498 -0.000003
# 6 -0.000005 0.000000 0.000008 0.001335 -0.000003 0.022333
#
#
# Mechanical properties :
#
#
# Convention : Reuss Voigt Hill
#
# Bulk Modulus (GPa) = 61.02597 62.78056 61.90326
# Shear Modulus (GPa) = 33.98176 36.46623 35.22399
#
# Velocity S-wave (km/s) = 3.98264 4.12566 4.05478
# Velocity P-wave (km/s) = 7.04509 7.21100 7.12853
#
# Compressibility (1/GPa) = 0.01638647
#
# Stress axis : x y z
#
# Youngs Moduli (GPa) = 68.14869 93.85766 104.49005
#
# Poissons Ratio (x) = 0.39642 0.37368
# Poissons Ratio (y) = 0.28783 0.15216
# Poissons Ratio (z) = 0.24371 0.13668
#
# Static dielectric constant tensor:
#      x y z
#    x 3.904600 0.000180 -0.089250 
#    y 0.000180 4.875260 -0.000760 
#    z -0.089250 -0.000760 3.497820 
# 
# 
# High freq. dielectric constant tensor:
#      x y z
#    x 1.833340 0.000000 -0.005800 
#    y 0.000000 1.867380 0.000000 
#    z -0.005800 0.000000 1.840300 
# 
# From -- ./inp_files/314148.got.cif
#   From: 2010.06.25/outbox.cif.g09.slc.cpg/sg15_158_cif.got.tgz:314148.got - 2010.06.28 07:06:18.
