data_PCOD8144016
_publ_section_title
;
Structure prediction by ZEFSAII (Michael W. Deem and Ramdas Pophale) SiO2 
 PCOD8144016
Probable space group: C 2/C
;
_chemical_formula_sum "Si O2"
_cell_formula_units_Z 48
_cell_length_a 22.887704
_cell_length_b 10.771989
_cell_length_c 15.086582
_cell_angle_alpha 90.000000
_cell_angle_beta 37.633805
_cell_angle_gamma 90.000000
_cell_volume 2271.196387
_symmetry_space_group_name_H-M "C 2/C"
_symmetry_group_IT_number 15
_symmetry_cell_setting 'monoclinic'
loop_
_space_group_symop_operation_xyz
x,y,z
-x,y,1/2-z
-x,-y,-z
x,-y,1/2+z
1/2+x,1/2+y,z
1/2-x,1/2+y,1/2-z
1/2-x,1/2-y,-z
1/2+x,1/2-y,1/2+z
loop_
_atom_site_type_symbol
_atom_site_label
_atom_site_fract_x
_atom_site_fract_y
_atom_site_fract_z
Si Si1 0.414783 0.466028 0.167012
Si Si2 0.325900 0.719727 0.658228
Si Si3 0.403796 0.734824 0.825465
Si Si4 0.527103 0.291885 0.819775
Si Si5 0.790245 0.673141 0.869239
Si Si6 0.735337 0.888585 0.615510
O O1 0.324346 0.410395 0.218144
O O2 0.439964 0.355583 0.204054
O O3 0.401856 0.592326 0.238912
O O4 0.500000 0.500000 0.000000
O O5 0.432126 0.725825 0.490550
O O6 0.245044 0.730428 0.681151
O O7 0.306521 0.840967 0.741135
O O8 0.500000 0.793550 0.750000
O O9 0.336828 0.846597 0.874707
O O10 0.342801 0.661679 0.972721
O O11 0.500000 0.305006 0.750000
O O12 0.594354 0.173748 0.760315
O O13 0.753004 0.534132 0.908920
O O14 0.750000 0.750000 0.000000
#
# Coordination Sequence:
#
# PCOD8144016 Si02
#       6
#     8   8   8   8   8   8
#     4   9  20  36  66  98 129 168 227 275 318 400
#     4  10  24  43  63  98 132 177 229 276 340 399
#     4  10  21  41  69  94 133 177 213 275 339 387
#     4  11  22  40  65 100 134 178 228 275 339 401
#     4  12  25  42  69  95 134 177 220 287 338 400
#     4  10  25  44  61 101 133 167 231 270 331 411
#
# _framework density 21.134235
#
# number of rings (size 3 to 8) (size 9 to 14) (size 15 to 20)
#    0.000    1.667    1.667    1.500    7.000    4.000 
#    0.000    0.000    0.000    0.000    0.000    0.000 
#    0.000    0.000    0.000    0.000    0.000    0.000 
#
# Total GULP energy -297367.013592 kJ/mol
# GULP energy per Si atom -12390.292233 kJ/mol
# Density = 2.108613 g / cm^3
# Si number density = 21.134235 Si / 1000 Ang^3
#
#
#
# Elastic Constant Matrix: (Units=GPa)
#
#
# Indices 1 2 3 4 5 6 
#
# 1 146.2307 34.0189 51.1434 0.0000 -1.5659 0.0000
# 2 34.0189 84.3487 34.5375 0.0000 12.5968 0.0000
# 3 51.1434 34.5375 106.1511 0.0000 3.8214 0.0000
# 4 0.0000 0.0000 0.0000 27.2842 0.0000 2.1763
# 5 -1.5659 12.5968 3.8214 0.0000 37.7741 0.0000
# 6 0.0000 0.0000 0.0000 2.1763 0.0000 23.4487
#
#
#
# Elastic Compliance Matrix: (Units=1/GPa)
#
#
# Indices 1 2 3 4 5 6 
#
# 1 0.008590 -0.002269 -0.003453 0.000000 0.001462 0.000000
# 2 -0.002269 0.014949 -0.003601 0.000000 -0.004715 0.000000
# 3 -0.003453 -0.003601 0.012262 0.000000 -0.000183 0.000000
# 4 0.000000 0.000000 0.000000 0.036925 0.000000 -0.003427
# 5 0.001462 -0.004715 -0.000183 0.000000 0.028125 0.000000
# 6 0.000000 0.000000 0.000000 -0.003427 0.000000 0.042964
#
#
# Mechanical properties :
#
#
# Convention : Reuss Voigt Hill
#
# Bulk Modulus (GPa) = 58.28982 64.01446 61.15214
# Shear Modulus (GPa) = 29.73026 32.17012 30.95019
#
# Velocity S-wave (km/s) = 3.75471 3.90575 3.83097
# Velocity P-wave (km/s) = 6.81453 7.12004 6.96896
#
# Compressibility (1/GPa) = 0.01715565
#
# Stress axis : x y z
#
# Youngs Moduli (GPa) = 116.41969 66.89313 81.55036
#
# Poissons Ratio (x) = 0.15177 0.28159
# Poissons Ratio (y) = 0.26413 0.29367
# Poissons Ratio (z) = 0.40199 0.24089
#
# Static dielectric constant tensor:
#      x y z
#    x 4.203530 0.000000 0.176790 
#    y 0.000000 3.934020 0.000000 
#    z 0.176790 0.000000 3.882410 
# 
# 
# High freq. dielectric constant tensor:
#      x y z
#    x 1.840150 0.000000 0.010790 
#    y 0.000000 1.812330 0.000000 
#    z 0.010790 0.000000 1.831400 
# 
# From -- ./inp_files/167847.got.cif
#   From: 2010.06.25/outbox.cif.g09.slc.cpg/sg15_84_cif.got.tgz:167847.got - 2010.06.28 07:06:18.
