data_PCOD8144015
_publ_section_title
;
Structure prediction by ZEFSAII (Michael W. Deem and Ramdas Pophale) SiO2 
 PCOD8144015
Probable space group: C 2/C
;
_chemical_formula_sum "Si O2"
_cell_formula_units_Z 52
_cell_length_a 16.111882
_cell_length_b 28.034487
_cell_length_c 5.263688
_cell_angle_alpha 90.000000
_cell_angle_beta 66.502193
_cell_angle_gamma 90.000000
_cell_volume 2180.389282
_symmetry_space_group_name_H-M "C 2/C"
_symmetry_group_IT_number 15
_symmetry_cell_setting 'monoclinic'
loop_
_space_group_symop_operation_xyz
x,y,z
-x,y,1/2-z
-x,-y,-z
x,-y,1/2+z
1/2+x,1/2+y,z
1/2-x,1/2+y,1/2-z
1/2-x,1/2-y,-z
1/2+x,1/2-y,1/2+z
loop_
_atom_site_type_symbol
_atom_site_label
_atom_site_fract_x
_atom_site_fract_y
_atom_site_fract_z
Si Si1 0.605856 0.476179 0.144984
Si Si2 0.106537 0.819426 0.663024
Si Si3 0.400092 0.786767 0.256377
Si Si4 0.170300 0.871325 0.087548
Si Si5 0.500000 0.161323 0.250000
Si Si6 0.648204 0.873972 0.892772
Si Si7 0.392728 0.027479 0.871467
O O1 0.500000 0.486170 0.250000
O O2 0.648843 0.508018 0.321721
O O3 0.623124 0.421582 0.193813
O O4 0.142419 0.765673 0.672591
O O5 0.126758 0.850242 0.885505
O O6 0.000000 0.819987 0.750000
O O7 0.155980 0.838375 0.350970
O O8 0.500000 0.787832 0.250000
O O9 0.334052 0.825014 0.472634
O O10 0.417678 0.804648 0.947266
O O11 0.277226 0.877958 0.918301
O O12 0.453383 0.126689 0.101361
O O13 0.652145 0.919927 0.070324
O O14 0.500000 0.031304 0.750000
O O15 0.357930 0.001962 0.659134
#
# Coordination Sequence:
#
# PCOD8144015 Si02
#       7
#     8   8   8   8   4   8   8
#     4  10  21  41  69  94 127 174 221 266 331 404
#     4  11  25  45  70  98 137 175 222 281 342 404
#     4   9  22  41  69  95 128 185 229 268 332 409
#     4  12  27  42  68 106 139 172 222 286 339 394
#     4  10  22  44  70  90 132 188 228 268 330 406
#     4  11  26  42  66  98 139 179 228 276 336 405
#     4  10  23  40  65  95 127 173 227 277 329 385
#
# _framework density 23.848951
#
# number of rings (size 3 to 8) (size 9 to 14) (size 15 to 20)
#    0.000    1.538    0.000    3.692   14.000    3.692 
#    0.000    0.000    0.000    0.000    0.000    0.000 
#    0.000    0.000    0.000    0.000    0.000    0.000 
#
# Total GULP energy -322407.589137 kJ/mol
# GULP energy per Si atom -12400.291890 kJ/mol
# Density = 2.379467 g / cm^3
# Si number density = 23.848951 Si / 1000 Ang^3
#
#
#
# Elastic Constant Matrix: (Units=GPa)
#
#
# Indices 1 2 3 4 5 6 
#
# 1 33.7636 24.9634 14.4974 0.0000 11.3341 0.0000
# 2 24.9634 157.5070 61.8689 0.0000 6.1948 0.0000
# 3 14.4974 61.8689 147.5060 0.0000 25.5803 0.0000
# 4 0.0000 0.0000 0.0000 39.0212 0.0000 -1.2905
# 5 11.3341 6.1948 25.5803 0.0000 23.0225 0.0000
# 6 0.0000 0.0000 0.0000 -1.2905 0.0000 10.7166
#
#
#
# Elastic Compliance Matrix: (Units=1/GPa)
#
#
# Indices 1 2 3 4 5 6 
#
# 1 0.040385 -0.006512 0.002361 0.000000 -0.020753 0.000000
# 2 -0.006512 0.008716 -0.003920 0.000000 0.005217 0.000000
# 3 0.002361 -0.003920 0.010170 0.000000 -0.011407 0.000000
# 4 0.000000 0.000000 0.000000 0.025730 0.000000 0.003098
# 5 -0.020753 0.005217 -0.011407 0.000000 0.064924 0.000000
# 6 0.000000 0.000000 0.000000 0.003098 0.000000 0.093686
#
#
# Mechanical properties :
#
#
# Convention : Reuss Voigt Hill
#
# Bulk Modulus (GPa) = 23.18648 60.15957 41.67302
# Shear Modulus (GPa) = 18.23963 30.38187 24.31075
#
# Velocity S-wave (km/s) = 2.76850 3.57309 3.19621
# Velocity P-wave (km/s) = 4.46797 6.50405 5.57967
#
# Compressibility (1/GPa) = 0.04312859
#
# Stress axis : x y z
#
# Youngs Moduli (GPa) = 24.76156 114.73501 98.32962
#
# Poissons Ratio (x) = 0.74714 -0.23217
# Poissons Ratio (y) = 0.16125 0.38548
# Poissons Ratio (z) = -0.05846 0.44980
#
# Static dielectric constant tensor:
#      x y z
#    x 3.985940 0.000000 0.167160 
#    y 0.000000 4.428340 0.000000 
#    z 0.167160 0.000000 4.891120 
# 
# 
# High freq. dielectric constant tensor:
#      x y z
#    x 1.928020 0.000000 0.003260 
#    y 0.000000 1.953310 0.000000 
#    z 0.003260 0.000000 1.957620 
# 
# From -- ./inp_files/11461.got.cif
#   From: 2010.06.25/outbox.cif.g09.slc.cpg/sg15_6_cif.got.tgz:11461.got - 2010.06.28 07:06:18.
