data_PCOD8144761
_publ_section_title
;
Structure prediction by ZEFSAII (Michael W. Deem and Ramdas Pophale) SiO2 
 PCOD8144761
Probable space group: C 2/C
;
_chemical_formula_sum "Si O2"
_cell_formula_units_Z 40
_cell_length_a 11.537026
_cell_length_b 11.954929
_cell_length_c 25.612066
_cell_angle_alpha 90.000000
_cell_angle_beta 29.911925
_cell_angle_gamma 90.000000
_cell_volume 1761.558707
_symmetry_space_group_name_H-M "C 2/C"
_symmetry_group_IT_number 15
_symmetry_cell_setting 'monoclinic'
loop_
_space_group_symop_operation_xyz
x,y,z
-x,y,1/2-z
-x,-y,-z
x,-y,1/2+z
1/2+x,1/2+y,z
1/2-x,1/2+y,1/2-z
1/2-x,1/2-y,-z
1/2+x,1/2-y,1/2+z
loop_
_atom_site_type_symbol
_atom_site_label
_atom_site_fract_x
_atom_site_fract_y
_atom_site_fract_z
Si Si1 0.744502 0.689910 0.923290
Si Si2 0.498033 0.986308 0.562080
Si Si3 0.800362 0.576758 0.734002
Si Si4 0.019818 0.243519 0.905261
Si Si5 0.948176 0.896960 0.899876
O O1 0.593901 0.681124 0.929544
O O2 0.871865 0.810229 0.883697
O O3 0.945245 0.595501 0.839583
O O4 0.559978 0.668086 0.041852
O O5 0.391749 0.869543 0.622530
O O6 0.500000 0.000000 0.500000
O O7 0.338586 0.076338 0.655770
O O8 0.765925 0.000331 0.474334
O O9 0.639575 0.683289 0.809332
O O10 0.695912 0.457369 0.793896
O O11 0.750000 0.250000 0.000000
#
# Coordination Sequence:
#
# PCOD8144761 Si02
#       5
#     8   8   8   8   8
#     4  10  23  43  72 100 142 191 237 297 360 437
#     4  11  23  45  72  98 138 191 243 295 352 432
#     4  11  24  41  70 104 139 184 238 293 371 426
#     4  12  24  45  69 104 145 187 241 299 356 435
#     4  10  21  44  70 101 139 184 241 296 364 429
#
# _framework density 22.707163000000001
#
# number of rings (size 3 to 8) (size 9 to 14) (size 15 to 20)
#    0.000    1.200    4.000    1.800    0.000    1.600 
#    3.600    0.000    0.000    0.000    0.000    0.000 
#    0.000    0.000    0.000    0.000    0.000    0.000 
#
# Total GULP energy -247822.167319 kJ/mol
# GULP energy per Si atom -12391.108366 kJ/mol
# Density = 2.265548 g / cm^3
# Si number density = 22.707163 Si / 1000 Ang^3
#
#
#
# Elastic Constant Matrix: (Units=GPa)
#
#
# Indices 1 2 3 4 5 6 
#
# 1 144.0304 52.5158 82.8637 0.0002 8.9090 -0.0011
# 2 52.5158 110.2738 58.6569 0.0003 13.3350 0.0002
# 3 82.8637 58.6569 146.3122 -0.0018 12.9995 -0.0053
# 4 0.0002 0.0003 -0.0018 57.1508 -0.0033 0.7925
# 5 8.9090 13.3350 12.9995 -0.0033 35.1883 0.0017
# 6 -0.0011 0.0002 -0.0053 0.7925 0.0017 31.1756
#
#
#
# Elastic Compliance Matrix: (Units=1/GPa)
#
#
# Indices 1 2 3 4 5 6 
#
# 1 0.010775 -0.002404 -0.005146 0.000000 0.000084 0.000000
# 2 -0.002404 0.012326 -0.003328 0.000000 -0.002833 -0.000001
# 3 -0.005146 -0.003328 0.011224 0.000000 -0.001582 0.000002
# 4 0.000000 0.000000 0.000000 0.017504 0.000002 -0.000445
# 5 0.000084 -0.002833 -0.001582 0.000002 0.030055 -0.000002
# 6 0.000000 -0.000001 0.000002 -0.000445 -0.000002 0.032088
#
#
# Mechanical properties :
#
#
# Convention : Reuss Voigt Hill
#
# Bulk Modulus (GPa) = 79.56602 87.63213 83.59908
# Shear Modulus (GPa) = 35.73505 38.47493 37.10499
#
# Velocity S-wave (km/s) = 3.97134 4.12077 4.04674
# Velocity P-wave (km/s) = 7.49298 7.83052 7.66361
#
# Compressibility (1/GPa) = 0.01256818
#
# Stress axis : x y z
#
# Youngs Moduli (GPa) = 92.80720 81.12744 89.09467
#
# Poissons Ratio (x) = 0.19506 0.45848
# Poissons Ratio (y) = 0.22314 0.29653
# Poissons Ratio (z) = 0.47759 0.27001
#
# Static dielectric constant tensor:
#      x y z
#    x 3.880150 0.000110 0.144380 
#    y 0.000110 3.667520 -0.000140 
#    z 0.144380 -0.000140 4.308390 
# 
# 
# High freq. dielectric constant tensor:
#      x y z
#    x 1.869130 0.000000 0.013010 
#    y 0.000000 1.901000 0.000000 
#    z 0.013010 0.000000 1.905580 
# 
# From -- ./inp_files/292360.got.cif
#   From: 2010.06.25/outbox.cif.g09.slc.cpg/sg15_147_cif.got.tgz:292360.got - 2010.06.28 07:06:18.
