data_PCOD8144159
_publ_section_title
;
Structure prediction by ZEFSAII (Michael W. Deem and Ramdas Pophale) SiO2 
 PCOD8144159
Probable space group: C 2/C
;
_chemical_formula_sum "Si O2"
_cell_formula_units_Z 40
_cell_length_a 4.877667
_cell_length_b 27.117054
_cell_length_c 15.360933
_cell_angle_alpha 90.000000
_cell_angle_beta 122.597255
_cell_angle_gamma 90.000000
_cell_volume 1711.712903
_symmetry_space_group_name_H-M "C 2/C"
_symmetry_group_IT_number 15
_symmetry_cell_setting 'monoclinic'
loop_
_space_group_symop_operation_xyz
x,y,z
-x,y,1/2-z
-x,-y,-z
x,-y,1/2+z
1/2+x,1/2+y,z
1/2-x,1/2+y,1/2-z
1/2-x,1/2-y,-z
1/2+x,1/2-y,1/2+z
loop_
_atom_site_type_symbol
_atom_site_label
_atom_site_fract_x
_atom_site_fract_y
_atom_site_fract_z
Si Si1 0.239761 0.750285 0.866421
Si Si2 0.029032 0.451876 0.855092
Si Si3 0.132683 0.435596 0.179697
Si Si4 0.639183 0.305499 0.558802
Si Si5 0.170918 0.092375 0.454267
O O1 0.469347 0.797586 0.880626
O O2 0.000000 0.732278 0.750000
O O3 0.995282 0.763612 0.901361
O O4 0.472628 0.704715 0.935707
O O5 0.000000 0.433838 0.750000
O O6 0.898232 0.506657 0.847363
O O7 0.417008 0.450281 0.940939
O O8 0.821015 0.416871 0.884073
O O9 0.500000 0.418950 0.250000
O O10 0.000000 0.421210 0.250000
O O11 0.961660 0.404819 0.073662
O O12 0.549534 0.358639 0.581636
#
# Coordination Sequence:
#
# PCOD8144159 Si02
#       5
#     8   8   8   8   8
#     4  10  21  42  64  86 123 162 191 245 313 374
#     4  11  23  40  61  89 126 170 214 258 315 376
#     4  11  23  41  62  89 125 170 218 259 313 377
#     4  10  23  39  62  94 119 152 208 246 300 387
#     4  12  23  40  64  92 126 161 209 271 316 361
#
# _framework density 23.368403000000001
#
# number of rings (size 3 to 8) (size 9 to 14) (size 15 to 20)
#    0.000    1.200    0.000    7.200    0.000    4.000 
#    0.000    5.000    0.000    0.000    0.000    0.000 
#    0.000    0.000    0.000    0.000    0.000    0.000 
#
# Total GULP energy -247950.096563 kJ/mol
# GULP energy per Si atom -12397.504828 kJ/mol
# Density = 2.331522 g / cm^3
# Si number density = 23.368403 Si / 1000 Ang^3
#
#
#
# Elastic Constant Matrix: (Units=GPa)
#
#
# Indices 1 2 3 4 5 6 
#
# 1 144.9209 9.1571 26.5917 0.0000 1.3819 0.0000
# 2 9.1571 32.5809 6.5687 0.0000 -13.1404 0.0000
# 3 26.5917 6.5687 88.0575 0.0000 3.7794 0.0000
# 4 0.0000 0.0000 0.0000 15.9314 0.0000 -0.3544
# 5 1.3819 -13.1404 3.7794 0.0000 48.5118 0.0000
# 6 0.0000 0.0000 0.0000 -0.3544 0.0000 31.1581
#
#
#
# Elastic Compliance Matrix: (Units=1/GPa)
#
#
# Indices 1 2 3 4 5 6 
#
# 1 0.007405 -0.001890 -0.002071 0.000000 -0.000562 0.000000
# 2 -0.001890 0.035738 -0.002521 0.000000 0.009931 0.000000
# 3 -0.002071 -0.002521 0.012237 0.000000 -0.001577 0.000000
# 4 0.000000 0.000000 0.000000 0.062785 0.000000 0.000714
# 5 -0.000562 0.009931 -0.001577 0.000000 0.023442 0.000000
# 6 0.000000 0.000000 0.000000 0.000714 0.000000 0.032102
#
#
# Mechanical properties :
#
#
# Convention : Reuss Voigt Hill
#
# Bulk Modulus (GPa) = 23.57662 38.91049 31.24355
# Shear Modulus (GPa) = 24.89876 34.00306 29.45091
#
# Velocity S-wave (km/s) = 3.26772 3.81870 3.55390
# Velocity P-wave (km/s) = 4.93441 6.01085 5.49903
#
# Compressibility (1/GPa) = 0.04241491
#
# Stress axis : x y z
#
# Youngs Moduli (GPa) = 135.04141 27.98179 81.71650
#
# Poissons Ratio (x) = 0.05289 0.16924
# Poissons Ratio (y) = 0.25525 0.20603
# Poissons Ratio (z) = 0.27969 0.07055
#
# Static dielectric constant tensor:
#      x y z
#    x 4.439620 0.000000 0.129860 
#    y 0.000000 3.732710 0.000000 
#    z 0.129860 0.000000 4.456420 
# 
# 
# High freq. dielectric constant tensor:
#      x y z
#    x 1.949160 0.000000 0.004210 
#    y 0.000000 1.888240 0.000000 
#    z 0.004210 0.000000 1.930860 
# 
# From -- ./inp_files/130548.got.cif
#   From: 2010.06.25/outbox.cif.g09.slc.cpg/sg15_66_cif.got.tgz:130548.got - 2010.06.28 07:06:18.
