data_PCOD8144345
_publ_section_title
;
Structure prediction by ZEFSAII (Michael W. Deem and Ramdas Pophale) SiO2 
 PCOD8144345
Probable space group: C 2/C
;
_chemical_formula_sum "Si O2"
_cell_formula_units_Z 52
_cell_length_a 9.319209
_cell_length_b 19.176949
_cell_length_c 17.564729
_cell_angle_alpha 90.000000
_cell_angle_beta 44.120449
_cell_angle_gamma 90.000000
_cell_volume 2185.318449
_symmetry_space_group_name_H-M "C 2/C"
_symmetry_group_IT_number 15
_symmetry_cell_setting 'monoclinic'
loop_
_space_group_symop_operation_xyz
x,y,z
-x,y,1/2-z
-x,-y,-z
x,-y,1/2+z
1/2+x,1/2+y,z
1/2-x,1/2+y,1/2-z
1/2-x,1/2-y,-z
1/2+x,1/2-y,1/2+z
loop_
_atom_site_type_symbol
_atom_site_label
_atom_site_fract_x
_atom_site_fract_y
_atom_site_fract_z
Si Si1 0.000000 0.076229 0.250000
Si Si2 0.906204 0.333762 0.202977
Si Si3 0.154490 0.609733 0.485552
Si Si4 0.518844 0.249188 0.325432
Si Si5 0.695676 0.859639 0.488105
Si Si6 0.216180 0.485661 0.573974
Si Si7 0.257250 0.987463 0.269767
O O1 0.840527 0.127014 0.355869
O O2 0.108887 0.024664 0.267407
O O3 0.755566 0.268851 0.250011
O O4 0.785549 0.406609 0.237202
O O5 0.000000 0.332063 0.250000
O O6 0.092823 0.329227 0.069352
O O7 0.235613 0.544000 0.502031
O O8 0.944454 0.595905 0.517327
O O9 0.500000 0.212965 0.250000
O O10 0.452831 0.196097 0.415193
O O11 0.377566 0.318585 0.376833
O O12 0.802177 0.912983 0.506909
O O13 0.333258 0.505064 0.608796
O O14 0.975626 0.473730 0.683779
#
# Coordination Sequence:
#
# PCOD8144345 Si02
#       7
#     4   8   8   8   8   8   8
#     4  12  26  34  64 110 140 182 220 278 364 402
#     4  11  23  46  69  97 139 183 234 281 342 417
#     4  11  23  42  68 104 142 173 224 292 346 409
#     4  11  26  43  72  96 130 190 235 278 332 412
#     4  11  24  44  69 104 133 176 238 285 339 404
#     4  10  21  42  68  95 138 177 216 292 351 401
#     4  10  22  38  64 103 135 179 221 282 350 407
#
# _framework density 23.795158000000001
#
# number of rings (size 3 to 8) (size 9 to 14) (size 15 to 20)
#    0.000    1.231    6.154    0.462    7.538    1.846 
#    1.385    2.308    0.000    0.000    0.000    0.000 
#    0.000    0.000    0.000    0.000    0.000    0.000 
#
# Total GULP energy -322328.021151 kJ/mol
# GULP energy per Si atom -12397.231583 kJ/mol
# Density = 2.374100 g / cm^3
# Si number density = 23.795158 Si / 1000 Ang^3
#
#
#
# Elastic Constant Matrix: (Units=GPa)
#
#
# Indices 1 2 3 4 5 6 
#
# 1 113.2254 20.0517 48.1824 0.0004 22.0102 -0.0005
# 2 20.0517 45.8061 13.9886 -0.0006 3.9051 0.0003
# 3 48.1824 13.9886 143.1393 -0.0009 17.8887 0.0002
# 4 0.0004 -0.0006 -0.0009 24.1372 -0.0001 -1.2705
# 5 22.0102 3.9051 17.8887 -0.0001 30.3378 0.0001
# 6 -0.0005 0.0003 0.0002 -1.2705 0.0001 14.8187
#
#
#
# Elastic Compliance Matrix: (Units=1/GPa)
#
#
# Indices 1 2 3 4 5 6 
#
# 1 0.011989 -0.003823 -0.002846 0.000000 -0.006528 0.000001
# 2 -0.003823 0.023806 -0.001083 0.000001 0.000348 -0.000001
# 3 -0.002846 -0.001083 0.008393 0.000000 -0.002745 0.000000
# 4 0.000000 0.000001 0.000000 0.041618 0.000000 0.003568
# 5 -0.006528 0.000348 -0.002745 0.000000 0.039272 -0.000001
# 6 0.000001 -0.000001 0.000000 0.003568 -0.000001 0.067788
#
#
# Mechanical properties :
#
#
# Convention : Reuss Voigt Hill
#
# Bulk Modulus (GPa) = 34.86285 51.84625 43.35455
# Shear Modulus (GPa) = 22.94308 28.52194 25.73251
#
# Velocity S-wave (km/s) = 3.10851 3.46590 3.29206
# Velocity P-wave (km/s) = 5.25041 6.15244 5.71924
#
# Compressibility (1/GPa) = 0.02868383
#
# Stress axis : x y z
#
# Youngs Moduli (GPa) = 83.40924 42.00689 119.14466
#
# Poissons Ratio (x) = 0.16057 0.33912
# Poissons Ratio (y) = 0.31883 0.12906
# Poissons Ratio (z) = 0.23741 0.04550
#
# Static dielectric constant tensor:
#      x y z
#    x 4.250790 0.000000 0.212970 
#    y 0.000000 3.864540 0.000000 
#    z 0.212970 0.000000 4.884250 
# 
# 
# High freq. dielectric constant tensor:
#      x y z
#    x 1.949460 0.000000 0.014060 
#    y 0.000000 1.902600 0.000000 
#    z 0.014060 0.000000 1.968670 
# 
# From -- ./inp_files/192476.got.cif
#   From: 2010.06.25/outbox.cif.g09.slc.cpg/sg15_97_cif.got.tgz:192476.got - 2010.06.28 07:06:18.
