data_PCOD8144259
_publ_section_title
;
Structure prediction by ZEFSAII (Michael W. Deem and Ramdas Pophale) SiO2 
 PCOD8144259
Probable space group: C 2/C
;
_chemical_formula_sum "Si O2"
_cell_formula_units_Z 56
_cell_length_a 31.884110
_cell_length_b 10.963167
_cell_length_c 9.148092
_cell_angle_alpha 90.000000
_cell_angle_beta 55.801109
_cell_angle_gamma 90.000000
_cell_volume 2644.809434
_symmetry_space_group_name_H-M "C 2/C"
_symmetry_group_IT_number 15
_symmetry_cell_setting 'monoclinic'
loop_
_space_group_symop_operation_xyz
x,y,z
-x,y,1/2-z
-x,-y,-z
x,-y,1/2+z
1/2+x,1/2+y,z
1/2-x,1/2+y,1/2-z
1/2-x,1/2-y,-z
1/2+x,1/2-y,1/2+z
loop_
_atom_site_type_symbol
_atom_site_label
_atom_site_fract_x
_atom_site_fract_y
_atom_site_fract_z
Si Si1 0.133293 0.971153 0.695668
Si Si2 0.804588 0.905649 0.199358
Si Si3 0.074635 0.208341 0.804772
Si Si4 0.663722 0.846848 0.767804
Si Si5 0.691224 0.068004 0.893585
Si Si6 0.386722 0.765593 0.087795
Si Si7 0.513488 0.121350 0.057404
O O1 0.149487 0.946563 0.497082
O O2 0.118556 0.842920 0.789958
O O3 0.183536 0.025829 0.672739
O O4 0.085520 0.064532 0.812001
O O5 0.800967 0.761774 0.240984
O O6 0.750510 0.945410 0.240302
O O7 0.108204 0.292589 0.846003
O O8 0.089126 0.222100 0.609047
O O9 0.017204 0.257217 0.939613
O O10 0.685246 0.907859 0.577749
O O11 0.662055 0.945136 0.901919
O O12 0.667857 0.175712 0.839778
O O13 0.426468 0.859116 0.083510
O O14 0.500000 0.095228 0.250000
O O15 0.500000 0.000000 0.000000
#
# Coordination Sequence:
#
# PCOD8144259 Si02
#       7
#     8   8   8   8   8   8   8
#     4  11  22  41  62  90 125 168 215 255 315 371
#     4  11  24  39  63  86 129 167 212 261 311 378
#     4   9  20  42  63  88 126 160 204 260 315 374
#     4  10  23  39  59  90 121 165 208 258 317 376
#     4  11  23  39  61  89 127 164 212 262 316 374
#     4  10  22  38  63  90 123 163 202 265 314 369
#     4  10  21  42  66  93 123 159 203 256 322 375
#
# _framework density 21.173549999999999
#
# number of rings (size 3 to 8) (size 9 to 14) (size 15 to 20)
#    0.000    1.714    1.429    2.143    4.000    1.143 
#    5.143    0.000    0.000    0.000    0.000    0.000 
#    0.000    0.000    0.000    0.000    0.000    0.000 
#
# Total GULP energy -347096.292901 kJ/mol
# GULP energy per Si atom -12396.296175 kJ/mol
# Density = 2.112536 g / cm^3
# Si number density = 21.173550 Si / 1000 Ang^3
#
#
#
# Elastic Constant Matrix: (Units=GPa)
#
#
# Indices 1 2 3 4 5 6 
#
# 1 99.7545 31.8050 26.4862 0.0000 1.7086 0.0000
# 2 31.8050 112.5839 44.4004 0.0000 16.0865 0.0000
# 3 26.4862 44.4004 45.0431 0.0000 7.6098 0.0000
# 4 0.0000 0.0000 0.0000 30.2486 0.0000 10.1389
# 5 1.7086 16.0865 7.6098 0.0000 25.2853 0.0000
# 6 0.0000 0.0000 0.0000 10.1389 0.0000 33.6504
#
#
#
# Elastic Compliance Matrix: (Units=1/GPa)
#
#
# Indices 1 2 3 4 5 6 
#
# 1 0.012022 -0.001223 -0.006172 0.000000 0.001823 0.000000
# 2 -0.001223 0.015334 -0.013446 0.000000 -0.005626 0.000000
# 3 -0.006172 -0.013446 0.039581 0.000000 -0.002941 0.000000
# 4 0.000000 0.000000 0.000000 0.036773 0.000000 -0.011080
# 5 0.001823 -0.005626 -0.002941 0.000000 0.043890 0.000000
# 6 0.000000 0.000000 0.000000 -0.011080 0.000000 0.033056
#
#
# Mechanical properties :
#
#
# Convention : Reuss Voigt Hill
#
# Bulk Modulus (GPa) = 39.59412 51.41829 45.50621
# Shear Modulus (GPa) = 21.66784 28.14954 24.90869
#
# Velocity S-wave (km/s) = 3.20245 3.65014 3.43360
# Velocity P-wave (km/s) = 5.69338 6.48858 6.10394
#
# Compressibility (1/GPa) = 0.02525628
#
# Stress axis : x y z
#
# Youngs Moduli (GPa) = 83.18134 65.21275 25.26441
#
# Poissons Ratio (x) = 0.07973 0.15593
# Poissons Ratio (y) = 0.10170 0.33971
# Poissons Ratio (z) = 0.51339 0.87686
#
# Static dielectric constant tensor:
#      x y z
#    x 4.242220 0.000000 0.020640 
#    y 0.000000 3.921780 0.000000 
#    z 0.020640 0.000000 3.566650 
# 
# 
# High freq. dielectric constant tensor:
#      x y z
#    x 1.842230 0.000000 0.015870 
#    y 0.000000 1.837620 0.000000 
#    z 0.015870 0.000000 1.803550 
# 
# From -- ./inp_files/69299.got.cif
#   From: 2010.06.25/outbox.cif.g09.slc.cpg/sg15_35_cif.got.tgz:69299.got - 2010.06.28 07:06:18.
