data_PCOD8144732
_publ_section_title
;
Structure prediction by ZEFSAII (Michael W. Deem and Ramdas Pophale) SiO2 
 PCOD8144732
Probable space group: C 2/C
;
_chemical_formula_sum "Si O2"
_cell_formula_units_Z 48
_cell_length_a 17.352418
_cell_length_b 14.326347
_cell_length_c 18.737669
_cell_angle_alpha 90.000000
_cell_angle_beta 28.381599
_cell_angle_gamma 90.000000
_cell_volume 2214.200400
_symmetry_space_group_name_H-M "C 2/C"
_symmetry_group_IT_number 15
_symmetry_cell_setting 'monoclinic'
loop_
_space_group_symop_operation_xyz
x,y,z
-x,y,1/2-z
-x,-y,-z
x,-y,1/2+z
1/2+x,1/2+y,z
1/2-x,1/2+y,1/2-z
1/2-x,1/2-y,-z
1/2+x,1/2-y,1/2+z
loop_
_atom_site_type_symbol
_atom_site_label
_atom_site_fract_x
_atom_site_fract_y
_atom_site_fract_z
Si Si1 0.062041 0.319775 0.622100
Si Si2 0.859400 0.976686 0.060595
Si Si3 0.731687 0.137310 0.442557
Si Si4 0.603651 0.615691 0.602365
Si Si5 0.452609 0.678745 0.391429
Si Si6 0.984143 0.488586 0.596987
O O1 0.250150 0.343210 0.470363
O O2 0.020738 0.211019 0.638761
O O3 0.982822 0.380801 0.623002
O O4 0.000000 0.352223 0.750000
O O5 0.903928 0.871550 0.003418
O O6 0.686296 0.969495 0.239232
O O7 0.858928 0.046133 0.992748
O O8 0.000000 0.000000 0.000000
O O9 0.588654 0.212487 0.569511
O O10 0.841261 0.128409 0.423002
O O11 0.639180 0.040050 0.505881
O O12 0.854723 0.165917 0.278743
O O13 0.500000 0.565307 0.750000
O O14 0.000000 0.500000 0.500000
#
# Coordination Sequence:
#
# PCOD8144732 Si02
#       6
#     8   8   8   8   8   8
#     4  10  21  44  67  97 122 167 220 265 323 384
#     4  12  26  42  62  95 133 173 215 268 328 390
#     4  10  22  41  67  94 125 165 213 263 317 382
#     4  10  23  40  71  95 126 165 217 272 321 386
#     4  10  22  41  66  95 124 165 214 263 318 382
#     4  12  26  42  63  93 134 175 214 266 330 388
#
# _framework density 21.678255
#
# number of rings (size 3 to 8) (size 9 to 14) (size 15 to 20)
#    0.000    1.333    1.667    3.000    7.000    2.667 
#    0.000    3.333    0.000    0.000    0.000    0.000 
#    0.000    0.000    0.000    0.000    0.000    0.000 
#
# Total GULP energy -297479.618301 kJ/mol
# GULP energy per Si atom -12394.984096 kJ/mol
# Density = 2.162891 g / cm^3
# Si number density = 21.678255 Si / 1000 Ang^3
#
#
#
# Elastic Constant Matrix: (Units=GPa)
#
#
# Indices 1 2 3 4 5 6 
#
# 1 54.9317 18.8315 19.5640 0.0004 10.9482 -0.0007
# 2 18.8315 73.0156 19.2339 -0.0105 9.6193 0.0199
# 3 19.5640 19.2339 153.8768 -0.0024 5.7732 0.0203
# 4 0.0004 -0.0105 -0.0024 33.8518 0.0041 -0.2756
# 5 10.9482 9.6193 5.7732 0.0041 42.0606 -0.0127
# 6 -0.0007 0.0199 0.0203 -0.2756 -0.0127 19.5811
#
#
#
# Elastic Compliance Matrix: (Units=1/GPa)
#
#
# Indices 1 2 3 4 5 6 
#
# 1 0.021272 -0.004400 -0.001995 -0.000001 -0.004257 0.000005
# 2 -0.004400 0.015462 -0.001290 0.000005 -0.002214 -0.000016
# 3 -0.001995 -0.001290 0.006919 0.000000 -0.000135 -0.000006
# 4 -0.000001 0.000005 0.000000 0.029544 -0.000004 0.000416
# 5 -0.004257 -0.002214 -0.000135 -0.000004 0.025408 0.000019
# 6 0.000005 -0.000016 -0.000006 0.000416 0.000019 0.051075
#
#
# Mechanical properties :
#
#
# Convention : Reuss Voigt Hill
#
# Bulk Modulus (GPa) = 35.35760 44.12032 39.73896
# Shear Modulus (GPa) = 28.65705 34.04503 31.35104
#
# Velocity S-wave (km/s) = 3.63977 3.96721 3.80702
# Velocity P-wave (km/s) = 5.83177 6.43285 6.13967
#
# Compressibility (1/GPa) = 0.02828246
#
# Stress axis : x y z
#
# Youngs Moduli (GPa) = 47.01094 64.67462 144.53630
#
# Poissons Ratio (x) = 0.28456 0.28832
# Poissons Ratio (y) = 0.20684 0.18648
# Poissons Ratio (z) = 0.09378 0.08344
#
# Static dielectric constant tensor:
#      x y z
#    x 3.709950 -0.000030 -0.085280 
#    y -0.000030 4.009010 0.000070 
#    z -0.085280 0.000070 4.329750 
# 
# 
# High freq. dielectric constant tensor:
#      x y z
#    x 1.825020 0.000000 -0.004770 
#    y 0.000000 1.858710 0.000000 
#    z -0.004770 0.000000 1.872440 
# 
# From -- ./inp_files/211321.got.cif
#   From: 2010.06.25/outbox.cif.g09.slc.cpg/sg15_106_cif.got.tgz:211321.got - 2010.06.28 07:06:18.
