data_PCOD8144420
_publ_section_title
;
Structure prediction by ZEFSAII (Michael W. Deem and Ramdas Pophale) SiO2 
 PCOD8144420
Probable space group: C 2/C
;
_chemical_formula_sum "Si O2"
_cell_formula_units_Z 44
_cell_length_a 8.258569
_cell_length_b 30.820841
_cell_length_c 9.341396
_cell_angle_alpha 90.000000
_cell_angle_beta 53.497984
_cell_angle_gamma 90.000000
_cell_volume 1911.298349
_symmetry_space_group_name_H-M "C 2/C"
_symmetry_group_IT_number 15
_symmetry_cell_setting 'monoclinic'
loop_
_space_group_symop_operation_xyz
x,y,z
-x,y,1/2-z
-x,-y,-z
x,-y,1/2+z
1/2+x,1/2+y,z
1/2-x,1/2+y,1/2-z
1/2-x,1/2-y,-z
1/2+x,1/2-y,1/2+z
loop_
_atom_site_type_symbol
_atom_site_label
_atom_site_fract_x
_atom_site_fract_y
_atom_site_fract_z
Si Si1 0.918594 0.962592 0.945653
Si Si2 0.529351 0.791156 0.403519
Si Si3 0.574865 0.115229 0.977495
Si Si4 0.311350 0.384285 0.630618
Si Si5 0.000000 0.439221 0.250000
Si Si6 0.717920 0.790384 0.711186
O O1 0.000000 0.975729 0.750000
O O2 0.992535 0.913505 0.944245
O O3 0.676497 0.966689 0.082398
O O4 0.000000 0.000000 0.000000
O O5 0.500000 0.788427 0.250000
O O6 0.628645 0.836027 0.401030
O O7 0.315665 0.787102 0.598619
O O8 0.670075 0.753160 0.394712
O O9 0.348196 0.108956 0.156383
O O10 0.726977 0.100376 0.021411
O O11 0.608795 0.087828 0.817153
O O12 0.357618 0.332436 0.602524
O O13 0.500000 0.797134 0.750000
#
# Coordination Sequence:
#
# PCOD8144420 Si02
#       6
#     8   8   8   8   4   8
#     4  12  30  51  77 112 143 182 232 297 365 433
#     4  11  22  38  58  97 143 182 243 288 341 403
#     4  10  21  42  71 101 142 196 236 291 348 426
#     4  10  22  46  70  96 146 188 237 293 363 422
#     4  12  26  48  78 108 146 182 242 286 358 436
#     4  11  22  39  63  95 138 193 237 288 350 408
#
# _framework density 23.021000000000001
#
# number of rings (size 3 to 8) (size 9 to 14) (size 15 to 20)
#    0.000    1.091    6.364    1.091    2.545    4.364 
#    0.000    0.000    0.000    0.000    0.000    0.000 
#    0.000    0.000    0.000    0.000    0.000    0.000 
#
# Total GULP energy -272714.168767 kJ/mol
# GULP energy per Si atom -12396.098580 kJ/mol
# Density = 2.296860 g / cm^3
# Si number density = 23.021000 Si / 1000 Ang^3
#
#
#
# Elastic Constant Matrix: (Units=GPa)
#
#
# Indices 1 2 3 4 5 6 
#
# 1 75.7133 41.4134 52.1572 0.0000 0.5526 0.0000
# 2 41.4134 117.0752 46.5859 0.0000 -7.6236 0.0000
# 3 52.1572 46.5859 134.4002 0.0000 9.7519 0.0000
# 4 0.0000 0.0000 0.0000 6.9796 0.0000 13.6509
# 5 0.5526 -7.6236 9.7519 0.0000 41.4827 0.0000
# 6 0.0000 0.0000 0.0000 13.6509 0.0000 32.1289
#
#
#
# Elastic Compliance Matrix: (Units=1/GPa)
#
#
# Indices 1 2 3 4 5 6 
#
# 1 0.019974 -0.004580 -0.006189 0.000000 0.000347 0.000000
# 2 -0.004580 0.011259 -0.002319 0.000000 0.002675 0.000000
# 3 -0.006189 -0.002319 0.010856 0.000000 -0.002896 0.000000
# 4 0.000000 0.000000 0.000000 0.847727 0.000000 -0.360182
# 5 0.000347 0.002675 -0.002896 0.000000 0.025274 0.000000
# 6 0.000000 0.000000 0.000000 -0.360182 0.000000 0.184159
#
#
# Mechanical properties :
#
#
# Convention : Reuss Voigt Hill
#
# Bulk Modulus (GPa) = 62.84468 67.50019 65.17243
# Shear Modulus (GPa) = 4.42192 28.58704 16.50448
#
# Velocity S-wave (km/s) = 1.38744 3.52771 2.68046
# Velocity P-wave (km/s) = 5.47035 6.78069 6.16046
#
# Compressibility (1/GPa) = 0.01591225
#
# Stress axis : x y z
#
# Youngs Moduli (GPa) = 50.06546 88.82006 92.11305
#
# Poissons Ratio (x) = 0.40681 0.57008
# Poissons Ratio (y) = 0.22931 0.21363
# Poissons Ratio (z) = 0.30985 0.20599
#
# Static dielectric constant tensor:
#      x y z
#    x 3.848480 0.000000 0.184170 
#    y 0.000000 4.121300 0.000000 
#    z 0.184170 0.000000 4.523940 
# 
# 
# High freq. dielectric constant tensor:
#      x y z
#    x 1.885990 0.000000 0.021530 
#    y 0.000000 1.906180 0.000000 
#    z 0.021530 0.000000 1.928820 
# 
# From -- ./inp_files/25988.got.cif
#   From: 2010.06.25/outbox.cif.g09.slc.cpg/sg15_13_cif.got.tgz:25988.got - 2010.06.28 07:06:18.
