data_PCOD8144395
_publ_section_title
;
Structure prediction by ZEFSAII (Michael W. Deem and Ramdas Pophale) SiO2 
 PCOD8144395
Probable space group: C 2/C
;
_chemical_formula_sum "Si O2"
_cell_formula_units_Z 40
_cell_length_a 8.182011
_cell_length_b 16.943759
_cell_length_c 13.442392
_cell_angle_alpha 90.000000
_cell_angle_beta 101.900034
_cell_angle_gamma 90.000000
_cell_volume 1823.522575
_symmetry_space_group_name_H-M "C 2/C"
_symmetry_group_IT_number 15
_symmetry_cell_setting 'monoclinic'
loop_
_space_group_symop_operation_xyz
x,y,z
-x,y,1/2-z
-x,-y,-z
x,-y,1/2+z
1/2+x,1/2+y,z
1/2-x,1/2+y,1/2-z
1/2-x,1/2-y,-z
1/2+x,1/2-y,1/2+z
loop_
_atom_site_type_symbol
_atom_site_label
_atom_site_fract_x
_atom_site_fract_y
_atom_site_fract_z
Si Si1 0.735515 0.901805 0.224381
Si Si2 0.500000 0.465970 0.750000
Si Si3 0.914274 0.376235 0.085711
Si Si4 0.500000 0.276837 0.250000
Si Si5 0.578622 0.579972 0.469253
Si Si6 0.551450 0.742433 0.968251
O O1 0.588622 0.922571 0.126698
O O2 0.668154 0.863506 0.317287
O O3 0.847662 0.832144 0.194550
O O4 0.839086 0.981035 0.255992
O O5 0.465730 0.409668 0.652207
O O6 0.780658 0.424855 0.003504
O O7 0.956046 0.293021 0.039444
O O8 0.519276 0.227370 0.149688
O O9 0.500000 0.500000 0.500000
O O10 0.503593 0.651889 0.522864
O O11 0.750000 0.750000 0.000000
#
# Coordination Sequence:
#
# PCOD8144395 Si02
#       6
#     8   4   8   4   8   8
#     4  10  21  42  70 101 134 190 226 281 367 422
#     4  11  24  44  70 104 140 183 234 292 347 422
#     4  11  23  42  75 100 135 186 238 281 354 417
#     4  11  20  42  68  92 148 177 228 276 361 398
#     4  12  25  45  71 100 142 184 232 291 351 416
#     4  12  26  44  69 106 138 183 236 292 343 416
#
# _framework density 21.935568
#
# number of rings (size 3 to 8) (size 9 to 14) (size 15 to 20)
#    0.000    0.800    6.000    1.800    0.000    4.000 
#    0.000    0.000    0.000    0.000    0.000    0.000 
#    0.000    0.000    0.000    0.000    0.000    0.000 
#
# Total GULP energy -247866.945314 kJ/mol
# GULP energy per Si atom -12393.347266 kJ/mol
# Density = 2.188564 g / cm^3
# Si number density = 21.935568 Si / 1000 Ang^3
#
#
#
# Elastic Constant Matrix: (Units=GPa)
#
#
# Indices 1 2 3 4 5 6 
#
# 1 133.7023 42.0662 56.8161 0.0000 29.0786 0.0000
# 2 42.0662 76.1755 37.5286 0.0000 2.3470 0.0000
# 3 56.8161 37.5286 178.0005 0.0000 14.2118 0.0000
# 4 0.0000 0.0000 0.0000 29.5945 0.0000 -1.2947
# 5 29.0786 2.3470 14.2118 0.0000 52.4010 0.0000
# 6 0.0000 0.0000 0.0000 -1.2947 0.0000 30.7734
#
#
#
# Elastic Compliance Matrix: (Units=1/GPa)
#
#
# Indices 1 2 3 4 5 6 
#
# 1 0.011077 -0.004933 -0.002067 0.000000 -0.005365 0.000000
# 2 -0.004933 0.016848 -0.002183 0.000000 0.002575 0.000000
# 3 -0.002067 -0.002183 0.006786 0.000000 -0.000595 0.000000
# 4 0.000000 0.000000 0.000000 0.033852 0.000000 0.001424
# 5 -0.005365 0.002575 -0.000595 0.000000 0.022107 0.000000
# 6 0.000000 0.000000 0.000000 0.001424 0.000000 0.032555
#
#
# Mechanical properties :
#
#
# Convention : Reuss Voigt Hill
#
# Bulk Modulus (GPa) = 61.18653 73.41112 67.29882
# Shear Modulus (GPa) = 34.00442 39.31828 36.66135
#
# Velocity S-wave (km/s) = 3.94152 4.23832 4.09261
# Velocity P-wave (km/s) = 6.97628 7.58225 7.28557
#
# Compressibility (1/GPa) = 0.01634347
#
# Stress axis : x y z
#
# Youngs Moduli (GPa) = 90.27992 59.35424 147.37123
#
# Poissons Ratio (x) = 0.29280 0.30464
# Poissons Ratio (y) = 0.44536 0.32173
# Poissons Ratio (z) = 0.18662 0.12958
#
# Static dielectric constant tensor:
#      x y z
#    x 4.422910 0.000000 0.222930 
#    y 0.000000 3.426560 0.000000 
#    z 0.222930 0.000000 4.409530 
# 
# 
# High freq. dielectric constant tensor:
#      x y z
#    x 1.882010 0.000000 0.007030 
#    y 0.000000 1.816040 0.000000 
#    z 0.007030 0.000000 1.889900 
# 
# From -- ./inp_files/133312.got.cif
#   From: 2010.06.25/outbox.cif.g09.slc.cpg/sg15_67_cif.got.tgz:133312.got - 2010.06.28 07:06:18.
