data_PCOD8144211
_publ_section_title
;
Structure prediction by ZEFSAII (Michael W. Deem and Ramdas Pophale) SiO2 
 PCOD8144211
Probable space group: C 2/C
;
_chemical_formula_sum "Si O2"
_cell_formula_units_Z 44
_cell_length_a 10.462270
_cell_length_b 8.995535
_cell_length_c 22.808732
_cell_angle_alpha 90.000000
_cell_angle_beta 72.554257
_cell_angle_gamma 90.000000
_cell_volume 2047.873005
_symmetry_space_group_name_H-M "C 2/C"
_symmetry_group_IT_number 15
_symmetry_cell_setting 'monoclinic'
loop_
_space_group_symop_operation_xyz
x,y,z
-x,y,1/2-z
-x,-y,-z
x,-y,1/2+z
1/2+x,1/2+y,z
1/2-x,1/2+y,1/2-z
1/2-x,1/2-y,-z
1/2+x,1/2-y,1/2+z
loop_
_atom_site_type_symbol
_atom_site_label
_atom_site_fract_x
_atom_site_fract_y
_atom_site_fract_z
Si Si1 0.421785 0.046728 0.340577
Si Si2 0.862164 0.215995 0.328726
Si Si3 0.500000 0.476903 0.250000
Si Si4 0.167546 0.333230 0.961039
Si Si5 0.372938 0.141109 0.478121
Si Si6 0.328022 0.205575 0.247139
O O1 0.377368 0.077553 0.412328
O O2 0.311773 0.116553 0.310890
O O3 0.563292 0.121238 0.307814
O O4 0.437060 0.869811 0.330980
O O5 0.741179 0.192866 0.389903
O O6 0.809832 0.214018 0.268636
O O7 0.965625 0.077744 0.312660
O O8 0.372744 0.375049 0.252174
O O9 0.012856 0.276830 0.976827
O O10 0.250000 0.250000 0.000000
O O11 0.159234 0.508624 0.972785
O O12 0.250000 0.250000 0.500000
#
# Coordination Sequence:
#
# PCOD8144211 Si02
#       6
#     8   8   4   8   8   8
#     4  10  21  42  65  92 130 170 213 273 331 384
#     4  12  22  42  65  93 134 166 219 270 333 388
#     4  10  24  38  64  98 118 172 216 256 326 394
#     4  11  25  45  67  98 134 174 223 280 323 399
#     4  11  25  46  68  97 131 181 224 272 336 390
#     4  10  23  42  62  92 131 167 219 270 327 391
#
# _framework density 21.485709
#
# number of rings (size 3 to 8) (size 9 to 14) (size 15 to 20)
#    0.000    1.455    3.636    2.182    5.091    0.727 
#    6.545    0.000    0.000    0.000    0.000    0.000 
#    0.000    0.000    0.000    0.000    0.000    0.000 
#
# Total GULP energy -272747.818368 kJ/mol
# GULP energy per Si atom -12397.628108 kJ/mol
# Density = 2.143681 g / cm^3
# Si number density = 21.485709 Si / 1000 Ang^3
#
#
#
# Elastic Constant Matrix: (Units=GPa)
#
#
# Indices 1 2 3 4 5 6 
#
# 1 76.2976 29.9135 32.6904 0.0000 -3.9503 0.0000
# 2 29.9135 137.9450 43.2030 0.0000 -16.1816 0.0000
# 3 32.6904 43.2030 76.0724 0.0000 4.0877 0.0000
# 4 0.0000 0.0000 0.0000 37.5991 0.0000 -0.0661
# 5 -3.9503 -16.1816 4.0877 0.0000 34.7798 0.0000
# 6 0.0000 0.0000 0.0000 -0.0661 0.0000 24.4497
#
#
#
# Elastic Compliance Matrix: (Units=1/GPa)
#
#
# Indices 1 2 3 4 5 6 
#
# 1 0.016490 -0.001321 -0.006444 0.000000 0.002016 0.000000
# 2 -0.001321 0.009767 -0.005249 0.000000 0.005011 0.000000
# 3 -0.006444 -0.005249 0.019187 0.000000 -0.005429 0.000000
# 4 0.000000 0.000000 0.000000 0.026596 0.000000 0.000072
# 5 0.002016 0.005011 -0.005429 0.000000 0.031951 0.000000
# 6 0.000000 0.000000 0.000000 0.000072 0.000000 0.040900
#
#
# Mechanical properties :
#
#
# Convention : Reuss Voigt Hill
#
# Bulk Modulus (GPa) = 51.50244 55.76986 53.63615
# Shear Modulus (GPa) = 28.18607 31.66627 29.92617
#
# Velocity S-wave (km/s) = 3.62588 3.84321 3.73613
# Velocity P-wave (km/s) = 6.44608 6.76068 6.60525
#
# Compressibility (1/GPa) = 0.01941656
#
# Stress axis : x y z
#
# Youngs Moduli (GPa) = 60.64277 102.38125 52.11816
#
# Poissons Ratio (x) = 0.13526 0.33586
# Poissons Ratio (y) = 0.08012 0.27355
# Poissons Ratio (z) = 0.39080 0.53736
#
# Static dielectric constant tensor:
#      x y z
#    x 3.887120 0.000000 0.099040 
#    y 0.000000 3.644110 0.000000 
#    z 0.099040 0.000000 3.493570 
# 
# 
# High freq. dielectric constant tensor:
#      x y z
#    x 1.841410 0.000000 0.000930 
#    y 0.000000 1.851660 0.000000 
#    z 0.000930 0.000000 1.845460 
# 
# From -- ./inp_files/267572.got.cif
#   From: 2010.06.25/outbox.cif.g09.slc.cpg/sg15_134_cif.got.tgz:267572.got - 2010.06.28 07:06:18.
