data_PCOD8144092
_publ_section_title
;
Structure prediction by ZEFSAII (Michael W. Deem and Ramdas Pophale) SiO2 
 PCOD8144092
Probable space group: C 2/C
;
_chemical_formula_sum "Si O2"
_cell_formula_units_Z 64
_cell_length_a 16.764920
_cell_length_b 22.407978
_cell_length_c 8.591801
_cell_angle_alpha 90.000000
_cell_angle_beta 97.583499
_cell_angle_gamma 90.000000
_cell_volume 3199.433861
_symmetry_space_group_name_H-M "C 2/C"
_symmetry_group_IT_number 15
_symmetry_cell_setting 'monoclinic'
loop_
_space_group_symop_operation_xyz
x,y,z
-x,y,1/2-z
-x,-y,-z
x,-y,1/2+z
1/2+x,1/2+y,z
1/2-x,1/2+y,1/2-z
1/2-x,1/2-y,-z
1/2+x,1/2-y,1/2+z
loop_
_atom_site_type_symbol
_atom_site_label
_atom_site_fract_x
_atom_site_fract_y
_atom_site_fract_z
Si Si1 0.263039 0.375794 0.745160
Si Si2 0.172427 0.284685 0.921790
Si Si3 0.590889 0.183360 0.716960
Si Si4 0.867322 0.178548 0.805560
Si Si5 0.910239 0.941757 0.219269
Si Si6 0.717969 0.888290 0.397852
Si Si7 0.306070 0.505515 0.416698
Si Si8 0.589959 0.307025 0.834938
O O1 0.207494 0.345476 0.860021
O O2 0.216657 0.363724 0.572497
O O3 0.273651 0.444980 0.789837
O O4 0.353861 0.351482 0.749168
O O5 0.130685 0.242143 0.781809
O O6 0.250000 0.250000 0.000000
O O7 0.106997 0.304038 0.036551
O O8 0.500000 0.175651 0.750000
O O9 0.633783 0.123398 0.789524
O O10 0.625779 0.241221 0.814389
O O11 0.913945 0.130274 0.710057
O O12 0.778783 0.151033 0.808523
O O13 0.912110 0.182427 0.981821
O O14 0.000000 0.968577 0.250000
O O15 0.877021 0.963281 0.375092
O O16 0.845464 0.965496 0.078515
O O17 0.732475 0.959289 0.420043
O O18 0.500000 0.315019 0.750000
#
# Coordination Sequence:
#
# PCOD8144092 Si02
#       8
#     8   8   8   8   8   8   8   8
#     4  11  22  37  65  90 123 172 216 260 307 380
#     4  12  21  38  67  95 123 163 215 261 308 388
#     4  11  24  41  65  95 130 163 202 267 334 376
#     4  10  22  38  61  95 125 175 214 254 307 377
#     4  11  24  38  58  89 132 168 210 260 310 374
#     4  10  21  42  60  87 126 167 218 266 312 370
#     4  11  23  40  60  91 119 171 220 257 315 369
#     4  10  22  38  59  94 140 171 201 254 324 377
#
# _framework density 20.003540000000001
#
# number of rings (size 3 to 8) (size 9 to 14) (size 15 to 20)
#    0.000    1.250    3.750    1.875    3.500    3.500 
#    0.000    3.125    0.000    3.000    0.000    0.000 
#    0.000    0.000    0.000    0.000    0.000    0.000 
#
# Total GULP energy -396526.160767 kJ/mol
# GULP energy per Si atom -12391.442524 kJ/mol
# Density = 1.995801 g / cm^3
# Si number density = 20.003540 Si / 1000 Ang^3
#
#
#
# Elastic Constant Matrix: (Units=GPa)
#
#
# Indices 1 2 3 4 5 6 
#
# 1 93.0139 45.5883 59.0072 0.0000 -7.7436 0.0000
# 2 45.5883 106.7779 42.6256 0.0000 4.6295 0.0000
# 3 59.0072 42.6256 95.0438 0.0000 -2.4923 0.0000
# 4 0.0000 0.0000 0.0000 32.3043 0.0000 0.6885
# 5 -7.7436 4.6295 -2.4923 0.0000 29.0209 0.0000
# 6 0.0000 0.0000 0.0000 0.6885 0.0000 21.0323
#
#
#
# Elastic Compliance Matrix: (Units=1/GPa)
#
#
# Indices 1 2 3 4 5 6 
#
# 1 0.019894 -0.004680 -0.010116 0.000000 0.005186 0.000000
# 2 -0.004680 0.012659 -0.002864 0.000000 -0.003514 0.000000
# 3 -0.010116 -0.002864 0.018068 0.000000 -0.000691 0.000000
# 4 0.000000 0.000000 0.000000 0.030977 0.000000 -0.001014
# 5 0.005186 -0.003514 -0.000691 0.000000 0.036343 0.000000
# 6 0.000000 0.000000 0.000000 -0.001014 0.000000 0.047579
#
#
# Mechanical properties :
#
#
# Convention : Reuss Voigt Hill
#
# Bulk Modulus (GPa) = 65.35486 65.47530 65.41508
# Shear Modulus (GPa) = 24.27865 26.31248 25.29556
#
# Velocity S-wave (km/s) = 3.48762 3.63077 3.55992
# Velocity P-wave (km/s) = 6.99719 7.09785 7.04770
#
# Compressibility (1/GPa) = 0.01530108
#
# Stress axis : x y z
#
# Youngs Moduli (GPa) = 50.26534 78.99490 55.34541
#
# Poissons Ratio (x) = 0.36972 0.55989
# Poissons Ratio (y) = 0.23526 0.15850
# Poissons Ratio (z) = 0.50850 0.22623
#
# Static dielectric constant tensor:
#      x y z
#    x 3.438920 0.000000 -0.135760 
#    y 0.000000 3.799680 0.000000 
#    z -0.135760 0.000000 3.778590 
# 
# 
# High freq. dielectric constant tensor:
#      x y z
#    x 1.755650 0.000000 -0.006720 
#    y 0.000000 1.780700 0.000000 
#    z -0.006720 0.000000 1.792430 
# 
# From -- ./inp_files/50260.got.cif
#   From: 2010.06.25/outbox.cif.g09.slc.cpg/sg15_26_cif.got.tgz:50260.got - 2010.06.28 07:06:18.
