data_PCOD8144904
_publ_section_title
;
Structure prediction by ZEFSAII (Michael W. Deem and Ramdas Pophale) SiO2 
 PCOD8144904
Probable space group: C 2/C
;
_chemical_formula_sum "Si O2"
_cell_formula_units_Z 56
_cell_length_a 12.278619
_cell_length_b 19.068753
_cell_length_c 14.564782
_cell_angle_alpha 90.000000
_cell_angle_beta 121.046246
_cell_angle_gamma 90.000000
_cell_volume 2921.666112
_symmetry_space_group_name_H-M "C 2/C"
_symmetry_group_IT_number 15
_symmetry_cell_setting 'monoclinic'
loop_
_space_group_symop_operation_xyz
x,y,z
-x,y,1/2-z
-x,-y,-z
x,-y,1/2+z
1/2+x,1/2+y,z
1/2-x,1/2+y,1/2-z
1/2-x,1/2-y,-z
1/2+x,1/2-y,1/2+z
loop_
_atom_site_type_symbol
_atom_site_label
_atom_site_fract_x
_atom_site_fract_y
_atom_site_fract_z
Si Si1 0.217039 0.957185 0.933517
Si Si2 0.104891 0.794141 0.521968
Si Si3 0.603158 0.182813 0.370401
Si Si4 0.813780 0.030088 0.281989
Si Si5 0.515221 0.347112 0.857237
Si Si6 0.013638 0.920700 0.358469
Si Si7 0.119012 0.473274 0.855379
O O1 0.262319 0.964888 0.847501
O O2 0.156917 0.880373 0.929469
O O3 0.118200 0.019050 0.910391
O O4 0.338086 0.969297 0.051651
O O5 0.255617 0.800213 0.606291
O O6 0.076388 0.723696 0.453317
O O7 0.024174 0.790889 0.581894
O O8 0.052745 0.860307 0.443939
O O9 0.500000 0.206581 0.250000
O O10 0.584249 0.100962 0.387387
O O11 0.725417 0.046925 0.328059
O O12 0.923105 0.087034 0.323885
O O13 0.877377 0.953850 0.326598
O O14 0.500000 0.311375 0.750000
O O15 0.000000 0.889702 0.250000
O O16 0.000000 0.506638 0.750000
#
# Coordination Sequence:
#
# PCOD8144904 Si02
#       7
#     8   8   8   8   8   8   8
#     4   9  17  30  48  75 105 129 169 207 263 302
#     4  11  18  32  54  72 102 136 172 221 259 296
#     4  10  22  33  47  75 103 137 173 213 254 306
#     4   9  17  30  48  76 106 130 164 216 256 311
#     4   9  17  30  53  80  99 126 168 221 266 303
#     4   9  16  27  49  77 103 127 165 216 260 303
#     4  11  20  32  47  70 107 146 174 196 252 320
#
# _framework density 19.167145000000001
#
# number of rings (size 3 to 8) (size 9 to 14) (size 15 to 20)
#    0.000    2.286    2.857    3.000    0.000    2.857 
#    0.000    0.000    0.000    0.857    0.000    1.000 
#    0.000    0.000    0.000    0.000    0.000    0.000 
#
# Total GULP energy -347077.258703 kJ/mol
# GULP energy per Si atom -12395.616382 kJ/mol
# Density = 1.912352 g / cm^3
# Si number density = 19.167145 Si / 1000 Ang^3
#
#
#
# Elastic Constant Matrix: (Units=GPa)
#
#
# Indices 1 2 3 4 5 6 
#
# 1 40.8505 32.8572 43.8630 0.0000 -12.9735 0.0000
# 2 32.8572 50.7239 41.9668 0.0000 -7.7810 0.0000
# 3 43.8630 41.9668 143.9480 0.0000 3.0905 0.0000
# 4 0.0000 0.0000 0.0000 4.9781 0.0000 -4.8346
# 5 -12.9735 -7.7810 3.0905 0.0000 34.2300 0.0000
# 6 0.0000 0.0000 0.0000 -4.8346 0.0000 19.9091
#
#
#
# Elastic Compliance Matrix: (Units=1/GPa)
#
#
# Indices 1 2 3 4 5 6 
#
# 1 0.070012 -0.031903 -0.012471 0.000000 0.020409 0.000000
# 2 -0.031903 0.042099 -0.002503 0.000000 -0.002296 0.000000
# 3 -0.012471 -0.002503 0.011613 0.000000 -0.006344 0.000000
# 4 0.000000 0.000000 0.000000 0.262876 0.000000 0.063835
# 5 0.020409 -0.002296 -0.006344 0.000000 0.037000 0.000000
# 6 0.000000 0.000000 0.000000 0.063835 0.000000 0.065730
#
#
# Mechanical properties :
#
#
# Convention : Reuss Voigt Hill
#
# Bulk Modulus (GPa) = 33.36623 52.54403 42.95513
# Shear Modulus (GPa) = 8.43067 19.61247 14.02157
#
# Velocity S-wave (km/s) = 2.09954 3.20227 2.70764
# Velocity P-wave (km/s) = 4.82941 6.41450 5.67755
#
# Compressibility (1/GPa) = 0.02997042
#
# Stress axis : x y z
#
# Youngs Moduli (GPa) = 14.28329 23.75363 86.11098
#
# Poissons Ratio (x) = 0.75781 1.07387
# Poissons Ratio (y) = 0.45568 0.21554
# Poissons Ratio (z) = 0.17812 0.05946
#
# Static dielectric constant tensor:
#      x y z
#    x 2.430290 0.000000 -0.300350 
#    y 0.000000 3.299060 0.000000 
#    z -0.300350 0.000000 3.971030 
# 
# 
# High freq. dielectric constant tensor:
#      x y z
#    x 1.724410 0.000000 -0.005500 
#    y 0.000000 1.705660 0.000000 
#    z -0.005500 0.000000 1.758250 
# 
# From -- ./inp_files/145991.got.cif
#   From: 2010.06.25/outbox.cif.g09.slc.cpg/sg15_73_cif.got.tgz:145991.got - 2010.06.28 07:06:18.
