data_PCOD8144702
_publ_section_title
;
Structure prediction by ZEFSAII (Michael W. Deem and Ramdas Pophale) SiO2 
 PCOD8144702
Probable space group: C 2/C
;
_chemical_formula_sum "Si O2"
_cell_formula_units_Z 52
_cell_length_a 22.455107
_cell_length_b 27.462811
_cell_length_c 7.466059
_cell_angle_alpha 90.000000
_cell_angle_beta 33.206191
_cell_angle_gamma 90.000000
_cell_volume 2521.491506
_symmetry_space_group_name_H-M "C 2/C"
_symmetry_group_IT_number 15
_symmetry_cell_setting 'monoclinic'
loop_
_space_group_symop_operation_xyz
x,y,z
-x,y,1/2-z
-x,-y,-z
x,-y,1/2+z
1/2+x,1/2+y,z
1/2-x,1/2+y,1/2-z
1/2-x,1/2-y,-z
1/2+x,1/2-y,1/2+z
loop_
_atom_site_type_symbol
_atom_site_label
_atom_site_fract_x
_atom_site_fract_y
_atom_site_fract_z
Si Si1 0.740576 0.802836 0.608858
Si Si2 0.931822 0.137544 0.752180
Si Si3 0.000000 0.087196 0.250000
Si Si4 0.390243 0.853985 0.264930
Si Si5 0.230007 0.938110 0.702587
Si Si6 0.783409 0.954121 0.166639
Si Si7 0.638327 0.134866 0.071074
O O1 0.750000 0.750000 0.500000
O O2 0.856864 0.816257 0.398236
O O3 0.720599 0.836319 0.488108
O O4 0.651287 0.811352 0.993978
O O5 0.009545 0.123904 0.393056
O O6 0.000000 0.154650 0.750000
O O7 0.864816 0.088209 0.951364
O O8 0.890354 0.054463 0.521202
O O9 0.338446 0.905743 0.449106
O O10 0.357351 0.842837 0.141058
O O11 0.519116 0.860304 0.956433
O O12 0.184761 0.943038 0.616548
O O13 0.256341 0.990459 0.719545
O O14 0.679565 0.920822 0.478303
#
# Coordination Sequence:
#
# PCOD8144702 Si02
#       7
#     8   8   4   8   8   8   8
#     4  11  24  44  68  98 124 164 218 271 332 392
#     4  11  23  42  63  91 130 166 213 265 325 387
#     4  12  22  38  62  88 130 178 208 270 316 384
#     4   9  22  43  68  90 131 170 217 270 326 383
#     4  10  22  37  59  95 128 175 217 264 315 384
#     4  11  22  35  60  94 133 172 223 259 318 382
#     4  10  21  44  65  94 130 174 212 271 325 380
#
# _framework density 20.622714999999999
#
# number of rings (size 3 to 8) (size 9 to 14) (size 15 to 20)
#    0.000    1.538    3.077    1.385    3.231    2.462 
#    5.538    0.000    0.000    0.000    0.000    0.000 
#    0.000    0.000    0.000    0.000    0.000    0.000 
#
# Total GULP energy -322336.399105 kJ/mol
# GULP energy per Si atom -12397.553812 kJ/mol
# Density = 2.057578 g / cm^3
# Si number density = 20.622715 Si / 1000 Ang^3
#
#
#
# Elastic Constant Matrix: (Units=GPa)
#
#
# Indices 1 2 3 4 5 6 
#
# 1 112.6654 62.5333 40.2774 0.0000 1.4933 0.0000
# 2 62.5333 132.0512 57.7728 0.0000 5.0493 0.0000
# 3 40.2774 57.7728 105.1246 0.0000 6.3098 0.0000
# 4 0.0000 0.0000 0.0000 21.6163 0.0000 12.0516
# 5 1.4933 5.0493 6.3098 0.0000 30.6725 0.0000
# 6 0.0000 0.0000 0.0000 12.0516 0.0000 24.4159
#
#
#
# Elastic Compliance Matrix: (Units=1/GPa)
#
#
# Indices 1 2 3 4 5 6 
#
# 1 0.012364 -0.004990 -0.002033 0.000000 0.000638 0.000000
# 2 -0.004990 0.011992 -0.004632 0.000000 -0.000778 0.000000
# 3 -0.002033 -0.004632 0.012945 0.000000 -0.001802 0.000000
# 4 0.000000 0.000000 0.000000 0.063826 0.000000 -0.031504
# 5 0.000638 -0.000778 -0.001802 0.000000 0.033070 0.000000
# 6 0.000000 0.000000 0.000000 -0.031504 0.000000 0.056507
#
#
# Mechanical properties :
#
#
# Convention : Reuss Voigt Hill
#
# Bulk Modulus (GPa) = 71.47288 74.55646 73.01467
# Shear Modulus (GPa) = 22.86475 27.95811 25.41143
#
# Velocity S-wave (km/s) = 3.33335 3.68597 3.51409
# Velocity P-wave (km/s) = 7.03900 7.37199 7.20742
#
# Compressibility (1/GPa) = 0.01399132
#
# Stress axis : x y z
#
# Youngs Moduli (GPa) = 80.88191 83.38917 77.24913
#
# Poissons Ratio (x) = 0.41609 0.15706
# Poissons Ratio (y) = 0.40358 0.35781
# Poissons Ratio (z) = 0.16444 0.38625
#
# Static dielectric constant tensor:
#      x y z
#    x 4.011940 0.000000 0.151530 
#    y 0.000000 3.564220 0.000000 
#    z 0.151530 0.000000 3.896750 
# 
# 
# High freq. dielectric constant tensor:
#      x y z
#    x 1.826590 0.000000 0.012550 
#    y 0.000000 1.780520 0.000000 
#    z 0.012550 0.000000 1.809820 
# 
# From -- ./inp_files/67694.got.cif
#   From: 2010.06.25/outbox.cif.g09.slc.cpg/sg15_34_cif.got.tgz:67694.got - 2010.06.28 07:06:18.
