data_PCOD8144838
_publ_section_title
;
Structure prediction by ZEFSAII (Michael W. Deem and Ramdas Pophale) SiO2 
 PCOD8144838
Probable space group: C 2/C
;
_chemical_formula_sum "Si O2"
_cell_formula_units_Z 44
_cell_length_a 17.503728
_cell_length_b 9.540769
_cell_length_c 13.718622
_cell_angle_alpha 90.000000
_cell_angle_beta 66.203122
_cell_angle_gamma 90.000000
_cell_volume 2096.219775
_symmetry_space_group_name_H-M "C 2/C"
_symmetry_group_IT_number 15
_symmetry_cell_setting 'monoclinic'
loop_
_space_group_symop_operation_xyz
x,y,z
-x,y,1/2-z
-x,-y,-z
x,-y,1/2+z
1/2+x,1/2+y,z
1/2-x,1/2+y,1/2-z
1/2-x,1/2-y,-z
1/2+x,1/2-y,1/2+z
loop_
_atom_site_type_symbol
_atom_site_label
_atom_site_fract_x
_atom_site_fract_y
_atom_site_fract_z
Si Si1 0.061626 0.895593 0.915141
Si Si2 0.866951 0.574692 0.910947
Si Si3 0.979729 0.631431 0.443422
Si Si4 0.000000 0.775810 0.750000
Si Si5 0.736312 0.453213 0.319106
Si Si6 0.661622 0.159898 0.355359
O O1 0.029209 0.875581 0.822261
O O2 0.153366 0.957160 0.869311
O O3 0.065370 0.749219 0.969971
O O4 0.000000 0.000000 0.000000
O O5 0.916174 0.425963 0.894337
O O6 0.921667 0.681275 0.819736
O O7 0.780573 0.543519 0.901297
O O8 0.846198 0.647421 0.024290
O O9 0.000000 0.500000 0.500000
O O10 0.069260 0.683102 0.355460
O O11 0.717092 0.293750 0.297920
O O12 0.797136 0.518504 0.206592
#
# Coordination Sequence:
#
# PCOD8144838 Si02
#       6
#     8   8   8   4   8   8
#     4  12  25  47  71 105 141 184 235 296 341 420
#     4  11  24  43  75 102 136 185 239 286 350 422
#     4  10  21  45  71  95 140 177 231 292 337 409
#     4  12  22  46  80  96 132 208 228 264 378 424
#     4  12  26  42  70 101 142 180 231 288 358 402
#     4  11  24  45  68 102 141 180 236 290 339 427
#
# _framework density 20.990164
#
# number of rings (size 3 to 8) (size 9 to 14) (size 15 to 20)
#    0.000    0.727    5.455    2.727    7.636    2.182 
#    3.273    0.000    0.000    0.000    0.000    0.000 
#    0.000    0.000    0.000    0.000    0.000    0.000 
#
# Total GULP energy -272863.463769 kJ/mol
# GULP energy per Si atom -12402.884717 kJ/mol
# Density = 2.094239 g / cm^3
# Si number density = 20.990164 Si / 1000 Ang^3
#
#
#
# Elastic Constant Matrix: (Units=GPa)
#
#
# Indices 1 2 3 4 5 6 
#
# 1 143.0072 49.9679 29.2731 0.0000 0.7824 0.0000
# 2 49.9679 120.4138 49.3097 0.0000 11.6893 0.0000
# 3 29.2731 49.3097 102.5992 0.0000 -7.2965 0.0000
# 4 0.0000 0.0000 0.0000 50.8450 0.0000 -8.5207
# 5 0.7824 11.6893 -7.2965 0.0000 23.7757 0.0000
# 6 0.0000 0.0000 0.0000 -8.5207 0.0000 36.9509
#
#
#
# Elastic Compliance Matrix: (Units=1/GPa)
#
#
# Indices 1 2 3 4 5 6 
#
# 1 0.008267 -0.003241 -0.000723 0.000000 0.001100 0.000000
# 2 -0.003241 0.012793 -0.005790 0.000000 -0.007960 0.000000
# 3 -0.000723 -0.005790 0.013228 0.000000 0.006930 0.000000
# 4 0.000000 0.000000 0.000000 0.020458 0.000000 0.004718
# 5 0.001100 -0.007960 0.006930 0.000000 0.048064 0.000000
# 6 0.000000 0.000000 0.000000 0.004718 0.000000 0.028151
#
#
# Mechanical properties :
#
#
# Convention : Reuss Voigt Hill
#
# Bulk Modulus (GPa) = 67.65447 69.23576 68.44511
# Shear Modulus (GPa) = 32.17571 38.14563 35.16067
#
# Velocity S-wave (km/s) = 3.91947 4.26762 4.09724
# Velocity P-wave (km/s) = 7.26529 7.57231 7.42039
#
# Compressibility (1/GPa) = 0.01478099
#
# Stress axis : x y z
#
# Youngs Moduli (GPa) = 120.96062 78.16471 75.59529
#
# Poissons Ratio (x) = 0.25337 0.05463
# Poissons Ratio (y) = 0.39209 0.43769
# Poissons Ratio (z) = 0.08742 0.45256
#
# Static dielectric constant tensor:
#      x y z
#    x 4.419220 0.000000 -0.312580 
#    y 0.000000 4.282870 0.000000 
#    z -0.312580 0.000000 3.476640 
# 
# 
# High freq. dielectric constant tensor:
#      x y z
#    x 1.835120 0.000000 -0.014510 
#    y 0.000000 1.829050 0.000000 
#    z -0.014510 0.000000 1.819340 
# 
# From -- ./inp_files/159663.got.cif
#   From: 2010.06.25/outbox.cif.g09.slc.cpg/sg15_80_cif.got.tgz:159663.got - 2010.06.28 07:06:18.
