data_PCOD8144996
_publ_section_title
;
Structure prediction by ZEFSAII (Michael W. Deem and Ramdas Pophale) SiO2 
 PCOD8144996
Probable space group: C 2/C
;
_chemical_formula_sum "Si O2"
_cell_formula_units_Z 52
_cell_length_a 9.024425
_cell_length_b 11.250544
_cell_length_c 25.297361
_cell_angle_alpha 90.000000
_cell_angle_beta 101.668264
_cell_angle_gamma 90.000000
_cell_volume 2515.356519
_symmetry_space_group_name_H-M "C 2/C"
_symmetry_group_IT_number 15
_symmetry_cell_setting 'monoclinic'
loop_
_space_group_symop_operation_xyz
x,y,z
-x,y,1/2-z
-x,-y,-z
x,-y,1/2+z
1/2+x,1/2+y,z
1/2-x,1/2+y,1/2-z
1/2-x,1/2-y,-z
1/2+x,1/2-y,1/2+z
loop_
_atom_site_type_symbol
_atom_site_label
_atom_site_fract_x
_atom_site_fract_y
_atom_site_fract_z
Si Si1 0.000000 0.642132 0.250000
Si Si2 0.712836 0.694593 0.053952
Si Si3 0.579913 0.782544 0.497864
Si Si4 0.158536 0.772688 0.115367
Si Si5 0.326677 0.036136 0.328449
Si Si6 0.122104 0.822956 0.341771
Si Si7 0.888700 0.542822 0.583635
O O1 0.118060 0.557592 0.227521
O O2 0.102292 0.722468 0.295939
O O3 0.529400 0.688087 0.039652
O O4 0.761775 0.778674 0.105533
O O5 0.775321 0.563938 0.065078
O O6 0.750000 0.750000 0.000000
O O7 0.750000 0.750000 0.500000
O O8 0.556024 0.782444 0.559655
O O9 0.551205 0.911260 0.469024
O O10 0.230284 0.661374 0.151778
O O11 0.295051 0.854516 0.106775
O O12 0.042506 0.846823 0.143928
O O13 0.188634 0.942734 0.320258
O O14 0.471531 0.991807 0.370732
#
# Coordination Sequence:
#
# PCOD8144996 Si02
#       7
#     4   8   8   8   8   8   8
#     4  10  24  46  62  98 122 162 220 274 340 370
#     4  12  22  39  66  99 131 176 214 260 331 385
#     4  10  22  36  58  99 137 171 214 254 313 389
#     4  10  23  40  61 101 133 171 213 262 322 385
#     4  11  23  44  70  89 124 169 218 273 325 393
#     4  11  23  44  69  93 129 167 214 275 323 389
#     4  11  23  39  65  94 138 177 211 265 316 390
#
# _framework density 20.673012
#
# number of rings (size 3 to 8) (size 9 to 14) (size 15 to 20)
#    0.000    1.231    6.154    0.000    2.154    8.615 
#    0.000    0.000    0.000    0.000    0.000    0.000 
#    0.000    0.000    0.000    0.000    0.000    0.000 
#
# Total GULP energy -322306.701770 kJ/mol
# GULP energy per Si atom -12396.411607 kJ/mol
# Density = 2.062596 g / cm^3
# Si number density = 20.673012 Si / 1000 Ang^3
#
#
#
# Elastic Constant Matrix: (Units=GPa)
#
#
# Indices 1 2 3 4 5 6 
#
# 1 89.5380 42.4165 23.2694 0.0000 -6.8880 0.0000
# 2 42.4165 108.2779 30.0737 0.0000 -26.2285 0.0000
# 3 23.2694 30.0737 95.4826 0.0000 -17.2396 0.0000
# 4 0.0000 0.0000 0.0000 33.2236 0.0000 -7.3921
# 5 -6.8880 -26.2285 -17.2396 0.0000 30.8631 0.0000
# 6 0.0000 0.0000 0.0000 -7.3921 0.0000 47.5032
#
#
#
# Elastic Compliance Matrix: (Units=1/GPa)
#
#
# Indices 1 2 3 4 5 6 
#
# 1 0.014192 -0.005640 -0.002197 0.000000 -0.002853 0.000000
# 2 -0.005640 0.014258 -0.001285 0.000000 0.010140 0.000000
# 3 -0.002197 -0.001285 0.012376 0.000000 0.005330 0.000000
# 4 0.000000 0.000000 0.000000 0.031179 0.000000 0.004852
# 5 -0.002853 0.010140 0.005330 0.000000 0.043359 0.000000
# 6 0.000000 0.000000 0.000000 0.004852 0.000000 0.021806
#
#
# Mechanical properties :
#
#
# Convention : Reuss Voigt Hill
#
# Bulk Modulus (GPa) = 44.28713 53.86863 49.07788
# Shear Modulus (GPa) = 30.68550 35.48724 33.08637
#
# Velocity S-wave (km/s) = 3.85688 4.14768 4.00492
# Velocity P-wave (km/s) = 6.42675 7.00369 6.72142
#
# Compressibility (1/GPa) = 0.02257992
#
# Stress axis : x y z
#
# Youngs Moduli (GPa) = 70.46223 70.13385 80.80262
#
# Poissons Ratio (x) = 0.39559 0.17755
# Poissons Ratio (y) = 0.39744 0.10387
# Poissons Ratio (z) = 0.15483 0.09015
#
# Static dielectric constant tensor:
#      x y z
#    x 3.605400 0.000000 -0.026650 
#    y 0.000000 3.278780 0.000000 
#    z -0.026650 0.000000 4.361470 
# 
# 
# High freq. dielectric constant tensor:
#      x y z
#    x 1.813020 0.000000 -0.007310 
#    y 0.000000 1.802410 0.000000 
#    z -0.007310 0.000000 1.816230 
# 
# From -- ./inp_files/287668.got.cif
#   From: 2010.06.25/outbox.cif.g09.slc.cpg/sg15_144_cif.got.tgz:287668.got - 2010.06.28 07:06:18.
