data_PCOD8144688
_publ_section_title
;
Structure prediction by ZEFSAII (Michael W. Deem and Ramdas Pophale) SiO2 
 PCOD8144688
Probable space group: C 2/C
;
_chemical_formula_sum "Si O2"
_cell_formula_units_Z 44
_cell_length_a 21.771033
_cell_length_b 11.780212
_cell_length_c 19.600557
_cell_angle_alpha 90.000000
_cell_angle_beta 24.188710
_cell_angle_gamma 90.000000
_cell_volume 2059.740036
_symmetry_space_group_name_H-M "C 2/C"
_symmetry_group_IT_number 15
_symmetry_cell_setting 'monoclinic'
loop_
_space_group_symop_operation_xyz
x,y,z
-x,y,1/2-z
-x,-y,-z
x,-y,1/2+z
1/2+x,1/2+y,z
1/2-x,1/2+y,1/2-z
1/2-x,1/2-y,-z
1/2+x,1/2-y,1/2+z
loop_
_atom_site_type_symbol
_atom_site_label
_atom_site_fract_x
_atom_site_fract_y
_atom_site_fract_z
Si Si1 0.726637 0.095344 0.053980
Si Si2 0.395016 0.934944 0.215103
Si Si3 0.217843 0.519621 0.907385
Si Si4 0.000000 0.228879 0.750000
Si Si5 0.618805 0.308847 0.808688
Si Si6 0.309030 0.642282 0.687257
O O1 0.600663 0.191329 0.197544
O O2 0.697368 0.982314 0.126614
O O3 0.889823 0.147988 0.906082
O O4 0.717281 0.066204 0.983825
O O5 0.426701 0.799436 0.192782
O O6 0.289639 0.951121 0.255128
O O7 0.549379 0.002060 0.050729
O O8 0.309776 0.402548 0.812755
O O9 0.298090 0.612347 0.777898
O O10 0.740559 0.267620 0.742059
O O11 0.479801 0.362477 0.989735
#
# Coordination Sequence:
#
# PCOD8144688 Si02
#       6
#     8   8   8   4   8   8
#     4  11  24  43  68  91 131 167 216 264 319 382
#     4  10  21  44  63  92 130 166 207 268 315 377
#     4  12  22  42  66  95 127 172 214 264 321 376
#     4  10  24  46  56  98 126 164 216 256 322 384
#     4  10  22  42  62  95 128 166 218 258 323 374
#     4  10  23  40  64  94 130 163 215 264 315 383
#
# _framework density 21.361919
#
# number of rings (size 3 to 8) (size 9 to 14) (size 15 to 20)
#    1.091    0.364    3.636    1.091    2.545    2.182 
#    6.545    0.000    0.000    0.000    0.000    0.000 
#    0.000    0.000    0.000    0.000    0.000    0.000 
#
# Total GULP energy -272672.412732 kJ/mol
# GULP energy per Si atom -12394.200579 kJ/mol
# Density = 2.131330 g / cm^3
# Si number density = 21.361919 Si / 1000 Ang^3
#
#
#
# Elastic Constant Matrix: (Units=GPa)
#
#
# Indices 1 2 3 4 5 6 
#
# 1 50.5948 16.4640 31.6073 -0.0024 18.6548 0.0058
# 2 16.4640 94.0695 44.3965 -0.0020 13.5939 0.0048
# 3 31.6073 44.3965 129.8183 -0.0013 1.3192 0.0060
# 4 -0.0024 -0.0020 -0.0013 41.2076 0.0017 2.5379
# 5 18.6548 13.5939 1.3192 0.0017 34.8755 -0.0043
# 6 0.0058 0.0048 0.0060 2.5379 -0.0043 20.2101
#
#
#
# Elastic Compliance Matrix: (Units=1/GPa)
#
#
# Indices 1 2 3 4 5 6 
#
# 1 0.030087 0.000512 -0.007338 0.000003 -0.016016 -0.000010
# 2 0.000512 0.013535 -0.004699 0.000001 -0.005371 -0.000003
# 3 -0.007338 -0.004699 0.011042 -0.000001 0.005339 0.000001
# 4 0.000003 0.000001 -0.000001 0.024456 -0.000003 -0.003071
# 5 -0.016016 -0.005371 0.005339 -0.000003 0.039132 0.000013
# 6 -0.000010 -0.000003 0.000001 -0.003071 0.000013 0.049866
#
#
# Mechanical properties :
#
#
# Convention : Reuss Voigt Hill
#
# Bulk Modulus (GPa) = 31.63079 51.04647 41.33863
# Shear Modulus (GPa) = 24.78849 31.39297 28.09073
#
# Velocity S-wave (km/s) = 3.41017 3.83766 3.63021
# Velocity P-wave (km/s) = 5.50862 6.60188 6.07987
#
# Compressibility (1/GPa) = 0.03161476
#
# Stress axis : x y z
#
# Youngs Moduli (GPa) = 33.23644 73.88417 90.56126
#
# Poissons Ratio (x) = -0.03779 0.66451
# Poissons Ratio (y) = -0.01700 0.42552
# Poissons Ratio (z) = 0.24388 0.34716
#
# Static dielectric constant tensor:
#      x y z
#    x 3.454770 0.000000 -0.260110 
#    y 0.000000 3.860380 0.000010 
#    z -0.260110 0.000010 3.954030 
# 
# 
# High freq. dielectric constant tensor:
#      x y z
#    x 1.804170 0.000000 -0.018720 
#    y 0.000000 1.838820 0.000000 
#    z -0.018720 0.000000 1.854110 
# 
# From -- ./inp_files/284536.got.cif
#   From: 2010.06.25/outbox.cif.g09.slc.cpg/sg15_143_cif.got.tgz:284536.got - 2010.06.28 07:06:18.
