data_PCOD8144684
_publ_section_title
;
Structure prediction by ZEFSAII (Michael W. Deem and Ramdas Pophale) SiO2 
 PCOD8144684
Probable space group: C 2/C
;
_chemical_formula_sum "Si O2"
_cell_formula_units_Z 64
_cell_length_a 28.838717
_cell_length_b 14.268371
_cell_length_c 8.878218
_cell_angle_alpha 90.000000
_cell_angle_beta 116.171761
_cell_angle_gamma 90.000000
_cell_volume 3278.679085
_symmetry_space_group_name_H-M "C 2/C"
_symmetry_group_IT_number 15
_symmetry_cell_setting 'monoclinic'
loop_
_space_group_symop_operation_xyz
x,y,z
-x,y,1/2-z
-x,-y,-z
x,-y,1/2+z
1/2+x,1/2+y,z
1/2-x,1/2+y,1/2-z
1/2-x,1/2-y,-z
1/2+x,1/2-y,1/2+z
loop_
_atom_site_type_symbol
_atom_site_label
_atom_site_fract_x
_atom_site_fract_y
_atom_site_fract_z
Si Si1 0.117581 0.954603 0.371878
Si Si2 0.687206 0.555763 0.704509
Si Si3 0.029387 0.923902 0.638560
Si Si4 0.225437 0.583908 0.209065
Si Si5 0.366666 0.867689 0.420117
Si Si6 0.550168 0.709157 0.914668
Si Si7 0.755232 0.719260 0.680285
Si Si8 0.660548 0.995148 0.369122
O O1 0.161566 0.911988 0.325342
O O2 0.078984 0.872100 0.363771
O O3 0.142967 0.003373 0.550131
O O4 0.086613 0.037734 0.247017
O O5 0.730781 0.480098 0.802681
O O6 0.710398 0.644787 0.650923
O O7 0.032028 0.827462 0.550887
O O8 0.000000 0.902100 0.750000
O O9 0.000000 0.000000 0.500000
O O10 0.245255 0.688862 0.267592
O O11 0.207572 0.540203 0.341335
O O12 0.180616 0.581815 0.018143
O O13 0.412179 0.794426 0.497030
O O14 0.311133 0.821242 0.303927
O O15 0.366873 0.920720 0.580726
O O16 0.378170 0.941578 0.301114
O O17 0.500000 0.743210 0.750000
O O18 0.750000 0.750000 0.500000
#
# Coordination Sequence:
#
# PCOD8144684 Si02
#       8
#     8   8   8   8   8   8   8   8
#     4  12  23  38  61  99 137 179 213 258 327 406
#     4  12  24  36  61  97 140 178 224 255 318 397
#     4  12  21  43  67  94 137 180 209 266 339 398
#     4  11  21  39  58  87 138 179 213 264 307 377
#     4  11  25  44  69  94 126 180 224 281 339 386
#     4  12  26  46  68  99 133 166 231 286 335 403
#     4  12  23  37  61  97 137 175 227 267 316 397
#     4  10  21  44  63  86 128 176 220 267 335 373
#
# _framework density 19.520057000000001
#
# number of rings (size 3 to 8) (size 9 to 14) (size 15 to 20)
#    0.000    0.500    7.500    2.250    3.500    0.500 
#    0.000    3.125    0.000    0.000    0.000    0.000 
#    0.000    0.000    0.000    0.000    0.000    0.000 
#
# Total GULP energy -396810.913539 kJ/mol
# GULP energy per Si atom -12400.341048 kJ/mol
# Density = 1.947563 g / cm^3
# Si number density = 19.520057 Si / 1000 Ang^3
#
#
#
# Elastic Constant Matrix: (Units=GPa)
#
#
# Indices 1 2 3 4 5 6 
#
# 1 102.3395 48.8649 47.6547 0.0000 -9.0537 0.0000
# 2 48.8649 111.0292 44.7309 0.0000 -2.1620 0.0000
# 3 47.6547 44.7309 95.5379 0.0000 -5.4598 0.0000
# 4 0.0000 0.0000 0.0000 26.4898 0.0000 2.4848
# 5 -9.0537 -2.1620 -5.4598 0.0000 30.1241 0.0000
# 6 0.0000 0.0000 0.0000 2.4848 0.0000 45.3225
#
#
#
# Elastic Compliance Matrix: (Units=1/GPa)
#
#
# Indices 1 2 3 4 5 6 
#
# 1 0.014420 -0.004264 -0.005018 0.000000 0.003118 0.000000
# 2 -0.004264 0.012362 -0.003722 0.000000 -0.001069 0.000000
# 3 -0.005018 -0.003722 0.014764 0.000000 0.000901 0.000000
# 4 0.000000 0.000000 0.000000 0.037945 0.000000 -0.002080
# 5 0.003118 -0.001069 0.000901 0.000000 0.034220 0.000000
# 6 0.000000 0.000000 0.000000 -0.002080 0.000000 0.022178
#
#
# Mechanical properties :
#
#
# Convention : Reuss Voigt Hill
#
# Bulk Modulus (GPa) = 64.35908 65.71198 65.03553
# Shear Modulus (GPa) = 29.92631 31.56437 30.74534
#
# Velocity S-wave (km/s) = 3.91974 4.02558 3.97301
# Velocity P-wave (km/s) = 7.31629 7.43936 7.37808
#
# Compressibility (1/GPa) = 0.01553782
#
# Stress axis : x y z
#
# Youngs Moduli (GPa) = 69.34857 80.89337 67.73110
#
# Poissons Ratio (x) = 0.34492 0.33988
# Poissons Ratio (y) = 0.29570 0.25210
# Poissons Ratio (z) = 0.34800 0.30109
#
# Static dielectric constant tensor:
#      x y z
#    x 3.751610 0.000000 -0.364550 
#    y 0.000000 3.710540 0.000000 
#    z -0.364550 0.000000 3.310230 
# 
# 
# High freq. dielectric constant tensor:
#      x y z
#    x 1.750120 0.000000 -0.013950 
#    y 0.000000 1.753700 0.000000 
#    z -0.013950 0.000000 1.773960 
# 
# From -- ./inp_files/66180.got.cif
#   From: 2010.06.25/outbox.cif.g09.slc.cpg/sg15_34_cif.got.tgz:66180.got - 2010.06.28 07:06:18.
