data_PCOD8144851
_publ_section_title
;
Structure prediction by ZEFSAII (Michael W. Deem and Ramdas Pophale) SiO2 
 PCOD8144851
Probable space group: C 2/C
;
_chemical_formula_sum "Si O2"
_cell_formula_units_Z 28
_cell_length_a 22.595403
_cell_length_b 5.298667
_cell_length_c 15.559651
_cell_angle_alpha 90.000000
_cell_angle_beta 146.902299
_cell_angle_gamma 90.000000
_cell_volume 1017.263760
_symmetry_space_group_name_H-M "C 2/C"
_symmetry_group_IT_number 15
_symmetry_cell_setting 'monoclinic'
loop_
_space_group_symop_operation_xyz
x,y,z
-x,y,1/2-z
-x,-y,-z
x,-y,1/2+z
1/2+x,1/2+y,z
1/2-x,1/2+y,1/2-z
1/2-x,1/2-y,-z
1/2+x,1/2-y,1/2+z
loop_
_atom_site_type_symbol
_atom_site_label
_atom_site_fract_x
_atom_site_fract_y
_atom_site_fract_z
Si Si1 0.500000 0.124076 0.750000
Si Si2 0.082516 0.590905 0.181984
Si Si3 0.694639 0.615556 0.558693
Si Si4 0.126329 0.901958 0.647355
O O1 0.392094 0.299021 0.618242
O O2 0.493130 0.952658 0.826913
O O3 0.209790 0.559297 0.365049
O O4 0.064723 0.878417 0.126575
O O5 0.936264 0.631197 0.914418
O O6 0.749936 0.866007 0.668904
O O7 0.628714 0.463359 0.550258
#
# Coordination Sequence:
#
# PCOD8144851 Si02
#       4
#     4   8   8   8
#     4  12  26  42  68 106 140 164 230 270 344 374
#     4  10  23  45  66 100 130 182 209 282 319 410
#     4  10  22  46  70  99 128 182 216 285 316 404
#     4  10  21  45  74  84 138 174 230 251 345 377
#
# _framework density 27.524818
#
# number of rings (size 3 to 8) (size 9 to 14) (size 15 to 20)
#    1.714    0.000    2.857    0.857    0.000    4.571 
#    5.143    0.000    0.000    0.000    0.000    0.000 
#    0.000    0.000    0.000    0.000    0.000    0.000 
#
# Total GULP energy -173613.023591 kJ/mol
# GULP energy per Si atom -12400.930256 kJ/mol
# Density = 2.746217 g / cm^3
# Si number density = 27.524818 Si / 1000 Ang^3
#
#
#
# Elastic Constant Matrix: (Units=GPa)
#
#
# Indices 1 2 3 4 5 6 
#
# 1 152.8833 60.5337 3.5787 0.0000 0.1127 0.0000
# 2 60.5337 181.3023 76.5019 0.0000 4.6291 -0.0001
# 3 3.5787 76.5019 126.8778 0.0000 22.4958 0.0000
# 4 0.0000 0.0000 0.0000 48.7662 0.0000 13.0369
# 5 0.1127 4.6291 22.4958 0.0000 43.7068 0.0000
# 6 0.0000 -0.0001 0.0000 13.0369 0.0000 24.9823
#
#
#
# Elastic Compliance Matrix: (Units=1/GPa)
#
#
# Indices 1 2 3 4 5 6 
#
# 1 0.007856 -0.003437 0.001970 0.000000 -0.000670 0.000000
# 2 -0.003437 0.009013 -0.005689 0.000000 0.001982 0.000000
# 3 0.001970 -0.005689 0.012270 0.000000 -0.005718 0.000000
# 4 0.000000 0.000000 0.000000 0.023831 0.000000 -0.012436
# 5 -0.000670 0.001982 -0.005718 0.000000 0.025615 0.000000
# 6 0.000000 0.000000 0.000000 -0.012436 0.000000 0.046518
#
#
# Mechanical properties :
#
#
# Convention : Reuss Voigt Hill
#
# Bulk Modulus (GPa) = 67.44719 82.47689 74.96204
# Shear Modulus (GPa) = 34.63619 44.85434 39.74526
#
# Velocity S-wave (km/s) = 3.55119 4.04121 3.80410
# Velocity P-wave (km/s) = 6.43210 7.19755 6.82556
#
# Compressibility (1/GPa) = 0.01482641
#
# Stress axis : x y z
#
# Youngs Moduli (GPa) = 127.28792 110.94894 81.49867
#
# Poissons Ratio (x) = 0.38133 -0.16052
# Poissons Ratio (y) = 0.43749 0.46365
# Poissons Ratio (z) = -0.25070 0.63120
#
# Static dielectric constant tensor:
#      x y z
#    x 4.523430 0.000000 0.464850 
#    y 0.000000 4.816610 0.000000 
#    z 0.464850 0.000000 5.229710 
# 
# 
# High freq. dielectric constant tensor:
#      x y z
#    x 2.099170 0.000000 0.039560 
#    y 0.000000 2.109120 0.000000 
#    z 0.039560 0.000000 2.149950 
# 
# From -- ./inp_files/221081.got.cif
#   From: 2010.06.25/outbox.cif.g09.slc.cpg/sg15_111_cif.got.tgz:221081.got - 2010.06.28 07:06:18.
