data_PCOD8144759
_publ_section_title
;
Structure prediction by ZEFSAII (Michael W. Deem and Ramdas Pophale) SiO2 
 PCOD8144759
Probable space group: C 2/C
;
_chemical_formula_sum "Si O2"
_cell_formula_units_Z 40
_cell_length_a 12.216597
_cell_length_b 19.689562
_cell_length_c 7.620193
_cell_angle_alpha 90.000000
_cell_angle_beta 98.933970
_cell_angle_gamma 90.000000
_cell_volume 1810.719492
_symmetry_space_group_name_H-M "C 2/C"
_symmetry_group_IT_number 15
_symmetry_cell_setting 'monoclinic'
loop_
_space_group_symop_operation_xyz
x,y,z
-x,y,1/2-z
-x,-y,-z
x,-y,1/2+z
1/2+x,1/2+y,z
1/2-x,1/2+y,1/2-z
1/2-x,1/2-y,-z
1/2+x,1/2-y,1/2+z
loop_
_atom_site_type_symbol
_atom_site_label
_atom_site_fract_x
_atom_site_fract_y
_atom_site_fract_z
Si Si1 0.034002 0.924598 0.559284
Si Si2 0.873626 0.433452 0.235421
Si Si3 0.419648 0.297409 0.568484
Si Si4 0.790488 0.573686 0.098068
Si Si5 0.674015 0.832869 0.582373
O O1 0.160986 0.910129 0.549572
O O2 0.000000 0.915205 0.750000
O O3 0.963278 0.861684 0.459381
O O4 0.000000 0.000000 0.500000
O O5 0.796542 0.495625 0.158354
O O6 0.848977 0.412013 0.428354
O O7 0.000000 0.457390 0.250000
O O8 0.848309 0.370261 0.106311
O O9 0.500000 0.278043 0.750000
O O10 0.405370 0.233194 0.434267
O O11 0.301914 0.313150 0.627357
O O12 0.853011 0.619983 0.257143
#
# Coordination Sequence:
#
# PCOD8144759 Si02
#       5
#     8   8   8   8   8
#     4  11  21  40  71 104 142 178 231 296 357 421
#     4  12  26  44  71 105 142 185 243 296 357 422
#     4  10  21  44  70 100 149 188 227 295 357 422
#     4  12  23  42  73 107 141 185 241 296 357 425
#     4  11  23  43  74  99 147 190 231 295 354 432
#
# _framework density 22.090665999999999
#
# number of rings (size 3 to 8) (size 9 to 14) (size 15 to 20)
#    0.000    0.800    6.000    3.600    0.000    0.000 
#    0.000    4.000   26.400    0.000    0.000    0.000 
#    0.000    0.000    0.000    0.000    0.000    0.000 
#
# Total GULP energy -247974.470602 kJ/mol
# GULP energy per Si atom -12398.723530 kJ/mol
# Density = 2.204039 g / cm^3
# Si number density = 22.090666 Si / 1000 Ang^3
#
#
#
# Elastic Constant Matrix: (Units=GPa)
#
#
# Indices 1 2 3 4 5 6 
#
# 1 115.4586 48.6421 40.7328 0.0000 0.1192 0.0000
# 2 48.6421 187.2593 54.9504 0.0000 5.8307 0.0000
# 3 40.7328 54.9504 124.2642 0.0000 -17.8135 0.0000
# 4 0.0000 0.0000 0.0000 49.3819 0.0000 7.2106
# 5 0.1192 5.8307 -17.8135 0.0000 39.6702 0.0000
# 6 0.0000 0.0000 0.0000 7.2106 0.0000 43.8846
#
#
#
# Elastic Compliance Matrix: (Units=1/GPa)
#
#
# Indices 1 2 3 4 5 6 
#
# 1 0.010413 -0.001875 -0.002725 0.000000 -0.000979 0.000000
# 2 -0.001875 0.006671 -0.002645 0.000000 -0.002163 0.000000
# 3 -0.002725 -0.002645 0.010867 0.000000 0.005277 0.000000
# 4 0.000000 0.000000 0.000000 0.020748 0.000000 -0.003409
# 5 -0.000979 -0.002163 0.005277 0.000000 0.027898 0.000000
# 6 0.000000 0.000000 0.000000 -0.003409 0.000000 0.023347
#
#
# Mechanical properties :
#
#
# Convention : Reuss Voigt Hill
#
# Bulk Modulus (GPa) = 74.28882 79.51473 76.90178
# Shear Modulus (GPa) = 42.04478 45.43112 43.73795
#
# Velocity S-wave (km/s) = 4.36740 4.53987 4.45447
# Velocity P-wave (km/s) = 7.68988 7.97204 7.83223
#
# Compressibility (1/GPa) = 0.01346098
#
# Stress axis : x y z
#
# Youngs Moduli (GPa) = 96.03162 149.90689 92.02448
#
# Poissons Ratio (x) = 0.28106 0.25073
# Poissons Ratio (y) = 0.18005 0.24343
# Poissons Ratio (z) = 0.26165 0.39655
#
# Static dielectric constant tensor:
#      x y z
#    x 4.061100 0.000000 0.148760 
#    y 0.000000 3.057510 0.000000 
#    z 0.148760 0.000000 3.906470 
# 
# 
# High freq. dielectric constant tensor:
#      x y z
#    x 1.875470 0.000000 0.012600 
#    y 0.000000 1.886510 0.000000 
#    z 0.012600 0.000000 1.855540 
# 
# From -- ./inp_files/29355.got.cif
#   From: 2010.06.25/outbox.cif.g09.slc.cpg/sg15_15_cif.got.tgz:29355.got - 2010.06.28 07:06:18.
