data_PCOD8144762
_publ_section_title
;
Structure prediction by ZEFSAII (Michael W. Deem and Ramdas Pophale) SiO2 
 PCOD8144762
Probable space group: C 2/C
;
_chemical_formula_sum "Si O2"
_cell_formula_units_Z 56
_cell_length_a 9.102964
_cell_length_b 12.033527
_cell_length_c 28.553445
_cell_angle_alpha 90.000000
_cell_angle_beta 127.307578
_cell_angle_gamma 90.000000
_cell_volume 2487.804322
_symmetry_space_group_name_H-M "C 2/C"
_symmetry_group_IT_number 15
_symmetry_cell_setting 'monoclinic'
loop_
_space_group_symop_operation_xyz
x,y,z
-x,y,1/2-z
-x,-y,-z
x,-y,1/2+z
1/2+x,1/2+y,z
1/2-x,1/2+y,1/2-z
1/2-x,1/2-y,-z
1/2+x,1/2-y,1/2+z
loop_
_atom_site_type_symbol
_atom_site_label
_atom_site_fract_x
_atom_site_fract_y
_atom_site_fract_z
Si Si1 0.742994 0.406119 0.621265
Si Si2 0.292792 0.728123 0.706914
Si Si3 0.106974 0.506292 0.655246
Si Si4 0.711363 0.289347 0.788418
Si Si5 0.094251 0.199452 0.003579
Si Si6 0.898870 0.585715 0.948012
Si Si7 0.533298 0.391617 0.111806
O O1 0.750077 0.286882 0.648875
O O2 0.670695 0.392769 0.554165
O O3 0.618756 0.485600 0.629542
O O4 0.944491 0.459016 0.656024
O O5 0.500000 0.687197 0.750000
O O6 0.179908 0.615881 0.694712
O O7 0.252799 0.811874 0.741726
O O8 0.257125 0.406728 0.678894
O O9 0.043439 0.547347 0.592145
O O10 0.500000 0.250098 0.750000
O O11 0.850462 0.195003 0.834835
O O12 0.008707 0.296633 0.019494
O O13 0.250000 0.250000 0.000000
O O14 0.948578 0.146002 0.939428
O O15 0.676468 0.596868 0.910358
O O16 0.000000 0.500000 0.000000
#
# Coordination Sequence:
#
# PCOD8144762 Si02
#       7
#     8   8   8   8   8   8   8
#     4  12  25  46  71 106 146 192 234 309 372 439
#     4  12  26  46  70 103 148 194 248 301 371 436
#     4  12  24  45  70 101 142 191 247 296 365 440
#     4  12  27  45  72 105 142 195 252 305 365 446
#     4  10  21  44  70 101 140 184 234 296 363 438
#     4  11  22  42  72 106 141 188 241 294 367 445
#     4  11  25  45  74 104 150 185 244 307 375 438
#
# _framework density 22.509809000000001
#
# number of rings (size 3 to 8) (size 9 to 14) (size 15 to 20)
#    0.000    0.571    2.857    6.857    4.000    0.571 
#    2.571    1.429    0.000    0.000    0.000    0.000 
#    0.000    0.000    0.000    0.000    0.000    0.000 
#
# Total GULP energy -347106.474166 kJ/mol
# GULP energy per Si atom -12396.659792 kJ/mol
# Density = 2.245858 g / cm^3
# Si number density = 22.509809 Si / 1000 Ang^3
#
#
#
# Elastic Constant Matrix: (Units=GPa)
#
#
# Indices 1 2 3 4 5 6 
#
# 1 76.6770 24.2150 22.8879 0.0000 3.9272 0.0000
# 2 24.2150 120.3258 24.2538 0.0000 4.8300 0.0000
# 3 22.8879 24.2538 103.4149 0.0000 -5.1986 0.0000
# 4 0.0000 0.0000 0.0000 23.1278 0.0000 -9.3552
# 5 3.9272 4.8300 -5.1986 0.0000 39.5473 0.0000
# 6 0.0000 0.0000 0.0000 -9.3552 0.0000 32.4061
#
#
#
# Elastic Compliance Matrix: (Units=1/GPa)
#
#
# Indices 1 2 3 4 5 6 
#
# 1 0.014688 -0.002334 -0.002781 0.000000 -0.001539 0.000000
# 2 -0.002334 0.009165 -0.001689 0.000000 -0.001110 0.000000
# 3 -0.002781 -0.001689 0.010777 0.000000 0.001899 0.000000
# 4 0.000000 0.000000 0.000000 0.048954 0.000000 0.014132
# 5 -0.001539 -0.001110 0.001899 0.000000 0.025824 0.000000
# 6 0.000000 0.000000 0.000000 0.014132 0.000000 0.034938
#
#
# Mechanical properties :
#
#
# Convention : Reuss Voigt Hill
#
# Bulk Modulus (GPa) = 47.56606 49.23680 48.40143
# Shear Modulus (GPa) = 30.31027 34.28697 32.29862
#
# Velocity S-wave (km/s) = 3.67350 3.90706 3.79208
# Velocity P-wave (km/s) = 6.25859 6.50188 6.38139
#
# Compressibility (1/GPa) = 0.02102339
#
# Stress axis : x y z
#
# Youngs Moduli (GPa) = 68.08494 109.10663 92.79214
#
# Poissons Ratio (x) = 0.25460 0.25803
# Poissons Ratio (y) = 0.15888 0.15671
# Poissons Ratio (z) = 0.18933 0.18427
#
# Static dielectric constant tensor:
#      x y z
#    x 3.912400 0.000000 -0.079090 
#    y 0.000000 4.028450 0.000000 
#    z -0.079090 0.000000 4.347420 
# 
# 
# High freq. dielectric constant tensor:
#      x y z
#    x 1.867970 0.000000 -0.009710 
#    y 0.000000 1.900220 0.000000 
#    z -0.009710 0.000000 1.904300 
# 
# From -- ./inp_files/307562.got.cif
#   From: 2010.06.25/outbox.cif.g09.slc.cpg/sg15_154_cif.got.tgz:307562.got - 2010.06.28 07:06:18.
