data_PCOD8144257
_publ_section_title
;
Structure prediction by ZEFSAII (Michael W. Deem and Ramdas Pophale) SiO2 
 PCOD8144257
Probable space group: C 2/C
;
_chemical_formula_sum "Si O2"
_cell_formula_units_Z 40
_cell_length_a 27.852792
_cell_length_b 8.308035
_cell_length_c 15.579159
_cell_angle_alpha 90.000000
_cell_angle_beta 31.543133
_cell_angle_gamma 90.000000
_cell_volume 1885.945925
_symmetry_space_group_name_H-M "C 2/C"
_symmetry_group_IT_number 15
_symmetry_cell_setting 'monoclinic'
loop_
_space_group_symop_operation_xyz
x,y,z
-x,y,1/2-z
-x,-y,-z
x,-y,1/2+z
1/2+x,1/2+y,z
1/2-x,1/2+y,1/2-z
1/2-x,1/2-y,-z
1/2+x,1/2-y,1/2+z
loop_
_atom_site_type_symbol
_atom_site_label
_atom_site_fract_x
_atom_site_fract_y
_atom_site_fract_z
Si Si1 0.886706 0.201485 0.293014
Si Si2 0.264949 0.835473 0.613539
Si Si3 0.969850 0.317459 0.545738
Si Si4 0.327122 0.368421 0.173037
Si Si5 0.002632 0.084847 0.648592
O O1 0.815102 0.229094 0.325782
O O2 0.859644 0.310206 0.416433
O O3 0.906751 0.014979 0.285641
O O4 0.984387 0.255079 0.110620
O O5 0.268278 0.724063 0.691809
O O6 0.247281 0.020841 0.664111
O O7 0.864816 0.265479 0.684237
O O8 0.002311 0.235007 0.584261
O O9 0.000000 0.500000 0.500000
O O10 0.406055 0.482187 0.012131
O O11 0.000000 0.149957 0.750000
#
# Coordination Sequence:
#
# PCOD8144257 Si02
#       5
#     8   8   8   8   8
#     4  10  21  42  66  92 131 171 219 269 339 397
#     4  11  22  39  66  98 129 171 215 279 340 395
#     4  11  24  44  63  92 133 179 225 276 321 407
#     4  11  23  40  68  92 136 173 219 277 341 395
#     4  11  20  44  69  93 126 181 227 266 330 410
#
# _framework density 21.209516000000001
#
# number of rings (size 3 to 8) (size 9 to 14) (size 15 to 20)
#    0.000    1.200    6.000    1.200    2.800    0.000 
#    7.200    1.000    0.000    0.000    0.000    0.000 
#    0.000    0.000    0.000    0.000    0.000    0.000 
#
# Total GULP energy -247772.088812 kJ/mol
# GULP energy per Si atom -12388.604441 kJ/mol
# Density = 2.116124 g / cm^3
# Si number density = 21.209516 Si / 1000 Ang^3
#
#
#
# Elastic Constant Matrix: (Units=GPa)
#
#
# Indices 1 2 3 4 5 6 
#
# 1 104.5956 77.2678 32.9541 0.0006 13.7908 0.0000
# 2 77.2678 159.2051 55.6601 -0.0020 16.6339 0.0005
# 3 32.9541 55.6601 88.5145 -0.0010 18.6330 0.0003
# 4 0.0006 -0.0020 -0.0010 30.6909 0.0013 -3.2475
# 5 13.7908 16.6339 18.6330 0.0013 28.4538 -0.0002
# 6 0.0000 0.0005 0.0003 -3.2475 -0.0002 30.4346
#
#
#
# Elastic Compliance Matrix: (Units=1/GPa)
#
#
# Indices 1 2 3 4 5 6 
#
# 1 0.015219 -0.006814 -0.000773 -0.000001 -0.002886 0.000000
# 2 -0.006814 0.011167 -0.004415 0.000001 -0.000334 0.000000
# 3 -0.000773 -0.004415 0.015936 0.000001 -0.007480 0.000000
# 4 -0.000001 0.000001 0.000001 0.032955 -0.000002 0.003516
# 5 -0.002886 -0.000334 -0.007480 -0.000002 0.041637 0.000000
# 6 0.000000 0.000000 0.000000 0.003516 0.000000 0.033233
#
#
# Mechanical properties :
#
#
# Convention : Reuss Voigt Hill
#
# Bulk Modulus (GPa) = 54.59375 76.00880 65.30127
# Shear Modulus (GPa) = 27.73821 30.34474 29.04147
#
# Velocity S-wave (km/s) = 3.62030 3.78658 3.70437
# Velocity P-wave (km/s) = 6.57811 7.41839 7.01085
#
# Compressibility (1/GPa) = 0.01831712
#
# Stress axis : x y z
#
# Youngs Moduli (GPa) = 65.70856 89.55196 62.75031
#
# Poissons Ratio (x) = 0.61023 0.04854
# Poissons Ratio (y) = 0.44775 0.27701
# Poissons Ratio (z) = 0.05082 0.39533
#
# Static dielectric constant tensor:
#      x y z
#    x 3.107430 -0.000030 0.221840 
#    y -0.000030 2.562070 0.000000 
#    z 0.221840 0.000000 4.025500 
# 
# 
# High freq. dielectric constant tensor:
#      x y z
#    x 1.844030 0.000000 0.008030 
#    y 0.000000 1.813730 0.000000 
#    z 0.008030 0.000000 1.824110 
# 
# From -- ./inp_files/159084.got.cif
#   From: 2010.06.25/outbox.cif.g09.slc.cpg/sg15_80_cif.got.tgz:159084.got - 2010.06.28 07:06:18.
