data_PCOD8144358
_publ_section_title
;
Structure prediction by ZEFSAII (Michael W. Deem and Ramdas Pophale) SiO2 
 PCOD8144358
Probable space group: C 2/C
;
_chemical_formula_sum "Si O2"
_cell_formula_units_Z 56
_cell_length_a 20.564605
_cell_length_b 7.089114
_cell_length_c 27.910346
_cell_angle_alpha 90.000000
_cell_angle_beta 148.550034
_cell_angle_gamma 90.000000
_cell_volume 2122.966621
_symmetry_space_group_name_H-M "C 2/C"
_symmetry_group_IT_number 15
_symmetry_cell_setting 'monoclinic'
loop_
_space_group_symop_operation_xyz
x,y,z
-x,y,1/2-z
-x,-y,-z
x,-y,1/2+z
1/2+x,1/2+y,z
1/2-x,1/2+y,1/2-z
1/2-x,1/2-y,-z
1/2+x,1/2-y,1/2+z
loop_
_atom_site_type_symbol
_atom_site_label
_atom_site_fract_x
_atom_site_fract_y
_atom_site_fract_z
Si Si1 0.503683 0.107866 0.802631
Si Si2 0.941508 0.967831 0.566385
Si Si3 0.088790 0.983742 0.346569
Si Si4 0.851710 0.746328 0.853114
Si Si5 0.862526 0.559348 0.521485
Si Si6 0.253793 0.115842 0.699234
Si Si7 0.008153 0.304379 0.966575
O O1 0.500000 0.989043 0.750000
O O2 0.578282 0.293592 0.835158
O O3 0.588354 0.999249 0.894723
O O4 0.371234 0.175847 0.740929
O O5 0.946895 0.074525 0.621282
O O6 0.844870 0.788899 0.505904
O O7 0.072262 0.870924 0.637546
O O8 0.918610 0.124553 0.510937
O O9 0.236098 0.945219 0.430133
O O10 0.000000 0.885715 0.250000
O O11 0.774503 0.607675 0.770307
O O12 0.767862 0.898092 0.828957
O O13 0.930624 0.639450 0.943842
O O14 0.973285 0.486622 0.556030
O O15 0.136529 0.253389 0.614690
#
# Coordination Sequence:
#
# PCOD8144358 Si02
#       7
#     8   8   8   8   8   8   8
#     4  10  21  42  69 100 130 183 230 286 346 401
#     4  10  21  45  63  96 138 175 225 284 338 400
#     4  10  22  39  68  99 135 184 229 285 344 401
#     4  11  24  43  66 101 138 180 224 285 347 399
#     4  11  23  44  68 103 135 179 238 274 341 417
#     4  11  22  44  69 100 140 176 235 280 342 417
#     4  11  27  43  67 104 139 181 226 285 348 408
#
# _framework density 26.378183
#
# number of rings (size 3 to 8) (size 9 to 14) (size 15 to 20)
#    0.000    1.429    2.857    4.286    0.000   10.286 
#    2.571    0.714    0.000    0.857    0.000    0.000 
#    0.000    0.000    0.000    0.000    0.000    0.000 
#
# Total GULP energy -346913.489718 kJ/mol
# GULP energy per Si atom -12389.767490 kJ/mol
# Density = 2.631814 g / cm^3
# Si number density = 26.378183 Si / 1000 Ang^3
#
#
#
# Elastic Constant Matrix: (Units=GPa)
#
#
# Indices 1 2 3 4 5 6 
#
# 1 136.8346 25.9398 72.4865 -0.0001 -22.7694 0.0006
# 2 25.9398 42.5433 12.5489 0.0002 -9.2293 -0.0033
# 3 72.4865 12.5489 177.8220 0.0006 -22.4717 -0.0024
# 4 -0.0001 0.0002 0.0006 24.9632 0.0004 -1.4219
# 5 -22.7694 -9.2293 -22.4717 0.0004 43.1170 -0.0007
# 6 0.0006 -0.0033 -0.0024 -1.4219 -0.0007 25.6733
#
#
#
# Elastic Compliance Matrix: (Units=1/GPa)
#
#
# Indices 1 2 3 4 5 6 
#
# 1 0.010592 -0.004805 -0.003641 0.000000 0.002667 -0.000001
# 2 -0.004805 0.027051 0.000493 0.000000 0.003510 0.000004
# 3 -0.003641 0.000493 0.007326 0.000000 0.002001 0.000001
# 4 0.000000 0.000000 0.000000 0.040186 0.000000 0.002226
# 5 0.002667 0.003510 0.002001 0.000000 0.026395 0.000001
# 6 -0.000001 0.000004 0.000001 0.002226 0.000001 0.039074
#
#
# Mechanical properties :
#
#
# Convention : Reuss Voigt Hill
#
# Bulk Modulus (GPa) = 34.40897 64.35003 49.37950
# Shear Modulus (GPa) = 28.37383 35.16569 31.76976
#
# Velocity S-wave (km/s) = 3.28328 3.65517 3.47421
# Velocity P-wave (km/s) = 5.23889 6.50091 5.90372
#
# Compressibility (1/GPa) = 0.02906219
#
# Stress axis : x y z
#
# Youngs Moduli (GPa) = 94.41212 36.96674 136.49986
#
# Poissons Ratio (x) = 0.17764 0.49706
# Poissons Ratio (y) = 0.45369 -0.06735
# Poissons Ratio (z) = 0.34380 -0.01824
#
# Static dielectric constant tensor:
#      x y z
#    x 5.140920 -0.000010 -0.455200 
#    y -0.000010 4.860380 0.000010 
#    z -0.455200 0.000010 4.910830 
# 
# 
# High freq. dielectric constant tensor:
#      x y z
#    x 2.069530 0.000000 -0.010000 
#    y 0.000000 2.037890 0.000000 
#    z -0.010000 0.000000 2.052200 
# 
# From -- ./inp_files/317550.got.cif
#   From: 2010.06.25/outbox.cif.g09.slc.cpg/sg15_159_cif.got.tgz:317550.got - 2010.06.28 07:06:18.
