data_PCOD8144423
_publ_section_title
;
Structure prediction by ZEFSAII (Michael W. Deem and Ramdas Pophale) SiO2 
 PCOD8144423
Probable space group: C 2/C
;
_chemical_formula_sum "Si O2"
_cell_formula_units_Z 32
_cell_length_a 7.550114
_cell_length_b 18.633954
_cell_length_c 9.156668
_cell_angle_alpha 90.000000
_cell_angle_beta 79.183540
_cell_angle_gamma 90.000000
_cell_volume 1265.350045
_symmetry_space_group_name_H-M "C 2/C"
_symmetry_group_IT_number 15
_symmetry_cell_setting 'monoclinic'
loop_
_space_group_symop_operation_xyz
x,y,z
-x,y,1/2-z
-x,-y,-z
x,-y,1/2+z
1/2+x,1/2+y,z
1/2-x,1/2+y,1/2-z
1/2-x,1/2-y,-z
1/2+x,1/2-y,1/2+z
loop_
_atom_site_type_symbol
_atom_site_label
_atom_site_fract_x
_atom_site_fract_y
_atom_site_fract_z
Si Si1 0.619080 0.775662 0.896604
Si Si2 0.808494 0.461254 0.026247
Si Si3 0.196334 0.085478 0.223900
Si Si4 0.342420 0.809431 0.154523
O O1 0.651819 0.859298 0.854857
O O2 0.660190 0.729822 0.742980
O O3 0.750000 0.750000 0.000000
O O4 0.415513 0.770406 0.993762
O O5 0.672559 0.519053 0.116778
O O6 0.797247 0.391611 0.130254
O O7 0.751174 0.442845 0.872745
O O8 0.000000 0.500000 0.000000
O O9 0.000000 0.124534 0.250000
O O10 0.500000 0.805790 0.250000
#
# Coordination Sequence:
#
# PCOD8144423 Si02
#       4
#     8   8   8   8
#     4  10  22  42  72 102 147 187 241 299 364 429
#     4  12  25  45  75 103 143 192 247 298 363 437
#     4  12  26  46  69 105 146 190 242 304 362 429
#     4  10  21  42  71 105 139 190 238 299 361 432
#
# _framework density 25.289448
#
# number of rings (size 3 to 8) (size 9 to 14) (size 15 to 20)
#    0.000    1.000    2.500    5.250    3.500    1.000 
#    4.500    2.500    0.000    0.000    0.000    0.000 
#    0.000    0.000    0.000    0.000    0.000    0.000 
#
# Total GULP energy -198373.775922 kJ/mol
# GULP energy per Si atom -12398.360995 kJ/mol
# Density = 2.523189 g / cm^3
# Si number density = 25.289448 Si / 1000 Ang^3
#
#
#
# Elastic Constant Matrix: (Units=GPa)
#
#
# Indices 1 2 3 4 5 6 
#
# 1 92.4784 13.2557 50.5811 0.0000 -25.2187 0.0000
# 2 13.2557 165.0939 81.8050 0.0000 -29.1192 0.0000
# 3 50.5811 81.8050 185.2940 0.0000 -9.3830 0.0000
# 4 0.0000 0.0000 0.0000 64.7017 0.0000 -14.9697
# 5 -25.2187 -29.1192 -9.3830 0.0000 58.3904 0.0000
# 6 0.0000 0.0000 0.0000 -14.9697 0.0000 8.2920
#
#
#
# Elastic Compliance Matrix: (Units=1/GPa)
#
#
# Indices 1 2 3 4 5 6 
#
# 1 0.014970 0.002387 -0.004791 0.000000 0.006886 0.000000
# 2 0.002387 0.008840 -0.004314 0.000000 0.004746 0.000000
# 3 -0.004791 -0.004314 0.008465 0.000000 -0.002861 0.000000
# 4 0.000000 0.000000 0.000000 0.026542 0.000000 0.047917
# 5 0.006886 0.004746 -0.002861 0.000000 0.022007 0.000000
# 6 0.000000 0.000000 0.000000 0.047917 0.000000 0.207104
#
#
# Mechanical properties :
#
#
# Convention : Reuss Voigt Hill
#
# Bulk Modulus (GPa) = 53.08717 81.57222 67.32969
# Shear Modulus (GPa) = 16.25256 46.09178 31.17217
#
# Velocity S-wave (km/s) = 2.53783 4.27379 3.51467
# Velocity P-wave (km/s) = 5.44287 7.52856 6.56902
#
# Compressibility (1/GPa) = 0.01883694
#
# Stress axis : x y z
#
# Youngs Moduli (GPa) = 66.80207 113.11824 118.14013
#
# Poissons Ratio (x) = -0.26998 0.56606
# Poissons Ratio (y) = -0.15944 0.50966
# Poissons Ratio (z) = 0.32008 0.48800
#
# Static dielectric constant tensor:
#      x y z
#    x 4.680410 0.000000 -0.455180 
#    y 0.000000 3.156270 0.000000 
#    z -0.455180 0.000000 5.614210 
# 
# 
# High freq. dielectric constant tensor:
#      x y z
#    x 2.014590 0.000000 -0.003660 
#    y 0.000000 2.010360 0.000000 
#    z -0.003660 0.000000 2.041640 
# 
# From -- ./inp_files/22058.got.cif
#   From: 2010.06.25/outbox.cif.g09.slc.cpg/sg15_12_cif.got.tgz:22058.got - 2010.06.28 07:06:18.
