data_PCOD8144093
_publ_section_title
;
Structure prediction by ZEFSAII (Michael W. Deem and Ramdas Pophale) SiO2 
 PCOD8144093
Probable space group: C 2/C
;
_chemical_formula_sum "Si O2"
_cell_formula_units_Z 64
_cell_length_a 27.676162
_cell_length_b 6.582435
_cell_length_c 27.195360
_cell_angle_alpha 90.000000
_cell_angle_beta 139.465840
_cell_angle_gamma 90.000000
_cell_volume 3219.842694
_symmetry_space_group_name_H-M "C 2/C"
_symmetry_group_IT_number 15
_symmetry_cell_setting 'monoclinic'
loop_
_space_group_symop_operation_xyz
x,y,z
-x,y,1/2-z
-x,-y,-z
x,-y,1/2+z
1/2+x,1/2+y,z
1/2-x,1/2+y,1/2-z
1/2-x,1/2-y,-z
1/2+x,1/2-y,1/2+z
loop_
_atom_site_type_symbol
_atom_site_label
_atom_site_fract_x
_atom_site_fract_y
_atom_site_fract_z
Si Si1 0.331531 0.231884 0.779376
Si Si2 0.082532 0.354476 0.923923
Si Si3 0.983337 0.042119 0.792409
Si Si4 0.997928 0.734977 0.891163
Si Si5 0.739020 0.622934 0.176638
Si Si6 0.712621 0.158294 0.018631
Si Si7 0.186615 0.037128 0.822511
Si Si8 0.128123 0.024862 0.519084
O O1 0.419017 0.235875 0.856713
O O2 0.287617 0.262432 0.795680
O O3 0.308996 0.396541 0.721818
O O4 0.310888 0.010154 0.744128
O O5 0.152485 0.484274 0.957142
O O6 0.038295 0.230116 0.847618
O O7 0.024053 0.504463 0.904510
O O8 0.113303 0.202130 0.988752
O O9 0.897316 0.107466 0.730815
O O10 0.000000 0.971564 0.750000
O O11 0.998485 0.848782 0.838844
O O12 0.051239 0.857010 0.969785
O O13 0.763071 0.769864 0.151158
O O14 0.672108 0.483436 0.104420
O O15 0.750000 0.250000 0.000000
O O16 0.672840 0.346432 0.013594
O O17 0.778326 0.070945 0.103194
#
# Coordination Sequence:
#
# PCOD8144093 Si02
#       8
#     8   8   8   8   8   8   8   8
#     4  11  23  41  65  92 126 165 210 259 324 371
#     4  10  21  42  60  87 127 164 205 257 312 364
#     4  10  23  39  61  89 125 166 213 258 314 375
#     4   9  22  42  61  86 126 165 206 263 306 378
#     4  12  22  40  67  94 124 168 206 265 320 371
#     4  11  24  39  66  92 129 170 207 258 314 370
#     4  11  23  41  63  96 127 163 214 264 308 377
#     4  10  22  40  63  91 128 159 213 257 307 376
#
# _framework density 19.876747000000002
#
# number of rings (size 3 to 8) (size 9 to 14) (size 15 to 20)
#    0.000    1.500    3.750    0.750    5.250    2.500 
#    2.250    0.625    0.000    0.000    0.000    0.000 
#    0.000    0.000    0.000    0.000    0.000    0.000 
#
# Total GULP energy -396848.103309 kJ/mol
# GULP energy per Si atom -12401.503228 kJ/mol
# Density = 1.983151 g / cm^3
# Si number density = 19.876747 Si / 1000 Ang^3
#
#
#
# Elastic Constant Matrix: (Units=GPa)
#
#
# Indices 1 2 3 4 5 6 
#
# 1 83.5247 32.4849 47.8710 -0.0025 7.9679 0.0027
# 2 32.4849 104.8829 40.0736 -0.0005 10.1884 -0.0093
# 3 47.8710 40.0736 116.8502 0.0010 16.9108 0.0032
# 4 -0.0025 -0.0005 0.0010 36.3086 -0.0006 4.9034
# 5 7.9679 10.1884 16.9108 -0.0006 29.0720 -0.0019
# 6 0.0027 -0.0093 0.0032 4.9034 -0.0019 20.3192
#
#
#
# Elastic Compliance Matrix: (Units=1/GPa)
#
#
# Indices 1 2 3 4 5 6 
#
# 1 0.016373 -0.002878 -0.005696 0.000002 -0.000165 -0.000003
# 2 -0.002878 0.011566 -0.002528 -0.000001 -0.001794 0.000006
# 3 -0.005696 -0.002528 0.012453 -0.000001 -0.004796 -0.000003
# 4 0.000002 -0.000001 -0.000001 0.028469 0.000000 -0.006870
# 5 -0.000165 -0.001794 -0.004796 0.000000 0.037861 0.000003
# 6 -0.000003 0.000006 -0.000003 -0.006870 0.000003 0.050872
#
#
# Mechanical properties :
#
#
# Convention : Reuss Voigt Hill
#
# Bulk Modulus (GPa) = 54.98687 60.67964 57.83325
# Shear Modulus (GPa) = 26.90169 29.46184 28.18177
#
# Velocity S-wave (km/s) = 3.68288 3.85415 3.76949
# Velocity P-wave (km/s) = 6.76822 7.09931 6.93574
#
# Compressibility (1/GPa) = 0.01818616
#
# Stress axis : x y z
#
# Youngs Moduli (GPa) = 61.07767 86.46008 80.30392
#
# Poissons Ratio (x) = 0.24887 0.45745
# Poissons Ratio (y) = 0.17581 0.20298
# Poissons Ratio (z) = 0.34793 0.21854
#
# Static dielectric constant tensor:
#      x y z
#    x 3.393750 -0.000020 0.264790 
#    y -0.000020 3.739620 0.000000 
#    z 0.264790 0.000000 3.840330 
# 
# 
# High freq. dielectric constant tensor:
#      x y z
#    x 1.762330 0.000000 0.018820 
#    y 0.000000 1.783940 0.000000 
#    z 0.018820 0.000000 1.790030 
# 
# From -- ./inp_files/304095.got.cif
#   From: 2010.06.25/outbox.cif.g09.slc.cpg/sg15_153_cif.got.tgz:304095.got - 2010.06.28 07:06:18.
