data_PCOD8144421
_publ_section_title
;
Structure prediction by ZEFSAII (Michael W. Deem and Ramdas Pophale) SiO2 
 PCOD8144421
Probable space group: C 2/C
;
_chemical_formula_sum "Si O2"
_cell_formula_units_Z 40
_cell_length_a 13.874360
_cell_length_b 24.577094
_cell_length_c 8.851541
_cell_angle_alpha 90.000000
_cell_angle_beta 32.162022
_cell_angle_gamma 90.000000
_cell_volume 1606.687065
_symmetry_space_group_name_H-M "C 2/C"
_symmetry_group_IT_number 15
_symmetry_cell_setting 'monoclinic'
loop_
_space_group_symop_operation_xyz
x,y,z
-x,y,1/2-z
-x,-y,-z
x,-y,1/2+z
1/2+x,1/2+y,z
1/2-x,1/2+y,1/2-z
1/2-x,1/2-y,-z
1/2+x,1/2-y,1/2+z
loop_
_atom_site_type_symbol
_atom_site_label
_atom_site_fract_x
_atom_site_fract_y
_atom_site_fract_z
Si Si1 0.865426 0.230809 0.204144
Si Si2 0.247010 0.828864 0.213801
Si Si3 0.275671 0.046585 0.192277
Si Si4 0.803840 0.848112 0.547504
Si Si5 0.801578 0.438149 0.319434
O O1 0.750000 0.250000 0.500000
O O2 0.900999 0.286497 0.062860
O O3 0.734752 0.190370 0.276634
O O4 0.051876 0.200347 0.995335
O O5 0.304657 0.845358 0.966455
O O6 0.243318 0.881267 0.325938
O O7 0.169752 0.089896 0.434342
O O8 0.229080 0.985560 0.305501
O O9 0.484573 0.059645 0.944569
O O10 0.213592 0.053942 0.101344
O O11 0.000000 0.823482 0.250000
#
# Coordination Sequence:
#
# PCOD8144421 Si02
#       5
#     8   8   8   8   8
#     4  11  24  43  66  95 135 183 232 284 341 405
#     4  11  24  43  66  99 139 179 233 281 345 405
#     4  10  21  42  71 103 138 176 228 278 359 415
#     4  10  23  43  66  98 137 178 229 284 347 419
#     4  10  22  41  71 105 136 178 227 290 341 424
#
# _framework density 24.895949999999999
#
# number of rings (size 3 to 8) (size 9 to 14) (size 15 to 20)
#    0.000    1.600    0.000    3.600    2.800    4.000 
#    0.000   11.000    0.000    0.000    0.000    0.000 
#    0.000    0.000    0.000    0.000    0.000    0.000 
#
# Total GULP energy -247917.450553 kJ/mol
# GULP energy per Si atom -12395.872528 kJ/mol
# Density = 2.483929 g / cm^3
# Si number density = 24.895950 Si / 1000 Ang^3
#
#
#
# Elastic Constant Matrix: (Units=GPa)
#
#
# Indices 1 2 3 4 5 6 
#
# 1 134.7998 90.2813 36.1535 0.0005 42.2617 -0.0008
# 2 90.2813 236.1481 37.7391 0.0000 27.1427 0.0000
# 3 36.1535 37.7391 63.3347 0.0004 26.4085 -0.0005
# 4 0.0005 0.0000 0.0004 41.2315 -0.0006 16.2284
# 5 42.2617 27.1427 26.4085 -0.0006 32.9379 0.0009
# 6 -0.0008 0.0000 -0.0005 16.2284 0.0009 55.0934
#
#
#
# Elastic Compliance Matrix: (Units=1/GPa)
#
#
# Indices 1 2 3 4 5 6 
#
# 1 0.015128 -0.003976 0.000692 -0.000001 -0.016689 0.000001
# 2 -0.003976 0.005859 -0.002006 0.000000 0.001882 0.000000
# 3 0.000692 -0.002006 0.024441 -0.000001 -0.018831 0.000001
# 4 -0.000001 0.000000 -0.000001 0.027434 0.000002 -0.008081
# 5 -0.016689 0.001882 -0.018831 0.000002 0.065321 -0.000002
# 6 0.000001 0.000000 0.000001 -0.008081 -0.000002 0.020531
#
#
# Mechanical properties :
#
#
# Convention : Reuss Voigt Hill
#
# Bulk Modulus (GPa) = 28.69558 84.73670 56.71614
# Shear Modulus (GPa) = 27.63810 43.85981 35.74895
#
# Velocity S-wave (km/s) = 3.33550 4.20184 3.79348
# Velocity P-wave (km/s) = 5.13666 7.59282 6.48214
#
# Compressibility (1/GPa) = 0.03484857
#
# Stress axis : x y z
#
# Youngs Moduli (GPa) = 66.10395 170.67820 40.91408
#
# Poissons Ratio (x) = 0.67860 -0.02833
# Poissons Ratio (y) = 0.26282 0.08208
# Poissons Ratio (z) = -0.04577 0.34242
#
# Static dielectric constant tensor:
#      x y z
#    x 4.926790 0.000000 0.453250 
#    y 0.000000 4.676120 0.000000 
#    z 0.453250 0.000000 4.235050 
# 
# 
# High freq. dielectric constant tensor:
#      x y z
#    x 2.004880 0.000000 0.021810 
#    y 0.000000 2.006340 0.000000 
#    z 0.021810 0.000000 1.977250 
# 
# From -- ./inp_files/41961.got.cif
#   From: 2010.06.25/outbox.cif.g09.slc.cpg/sg15_21_cif.got.tgz:41961.got - 2010.06.28 07:06:18.
