data_PCOD8144157
_publ_section_title
;
Structure prediction by ZEFSAII (Michael W. Deem and Ramdas Pophale) SiO2 
 PCOD8144157
Probable space group: C 2/C
;
_chemical_formula_sum "Si O2"
_cell_formula_units_Z 52
_cell_length_a 29.712860
_cell_length_b 6.451757
_cell_length_c 14.220204
_cell_angle_alpha 90.000000
_cell_angle_beta 74.082568
_cell_angle_gamma 90.000000
_cell_volume 2621.494163
_symmetry_space_group_name_H-M "C 2/C"
_symmetry_group_IT_number 15
_symmetry_cell_setting 'monoclinic'
loop_
_space_group_symop_operation_xyz
x,y,z
-x,y,1/2-z
-x,-y,-z
x,-y,1/2+z
1/2+x,1/2+y,z
1/2-x,1/2+y,1/2-z
1/2-x,1/2-y,-z
1/2+x,1/2-y,1/2+z
loop_
_atom_site_type_symbol
_atom_site_label
_atom_site_fract_x
_atom_site_fract_y
_atom_site_fract_z
Si Si1 0.000000 0.112647 0.750000
Si Si2 0.810361 0.083524 0.027256
Si Si3 0.951840 0.733822 0.690970
Si Si4 0.385509 0.876865 0.066450
Si Si5 0.230723 0.130496 0.646270
Si Si6 0.043593 0.508220 0.128907
Si Si7 0.192616 0.693845 0.352272
O O1 0.030591 0.255312 0.662687
O O2 0.035072 0.969978 0.790869
O O3 0.857013 0.210075 0.022996
O O4 0.764772 0.178004 0.104080
O O5 0.816997 0.849113 0.056671
O O6 0.804055 0.083724 0.919256
O O7 0.911954 0.740246 0.635334
O O8 0.934132 0.610147 0.793778
O O9 0.997187 0.615425 0.623713
O O10 0.351065 0.041842 0.133432
O O11 0.420596 0.996432 0.977358
O O12 0.197598 0.183189 0.752420
O O13 0.259671 0.925111 0.652220
#
# Coordination Sequence:
#
# PCOD8144157 Si02
#       7
#     4   8   8   8   8   8   8
#     4   8  18  38  62  82 114 172 190 236 292 350
#     4  10  23  39  60  90 115 155 200 245 299 356
#     4   9  20  39  62  87 120 161 199 237 301 353
#     4  11  24  37  58  97 118 154 201 249 297 351
#     4  10  21  42  64  82 118 155 201 244 297 361
#     4   9  20  39  60  86 123 159 197 244 294 357
#     4  11  22  41  62  88 118 159 198 245 306 356
#
# _framework density 19.836016000000001
#
# number of rings (size 3 to 8) (size 9 to 14) (size 15 to 20)
#    0.000    2.462    1.538    0.923    2.154    5.538 
#    2.769    0.000    0.000    0.000    0.000    0.000 
#    0.000    0.000    0.000    0.000    0.000    0.000 
#
# Total GULP energy -322490.505733 kJ/mol
# GULP energy per Si atom -12403.480990 kJ/mol
# Density = 1.979087 g / cm^3
# Si number density = 19.836016 Si / 1000 Ang^3
#
#
#
# Elastic Constant Matrix: (Units=GPa)
#
#
# Indices 1 2 3 4 5 6 
#
# 1 105.0174 26.4457 49.3326 0.0000 20.3248 0.0000
# 2 26.4457 100.9185 28.0174 0.0000 2.4953 0.0000
# 3 49.3326 28.0174 72.8147 0.0000 18.1212 0.0000
# 4 0.0000 0.0000 0.0000 25.1877 0.0000 3.0757
# 5 20.3248 2.4953 18.1212 0.0000 31.0618 0.0000
# 6 0.0000 0.0000 0.0000 3.0757 0.0000 11.3233
#
#
#
# Elastic Compliance Matrix: (Units=1/GPa)
#
#
# Indices 1 2 3 4 5 6 
#
# 1 0.014645 -0.001445 -0.008201 0.000000 -0.004682 0.000000
# 2 -0.001445 0.011330 -0.003965 0.000000 0.002349 0.000000
# 3 -0.008201 -0.003965 0.022696 0.000000 -0.007556 0.000000
# 4 0.000000 0.000000 0.000000 0.041064 0.000000 -0.011154
# 5 -0.004682 0.002349 -0.007556 0.000000 0.039477 0.000000
# 6 0.000000 0.000000 0.000000 -0.011154 0.000000 0.091343
#
#
# Mechanical properties :
#
#
# Convention : Reuss Voigt Hill
#
# Bulk Modulus (GPa) = 46.62217 54.03802 50.33009
# Shear Modulus (GPa) = 19.61356 25.17823 22.39590
#
# Velocity S-wave (km/s) = 3.14791 3.56662 3.36378
# Velocity P-wave (km/s) = 6.06360 6.65301 6.36513
#
# Compressibility (1/GPa) = 0.02144902
#
# Stress axis : x y z
#
# Youngs Moduli (GPa) = 68.28453 88.25801 44.06158
#
# Poissons Ratio (x) = 0.12755 0.36133
# Poissons Ratio (y) = 0.09868 0.17471
# Poissons Ratio (z) = 0.55997 0.34995
#
# Static dielectric constant tensor:
#      x y z
#    x 3.505640 0.000000 0.072690 
#    y 0.000000 3.607290 0.000000 
#    z 0.072690 0.000000 3.505710 
# 
# 
# High freq. dielectric constant tensor:
#      x y z
#    x 1.767380 0.000000 0.007160 
#    y 0.000000 1.778950 0.000000 
#    z 0.007160 0.000000 1.772090 
# 
# From -- ./inp_files/180048.got.cif
#   From: 2010.06.25/outbox.cif.g09.slc.cpg/sg15_91_cif.got.tgz:180048.got - 2010.06.28 07:06:18.
