data_PCOD8144365
_publ_section_title
;
Structure prediction by ZEFSAII (Michael W. Deem and Ramdas Pophale) SiO2 
 PCOD8144365
Probable space group: C 2/C
;
_chemical_formula_sum "Si O2"
_cell_formula_units_Z 64
_cell_length_a 16.908881
_cell_length_b 15.694977
_cell_length_c 23.053461
_cell_angle_alpha 90.000000
_cell_angle_beta 152.662850
_cell_angle_gamma 90.000000
_cell_volume 2809.556715
_symmetry_space_group_name_H-M "C 2/C"
_symmetry_group_IT_number 15
_symmetry_cell_setting 'monoclinic'
loop_
_space_group_symop_operation_xyz
x,y,z
-x,y,1/2-z
-x,-y,-z
x,-y,1/2+z
1/2+x,1/2+y,z
1/2-x,1/2+y,1/2-z
1/2-x,1/2-y,-z
1/2+x,1/2-y,1/2+z
loop_
_atom_site_type_symbol
_atom_site_label
_atom_site_fract_x
_atom_site_fract_y
_atom_site_fract_z
Si Si1 0.504331 0.977145 0.373437
Si Si2 0.509286 0.340699 0.413544
Si Si3 0.196598 0.462406 0.898363
Si Si4 0.301820 0.605161 0.886629
Si Si5 0.488241 0.144334 0.417674
Si Si6 0.812067 0.254186 0.107487
Si Si7 0.284672 0.907534 0.892003
Si Si8 0.646137 0.415622 0.299136
O O1 0.378054 0.905901 0.265176
O O2 0.548875 0.946671 0.467093
O O3 0.677228 0.984984 0.446182
O O4 0.429206 0.074525 0.330369
O O5 0.705034 0.372823 0.529032
O O6 0.453096 0.377742 0.439455
O O7 0.497037 0.239358 0.399171
O O8 0.384118 0.375277 0.282945
O O9 0.315991 0.517669 0.932590
O O10 0.000000 0.446884 0.750000
O O11 0.314292 0.683741 0.939481
O O12 0.344867 0.141630 0.374107
O O13 0.675986 0.120047 0.561710
O O14 0.807311 0.158071 0.125837
O O15 0.000000 0.289550 0.250000
O O16 0.750000 0.250000 0.000000
O O17 0.151270 0.982860 0.791267
O O18 0.500000 0.391148 0.250000
#
# Coordination Sequence:
#
# PCOD8144365 Si02
#       8
#     8   8   8   8   8   8   8   8
#     4  10  21  42  69  89 134 184 225 277 342 411
#     4  12  24  43  67  99 135 173 231 283 346 411
#     4  10  23  41  64  92 129 175 221 271 337 408
#     4  11  22  43  65 101 134 178 228 276 350 414
#     4  11  24  42  65  97 135 178 226 280 350 403
#     4  12  25  42  70 105 144 184 227 289 350 421
#     4  11  21  43  64  99 133 174 232 280 347 407
#     4  11  25  42  69  96 130 181 233 285 337 414
#
# _framework density 22.779394
#
# number of rings (size 3 to 8) (size 9 to 14) (size 15 to 20)
#    0.000    1.000    1.250    7.875    0.000    5.500 
#    0.000    3.750    0.000    0.000    0.000    0.000 
#    0.000    0.000    0.000    0.000    0.000    0.000 
#
# Total GULP energy -396616.710370 kJ/mol
# GULP energy per Si atom -12394.272199 kJ/mol
# Density = 2.272755 g / cm^3
# Si number density = 22.779394 Si / 1000 Ang^3
#
#
#
# Elastic Constant Matrix: (Units=GPa)
#
#
# Indices 1 2 3 4 5 6 
#
# 1 97.3868 21.4442 24.6070 -0.0225 -7.4139 -0.0012
# 2 21.4442 130.8222 31.6002 -0.0197 -11.0040 0.0028
# 3 24.6070 31.6002 70.4806 -0.0004 -11.2613 0.0086
# 4 -0.0225 -0.0197 -0.0004 32.4795 0.0064 -4.3442
# 5 -7.4139 -11.0040 -11.2613 0.0064 32.8753 0.0025
# 6 -0.0012 0.0028 0.0086 -4.3442 0.0025 46.6470
#
#
#
# Elastic Compliance Matrix: (Units=1/GPa)
#
#
# Indices 1 2 3 4 5 6 
#
# 1 0.011418 -0.000963 -0.003380 0.000007 0.001095 0.000002
# 2 -0.000963 0.008738 -0.003331 0.000004 0.001567 0.000000
# 3 -0.003380 -0.003331 0.017521 -0.000005 0.004125 -0.000004
# 4 0.000007 0.000004 -0.000005 0.031177 -0.000005 0.002903
# 5 0.001095 0.001567 0.004125 -0.000005 0.032602 -0.000003
# 6 0.000002 0.000000 -0.000004 0.002903 -0.000003 0.021708
#
#
# Mechanical properties :
#
#
# Convention : Reuss Voigt Hill
#
# Bulk Modulus (GPa) = 44.78502 50.44360 47.61431
# Shear Modulus (GPa) = 34.25722 37.13624 35.69673
#
# Velocity S-wave (km/s) = 3.88218 4.04202 3.96291
# Velocity P-wave (km/s) = 6.30857 6.63147 6.47204
#
# Compressibility (1/GPa) = 0.02232890
#
# Stress axis : x y z
#
# Youngs Moduli (GPa) = 87.58348 114.43899 57.07503
#
# Poissons Ratio (x) = 0.11022 0.19289
# Poissons Ratio (y) = 0.08436 0.19013
# Poissons Ratio (z) = 0.29599 0.38123
#
# Static dielectric constant tensor:
#      x y z
#    x 4.358670 0.000000 -0.231420 
#    y 0.000000 4.246270 -0.000060 
#    z -0.231420 -0.000060 3.866170 
# 
# 
# High freq. dielectric constant tensor:
#      x y z
#    x 1.915240 0.000000 -0.010890 
#    y 0.000000 1.906720 0.000000 
#    z -0.010890 0.000000 1.876690 
# 
# From -- ./inp_files/277660.got.cif
#   From: 2010.06.25/outbox.cif.g09.slc.cpg/sg15_139_cif.got.tgz:277660.got - 2010.06.28 07:06:18.
