data_PCOD8144064
_publ_section_title
;
Structure prediction by ZEFSAII (Michael W. Deem and Ramdas Pophale) SiO2 
 PCOD8144064
Probable space group: C 2/C
;
_chemical_formula_sum "Si O2"
_cell_formula_units_Z 40
_cell_length_a 10.723026
_cell_length_b 16.199806
_cell_length_c 14.506885
_cell_angle_alpha 90.000000
_cell_angle_beta 137.759846
_cell_angle_gamma 90.000000
_cell_volume 1694.046900
_symmetry_space_group_name_H-M "C 2/C"
_symmetry_group_IT_number 15
_symmetry_cell_setting 'monoclinic'
loop_
_space_group_symop_operation_xyz
x,y,z
-x,y,1/2-z
-x,-y,-z
x,-y,1/2+z
1/2+x,1/2+y,z
1/2-x,1/2+y,1/2-z
1/2-x,1/2-y,-z
1/2+x,1/2-y,1/2+z
loop_
_atom_site_type_symbol
_atom_site_label
_atom_site_fract_x
_atom_site_fract_y
_atom_site_fract_z
Si Si1 0.394785 0.835002 0.781610
Si Si2 0.244710 0.489017 0.692174
Si Si3 0.945404 0.810192 0.019875
Si Si4 0.308675 0.104014 0.681182
Si Si5 0.158172 0.981875 0.454394
O O1 0.500000 0.871884 0.750000
O O2 0.365512 0.907269 0.839239
O O3 0.532491 0.768216 0.901976
O O4 0.200065 0.793445 0.642602
O O5 0.168989 0.570637 0.702515
O O6 0.216565 0.505979 0.568235
O O7 0.460291 0.473991 0.834016
O O8 0.146209 0.828690 0.084180
O O9 0.872783 0.885495 0.042963
O O10 0.500000 0.144795 0.750000
O O11 0.261667 0.022295 0.596706
#
# Coordination Sequence:
#
# PCOD8144064 Si02
#       5
#     8   8   8   8   8
#     4  12  25  45  68 104 143 184 228 299 356 421
#     4  10  21  41  71  96 132 181 237 283 352 408
#     4  11  25  46  69 103 147 183 232 295 358 422
#     4  11  22  43  70 101 136 183 239 293 341 422
#     4  10  21  43  74  95 136 186 239 288 345 415
#
# _framework density 23.612098
#
# number of rings (size 3 to 8) (size 9 to 14) (size 15 to 20)
#    0.000    1.200    4.000    2.400    5.600    2.400 
#    3.600    2.000    0.000    0.000    0.000    0.000 
#    0.000    0.000    0.000    0.000    0.000    0.000 
#
# Total GULP energy -248089.154948 kJ/mol
# GULP energy per Si atom -12404.457747 kJ/mol
# Density = 2.355836 g / cm^3
# Si number density = 23.612098 Si / 1000 Ang^3
#
#
#
# Elastic Constant Matrix: (Units=GPa)
#
#
# Indices 1 2 3 4 5 6 
#
# 1 126.5431 5.8789 9.0249 0.0001 -6.1403 0.0000
# 2 5.8789 49.3139 6.7272 0.0000 3.6804 0.0001
# 3 9.0249 6.7272 73.2846 0.0000 5.3124 0.0000
# 4 0.0001 0.0000 0.0000 30.2258 0.0000 10.4193
# 5 -6.1403 3.6804 5.3124 0.0000 31.5565 0.0000
# 6 0.0000 0.0001 0.0000 10.4193 0.0000 24.1744
#
#
#
# Elastic Compliance Matrix: (Units=1/GPa)
#
#
# Indices 1 2 3 4 5 6 
#
# 1 0.008112 -0.000964 -0.001046 0.000000 0.001867 0.000000
# 2 -0.000964 0.020789 -0.001620 0.000000 -0.002339 0.000000
# 3 -0.001046 -0.001620 0.014096 0.000000 -0.002388 0.000000
# 4 0.000000 0.000000 0.000000 0.038857 0.000000 -0.016748
# 5 0.001867 -0.002339 -0.002388 0.000000 0.032727 0.000000
# 6 0.000000 0.000000 0.000000 -0.016748 0.000000 0.048584
#
#
# Mechanical properties :
#
#
# Convention : Reuss Voigt Hill
#
# Bulk Modulus (GPa) = 27.98162 32.48928 30.23545
# Shear Modulus (GPa) = 27.42156 32.35872 29.89014
#
# Velocity S-wave (km/s) = 3.41153 3.70595 3.56178
# Velocity P-wave (km/s) = 5.23396 5.66582 5.45417
#
# Compressibility (1/GPa) = 0.03573774
#
# Stress axis : x y z
#
# Youngs Moduli (GPa) = 123.26801 48.10298 70.94205
#
# Poissons Ratio (x) = 0.04636 0.07420
# Poissons Ratio (y) = 0.11880 0.11493
# Poissons Ratio (z) = 0.12893 0.07793
#
# Static dielectric constant tensor:
#      x y z
#    x 4.574380 0.000000 0.190700 
#    y 0.000000 3.734290 0.000000 
#    z 0.190700 0.000000 4.490060 
# 
# 
# High freq. dielectric constant tensor:
#      x y z
#    x 1.947220 0.000000 0.013050 
#    y 0.000000 1.902900 0.000000 
#    z 0.013050 0.000000 1.947000 
# 
# From -- ./inp_files/145872.got.cif
#   From: 2010.06.25/outbox.cif.g09.slc.cpg/sg15_73_cif.got.tgz:145872.got - 2010.06.28 07:06:18.
