data_PCOD8144434
_publ_section_title
;
Structure prediction by ZEFSAII (Michael W. Deem and Ramdas Pophale) SiO2 
 PCOD8144434
Probable space group: C 2/C
;
_chemical_formula_sum "Si O2"
_cell_formula_units_Z 32
_cell_length_a 12.070337
_cell_length_b 5.044489
_cell_length_c 18.353345
_cell_angle_alpha 90.000000
_cell_angle_beta 72.879248
_cell_angle_gamma 90.000000
_cell_volume 1067.990116
_symmetry_space_group_name_H-M "C 2/C"
_symmetry_group_IT_number 15
_symmetry_cell_setting 'monoclinic'
loop_
_space_group_symop_operation_xyz
x,y,z
-x,y,1/2-z
-x,-y,-z
x,-y,1/2+z
1/2+x,1/2+y,z
1/2-x,1/2+y,1/2-z
1/2-x,1/2-y,-z
1/2+x,1/2-y,1/2+z
loop_
_atom_site_type_symbol
_atom_site_label
_atom_site_fract_x
_atom_site_fract_y
_atom_site_fract_z
Si Si1 0.371873 0.516621 0.497503
Si Si2 0.321474 0.822533 0.135784
Si Si3 0.875561 0.174766 0.284537
Si Si4 0.921378 0.514550 0.405640
O O1 0.500000 0.500000 0.500000
O O2 0.296818 0.417994 0.582233
O O3 0.344866 0.813393 0.472238
O O4 0.371181 0.304774 0.431201
O O5 0.316903 0.706591 0.217627
O O6 0.442592 0.977502 0.098057
O O7 0.213914 0.018993 0.147405
O O8 0.906430 0.446731 0.322586
O O9 0.000000 0.023870 0.250000
#
# Coordination Sequence:
#
# PCOD8144434 Si02
#       4
#     8   8   8   8
#     4  10  21  42  72 102 137 181 232 291 352 415
#     4  10  22  41  68  99 142 187 228 291 356 410
#     4  10  24  43  66 105 144 189 240 289 351 428
#     4  10  23  44  70 104 138 178 237 292 347 421
#
# _framework density 29.962824999999999
#
# number of rings (size 3 to 8) (size 9 to 14) (size 15 to 20)
#    0.000    2.000    0.000    3.000    0.000   12.000 
#    0.000   12.500    0.000    0.000    0.000    0.000 
#    0.000    0.000    0.000    0.000    0.000    0.000 
#
# Total GULP energy -198342.969822 kJ/mol
# GULP energy per Si atom -12396.435614 kJ/mol
# Density = 2.989463 g / cm^3
# Si number density = 29.962825 Si / 1000 Ang^3
#
#
#
# Elastic Constant Matrix: (Units=GPa)
#
#
# Indices 1 2 3 4 5 6 
#
# 1 91.4482 4.4700 26.6963 0.0006 0.8716 0.0008
# 2 4.4700 109.5711 22.5191 0.0019 9.0129 0.0018
# 3 26.6963 22.5191 132.5094 0.0005 2.0983 0.0008
# 4 0.0006 0.0019 0.0005 45.2971 0.0005 -4.6508
# 5 0.8716 9.0129 2.0983 0.0005 76.9991 0.0007
# 6 0.0008 0.0018 0.0008 -4.6508 0.0007 31.7609
#
#
#
# Elastic Compliance Matrix: (Units=1/GPa)
#
#
# Indices 1 2 3 4 5 6 
#
# 1 0.011619 0.000013 -0.002342 0.000000 -0.000069 0.000000
# 2 0.000013 0.009545 -0.001608 0.000000 -0.001074 -0.000001
# 3 -0.002342 -0.001608 0.008292 0.000000 -0.000011 0.000000
# 4 0.000000 0.000000 0.000000 0.022413 0.000000 0.003282
# 5 -0.000069 -0.001074 -0.000011 0.000000 0.013114 0.000000
# 6 0.000000 -0.000001 0.000000 0.003282 0.000000 0.031966
#
#
# Mechanical properties :
#
#
# Convention : Reuss Voigt Hill
#
# Bulk Modulus (GPa) = 46.33451 48.98884 47.66168
# Shear Modulus (GPa) = 44.63652 49.46764 47.05208
#
# Velocity S-wave (km/s) = 3.86389 4.06762 3.96706
# Velocity P-wave (km/s) = 5.95011 6.20049 6.07659
#
# Compressibility (1/GPa) = 0.02158218
#
# Stress axis : x y z
#
# Youngs Moduli (GPa) = 86.06705 104.77037 120.60032
#
# Poissons Ratio (x) = -0.00136 0.28244
# Poissons Ratio (y) = -0.00112 0.19389
# Poissons Ratio (z) = 0.20156 0.16844
#
# Static dielectric constant tensor:
#      x y z
#    x 6.153040 0.000000 -0.212730 
#    y 0.000000 6.117710 0.000000 
#    z -0.212730 0.000000 6.306750 
# 
# 
# High freq. dielectric constant tensor:
#      x y z
#    x 2.283810 0.000000 0.001030 
#    y 0.000000 2.191090 0.000000 
#    z 0.001030 0.000000 2.238310 
# 
# From -- ./inp_files/241374.got.cif
#   From: 2010.06.25/outbox.cif.g09.slc.cpg/sg15_121_cif.got.tgz:241374.got - 2010.06.28 07:06:18.
