data_PCOD8144925
_publ_section_title
;
Structure prediction by ZEFSAII (Michael W. Deem and Ramdas Pophale) SiO2 
 PCOD8144925
Probable space group: C 2/C
;
_chemical_formula_sum "Si O2"
_cell_formula_units_Z 64
_cell_length_a 21.705595
_cell_length_b 18.284032
_cell_length_c 8.712064
_cell_angle_alpha 90.000000
_cell_angle_beta 84.069990
_cell_angle_gamma 90.000000
_cell_volume 3439.018452
_symmetry_space_group_name_H-M "C 2/C"
_symmetry_group_IT_number 15
_symmetry_cell_setting 'monoclinic'
loop_
_space_group_symop_operation_xyz
x,y,z
-x,y,1/2-z
-x,-y,-z
x,-y,1/2+z
1/2+x,1/2+y,z
1/2-x,1/2+y,1/2-z
1/2-x,1/2-y,-z
1/2+x,1/2-y,1/2+z
loop_
_atom_site_type_symbol
_atom_site_label
_atom_site_fract_x
_atom_site_fract_y
_atom_site_fract_z
Si Si1 0.697259 0.811103 0.671907
Si Si2 0.568570 0.422735 0.189622
Si Si3 0.181567 0.270099 0.333166
Si Si4 0.754963 0.049735 0.067309
Si Si5 0.113373 0.056597 0.344996
Si Si6 0.244086 0.098628 0.778034
Si Si7 0.373811 0.697871 0.647637
Si Si8 0.070894 0.194748 0.196598
O O1 0.763630 0.786182 0.722972
O O2 0.680676 0.771893 0.516910
O O3 0.698994 0.899018 0.646603
O O4 0.644783 0.781167 0.801416
O O5 0.500000 0.445447 0.250000
O O6 0.613734 0.474884 0.277252
O O7 0.583604 0.339083 0.231734
O O8 0.573704 0.435949 0.008697
O O9 0.196165 0.349099 0.254054
O O10 0.115172 0.244473 0.290033
O O11 0.815936 0.076704 0.140170
O O12 0.739992 0.964717 0.102844
O O13 0.768773 0.061879 0.884281
O O14 0.083166 0.109826 0.227872
O O15 0.187097 0.147162 0.854573
O O16 0.413983 0.706027 0.484962
O O17 0.000000 0.216514 0.250000
#
# Coordination Sequence:
#
# PCOD8144925 Si02
#       8
#     8   8   8   8   8   8   8   8
#     4   9  19  36  60  78 108 143 181 228 284 326
#     4  12  23  36  51  72 108 154 197 225 259 314
#     4   9  19  38  56  80 108 144 182 227 277 328
#     4  11  19  35  56  84 111 145 171 224 283 325
#     4  12  21  36  51  75 109 153 186 229 261 321
#     4  10  22  34  57  82 110 140 182 224 279 330
#     4  11  22  36  52  82 106 146 191 226 273 320
#     4  12  25  38  54  79 113 151 189 228 273 322
#
# _framework density 18.609960999999998
#
# number of rings (size 3 to 8) (size 9 to 14) (size 15 to 20)
#    0.000    1.250    3.750    3.750    1.750    3.000 
#    0.000    0.000    0.000    0.000    0.000    8.750 
#    0.000    0.000    0.000    0.000    0.000    0.000 
#
# Total GULP energy -396739.837802 kJ/mol
# GULP energy per Si atom -12398.119931 kJ/mol
# Density = 1.856760 g / cm^3
# Si number density = 18.609961 Si / 1000 Ang^3
#
#
#
# Elastic Constant Matrix: (Units=GPa)
#
#
# Indices 1 2 3 4 5 6 
#
# 1 76.1641 27.0469 28.3410 0.0000 -8.4418 0.0000
# 2 27.0469 66.2508 15.2820 0.0000 -13.3805 0.0000
# 3 28.3410 15.2820 67.9537 0.0000 -24.6117 0.0000
# 4 0.0000 0.0000 0.0000 28.4793 0.0000 -2.5221
# 5 -8.4418 -13.3805 -24.6117 0.0000 30.0480 0.0000
# 6 0.0000 0.0000 0.0000 -2.5221 0.0000 17.4356
#
#
#
# Elastic Compliance Matrix: (Units=1/GPa)
#
#
# Indices 1 2 3 4 5 6 
#
# 1 0.017675 -0.006300 -0.007354 0.000000 -0.003863 0.000000
# 2 -0.006300 0.018939 0.001111 0.000000 0.007574 0.000000
# 3 -0.007354 0.001111 0.024119 0.000000 0.018184 0.000000
# 4 0.000000 0.000000 0.000000 0.035569 0.000000 0.005145
# 5 -0.003863 0.007574 0.018184 0.000000 0.050462 0.000000
# 6 0.000000 0.000000 0.000000 0.005145 0.000000 0.058098
#
#
# Mechanical properties :
#
#
# Convention : Reuss Voigt Hill
#
# Bulk Modulus (GPa) = 28.05145 39.07871 33.56508
# Shear Modulus (GPa) = 20.67571 24.50583 22.59077
#
# Velocity S-wave (km/s) = 3.33679 3.63273 3.48790
# Velocity P-wave (km/s) = 5.47281 6.21611 5.85626
#
# Compressibility (1/GPa) = 0.03564879
#
# Stress axis : x y z
#
# Youngs Moduli (GPa) = 56.57747 52.80007 41.46106
#
# Poissons Ratio (x) = 0.33262 0.30490
# Poissons Ratio (y) = 0.35642 -0.04608
# Poissons Ratio (z) = 0.41607 -0.05868
#
# Static dielectric constant tensor:
#      x y z
#    x 3.215890 0.000000 -0.053680 
#    y 0.000000 3.463050 0.000000 
#    z -0.053680 0.000000 3.414330 
# 
# 
# High freq. dielectric constant tensor:
#      x y z
#    x 1.691160 0.000000 -0.004540 
#    y 0.000000 1.711860 0.000000 
#    z -0.004540 0.000000 1.729490 
# 
# From -- ./inp_files/56615.got.cif
#   From: 2010.06.25/outbox.cif.g09.slc.cpg/sg15_29_cif.got.tgz:56615.got - 2010.06.28 07:06:18.
