data_PCOD8144044
_publ_section_title
;
Structure prediction by ZEFSAII (Michael W. Deem and Ramdas Pophale) SiO2 
 PCOD8144044
Probable space group: C 2/C
;
_chemical_formula_sum "Si O2"
_cell_formula_units_Z 36
_cell_length_a 16.654164
_cell_length_b 8.270088
_cell_length_c 22.336568
_cell_angle_alpha 90.000000
_cell_angle_beta 35.883860
_cell_angle_gamma 90.000000
_cell_volume 1803.241302
_symmetry_space_group_name_H-M "C 2/C"
_symmetry_group_IT_number 15
_symmetry_cell_setting 'monoclinic'
loop_
_space_group_symop_operation_xyz
x,y,z
-x,y,1/2-z
-x,-y,-z
x,-y,1/2+z
1/2+x,1/2+y,z
1/2-x,1/2+y,1/2-z
1/2-x,1/2-y,-z
1/2+x,1/2-y,1/2+z
loop_
_atom_site_type_symbol
_atom_site_label
_atom_site_fract_x
_atom_site_fract_y
_atom_site_fract_z
Si Si1 0.500000 0.944229 0.250000
Si Si2 0.816205 0.767016 0.777526
Si Si3 0.143606 0.501475 0.944352
Si Si4 0.889380 0.343988 0.912790
Si Si5 0.845631 0.118419 0.733706
O O1 0.608208 0.058774 0.150792
O O2 0.569431 0.840165 0.260020
O O3 0.711401 0.824980 0.892978
O O4 0.735574 0.663544 0.777204
O O5 0.884905 0.926948 0.705336
O O6 0.243592 0.637287 0.853025
O O7 0.114751 0.528791 0.030968
O O8 0.000000 0.500000 0.000000
O O9 0.019782 0.225567 0.839156
O O10 0.750000 0.250000 0.000000
#
# Coordination Sequence:
#
# PCOD8144044 Si02
#       5
#     4   8   8   8   8
#     4  12  26  44  68  98 140 170 224 280 336 390
#     4  10  23  42  70  96 134 175 219 280 329 398
#     4  10  21  41  70  94 133 170 230 264 335 400
#     4  12  25  44  67  98 135 181 221 279 336 402
#     4  10  22  44  67  94 136 176 220 278 334 392
#
# _framework density 19.96405
#
# number of rings (size 3 to 8) (size 9 to 14) (size 15 to 20)
#    1.333    0.000    2.222    4.000    3.111    0.889 
#    4.000    2.222    0.000    0.000    0.000    0.000 
#    0.000    0.000    0.000    0.000    0.000    0.000 
#
# Total GULP energy -223037.777128 kJ/mol
# GULP energy per Si atom -12390.987618 kJ/mol
# Density = 1.991861 g / cm^3
# Si number density = 19.964050 Si / 1000 Ang^3
#
#
#
# Elastic Constant Matrix: (Units=GPa)
#
#
# Indices 1 2 3 4 5 6 
#
# 1 96.4709 51.7946 33.6526 0.0000 3.8581 0.0000
# 2 51.7946 111.1322 43.6895 0.0000 8.9486 -0.0001
# 3 33.6526 43.6895 122.1159 0.0000 7.0582 0.0000
# 4 0.0000 0.0000 0.0000 34.7335 0.0000 13.1981
# 5 3.8581 8.9486 7.0582 0.0000 39.5927 0.0000
# 6 0.0000 -0.0001 0.0000 13.1981 0.0000 35.6225
#
#
#
# Elastic Compliance Matrix: (Units=1/GPa)
#
#
# Indices 1 2 3 4 5 6 
#
# 1 0.014158 -0.005912 -0.001802 0.000000 0.000278 0.000000
# 2 -0.005912 0.013057 -0.002935 0.000000 -0.001852 0.000000
# 3 -0.001802 -0.002935 0.009788 0.000000 -0.000906 0.000000
# 4 0.000000 0.000000 0.000000 0.033508 0.000000 -0.012415
# 5 0.000278 -0.001852 -0.000906 0.000000 0.025810 0.000000
# 6 0.000000 0.000000 0.000000 -0.012415 0.000000 0.032672
#
#
# Mechanical properties :
#
#
# Convention : Reuss Voigt Hill
#
# Bulk Modulus (GPa) = 63.68113 65.33248 64.50681
# Shear Modulus (GPa) = 32.14901 35.36190 33.75545
#
# Velocity S-wave (km/s) = 4.01726 4.21322 4.11641
# Velocity P-wave (km/s) = 7.31335 7.51428 7.41449
#
# Compressibility (1/GPa) = 0.01570324
#
# Stress axis : x y z
#
# Youngs Moduli (GPa) = 70.63319 76.58921 102.16520
#
# Poissons Ratio (x) = 0.45281 0.18414
# Poissons Ratio (y) = 0.41759 0.29986
# Poissons Ratio (z) = 0.12731 0.22479
#
# Static dielectric constant tensor:
#      x y z
#    x 3.266530 0.000010 0.009710 
#    y 0.000010 2.995790 0.000000 
#    z 0.009710 0.000000 3.700450 
# 
# 
# High freq. dielectric constant tensor:
#      x y z
#    x 1.786270 0.000000 0.002060 
#    y 0.000000 1.775410 0.000000 
#    z 0.002060 0.000000 1.781360 
# 
# From -- ./inp_files/242743.got.cif
#   From: 2010.06.25/outbox.cif.g09.slc.cpg/sg15_122_cif.got.tgz:242743.got - 2010.06.28 07:06:18.
