data_PCOD8144239
_publ_section_title
;
Structure prediction by ZEFSAII (Michael W. Deem and Ramdas Pophale) SiO2 
 PCOD8144239
Probable space group: C 2/C
;
_chemical_formula_sum "Si O2"
_cell_formula_units_Z 48
_cell_length_a 7.421585
_cell_length_b 14.230979
_cell_length_c 19.435488
_cell_angle_alpha 90.000000
_cell_angle_beta 93.423574
_cell_angle_gamma 90.000000
_cell_volume 2049.043290
_symmetry_space_group_name_H-M "C 2/C"
_symmetry_group_IT_number 15
_symmetry_cell_setting 'monoclinic'
loop_
_space_group_symop_operation_xyz
x,y,z
-x,y,1/2-z
-x,-y,-z
x,-y,1/2+z
1/2+x,1/2+y,z
1/2-x,1/2+y,1/2-z
1/2-x,1/2-y,-z
1/2+x,1/2-y,1/2+z
loop_
_atom_site_type_symbol
_atom_site_label
_atom_site_fract_x
_atom_site_fract_y
_atom_site_fract_z
Si Si1 0.316782 0.333103 0.710362
Si Si2 0.185627 0.089258 0.910429
Si Si3 0.176276 0.157336 0.646994
Si Si4 0.200644 0.472771 0.238785
Si Si5 0.670262 0.615177 0.441390
Si Si6 0.966558 0.693598 0.536237
O O1 0.500000 0.296156 0.750000
O O2 0.177574 0.247753 0.697198
O O3 0.221319 0.415587 0.751072
O O4 0.367551 0.379001 0.639540
O O5 0.332605 0.154520 0.951521
O O6 0.003863 0.150605 0.902641
O O7 0.251552 0.062844 0.835880
O O8 0.148064 0.996204 0.957305
O O9 0.347047 0.163109 0.599794
O O10 0.174205 0.069046 0.698270
O O11 0.000000 0.439225 0.250000
O O12 0.873775 0.647669 0.466562
O O13 0.532242 0.691654 0.472620
#
# Coordination Sequence:
#
# PCOD8144239 Si02
#       6
#     8   8   8   8   8   8
#     4  10  22  41  63  87 127 161 206 270 310 377
#     4  11  22  40  63  91 129 167 208 268 312 382
#     4  11  23  40  63  96 122 167 215 250 326 383
#     4  11  21  39  60  91 123 160 211 258 319 379
#     4   9  21  41  64  94 125 169 215 261 320 374
#     4  10  21  42  66  88 132 170 209 267 314 385
#
# _framework density 23.425566
#
# number of rings (size 3 to 8) (size 9 to 14) (size 15 to 20)
#    0.000    1.667    1.667    3.500    2.333    2.000 
#    3.000    7.500    0.000    0.000    0.000    0.000 
#    0.000    0.000    0.000    0.000    0.000    0.000 
#
# Total GULP energy -297449.723677 kJ/mol
# GULP energy per Si atom -12393.738487 kJ/mol
# Density = 2.337225 g / cm^3
# Si number density = 23.425566 Si / 1000 Ang^3
#
#
#
# Elastic Constant Matrix: (Units=GPa)
#
#
# Indices 1 2 3 4 5 6 
#
# 1 90.8229 49.6688 22.7901 0.0000 34.7966 0.0000
# 2 49.6688 155.5577 26.0481 0.0000 33.0103 0.0000
# 3 22.7901 26.0481 80.7849 0.0000 26.7086 0.0000
# 4 0.0000 0.0000 0.0000 36.9183 0.0000 14.9377
# 5 34.7966 33.0103 26.7086 0.0000 50.4447 0.0000
# 6 0.0000 0.0000 0.0000 14.9377 0.0000 21.5204
#
#
#
# Elastic Compliance Matrix: (Units=1/GPa)
#
#
# Indices 1 2 3 4 5 6 
#
# 1 0.016310 -0.003233 -0.000653 0.000000 -0.008789 0.000000
# 2 -0.003233 0.008168 -0.000839 0.000000 -0.002671 0.000000
# 3 -0.000653 -0.000839 0.015156 0.000000 -0.007025 0.000000
# 4 0.000000 0.000000 0.000000 0.037665 0.000000 -0.026144
# 5 -0.008789 -0.002671 -0.007025 0.000000 0.031354 0.000000
# 6 0.000000 0.000000 0.000000 -0.026144 0.000000 0.064614
#
#
# Mechanical properties :
#
#
# Convention : Reuss Voigt Hill
#
# Bulk Modulus (GPa) = 33.12990 58.24216 45.68603
# Shear Modulus (GPa) = 25.93670 37.02060 31.47865
#
# Velocity S-wave (km/s) = 3.33107 3.97967 3.66973
# Velocity P-wave (km/s) = 5.38219 6.78481 6.12379
#
# Compressibility (1/GPa) = 0.03018422
#
# Stress axis : x y z
#
# Youngs Moduli (GPa) = 61.31327 122.42884 65.98143
#
# Poissons Ratio (x) = 0.39584 0.04308
# Poissons Ratio (y) = 0.19824 0.05533
# Poissons Ratio (z) = 0.04003 0.10266
#
# Static dielectric constant tensor:
#      x y z
#    x 3.831870 0.000000 0.201670 
#    y 0.000000 4.600770 0.000000 
#    z 0.201670 0.000000 4.298780 
# 
# 
# High freq. dielectric constant tensor:
#      x y z
#    x 1.898260 0.000000 0.017410 
#    y 0.000000 1.940280 0.000000 
#    z 0.017410 0.000000 1.938230 
# 
# From -- ./inp_files/231353.got.cif
#   From: 2010.06.25/outbox.cif.g09.slc.cpg/sg15_116_cif.got.tgz:231353.got - 2010.06.28 07:06:18.
