data_PCOD8144014
_publ_section_title
;
Structure prediction by ZEFSAII (Michael W. Deem and Ramdas Pophale) SiO2 
 PCOD8144014
Probable space group: C 2/C
;
_chemical_formula_sum "Si O2"
_cell_formula_units_Z 48
_cell_length_a 9.668014
_cell_length_b 18.346555
_cell_length_c 14.396046
_cell_angle_alpha 90.000000
_cell_angle_beta 112.554508
_cell_angle_gamma 90.000000
_cell_volume 2358.191128
_symmetry_space_group_name_H-M "C 2/C"
_symmetry_group_IT_number 15
_symmetry_cell_setting 'monoclinic'
loop_
_space_group_symop_operation_xyz
x,y,z
-x,y,1/2-z
-x,-y,-z
x,-y,1/2+z
1/2+x,1/2+y,z
1/2-x,1/2+y,1/2-z
1/2-x,1/2-y,-z
1/2+x,1/2-y,1/2+z
loop_
_atom_site_type_symbol
_atom_site_label
_atom_site_fract_x
_atom_site_fract_y
_atom_site_fract_z
Si Si1 0.194810 0.924031 0.559246
Si Si2 0.671239 0.820738 0.261427
Si Si3 0.851878 0.092035 0.956157
Si Si4 0.642210 0.073952 0.588227
Si Si5 0.340079 0.178859 0.248393
Si Si6 0.166934 0.586324 0.076093
O O1 0.289173 0.903518 0.492868
O O2 0.263457 0.881039 0.663336
O O3 0.028347 0.897930 0.492792
O O4 0.200416 0.010108 0.584331
O O5 0.500000 0.814502 0.250000
O O6 0.773546 0.847503 0.372377
O O7 0.698706 0.876124 0.185023
O O8 0.725790 0.744405 0.234192
O O9 0.812877 0.108386 0.054120
O O10 0.463632 0.080457 0.534527
O O11 0.690633 0.992396 0.629489
O O12 0.500000 0.205665 0.250000
O O13 0.371442 0.144849 0.356746
#
# Coordination Sequence:
#
# PCOD8144014 Si02
#       6
#     8   8   8   8   8   8
#     4  10  23  43  68  96 124 160 210 264 311 362
#     4  12  27  42  62  93 130 170 207 252 313 378
#     4  10  23  43  68  96 124 160 210 264 311 362
#     4  10  21  41  69  94 119 161 214 262 308 363
#     4  12  27  42  62  93 130 170 207 252 313 378
#     4  10  21  41  69  94 119 161 214 262 308 363
#
# _framework density 20.354583000000002
#
# number of rings (size 3 to 8) (size 9 to 14) (size 15 to 20)
#    0.000    1.333    3.333    1.000    4.667    4.000 
#    0.000    5.000    0.000    0.000    0.000    0.000 
#    0.000    0.000    0.000    0.000    0.000    0.000 
#
# Total GULP energy -297661.639499 kJ/mol
# GULP energy per Si atom -12402.568312 kJ/mol
# Density = 2.030826 g / cm^3
# Si number density = 20.354583 Si / 1000 Ang^3
#
#
#
# Elastic Constant Matrix: (Units=GPa)
#
#
# Indices 1 2 3 4 5 6 
#
# 1 96.6128 31.2903 14.1265 0.0000 5.9130 0.0000
# 2 31.2903 60.3267 27.7505 0.0000 -9.2572 0.0000
# 3 14.1265 27.7505 57.3293 0.0000 -0.9053 0.0000
# 4 0.0000 0.0000 0.0000 13.8347 0.0000 1.0897
# 5 5.9130 -9.2572 -0.9053 0.0000 26.2656 0.0000
# 6 0.0000 0.0000 0.0000 1.0897 0.0000 29.2603
#
#
#
# Elastic Compliance Matrix: (Units=1/GPa)
#
#
# Indices 1 2 3 4 5 6 
#
# 1 0.013211 -0.007973 0.000513 0.000000 -0.005766 0.000000
# 2 -0.007973 0.027575 -0.011207 0.000000 0.011127 0.000000
# 3 0.000513 -0.011207 0.022690 0.000000 -0.003283 0.000000
# 4 0.000000 0.000000 0.000000 0.072495 0.000000 -0.002700
# 5 -0.005766 0.011127 -0.003283 0.000000 0.043179 0.000000
# 6 0.000000 0.000000 0.000000 -0.002700 0.000000 0.034277
#
#
# Mechanical properties :
#
#
# Convention : Reuss Voigt Hill
#
# Bulk Modulus (GPa) = 38.25459 40.06706 39.16083
# Shear Modulus (GPa) = 19.26976 23.27889 21.27432
#
# Velocity S-wave (km/s) = 3.08019 3.38549 3.23644
# Velocity P-wave (km/s) = 5.61115 5.91686 5.76603
#
# Compressibility (1/GPa) = 0.02614065
#
# Stress axis : x y z
#
# Youngs Moduli (GPa) = 75.69594 36.26501 44.07271
#
# Poissons Ratio (x) = 0.28914 -0.02261
# Poissons Ratio (y) = 0.60353 0.49394
# Poissons Ratio (z) = -0.03884 0.40644
#
# Static dielectric constant tensor:
#      x y z
#    x 3.878620 0.000000 -0.096420 
#    y 0.000000 3.902020 0.000000 
#    z -0.096420 0.000000 3.486140 
# 
# 
# High freq. dielectric constant tensor:
#      x y z
#    x 1.814970 0.000000 -0.009530 
#    y 0.000000 1.789700 0.000000 
#    z -0.009530 0.000000 1.791070 
# 
# From -- ./inp_files/70550.got.cif
#   From: 2010.06.25/outbox.cif.g09.slc.cpg/sg15_36_cif.got.tgz:70550.got - 2010.06.28 07:06:18.
