data_PCOD8144591
_publ_section_title
;
Structure prediction by ZEFSAII (Michael W. Deem and Ramdas Pophale) SiO2 
 PCOD8144591
Probable space group: C 2/C
;
_chemical_formula_sum "Si O2"
_cell_formula_units_Z 64
_cell_length_a 11.318613
_cell_length_b 9.425661
_cell_length_c 29.281245
_cell_angle_alpha 90.000000
_cell_angle_beta 95.238764
_cell_angle_gamma 90.000000
_cell_volume 3110.832688
_symmetry_space_group_name_H-M "C 2/C"
_symmetry_group_IT_number 15
_symmetry_cell_setting 'monoclinic'
loop_
_space_group_symop_operation_xyz
x,y,z
-x,y,1/2-z
-x,-y,-z
x,-y,1/2+z
1/2+x,1/2+y,z
1/2-x,1/2+y,1/2-z
1/2-x,1/2-y,-z
1/2+x,1/2-y,1/2+z
loop_
_atom_site_type_symbol
_atom_site_label
_atom_site_fract_x
_atom_site_fract_y
_atom_site_fract_z
Si Si1 0.107073 0.850104 0.130189
Si Si2 0.614105 0.233232 0.224387
Si Si3 0.888366 0.505215 0.028764
Si Si4 0.002796 0.887760 0.673882
Si Si5 0.671851 0.541713 0.255827
Si Si6 0.032329 0.197152 0.962709
Si Si7 0.362771 0.191748 0.607187
Si Si8 0.346385 0.598336 0.027520
O O1 0.077128 0.742866 0.170216
O O2 0.052975 0.781512 0.083251
O O3 0.248824 0.867231 0.130042
O O4 0.050061 0.004444 0.137028
O O5 0.500000 0.205075 0.250000
O O6 0.678723 0.379989 0.239586
O O7 0.696494 0.098654 0.234957
O O8 0.918141 0.434962 0.078786
O O9 0.871083 0.675009 0.033127
O O10 0.774592 0.419114 0.005722
O O11 0.000000 0.500000 0.000000
O O12 0.104530 0.861347 0.715465
O O13 0.891574 0.954919 0.697179
O O14 0.962235 0.743448 0.647130
O O15 0.946001 0.189567 0.003912
O O16 0.108348 0.057149 0.960081
O O17 0.321964 0.324417 0.574351
#
# Coordination Sequence:
#
# PCOD8144591 Si02
#       8
#     8   8   8   8   8   8   8   8
#     4  11  21  41  68  93 128 170 217 263 322 385
#     4  11  22  44  68  97 130 172 207 263 325 390
#     4  12  24  41  61  96 129 167 220 273 321 384
#     4  10  21  43  68  95 128 174 212 265 328 388
#     4  10  21  44  71  93 134 168 211 267 328 386
#     4  11  23  42  65  92 129 168 219 268 325 383
#     4  12  22  41  69  93 131 173 221 270 324 386
#     4  11  23  42  68  87 127 178 210 267 332 383
#
# _framework density 20.573270999999998
#
# number of rings (size 3 to 8) (size 9 to 14) (size 15 to 20)
#    0.000    1.000    7.500    1.500    0.000    0.000 
#   11.250    0.000    0.000    0.000    0.000    0.000 
#    0.000    0.000    0.000    0.000    0.000    0.000 
#
# Total GULP energy -396793.830488 kJ/mol
# GULP energy per Si atom -12399.807203 kJ/mol
# Density = 2.052645 g / cm^3
# Si number density = 20.573271 Si / 1000 Ang^3
#
#
#
# Elastic Constant Matrix: (Units=GPa)
#
#
# Indices 1 2 3 4 5 6 
#
# 1 74.1862 21.6601 13.4767 0.0000 -15.1081 0.0000
# 2 21.6601 67.7673 15.2960 0.0000 -8.0275 0.0000
# 3 13.4767 15.2960 77.7654 0.0000 -18.3673 0.0000
# 4 0.0000 0.0000 0.0000 21.1830 0.0000 -0.2778
# 5 -15.1081 -8.0275 -18.3673 0.0000 31.5553 0.0000
# 6 0.0000 0.0000 0.0000 -0.2778 0.0000 41.0386
#
#
#
# Elastic Compliance Matrix: (Units=1/GPa)
#
#
# Indices 1 2 3 4 5 6 
#
# 1 0.016110 -0.004295 -0.000444 0.000000 0.006362 0.000000
# 2 -0.004295 0.016760 -0.002355 0.000000 0.000837 0.000000
# 3 -0.000444 -0.002355 0.015313 0.000000 0.008101 0.000000
# 4 0.000000 0.000000 0.000000 0.047212 0.000000 0.000320
# 5 0.006362 0.000837 0.008101 0.000000 0.039665 0.000000
# 6 0.000000 0.000000 0.000000 0.000320 0.000000 0.024369
#
#
# Mechanical properties :
#
#
# Convention : Reuss Voigt Hill
#
# Bulk Modulus (GPa) = 29.41690 35.62050 32.51870
# Shear Modulus (GPa) = 27.03455 30.04111 28.53783
#
# Velocity S-wave (km/s) = 3.62893 3.82540 3.72846
# Velocity P-wave (km/s) = 5.64699 6.07150 5.86309
#
# Compressibility (1/GPa) = 0.03399407
#
# Stress axis : x y z
#
# Youngs Moduli (GPa) = 62.07327 59.66654 65.30489
#
# Poissons Ratio (x) = 0.25628 0.02902
# Poissons Ratio (y) = 0.26662 0.15377
# Poissons Ratio (z) = 0.02759 0.14049
#
# Static dielectric constant tensor:
#      x y z
#    x 3.702230 0.000000 0.003790 
#    y 0.000000 3.882080 0.000000 
#    z 0.003790 0.000000 3.964270 
# 
# 
# High freq. dielectric constant tensor:
#      x y z
#    x 1.796820 0.000000 -0.008180 
#    y 0.000000 1.798550 0.000000 
#    z -0.008180 0.000000 1.814810 
# 
# From -- ./inp_files/310303.got.cif
#   From: 2010.06.25/outbox.cif.g09.slc.cpg/sg15_156_cif.got.tgz:310303.got - 2010.06.28 07:06:18.
