data_PCOD8144739
_publ_section_title
;
Structure prediction by ZEFSAII (Michael W. Deem and Ramdas Pophale) SiO2 
 PCOD8144739
Probable space group: C 2/C
;
_chemical_formula_sum "Si O2"
_cell_formula_units_Z 60
_cell_length_a 25.889943
_cell_length_b 8.499424
_cell_length_c 30.312092
_cell_angle_alpha 90.000000
_cell_angle_beta 156.499731
_cell_angle_gamma 90.000000
_cell_volume 2659.750326
_symmetry_space_group_name_H-M "C 2/C"
_symmetry_group_IT_number 15
_symmetry_cell_setting 'monoclinic'
loop_
_space_group_symop_operation_xyz
x,y,z
-x,y,1/2-z
-x,-y,-z
x,-y,1/2+z
1/2+x,1/2+y,z
1/2-x,1/2+y,1/2-z
1/2-x,1/2-y,-z
1/2+x,1/2-y,1/2+z
loop_
_atom_site_type_symbol
_atom_site_label
_atom_site_fract_x
_atom_site_fract_y
_atom_site_fract_z
Si Si1 0.709989 0.520873 0.230739
Si Si2 0.500000 0.079769 0.250000
Si Si3 0.928880 0.082604 0.525322
Si Si4 0.864099 0.340683 0.288885
Si Si5 0.798198 0.358063 0.138760
Si Si6 0.984247 0.704918 0.146957
Si Si7 0.858764 0.569407 0.494498
Si Si8 0.265263 0.824045 0.354767
O O1 0.560549 0.481510 0.109200
O O2 0.786887 0.499667 0.244516
O O3 0.720355 0.696942 0.257385
O O4 0.774901 0.390695 0.313337
O O5 0.384215 0.965337 0.174277
O O6 0.452012 0.199201 0.173902
O O7 0.932388 0.145020 0.579181
O O8 0.892774 0.222878 0.463959
O O9 0.829615 0.943591 0.445557
O O10 0.874112 0.320749 0.243734
O O11 0.011309 0.346717 0.423299
O O12 0.745774 0.202209 0.071759
O O13 0.918400 0.543742 0.078660
O O14 0.140501 0.711765 0.265440
O O15 0.770881 0.473356 0.391459
#
# Coordination Sequence:
#
# PCOD8144739 Si02
#       8
#     8   4   8   8   8   8   8   8
#     4  11  26  40  68 100 138 183 226 285 347 413
#     4  12  24  44  74 100 138 178 228 292 346 402
#     4  10  22  43  69  95 137 180 225 280 350 410
#     4  12  26  43  64 105 141 178 234 287 341 416
#     4  12  25  46  68  99 142 183 228 293 342 405
#     4  10  23  43  69 101 132 174 230 286 333 410
#     4  11  23  45  71  95 140 186 221 286 345 409
#     4  10  21  44  68  95 134 180 228 277 341 411
#
# _framework density 22.558508
#
# number of rings (size 3 to 8) (size 9 to 14) (size 15 to 20)
#    0.000    1.067    5.333    0.000    7.467    3.200 
#    0.000    0.667    0.000    0.000    0.000    0.000 
#    0.000    0.000    0.000    0.000    0.000    0.000 
#
# Total GULP energy -371727.506417 kJ/mol
# GULP energy per Si atom -12390.916881 kJ/mol
# Density = 2.250716 g / cm^3
# Si number density = 22.558508 Si / 1000 Ang^3
#
#
#
# Elastic Constant Matrix: (Units=GPa)
#
#
# Indices 1 2 3 4 5 6 
#
# 1 73.8643 5.5085 19.7098 -0.0025 -7.7084 0.0034
# 2 5.5085 34.8515 9.6957 -0.0027 -0.9267 0.0020
# 3 19.7098 9.6957 92.0918 0.0080 -2.9015 -0.0017
# 4 -0.0025 -0.0027 0.0080 34.7505 0.0008 8.7858
# 5 -7.7084 -0.9267 -2.9015 0.0008 24.1980 0.0010
# 6 0.0034 0.0020 -0.0017 8.7858 0.0010 27.9114
#
#
#
# Elastic Compliance Matrix: (Units=1/GPa)
#
#
# Indices 1 2 3 4 5 6 
#
# 1 0.014870 -0.001430 -0.002895 0.000002 0.004335 -0.000003
# 2 -0.001430 0.029710 -0.002811 0.000004 0.000345 -0.000003
# 3 -0.002895 -0.002811 0.011786 -0.000004 0.000383 0.000002
# 4 0.000002 0.000004 -0.000004 0.031265 0.000000 -0.009841
# 5 0.004335 0.000345 0.000383 0.000000 0.042766 -0.000002
# 6 -0.000003 -0.000003 0.000002 -0.009841 -0.000002 0.038925
#
#
# Mechanical properties :
#
#
# Convention : Reuss Voigt Hill
#
# Bulk Modulus (GPa) = 23.75607 30.07064 26.91335
# Shear Modulus (GPa) = 25.30026 28.43155 26.86591
#
# Velocity S-wave (km/s) = 3.35257 3.55399 3.45475
# Velocity P-wave (km/s) = 5.05372 5.49546 5.27921
#
# Compressibility (1/GPa) = 0.04209451
#
# Stress axis : x y z
#
# Youngs Moduli (GPa) = 67.24965 33.65831 84.84307
#
# Poissons Ratio (x) = 0.04812 0.24566
# Poissons Ratio (y) = 0.09613 0.23851
# Poissons Ratio (z) = 0.19472 0.09462
#
# Static dielectric constant tensor:
#      x y z
#    x 3.707180 0.000000 -0.127520 
#    y 0.000000 4.362400 0.000000 
#    z -0.127520 0.000000 4.381030 
# 
# 
# High freq. dielectric constant tensor:
#      x y z
#    x 1.852590 0.000000 -0.006620 
#    y 0.000000 1.905000 0.000000 
#    z -0.006620 0.000000 1.904600 
# 
# From -- ./inp_files/302046.got.cif
#   From: 2010.06.25/outbox.cif.g09.slc.cpg/sg15_152_cif.got.tgz:302046.got - 2010.06.28 07:06:18.
