data_PCOD8144364
_publ_section_title
;
Structure prediction by ZEFSAII (Michael W. Deem and Ramdas Pophale) SiO2 
 PCOD8144364
Probable space group: C 2/C
;
_chemical_formula_sum "Si O2"
_cell_formula_units_Z 56
_cell_length_a 15.021643
_cell_length_b 7.605700
_cell_length_c 26.451115
_cell_angle_alpha 90.000000
_cell_angle_beta 123.568629
_cell_angle_gamma 90.000000
_cell_volume 2518.038933
_symmetry_space_group_name_H-M "C 2/C"
_symmetry_group_IT_number 15
_symmetry_cell_setting 'monoclinic'
loop_
_space_group_symop_operation_xyz
x,y,z
-x,y,1/2-z
-x,-y,-z
x,-y,1/2+z
1/2+x,1/2+y,z
1/2-x,1/2+y,1/2-z
1/2-x,1/2-y,-z
1/2+x,1/2-y,1/2+z
loop_
_atom_site_type_symbol
_atom_site_label
_atom_site_fract_x
_atom_site_fract_y
_atom_site_fract_z
Si Si1 0.932648 0.123534 0.627994
Si Si2 0.042299 0.504170 0.319633
Si Si3 0.796004 0.489811 0.914871
Si Si4 0.345047 0.429149 0.316373
Si Si5 0.853857 0.213282 0.501213
Si Si6 0.780644 0.912448 0.405352
Si Si7 0.657761 0.017614 0.182632
O O1 0.933634 0.289269 0.665881
O O2 0.943719 0.184717 0.571996
O O3 0.039103 0.002307 0.667733
O O4 0.827264 0.012918 0.607216
O O5 0.151735 0.402195 0.366611
O O6 0.000000 0.468106 0.250000
O O7 0.950899 0.432471 0.329314
O O8 0.874245 0.612935 0.973328
O O9 0.825431 0.284178 0.929742
O O10 0.814058 0.557675 0.863499
O O11 0.313577 0.497096 0.361949
O O12 0.359329 0.222605 0.324513
O O13 0.256735 0.482223 0.249417
O O14 0.750000 0.250000 0.500000
O O15 0.835499 0.036423 0.463686
#
# Coordination Sequence:
#
# PCOD8144364 Si02
#       7
#     8   8   8   8   8   8   8
#     4  10  23  41  65  94 123 169 216 251 318 379
#     4  11  21  40  64  91 125 172 201 264 321 370
#     4  10  23  41  64  95 125 166 209 261 307 380
#     4  10  23  39  61  94 129 162 210 264 311 378
#     4  10  21  42  69  89 128 168 212 258 316 369
#     4  11  22  42  65  93 132 160 212 260 315 367
#     4  10  23  37  61  92 129 162 210 257 320 369
#
# _framework density 22.239529000000001
#
# number of rings (size 3 to 8) (size 9 to 14) (size 15 to 20)
#    0.000    1.714    4.286    0.000    6.000    4.000 
#    0.000    6.429    0.000    0.000    0.000    0.000 
#    0.000    0.000    0.000    0.000    0.000    0.000 
#
# Total GULP energy -347031.681785 kJ/mol
# GULP energy per Si atom -12393.988635 kJ/mol
# Density = 2.218891 g / cm^3
# Si number density = 22.239529 Si / 1000 Ang^3
#
#
#
# Elastic Constant Matrix: (Units=GPa)
#
#
# Indices 1 2 3 4 5 6 
#
# 1 98.0306 8.7070 15.5847 0.0000 -15.3739 0.0000
# 2 8.7070 77.8526 27.6212 0.0000 -12.7449 0.0000
# 3 15.5847 27.6212 76.3622 0.0000 -24.1212 0.0000
# 4 0.0000 0.0000 0.0000 37.4171 0.0000 -4.4695
# 5 -15.3739 -12.7449 -24.1212 0.0000 41.0184 0.0000
# 6 0.0000 0.0000 0.0000 -4.4695 0.0000 20.0916
#
#
#
# Elastic Compliance Matrix: (Units=1/GPa)
#
#
# Indices 1 2 3 4 5 6 
#
# 1 0.010925 -0.000294 -0.001055 0.000000 0.003383 0.000000
# 2 -0.000294 0.014850 -0.004776 0.000000 0.001695 0.000000
# 3 -0.001055 -0.004776 0.017740 0.000000 0.008553 0.000000
# 4 0.000000 0.000000 0.000000 0.027455 0.000000 0.006108
# 5 0.003383 0.001695 0.008553 0.000000 0.031204 0.000000
# 6 0.000000 0.000000 0.000000 0.006108 0.000000 0.051131
#
#
# Mechanical properties :
#
#
# Convention : Reuss Voigt Hill
#
# Bulk Modulus (GPa) = 31.98352 39.56344 35.77348
# Shear Modulus (GPa) = 28.41310 33.06093 30.73701
#
# Velocity S-wave (km/s) = 3.57822 3.85981 3.72168
# Velocity P-wave (km/s) = 5.61108 6.13942 5.88118
#
# Compressibility (1/GPa) = 0.03126610
#
# Stress axis : x y z
#
# Youngs Moduli (GPa) = 91.53091 67.34195 56.37011
#
# Poissons Ratio (x) = 0.01978 0.05946
# Poissons Ratio (y) = 0.02689 0.26921
# Poissons Ratio (z) = 0.09654 0.32161
#
# Static dielectric constant tensor:
#      x y z
#    x 4.418670 0.000000 -0.119520 
#    y 0.000000 4.129910 0.000000 
#    z -0.119520 0.000000 4.071300 
# 
# 
# High freq. dielectric constant tensor:
#      x y z
#    x 1.888350 0.000000 -0.004760 
#    y 0.000000 1.855960 0.000000 
#    z -0.004760 0.000000 1.881550 
# 
# From -- ./inp_files/273250.got.cif
#   From: 2010.06.25/outbox.cif.g09.slc.cpg/sg15_137_cif.got.tgz:273250.got - 2010.06.28 07:06:18.
