data_PCOD8144705
_publ_section_title
;
Structure prediction by ZEFSAII (Michael W. Deem and Ramdas Pophale) SiO2 
 PCOD8144705
Probable space group: C 2/C
;
_chemical_formula_sum "Si O2"
_cell_formula_units_Z 60
_cell_length_a 25.851082
_cell_length_b 8.829861
_cell_length_c 14.564466
_cell_angle_alpha 90.000000
_cell_angle_beta 62.576442
_cell_angle_gamma 90.000000
_cell_volume 2950.918522
_symmetry_space_group_name_H-M "C 2/C"
_symmetry_group_IT_number 15
_symmetry_cell_setting 'monoclinic'
loop_
_space_group_symop_operation_xyz
x,y,z
-x,y,1/2-z
-x,-y,-z
x,-y,1/2+z
1/2+x,1/2+y,z
1/2-x,1/2+y,1/2-z
1/2-x,1/2-y,-z
1/2+x,1/2-y,1/2+z
loop_
_atom_site_type_symbol
_atom_site_label
_atom_site_fract_x
_atom_site_fract_y
_atom_site_fract_z
Si Si1 0.621563 0.365011 0.685644
Si Si2 0.103847 0.172794 0.404255
Si Si3 0.186761 0.648374 0.969079
Si Si4 0.373600 0.329088 0.106920
Si Si5 0.192559 0.300039 0.994088
Si Si6 0.000000 0.235475 0.250000
Si Si7 0.010778 0.339526 0.039495
Si Si8 0.320411 0.324082 0.348300
O O1 0.632719 0.317338 0.780660
O O2 0.640103 0.224744 0.607587
O O3 0.553036 0.383574 0.720192
O O4 0.660496 0.511601 0.628039
O O5 0.141708 0.286188 0.433481
O O6 0.036741 0.222958 0.461624
O O7 0.105932 0.998631 0.433692
O O8 0.189897 0.469730 0.962485
O O9 0.163700 0.701185 0.087555
O O10 0.251680 0.700276 0.888855
O O11 0.356362 0.298075 0.226126
O O12 0.317122 0.300045 0.089499
O O13 0.425176 0.214552 0.040624
O O14 0.250000 0.250000 0.000000
O O15 0.994281 0.343790 0.344789
O O16 0.000000 0.500000 0.000000
#
# Coordination Sequence:
#
# PCOD8144705 Si02
#       8
#     8   8   8   8   8   4   8   8
#     4  10  21  44  65  98 126 176 218 263 335 394
#     4  10  24  41  69  96 131 170 218 273 327 392
#     4  11  24  41  64  97 134 169 218 279 319 388
#     4  11  24  44  67  93 134 173 221 269 331 396
#     4  12  24  39  66  95 131 175 221 264 333 393
#     4  10  22  40  74  92 138 174 212 274 326 394
#     4  11  23  44  68 100 133 169 222 269 332 397
#     4  10  24  43  64  96 131 169 221 271 330 386
#
# _framework density 20.332652
#
# number of rings (size 3 to 8) (size 9 to 14) (size 15 to 20)
#    0.000    1.333    2.667    2.000    3.733    3.200 
#    0.000    0.000    0.000    0.000    0.000    0.000 
#    0.000    0.000    0.000    0.000    0.000    0.000 
#
# Total GULP energy -371911.234508 kJ/mol
# GULP energy per Si atom -12397.041150 kJ/mol
# Density = 2.028637 g / cm^3
# Si number density = 20.332652 Si / 1000 Ang^3
#
#
#
# Elastic Constant Matrix: (Units=GPa)
#
#
# Indices 1 2 3 4 5 6 
#
# 1 134.6100 44.8973 45.5125 0.0000 15.0143 0.0000
# 2 44.8973 102.6093 43.3080 0.0000 17.1682 0.0000
# 3 45.5125 43.3080 102.7610 0.0000 7.6520 0.0000
# 4 0.0000 0.0000 0.0000 30.4432 0.0000 1.9702
# 5 15.0143 17.1682 7.6520 0.0000 33.7098 0.0000
# 6 0.0000 0.0000 0.0000 1.9702 0.0000 35.3444
#
#
#
# Elastic Compliance Matrix: (Units=1/GPa)
#
#
# Indices 1 2 3 4 5 6 
#
# 1 0.009537 -0.002530 -0.002988 0.000000 -0.002281 0.000000
# 2 -0.002530 0.013412 -0.004177 0.000000 -0.004755 0.000000
# 3 -0.002988 -0.004177 0.012774 0.000000 0.000559 0.000000
# 4 0.000000 0.000000 0.000000 0.032967 0.000000 -0.001838
# 5 -0.002281 -0.004755 0.000559 0.000000 0.032976 0.000000
# 6 0.000000 0.000000 0.000000 -0.001838 0.000000 0.028395
#
#
# Mechanical properties :
#
#
# Convention : Reuss Voigt Hill
#
# Bulk Modulus (GPa) = 61.23220 67.49064 64.36142
# Shear Modulus (GPa) = 32.27967 33.65034 32.96500
#
# Velocity S-wave (km/s) = 3.98876 4.07257 4.03089
# Velocity P-wave (km/s) = 7.16898 7.44176 7.30664
#
# Compressibility (1/GPa) = 0.01633128
#
# Stress axis : x y z
#
# Youngs Moduli (GPa) = 104.84933 74.56167 78.28670
#
# Poissons Ratio (x) = 0.18868 0.23391
# Poissons Ratio (y) = 0.26532 0.32704
# Poissons Ratio (z) = 0.31327 0.31148
#
# Static dielectric constant tensor:
#      x y z
#    x 4.068770 0.000000 0.040010 
#    y 0.000000 3.794040 0.000000 
#    z 0.040010 0.000000 3.923300 
# 
# 
# High freq. dielectric constant tensor:
#      x y z
#    x 1.812580 0.000000 0.005820 
#    y 0.000000 1.784890 0.000000 
#    z 0.005820 0.000000 1.802150 
# 
# From -- ./inp_files/172349.got.cif
#   From: 2010.06.25/outbox.cif.g09.slc.cpg/sg15_87_cif.got.tgz:172349.got - 2010.06.28 07:06:18.
