data_PCOD8144455
_publ_section_title
;
Structure prediction by ZEFSAII (Michael W. Deem and Ramdas Pophale) SiO2 
 PCOD8144455
Probable space group: C 2/C
;
_chemical_formula_sum "Si O2"
_cell_formula_units_Z 44
_cell_length_a 10.368056
_cell_length_b 26.607769
_cell_length_c 8.993744
_cell_angle_alpha 90.000000
_cell_angle_beta 112.652029
_cell_angle_gamma 90.000000
_cell_volume 2289.720897
_symmetry_space_group_name_H-M "C 2/C"
_symmetry_group_IT_number 15
_symmetry_cell_setting 'monoclinic'
loop_
_space_group_symop_operation_xyz
x,y,z
-x,y,1/2-z
-x,-y,-z
x,-y,1/2+z
1/2+x,1/2+y,z
1/2-x,1/2+y,1/2-z
1/2-x,1/2-y,-z
1/2+x,1/2-y,1/2+z
loop_
_atom_site_type_symbol
_atom_site_label
_atom_site_fract_x
_atom_site_fract_y
_atom_site_fract_z
Si Si1 0.557174 0.862322 0.626296
Si Si2 0.000000 0.135466 0.250000
Si Si3 0.785678 0.937902 0.800735
Si Si4 0.256135 0.309282 0.504703
Si Si5 0.338000 0.458818 0.166721
Si Si6 0.866961 0.383972 0.281988
O O1 0.500000 0.837246 0.750000
O O2 0.633471 0.915596 0.693095
O O3 0.664329 0.823488 0.605369
O O4 0.419641 0.868781 0.466672
O O5 0.905144 0.102405 0.317228
O O6 0.912264 0.170891 0.100151
O O7 0.812566 0.984338 0.704100
O O8 0.788296 0.952721 0.975005
O O9 0.250000 0.250000 0.500000
O O10 0.193241 0.335009 0.328845
O O11 0.500000 0.444202 0.250000
O O12 0.253976 0.424860 0.248371
O O13 0.000000 0.406663 0.250000
#
# Coordination Sequence:
#
# PCOD8144455 Si02
#       6
#     8   4   8   8   8   8
#     4  10  21  43  61  90 130 162 210 269 319 378
#     4  10  22  42  62  92 132 162 216 268 326 382
#     4  11  24  38  62  92 130 174 212 268 314 388
#     4  10  23  41  70  93 121 167 216 266 331 389
#     4  12  24  38  64  92 134 172 224 257 325 377
#     4  10  23  41  65  91 131 167 216 264 324 384
#
# _framework density 19.216315000000002
#
# number of rings (size 3 to 8) (size 9 to 14) (size 15 to 20)
#    0.000    1.455    2.727    1.636   11.455    1.455 
#    0.000    3.636    0.000    0.000    0.000    0.000 
#    0.000    0.000    0.000    0.000    0.000    0.000 
#
# Total GULP energy -272786.718519 kJ/mol
# GULP energy per Si atom -12399.396296 kJ/mol
# Density = 1.917258 g / cm^3
# Si number density = 19.216315 Si / 1000 Ang^3
#
#
#
# Elastic Constant Matrix: (Units=GPa)
#
#
# Indices 1 2 3 4 5 6 
#
# 1 105.4368 63.5337 59.6751 0.0000 4.4964 0.0000
# 2 63.5337 144.1550 65.1027 0.0000 4.3971 0.0000
# 3 59.6751 65.1027 152.1242 0.0000 1.8316 0.0000
# 4 0.0000 0.0000 0.0000 26.5868 0.0000 1.2465
# 5 4.4964 4.3971 1.8316 0.0000 36.7237 0.0000
# 6 0.0000 0.0000 0.0000 1.2465 0.0000 17.0833
#
#
#
# Elastic Compliance Matrix: (Units=1/GPa)
#
#
# Indices 1 2 3 4 5 6 
#
# 1 0.014403 -0.004674 -0.003637 0.000000 -0.001022 0.000000
# 2 -0.004674 0.010142 -0.002501 0.000000 -0.000517 0.000000
# 3 -0.003637 -0.002501 0.009067 0.000000 0.000293 0.000000
# 4 0.000000 0.000000 0.000000 0.037742 0.000000 -0.002754
# 5 -0.001022 -0.000517 0.000293 0.000000 0.027403 0.000000
# 6 0.000000 0.000000 0.000000 -0.002754 0.000000 0.058738
#
#
# Mechanical properties :
#
#
# Convention : Reuss Voigt Hill
#
# Bulk Modulus (GPa) = 83.41586 86.48213 84.94899
# Shear Modulus (GPa) = 27.30525 30.30572 28.80548
#
# Velocity S-wave (km/s) = 3.77363 3.97556 3.87591
# Velocity P-wave (km/s) = 7.90507 8.13484 8.02078
#
# Compressibility (1/GPa) = 0.01198813
#
# Stress axis : x y z
#
# Youngs Moduli (GPa) = 69.42934 98.59928 110.28858
#
# Poissons Ratio (x) = 0.46085 0.40117
# Poissons Ratio (y) = 0.32451 0.27579
# Poissons Ratio (z) = 0.25255 0.24656
#
# Static dielectric constant tensor:
#      x y z
#    x 3.787630 0.000000 0.046890 
#    y 0.000000 3.312290 0.000000 
#    z 0.046890 0.000000 3.797210 
# 
# 
# High freq. dielectric constant tensor:
#      x y z
#    x 1.763190 0.000000 0.003490 
#    y 0.000000 1.727700 0.000000 
#    z 0.003490 0.000000 1.763010 
# 
# From -- ./inp_files/30699.got.cif
#   From: 2010.06.25/outbox.cif.g09.slc.cpg/sg15_16_cif.got.tgz:30699.got - 2010.06.28 07:06:18.
