data_PCOD8144175
_publ_section_title
;
Structure prediction by ZEFSAII (Michael W. Deem and Ramdas Pophale) SiO2 
 PCOD8144175
Probable space group: C 2/C
;
_chemical_formula_sum "Si O2"
_cell_formula_units_Z 44
_cell_length_a 19.510730
_cell_length_b 8.511891
_cell_length_c 14.380828
_cell_angle_alpha 90.000000
_cell_angle_beta 118.634036
_cell_angle_gamma 90.000000
_cell_volume 2096.181096
_symmetry_space_group_name_H-M "C 2/C"
_symmetry_group_IT_number 15
_symmetry_cell_setting 'monoclinic'
loop_
_space_group_symop_operation_xyz
x,y,z
-x,y,1/2-z
-x,-y,-z
x,-y,1/2+z
1/2+x,1/2+y,z
1/2-x,1/2+y,1/2-z
1/2-x,1/2-y,-z
1/2+x,1/2-y,1/2+z
loop_
_atom_site_type_symbol
_atom_site_label
_atom_site_fract_x
_atom_site_fract_y
_atom_site_fract_z
Si Si1 0.178084 0.348306 0.767904
Si Si2 0.134723 0.846488 0.917892
Si Si3 0.256123 0.193794 0.654135
Si Si4 0.000000 0.351304 0.250000
Si Si5 0.420085 0.313638 0.143763
Si Si6 0.020426 0.582321 0.106356
O O1 0.243539 0.254631 0.751491
O O2 0.210161 0.518339 0.818079
O O3 0.151237 0.259892 0.844033
O O4 0.104107 0.335980 0.649257
O O5 0.183815 0.813781 0.856106
O O6 0.055419 0.749581 0.852782
O O7 0.113894 0.027708 0.919828
O O8 0.178542 0.797188 0.040239
O O9 0.956547 0.465553 0.293713
O O10 0.500000 0.350307 0.250000
O O11 0.446166 0.193695 0.079613
O O12 0.000000 0.500000 0.000000
#
# Coordination Sequence:
#
# PCOD8144175 Si02
#       6
#     8   8   8   4   8   8
#     4  11  22  41  60  89 133 169 209 268 319 391
#     4  11  23  41  66  95 129 171 216 272 324 385
#     4  11  24  40  63  96 132 171 215 260 336 392
#     4  12  20  44  68  90 136 168 212 280 316 372
#     4  10  21  42  64  91 128 164 217 269 318 378
#     4  11  22  40  67  94 125 171 218 261 326 386
#
# _framework density 20.990553999999999
#
# number of rings (size 3 to 8) (size 9 to 14) (size 15 to 20)
#    0.000    1.091    5.455    2.182    0.000    3.636 
#    3.273    2.727    0.000    0.000    0.000    0.000 
#    0.000    0.000    0.000    0.000    0.000    0.000 
#
# Total GULP energy -272634.737191 kJ/mol
# GULP energy per Si atom -12392.488054 kJ/mol
# Density = 2.094278 g / cm^3
# Si number density = 20.990554 Si / 1000 Ang^3
#
#
#
# Elastic Constant Matrix: (Units=GPa)
#
#
# Indices 1 2 3 4 5 6 
#
# 1 86.1098 33.6126 17.1199 0.0000 -3.1188 0.0000
# 2 33.6126 112.9176 16.4714 0.0000 -1.9823 0.0000
# 3 17.1199 16.4714 45.7465 0.0000 -1.9250 0.0000
# 4 0.0000 0.0000 0.0000 26.0165 0.0000 9.6127
# 5 -3.1188 -1.9823 -1.9250 0.0000 28.3661 0.0000
# 6 0.0000 0.0000 0.0000 9.6127 0.0000 30.7204
#
#
#
# Elastic Compliance Matrix: (Units=1/GPa)
#
#
# Indices 1 2 3 4 5 6 
#
# 1 0.013791 -0.003526 -0.003849 0.000000 0.001009 0.000000
# 2 -0.003526 0.010254 -0.002365 0.000000 0.000168 0.000000
# 3 -0.003849 -0.002365 0.024196 0.000000 0.001054 0.000000
# 4 0.000000 0.000000 0.000000 0.043462 0.000000 -0.013600
# 5 0.001009 0.000168 0.001054 0.000000 0.035448 0.000000
# 6 0.000000 0.000000 0.000000 -0.013600 0.000000 0.036807
#
#
# Mechanical properties :
#
#
# Convention : Reuss Voigt Hill
#
# Bulk Modulus (GPa) = 34.77051 42.13132 38.45091
# Shear Modulus (GPa) = 25.90333 28.85858 27.38096
#
# Velocity S-wave (km/s) = 3.51671 3.71190 3.61562
# Velocity P-wave (km/s) = 5.75243 6.20372 5.98233
#
# Compressibility (1/GPa) = 0.02876001
#
# Stress axis : x y z
#
# Youngs Moduli (GPa) = 72.50952 97.52649 41.32908
#
# Poissons Ratio (x) = 0.34389 0.15908
# Poissons Ratio (y) = 0.25568 0.09775
# Poissons Ratio (z) = 0.27910 0.23067
#
# Static dielectric constant tensor:
#      x y z
#    x 3.937260 0.000000 0.121140 
#    y 0.000000 4.005930 0.000000 
#    z 0.121140 0.000000 3.504450 
# 
# 
# High freq. dielectric constant tensor:
#      x y z
#    x 1.834790 0.000000 0.003370 
#    y 0.000000 1.826000 0.000000 
#    z 0.003370 0.000000 1.809760 
# 
# From -- ./inp_files/110169.got.cif
#   From: 2010.06.25/outbox.cif.g09.slc.cpg/sg15_56_cif.got.tgz:110169.got - 2010.06.28 07:06:18.
