data_PCOD8144165
_publ_section_title
;
Structure prediction by ZEFSAII (Michael W. Deem and Ramdas Pophale) SiO2 
 PCOD8144165
Probable space group: C 2/C
;
_chemical_formula_sum "Si O2"
_cell_formula_units_Z 48
_cell_length_a 24.822653
_cell_length_b 17.577213
_cell_length_c 16.468129
_cell_angle_alpha 90.000000
_cell_angle_beta 18.168787
_cell_angle_gamma 90.000000
_cell_volume 2240.488696
_symmetry_space_group_name_H-M "C 2/C"
_symmetry_group_IT_number 15
_symmetry_cell_setting 'monoclinic'
loop_
_space_group_symop_operation_xyz
x,y,z
-x,y,1/2-z
-x,-y,-z
x,-y,1/2+z
1/2+x,1/2+y,z
1/2-x,1/2+y,1/2-z
1/2-x,1/2-y,-z
1/2+x,1/2-y,1/2+z
loop_
_atom_site_type_symbol
_atom_site_label
_atom_site_fract_x
_atom_site_fract_y
_atom_site_fract_z
Si Si1 0.893996 0.436369 0.323234
Si Si2 0.317834 0.679564 0.835280
Si Si3 0.827835 0.355900 0.655286
Si Si4 0.900651 0.718095 0.493144
Si Si5 0.587450 0.419583 0.872219
Si Si6 0.392494 0.090806 0.242574
O O1 0.700498 0.412789 0.627477
O O2 0.908850 0.500092 0.230687
O O3 0.000000 0.466120 0.250000
O O4 0.981976 0.360996 0.157784
O O5 0.146310 0.711494 0.035241
O O6 0.411313 0.744398 0.755454
O O7 0.444629 0.647537 0.582709
O O8 0.259681 0.611425 0.976337
O O9 0.753049 0.270436 0.749932
O O10 0.706391 0.414698 0.781599
O O11 0.828031 0.383997 0.747014
O O12 0.924582 0.634039 0.498684
O O13 0.500000 0.500000 0.000000
#
# Coordination Sequence:
#
# PCOD8144165 Si02
#       6
#     8   8   8   8   8   8
#     4  10  21  42  64  88 121 166 209 254 317 374
#     4  11  23  38  66  92 129 164 210 262 314 379
#     4  10  24  39  62  91 129 164 203 259 317 376
#     4  11  23  39  60  95 130 166 205 260 316 376
#     4  10  21  42  64  90 120 164 213 257 312 374
#     4  12  22  37  65  96 128 158 208 261 322 372
#
# _framework density 21.423898000000001
#
# number of rings (size 3 to 8) (size 9 to 14) (size 15 to 20)
#    0.000    1.333    3.333    2.500    4.667    2.000 
#    0.000    0.833    7.333    0.000    0.000    0.000 
#    0.000    0.000    0.000    0.000    0.000    0.000 
#
# Total GULP energy -297425.152117 kJ/mol
# GULP energy per Si atom -12392.714672 kJ/mol
# Density = 2.137514 g / cm^3
# Si number density = 21.423898 Si / 1000 Ang^3
#
#
#
# Elastic Constant Matrix: (Units=GPa)
#
#
# Indices 1 2 3 4 5 6 
#
# 1 111.2072 39.1504 47.7385 -0.0075 -5.9223 0.0076
# 2 39.1504 71.8892 44.1670 -0.0113 1.9610 0.0041
# 3 47.7385 44.1670 143.2972 -0.0166 -0.1618 0.0081
# 4 -0.0075 -0.0113 -0.0166 33.9297 0.0063 2.1562
# 5 -5.9223 1.9610 -0.1618 0.0063 24.7883 -0.0054
# 6 0.0076 0.0041 0.0081 2.1562 -0.0054 29.6689
#
#
#
# Elastic Compliance Matrix: (Units=1/GPa)
#
#
# Indices 1 2 3 4 5 6 
#
# 1 0.012014 -0.005150 -0.002411 -0.000001 0.003262 -0.000001
# 2 -0.005150 0.019416 -0.004272 0.000004 -0.002794 -0.000001
# 3 -0.002411 -0.004272 0.009098 0.000003 -0.000179 -0.000002
# 4 -0.000001 0.000004 0.000003 0.029609 -0.000008 -0.002152
# 5 0.003262 -0.002794 -0.000179 -0.000008 0.041341 0.000008
# 6 -0.000001 -0.000001 -0.000002 -0.002152 0.000008 0.033862
#
#
# Mechanical properties :
#
#
# Convention : Reuss Voigt Hill
#
# Bulk Modulus (GPa) = 59.30669 65.38947 62.34808
# Shear Modulus (GPa) = 28.63235 30.69990 29.66613
#
# Velocity S-wave (km/s) = 3.65974 3.78957 3.72522
# Velocity P-wave (km/s) = 6.75284 7.05236 6.90423
#
# Compressibility (1/GPa) = 0.01686150
#
# Stress axis : x y z
#
# Youngs Moduli (GPa) = 83.23443 51.50442 109.91150
#
# Poissons Ratio (x) = 0.26527 0.26503
# Poissons Ratio (y) = 0.42869 0.46950
# Poissons Ratio (z) = 0.20071 0.22001
#
# Static dielectric constant tensor:
#      x y z
#    x 3.901530 -0.000010 -0.094450 
#    y -0.000010 3.892920 0.000020 
#    z -0.094450 0.000020 4.204960 
# 
# 
# High freq. dielectric constant tensor:
#      x y z
#    x 1.840920 0.000000 -0.006020 
#    y 0.000000 1.826220 0.000000 
#    z -0.006020 0.000000 1.845450 
# 
# From -- ./inp_files/147378.got.cif
#   From: 2010.06.25/outbox.cif.g09.slc.cpg/sg15_74_cif.got.tgz:147378.got - 2010.06.28 07:06:18.
