data_PCOD8144140
_publ_section_title
;
Structure prediction by ZEFSAII (Michael W. Deem and Ramdas Pophale) SiO2 
 PCOD8144140
Probable space group: C 2/C
;
_chemical_formula_sum "Si O2"
_cell_formula_units_Z 64
_cell_length_a 17.407043
_cell_length_b 9.973831
_cell_length_c 30.965247
_cell_angle_alpha 90.000000
_cell_angle_beta 35.618591
_cell_angle_gamma 90.000000
_cell_volume 3130.927825
_symmetry_space_group_name_H-M "C 2/C"
_symmetry_group_IT_number 15
_symmetry_cell_setting 'monoclinic'
loop_
_space_group_symop_operation_xyz
x,y,z
-x,y,1/2-z
-x,-y,-z
x,-y,1/2+z
1/2+x,1/2+y,z
1/2-x,1/2+y,1/2-z
1/2-x,1/2-y,-z
1/2+x,1/2-y,1/2+z
loop_
_atom_site_type_symbol
_atom_site_label
_atom_site_fract_x
_atom_site_fract_y
_atom_site_fract_z
Si Si1 0.053377 0.450878 0.021017
Si Si2 0.708390 0.865091 0.316932
Si Si3 0.651256 0.735200 0.669276
Si Si4 0.260907 0.772437 0.426901
Si Si5 0.758954 0.863562 0.461210
Si Si6 0.586684 0.392473 0.578317
Si Si7 0.343607 0.973168 0.316061
Si Si8 0.783443 0.932990 0.710249
O O1 0.948621 0.375408 0.100408
O O2 0.174563 0.355264 0.953671
O O3 0.112610 0.576371 0.020477
O O4 0.000000 0.500000 0.000000
O O5 0.778430 0.871208 0.331374
O O6 0.758927 0.725142 0.271562
O O7 0.752132 0.996489 0.270205
O O8 0.500000 0.741403 0.750000
O O9 0.673352 0.693513 0.611381
O O10 0.714089 0.883995 0.642562
O O11 0.390910 0.723239 0.394796
O O12 0.175098 0.867473 0.496140
O O13 0.292109 0.850122 0.368393
O O14 0.750000 0.750000 0.500000
O O15 0.866966 0.967968 0.425468
O O16 0.438207 0.417317 0.631452
O O17 0.500000 0.968944 0.250000
O O18 0.291437 0.969629 0.290177
#
# Coordination Sequence:
#
# PCOD8144140 Si02
#       8
#     8   8   8   8   8   8   8   8
#     4  11  23  43  66  93 132 176 223 283 349 401
#     4  11  24  44  67  96 137 177 228 285 340 414
#     4  10  21  42  63  91 138 173 220 282 339 404
#     4  10  22  42  66  90 135 174 222 283 335 410
#     4  11  23  38  66 101 127 176 229 276 344 415
#     4  10  22  40  63  94 128 174 222 273 339 403
#     4  10  24  41  65  98 133 176 224 280 349 403
#     4  11  25  43  68  99 135 181 229 284 347 413
#
# _framework density 20.441226
#
# number of rings (size 3 to 8) (size 9 to 14) (size 15 to 20)
#    0.000    1.500    2.500    1.500    1.750    6.500 
#    0.000    1.250    0.000    0.000    0.000    0.000 
#    0.000    0.000    0.000    0.000    0.000    0.000 
#
# Total GULP energy -396542.611955 kJ/mol
# GULP energy per Si atom -12391.956624 kJ/mol
# Density = 2.039470 g / cm^3
# Si number density = 20.441226 Si / 1000 Ang^3
#
#
#
# Elastic Constant Matrix: (Units=GPa)
#
#
# Indices 1 2 3 4 5 6 
#
# 1 118.2266 44.1993 44.8344 0.0004 5.6583 0.0015
# 2 44.1993 89.9683 51.1550 0.0010 21.6132 0.0012
# 3 44.8344 51.1550 87.9763 -0.0001 4.8341 -0.0001
# 4 0.0004 0.0010 -0.0001 37.0969 -0.0001 8.7252
# 5 5.6583 21.6132 4.8341 -0.0001 35.2150 -0.0012
# 6 0.0015 0.0012 -0.0001 8.7252 -0.0012 38.6965
#
#
#
# Elastic Compliance Matrix: (Units=1/GPa)
#
#
# Indices 1 2 3 4 5 6 
#
# 1 0.011147 -0.003651 -0.003610 0.000000 0.000945 0.000000
# 2 -0.003651 0.021152 -0.009832 0.000000 -0.011046 -0.000001
# 3 -0.003610 -0.009832 0.018701 0.000000 0.004047 0.000001
# 4 0.000000 0.000000 0.000000 0.028466 0.000000 -0.006418
# 5 0.000945 -0.011046 0.004047 0.000000 0.034469 0.000001
# 6 0.000000 -0.000001 0.000001 -0.006418 0.000001 0.027289
#
#
# Mechanical properties :
#
#
# Convention : Reuss Voigt Hill
#
# Bulk Modulus (GPa) = 59.46998 64.06094 61.76546
# Shear Modulus (GPa) = 27.62207 32.60053 30.11130
#
# Velocity S-wave (km/s) = 3.67998 3.99788 3.84222
# Velocity P-wave (km/s) = 6.87115 7.26071 7.06861
#
# Compressibility (1/GPa) = 0.01681521
#
# Stress axis : x y z
#
# Youngs Moduli (GPa) = 89.71138 47.27579 53.47343
#
# Poissons Ratio (x) = 0.17259 0.19303
# Poissons Ratio (y) = 0.32751 0.52575
# Poissons Ratio (z) = 0.32384 0.46481
#
# Static dielectric constant tensor:
#      x y z
#    x 3.926110 0.000000 -0.083200 
#    y 0.000000 3.931580 -0.000010 
#    z -0.083200 -0.000010 3.540580 
# 
# 
# High freq. dielectric constant tensor:
#      x y z
#    x 1.815810 0.000000 -0.003910 
#    y 0.000000 1.807440 0.000000 
#    z -0.003910 0.000000 1.785190 
# 
# From -- ./inp_files/316191.got.cif
#   From: 2010.06.25/outbox.cif.g09.slc.cpg/sg15_159_cif.got.tgz:316191.got - 2010.06.28 07:06:18.
