data_PCOD8144411
_publ_section_title
;
Structure prediction by ZEFSAII (Michael W. Deem and Ramdas Pophale) SiO2 
 PCOD8144411
Probable space group: C 2/C
;
_chemical_formula_sum "Si O2"
_cell_formula_units_Z 52
_cell_length_a 14.461247
_cell_length_b 12.454941
_cell_length_c 22.372569
_cell_angle_alpha 90.000000
_cell_angle_beta 140.773160
_cell_angle_gamma 90.000000
_cell_volume 2548.295668
_symmetry_space_group_name_H-M "C 2/C"
_symmetry_group_IT_number 15
_symmetry_cell_setting 'monoclinic'
loop_
_space_group_symop_operation_xyz
x,y,z
-x,y,1/2-z
-x,-y,-z
x,-y,1/2+z
1/2+x,1/2+y,z
1/2-x,1/2+y,1/2-z
1/2-x,1/2-y,-z
1/2+x,1/2-y,1/2+z
loop_
_atom_site_type_symbol
_atom_site_label
_atom_site_fract_x
_atom_site_fract_y
_atom_site_fract_z
Si Si1 0.941560 0.504542 0.842627
Si Si2 0.802328 0.646508 0.989918
Si Si3 0.171410 0.860686 0.717656
Si Si4 0.909747 0.969152 0.647924
Si Si5 0.749935 0.724566 0.379014
Si Si6 0.000000 0.383188 0.250000
Si Si7 0.569580 0.201062 0.572887
O O1 0.778121 0.460716 0.764960
O O2 0.952411 0.544633 0.780903
O O3 0.960847 0.596520 0.901921
O O4 0.056857 0.408577 0.909685
O O5 0.664559 0.566891 0.923702
O O6 0.838505 0.671737 0.939406
O O7 0.750000 0.750000 0.000000
O O8 0.230955 0.780882 0.798281
O O9 0.163439 0.790686 0.653807
O O10 0.011361 0.905460 0.652693
O O11 0.783754 0.889928 0.608165
O O12 0.000000 0.012580 0.750000
O O13 0.633832 0.812525 0.343339
O O14 0.915105 0.755226 0.477807
#
# Coordination Sequence:
#
# PCOD8144411 Si02
#       7
#     8   8   8   8   8   4   8
#     4  12  26  46  70  99 144 187 229 294 362 409
#     4  12  28  44  67 101 140 189 232 278 351 427
#     4  11  24  42  69 102 135 177 234 289 345 412
#     4  10  21  42  70  98 133 173 231 280 340 408
#     4  11  20  43  71 106 126 176 240 286 339 418
#     4  12  26  42  72 106 140 170 232 308 354 408
#     4  12  24  45  75  98 136 191 235 287 342 426
#
# _framework density 20.405795999999999
#
# number of rings (size 3 to 8) (size 9 to 14) (size 15 to 20)
#    0.000    0.615    6.923    2.308    4.308    4.923 
#    0.000    1.538    0.000    0.000    0.000    0.000 
#    0.000    0.000    0.000    0.000    0.000    0.000 
#
# Total GULP energy -322514.778246 kJ/mol
# GULP energy per Si atom -12404.414548 kJ/mol
# Density = 2.035935 g / cm^3
# Si number density = 20.405796 Si / 1000 Ang^3
#
#
#
# Elastic Constant Matrix: (Units=GPa)
#
#
# Indices 1 2 3 4 5 6 
#
# 1 83.1792 21.3371 29.2778 0.0000 -11.6341 0.0000
# 2 21.3371 64.0716 35.8037 0.0000 -9.6219 0.0000
# 3 29.2778 35.8037 94.6581 0.0000 4.9864 0.0000
# 4 0.0000 0.0000 0.0000 24.4920 0.0000 -13.5181
# 5 -11.6341 -9.6219 4.9864 0.0000 25.0461 0.0000
# 6 0.0000 0.0000 0.0000 -13.5181 0.0000 34.3192
#
#
#
# Elastic Compliance Matrix: (Units=1/GPa)
#
#
# Indices 1 2 3 4 5 6 
#
# 1 0.014984 -0.001374 -0.004501 0.000000 0.007328 0.000000
# 2 -0.001374 0.022257 -0.008499 0.000000 0.009604 0.000000
# 3 -0.004501 -0.008499 0.015617 0.000000 -0.008465 0.000000
# 4 0.000000 0.000000 0.000000 0.052172 0.000000 0.020550
# 5 0.007328 0.009604 -0.008465 0.000000 0.048705 0.000000
# 6 0.000000 0.000000 0.000000 0.020550 0.000000 0.037233
#
#
# Mechanical properties :
#
#
# Convention : Reuss Voigt Hill
#
# Bulk Modulus (GPa) = 41.47804 46.08291 43.78048
# Shear Modulus (GPa) = 21.95350 27.13746 24.54548
#
# Velocity S-wave (km/s) = 3.28357 3.65072 3.47200
# Velocity P-wave (km/s) = 5.89461 6.35631 6.12981
#
# Compressibility (1/GPa) = 0.02410914
#
# Stress axis : x y z
#
# Youngs Moduli (GPa) = 66.73805 44.92954 64.03211
#
# Poissons Ratio (x) = 0.06175 0.28819
# Poissons Ratio (y) = 0.09173 0.54423
# Poissons Ratio (z) = 0.30037 0.38187
#
# Static dielectric constant tensor:
#      x y z
#    x 3.851900 0.000000 0.116490 
#    y 0.000000 3.624210 0.000000 
#    z 0.116490 0.000000 3.792990 
# 
# 
# High freq. dielectric constant tensor:
#      x y z
#    x 1.802160 0.000000 0.004150 
#    y 0.000000 1.791380 0.000000 
#    z 0.004150 0.000000 1.805870 
# 
# From -- ./inp_files/273894.got.cif
#   From: 2010.06.25/outbox.cif.g09.slc.cpg/sg15_137_cif.got.tgz:273894.got - 2010.06.28 07:06:18.
