data_PCOD8144926
_publ_section_title
;
Structure prediction by ZEFSAII (Michael W. Deem and Ramdas Pophale) SiO2 
 PCOD8144926
Probable space group: C 2/C
;
_chemical_formula_sum "Si O2"
_cell_formula_units_Z 60
_cell_length_a 24.160850
_cell_length_b 20.206783
_cell_length_c 8.202195
_cell_angle_alpha 90.000000
_cell_angle_beta 48.313867
_cell_angle_gamma 90.000000
_cell_volume 2990.496504
_symmetry_space_group_name_H-M "C 2/C"
_symmetry_group_IT_number 15
_symmetry_cell_setting 'monoclinic'
loop_
_space_group_symop_operation_xyz
x,y,z
-x,y,1/2-z
-x,-y,-z
x,-y,1/2+z
1/2+x,1/2+y,z
1/2-x,1/2+y,1/2-z
1/2-x,1/2-y,-z
1/2+x,1/2-y,1/2+z
loop_
_atom_site_type_symbol
_atom_site_label
_atom_site_fract_x
_atom_site_fract_y
_atom_site_fract_z
Si Si1 0.111575 0.793363 0.529489
Si Si2 0.048514 0.328743 0.311358
Si Si3 0.794178 0.645971 0.897012
Si Si4 0.898108 0.811387 0.303819
Si Si5 0.343695 0.427650 0.894705
Si Si6 0.916367 0.048719 0.912798
Si Si7 0.000000 0.289282 0.750000
Si Si8 0.230796 0.240785 0.273896
O O1 0.066293 0.748643 0.745067
O O2 0.069210 0.796566 0.439568
O O3 0.123762 0.866494 0.569109
O O4 0.186975 0.757157 0.331617
O O5 0.126730 0.369780 0.170491
O O6 0.007686 0.333780 0.568620
O O7 0.000000 0.355874 0.250000
O O8 0.810448 0.691495 0.705829
O O9 0.746258 0.579802 0.950043
O O10 0.734695 0.687765 0.119183
O O11 0.916737 0.887579 0.296875
O O12 0.931350 0.760787 0.370543
O O13 0.810369 0.796035 0.495972
O O14 0.357888 0.494832 0.964557
O O15 0.389971 0.429146 0.640033
O O16 0.000000 0.019329 0.750000
#
# Coordination Sequence:
#
# PCOD8144926 Si02
#       8
#     8   8   8   8   8   8   4   8
#     4  10  22  34  57  83 115 158 195 239 292 344
#     4  11  21  36  57  89 120 154 193 236 306 362
#     4   9  18  35  59  78 115 156 192 245 296 344
#     4  12  20  35  54  85 121 158 194 235 280 348
#     4  11  23  42  55  80 113 156 207 246 285 338
#     4  12  25  38  56  80 115 159 203 242 284 336
#     4  12  22  34  54  86 132 156 190 236 288 362
#     4   9  17  33  55  81 111 154 194 235 289 346
#
# _framework density 20.063556999999999
#
# number of rings (size 3 to 8) (size 9 to 14) (size 15 to 20)
#    0.000    1.333    4.667    3.200    0.000    0.533 
#    0.000    0.000    0.000    0.000    0.000    0.933 
#    0.000    0.000    0.000    0.000    0.000    0.000 
#
# Total GULP energy -371763.703571 kJ/mol
# GULP energy per Si atom -12392.123452 kJ/mol
# Density = 2.001789 g / cm^3
# Si number density = 20.063557 Si / 1000 Ang^3
#
#
#
# Elastic Constant Matrix: (Units=GPa)
#
#
# Indices 1 2 3 4 5 6 
#
# 1 116.1589 33.7996 40.0833 0.0000 -8.0391 0.0000
# 2 33.7996 52.3621 25.8165 0.0000 -7.1406 0.0000
# 3 40.0833 25.8165 92.2594 0.0000 9.7236 0.0000
# 4 0.0000 0.0000 0.0000 14.1071 0.0000 -0.5392
# 5 -8.0391 -7.1406 9.7236 0.0000 38.6631 0.0000
# 6 0.0000 0.0000 0.0000 -0.5392 0.0000 12.1016
#
#
#
# Elastic Compliance Matrix: (Units=1/GPa)
#
#
# Indices 1 2 3 4 5 6 
#
# 1 0.011637 -0.005297 -0.003827 0.000000 0.002404 0.000000
# 2 -0.005297 0.025911 -0.005483 0.000000 0.005063 0.000000
# 3 -0.003827 -0.005483 0.014614 0.000000 -0.005484 0.000000
# 4 0.000000 0.000000 0.000000 0.071007 0.000000 0.003164
# 5 0.002404 0.005063 -0.005484 0.000000 0.028678 0.000000
# 6 0.000000 0.000000 0.000000 0.003164 0.000000 0.082775
#
#
# Mechanical properties :
#
#
# Convention : Reuss Voigt Hill
#
# Bulk Modulus (GPa) = 43.57656 51.13104 47.35380
# Shear Modulus (GPa) = 18.41724 23.71310 21.06517
#
# Velocity S-wave (km/s) = 3.03305 3.44161 3.24377
# Velocity P-wave (km/s) = 5.83372 6.42905 6.13861
#
# Compressibility (1/GPa) = 0.02294811
#
# Stress axis : x y z
#
# Youngs Moduli (GPa) = 85.93132 38.59416 68.42833
#
# Poissons Ratio (x) = 0.20444 0.26188
# Poissons Ratio (y) = 0.45519 0.37517
# Poissons Ratio (z) = 0.32886 0.21160
#
# Static dielectric constant tensor:
#      x y z
#    x 3.915030 0.000000 -0.036800 
#    y 0.000000 3.486280 0.000000 
#    z -0.036800 0.000000 3.600790 
# 
# 
# High freq. dielectric constant tensor:
#      x y z
#    x 1.794680 0.000000 0.001050 
#    y 0.000000 1.726810 0.000000 
#    z 0.001050 0.000000 1.788640 
# 
# From -- ./inp_files/67002.got.cif
#   From: 2010.06.25/outbox.cif.g09.slc.cpg/sg15_34_cif.got.tgz:67002.got - 2010.06.28 07:06:18.
