data_PCOD8144070
_publ_section_title
;
Structure prediction by ZEFSAII (Michael W. Deem and Ramdas Pophale) SiO2 
 PCOD8144070
Probable space group: C 2/C
;
_chemical_formula_sum "Si O2"
_cell_formula_units_Z 40
_cell_length_a 12.404030
_cell_length_b 9.125200
_cell_length_c 15.009507
_cell_angle_alpha 90.000000
_cell_angle_beta 84.510365
_cell_angle_gamma 90.000000
_cell_volume 1691.122871
_symmetry_space_group_name_H-M "C 2/C"
_symmetry_group_IT_number 15
_symmetry_cell_setting 'monoclinic'
loop_
_space_group_symop_operation_xyz
x,y,z
-x,y,1/2-z
-x,-y,-z
x,-y,1/2+z
1/2+x,1/2+y,z
1/2-x,1/2+y,1/2-z
1/2-x,1/2-y,-z
1/2+x,1/2-y,1/2+z
loop_
_atom_site_type_symbol
_atom_site_label
_atom_site_fract_x
_atom_site_fract_y
_atom_site_fract_z
Si Si1 0.000000 0.475564 0.250000
Si Si2 0.012301 0.376990 0.573523
Si Si3 0.332921 0.653316 0.889543
Si Si4 0.159288 0.231504 0.277080
Si Si5 0.268154 0.845995 0.584779
Si Si6 0.000000 0.003451 0.750000
O O1 0.054627 0.565820 0.165714
O O2 0.904496 0.383612 0.211741
O O3 0.892276 0.317701 0.600413
O O4 0.000000 0.500000 0.500000
O O5 0.103041 0.251943 0.540287
O O6 0.253800 0.761615 0.841686
O O7 0.266713 0.514985 0.934704
O O8 0.429240 0.604593 0.817964
O O9 0.198812 0.211439 0.172680
O O10 0.077837 0.098111 0.305576
O O11 0.250000 0.750000 0.500000
#
# Coordination Sequence:
#
# PCOD8144070 Si02
#       6
#     4   8   8   8   8   4
#     4  11  21  44  70 100 141 177 238 298 355 435
#     4  12  26  44  69 105 141 188 243 293 358 438
#     4  11  23  44  70  99 140 187 230 296 359 419
#     4  10  21  41  72 100 133 181 234 292 360 425
#     4  11  24  45  65 102 141 184 238 298 363 429
#     4   9  21  38  68 106 129 175 238 286 347 435
#
# _framework density 23.652925
#
# number of rings (size 3 to 8) (size 9 to 14) (size 15 to 20)
#    0.000    1.200    2.000    4.200    2.800    1.600 
#    3.600    2.000    0.000    0.000    0.000    0.000 
#    0.000    0.000    0.000    0.000    0.000    0.000 
#
# Total GULP energy -247926.263951 kJ/mol
# GULP energy per Si atom -12396.313198 kJ/mol
# Density = 2.359909 g / cm^3
# Si number density = 23.652925 Si / 1000 Ang^3
#
#
#
# Elastic Constant Matrix: (Units=GPa)
#
#
# Indices 1 2 3 4 5 6 
#
# 1 151.1940 59.7232 14.4542 0.0000 26.3001 0.0000
# 2 59.7232 119.4647 36.4610 0.0000 25.9778 0.0000
# 3 14.4542 36.4610 62.9784 0.0000 13.5812 0.0000
# 4 0.0000 0.0000 0.0000 28.0057 0.0000 -8.8736
# 5 26.3001 25.9778 13.5812 0.0000 22.8177 0.0000
# 6 0.0000 0.0000 0.0000 -8.8736 0.0000 30.1877
#
#
#
# Elastic Compliance Matrix: (Units=1/GPa)
#
#
# Indices 1 2 3 4 5 6 
#
# 1 0.009117 -0.003368 0.001488 0.000000 -0.007560 0.000000
# 2 -0.003368 0.013461 -0.005223 0.000000 -0.008334 0.000000
# 3 0.001488 -0.005223 0.020247 0.000000 -0.007820 0.000000
# 4 0.000000 0.000000 0.000000 0.039374 0.000000 0.011574
# 5 -0.007560 -0.008334 -0.007820 0.000000 0.066682 0.000000
# 6 0.000000 0.000000 0.000000 0.011574 0.000000 0.036528
#
#
# Mechanical properties :
#
#
# Convention : Reuss Voigt Hill
#
# Bulk Modulus (GPa) = 34.94230 61.65710 48.29970
# Shear Modulus (GPa) = 23.90569 31.06879 27.48724
#
# Velocity S-wave (km/s) = 3.18258 3.62819 3.41267
# Velocity P-wave (km/s) = 5.32072 6.60876 5.99941
#
# Compressibility (1/GPa) = 0.02861861
#
# Stress axis : x y z
#
# Youngs Moduli (GPa) = 109.68243 74.29003 49.39003
#
# Poissons Ratio (x) = 0.25022 -0.07348
# Poissons Ratio (y) = 0.36942 0.25795
# Poissons Ratio (z) = -0.16317 0.38800
#
# Static dielectric constant tensor:
#      x y z
#    x 4.946990 0.000000 0.064780 
#    y 0.000000 5.749010 0.000000 
#    z 0.064780 0.000000 3.758360 
# 
# 
# High freq. dielectric constant tensor:
#      x y z
#    x 1.964460 0.000000 -0.003510 
#    y 0.000000 1.945670 0.000000 
#    z -0.003510 0.000000 1.911740 
# 
# From -- ./inp_files/150737.got.cif
#   From: 2010.06.25/outbox.cif.g09.slc.cpg/sg15_76_cif.got.tgz:150737.got - 2010.06.28 07:06:18.
