data_PCOD8144736
_publ_section_title
;
Structure prediction by ZEFSAII (Michael W. Deem and Ramdas Pophale) SiO2 
 PCOD8144736
Probable space group: C 2/C
;
_chemical_formula_sum "Si O2"
_cell_formula_units_Z 44
_cell_length_a 19.222888
_cell_length_b 7.178434
_cell_length_c 19.329959
_cell_angle_alpha 90.000000
_cell_angle_beta 49.061461
_cell_angle_gamma 90.000000
_cell_volume 2014.947227
_symmetry_space_group_name_H-M "C 2/C"
_symmetry_group_IT_number 15
_symmetry_cell_setting 'monoclinic'
loop_
_space_group_symop_operation_xyz
x,y,z
-x,y,1/2-z
-x,-y,-z
x,-y,1/2+z
1/2+x,1/2+y,z
1/2-x,1/2+y,1/2-z
1/2-x,1/2-y,-z
1/2+x,1/2-y,1/2+z
loop_
_atom_site_type_symbol
_atom_site_label
_atom_site_fract_x
_atom_site_fract_y
_atom_site_fract_z
Si Si1 0.031480 0.823661 0.397299
Si Si2 0.098344 0.444357 0.288912
Si Si3 0.500000 0.714525 0.250000
Si Si4 0.116418 0.820359 0.898358
Si Si5 0.272411 0.901419 0.899789
Si Si6 0.126808 0.062210 0.602074
O O1 0.978879 0.762650 0.501673
O O2 0.959703 0.918462 0.392363
O O3 0.077967 0.650831 0.328965
O O4 0.108922 0.974169 0.368916
O O5 0.139058 0.328642 0.325277
O O6 0.174670 0.443710 0.178591
O O7 0.009984 0.342908 0.312220
O O8 0.406828 0.590862 0.320344
O O9 0.198497 0.800000 0.899338
O O10 0.349055 0.754709 0.875572
O O11 0.218220 0.998051 0.999292
#
# Coordination Sequence:
#
# PCOD8144736 Si02
#       6
#     8   8   4   8   8   8
#     4  10  21  44  68  85 132 169 222 260 318 397
#     4  12  24  38  65 100 122 169 215 269 324 392
#     4  12  24  40  68  94 128 174 226 258 328 398
#     4  10  23  42  64  95 124 175 210 271 325 387
#     4  10  24  40  65  95 132 165 216 271 336 373
#     4  10  21  45  65  90 129 176 211 273 320 390
#
# _framework density 21.836798999999999
#
# number of rings (size 3 to 8) (size 9 to 14) (size 15 to 20)
#    0.000    1.455    1.818    2.727    2.545    0.727 
#    0.000    0.000    0.000    0.000    0.000    0.000 
#    0.000    0.000    0.000    0.000    0.000    0.000 
#
# Total GULP energy -272800.073489 kJ/mol
# GULP energy per Si atom -12400.003340 kJ/mol
# Density = 2.178710 g / cm^3
# Si number density = 21.836799 Si / 1000 Ang^3
#
#
#
# Elastic Constant Matrix: (Units=GPa)
#
#
# Indices 1 2 3 4 5 6 
#
# 1 52.0851 -1.0413 9.6448 0.0026 8.3375 -0.0032
# 2 -1.0413 74.6808 57.5405 0.0035 -3.4836 -0.0079
# 3 9.6448 57.5405 126.8941 0.0016 -0.0923 -0.0028
# 4 0.0026 0.0035 0.0016 39.6816 -0.0007 10.9770
# 5 8.3375 -3.4836 -0.0923 -0.0007 30.2547 0.0014
# 6 -0.0032 -0.0079 -0.0028 10.9770 0.0014 32.4496
#
#
#
# Elastic Compliance Matrix: (Units=1/GPa)
#
#
# Indices 1 2 3 4 5 6 
#
# 1 0.020561 0.001905 -0.002431 -0.000002 -0.005454 0.000003
# 2 0.001905 0.020925 -0.009632 -0.000003 0.001855 0.000005
# 3 -0.002431 -0.009632 0.012433 0.000001 -0.000401 -0.000002
# 4 -0.000002 -0.000003 0.000001 0.027802 0.000001 -0.009405
# 5 -0.005454 0.001855 -0.000401 0.000001 0.034768 -0.000002
# 6 0.000003 0.000005 -0.000002 -0.009405 -0.000002 0.033998
#
#
# Mechanical properties :
#
#
# Convention : Reuss Voigt Hill
#
# Bulk Modulus (GPa) = 29.75921 42.88313 36.32117
# Shear Modulus (GPa) = 27.47221 32.97825 30.22523
#
# Velocity S-wave (km/s) = 3.55078 3.89036 3.72444
# Velocity P-wave (km/s) = 5.51981 6.31352 5.92996
#
# Compressibility (1/GPa) = 0.03360304
#
# Stress axis : x y z
#
# Youngs Moduli (GPa) = 48.63679 47.79079 80.43384
#
# Poissons Ratio (x) = -0.09104 0.19549
# Poissons Ratio (y) = -0.09265 0.77472
# Poissons Ratio (z) = 0.11821 0.46031
#
# Static dielectric constant tensor:
#      x y z
#    x 3.859080 0.000000 0.132110 
#    y 0.000000 3.647810 0.000000 
#    z 0.132110 0.000000 4.254540 
# 
# 
# High freq. dielectric constant tensor:
#      x y z
#    x 1.855260 0.000000 0.014680 
#    y 0.000000 1.839710 0.000000 
#    z 0.014680 0.000000 1.874200 
# 
# From -- ./inp_files/253945.got.cif
#   From: 2010.06.25/outbox.cif.g09.slc.cpg/sg15_127_cif.got.tgz:253945.got - 2010.06.28 07:06:18.
