data_PCOD8144004
_publ_section_title
;
Structure prediction by ZEFSAII (Michael W. Deem and Ramdas Pophale) SiO2 
 PCOD8144004
Probable space group: C 2/C
;
_chemical_formula_sum "Si O2"
_cell_formula_units_Z 56
_cell_length_a 22.734178
_cell_length_b 14.142378
_cell_length_c 7.567356
_cell_angle_alpha 90.000000
_cell_angle_beta 125.516634
_cell_angle_gamma 90.000000
_cell_volume 1980.349913
_symmetry_space_group_name_H-M "C 2/C"
_symmetry_group_IT_number 15
_symmetry_cell_setting 'monoclinic'
loop_
_space_group_symop_operation_xyz
x,y,z
-x,y,1/2-z
-x,-y,-z
x,-y,1/2+z
1/2+x,1/2+y,z
1/2-x,1/2+y,1/2-z
1/2-x,1/2-y,-z
1/2+x,1/2-y,1/2+z
loop_
_atom_site_type_symbol
_atom_site_label
_atom_site_fract_x
_atom_site_fract_y
_atom_site_fract_z
Si Si1 0.000000 0.914636 0.250000
Si Si2 0.203982 0.528431 0.129706
Si Si3 0.862697 0.994237 0.846370
Si Si4 0.800449 0.344417 0.222990
Si Si5 0.000000 0.529679 0.750000
Si Si6 0.081448 0.810267 0.122088
Si Si7 0.140626 0.188482 0.370558
Si Si8 0.094440 0.394778 0.705914
O O1 0.069429 0.980062 0.402635
O O2 0.008356 0.850310 0.086371
O O3 0.289186 0.525106 0.325978
O O4 0.181230 0.413228 0.076609
O O5 0.167613 0.575947 0.234384
O O6 0.190403 0.584078 0.927000
O O7 0.869587 0.920109 0.698151
O O8 0.861824 0.101624 0.769580
O O9 0.859581 0.260550 0.297837
O O10 0.720719 0.299069 0.098808
O O11 0.928881 0.465659 0.674042
O O12 0.975148 0.596462 0.546349
O O13 0.103035 0.716716 0.271577
O O14 0.079431 0.783213 0.908608
#
# Coordination Sequence:
#
# PCOD8144004 Si02
#       8
#     4   8   8   8   4   8   8   8
#     4  12  29  47  64 104 144 194 237 289 356 412
#     4  11  22  42  73 112 139 184 232 306 348 420
#     4  11  26  45  72 102 149 184 240 295 355 422
#     4  10  21  41  69 105 142 179 230 289 367 417
#     4  10  25  49  70 104 144 186 229 301 344 438
#     4  12  24  47  71 103 138 193 236 296 342 444
#     4  10  22  43  70 100 138 191 231 284 354 434
#     4  11  24  45  75 103 141 183 239 284 367 414
#
# _framework density 28.277830999999999
#
# number of rings (size 3 to 8) (size 9 to 14) (size 15 to 20)
#    0.000    1.143    2.857    2.571    2.000    2.286 
#    7.714    0.714    0.000    0.000    0.000    0.000 
#    0.000    0.000    0.000    0.000    0.000    0.000 
#
# Total GULP energy -346929.123048 kJ/mol
# GULP energy per Si atom -12390.325823 kJ/mol
# Density = 2.821347 g / cm^3
# Si number density = 28.277831 Si / 1000 Ang^3
#
#
#
# Elastic Constant Matrix: (Units=GPa)
#
#
# Indices 1 2 3 4 5 6 
#
# 1 182.6301 51.2639 14.0323 0.0000 -3.3249 0.0000
# 2 51.2639 181.3215 14.5815 0.0000 1.2097 0.0000
# 3 14.0323 14.5815 42.7952 0.0000 3.3291 0.0000
# 4 0.0000 0.0000 0.0000 40.9516 0.0000 -13.3247
# 5 -3.3249 1.2097 3.3291 0.0000 44.3452 0.0000
# 6 0.0000 0.0000 0.0000 -13.3247 0.0000 58.5099
#
#
#
# Elastic Compliance Matrix: (Units=1/GPa)
#
#
# Indices 1 2 3 4 5 6 
#
# 1 0.006048 -0.001595 -0.001487 0.000000 0.000609 0.000000
# 2 -0.001595 0.006091 -0.001539 0.000000 -0.000170 0.000000
# 3 -0.001487 -0.001539 0.024528 0.000000 -0.001911 0.000000
# 4 0.000000 0.000000 0.000000 0.026373 0.000000 0.006006
# 5 0.000609 -0.000170 -0.001911 0.000000 0.022744 0.000000
# 6 0.000000 0.000000 0.000000 0.006006 0.000000 0.018459
#
#
# Mechanical properties :
#
#
# Convention : Reuss Voigt Hill
#
# Bulk Modulus (GPa) = 36.46301 62.94466 49.70384
# Shear Modulus (GPa) = 40.77398 50.55262 45.66330
#
# Velocity S-wave (km/s) = 3.80136 4.23272 4.02283
# Velocity P-wave (km/s) = 5.67360 6.79673 6.26040
#
# Compressibility (1/GPa) = 0.02742505
#
# Stress axis : x y z
#
# Youngs Moduli (GPa) = 165.33079 164.18239 40.76994
#
# Poissons Ratio (x) = 0.26179 0.06064
# Poissons Ratio (y) = 0.26362 0.06275
# Poissons Ratio (z) = 0.24590 0.25271
#
# Static dielectric constant tensor:
#      x y z
#    x 5.673130 0.000000 -0.257170 
#    y 0.000000 5.493170 0.000000 
#    z -0.257170 0.000000 4.935320 
# 
# 
# High freq. dielectric constant tensor:
#      x y z
#    x 2.167640 0.000000 -0.009010 
#    y 0.000000 2.158520 0.000000 
#    z -0.009010 0.000000 2.122670 
# 
# From -- ./inp_files/62023.got.cif
#   From: 2010.06.25/outbox.cif.g09.slc.cpg/sg15_32_cif.got.tgz:62023.got - 2010.06.28 07:06:18.
