data_PCOD8144509
_publ_section_title
;
Structure prediction by ZEFSAII (Michael W. Deem and Ramdas Pophale) SiO2 
 PCOD8144509
Probable space group: C 2/C
;
_chemical_formula_sum "Si O2"
_cell_formula_units_Z 52
_cell_length_a 21.796285
_cell_length_b 8.535557
_cell_length_c 14.920316
_cell_angle_alpha 90.000000
_cell_angle_beta 57.148052
_cell_angle_gamma 90.000000
_cell_volume 2331.903015
_symmetry_space_group_name_H-M "C 2/C"
_symmetry_group_IT_number 15
_symmetry_cell_setting 'monoclinic'
loop_
_space_group_symop_operation_xyz
x,y,z
-x,y,1/2-z
-x,-y,-z
x,-y,1/2+z
1/2+x,1/2+y,z
1/2-x,1/2+y,1/2-z
1/2-x,1/2-y,-z
1/2+x,1/2-y,1/2+z
loop_
_atom_site_type_symbol
_atom_site_label
_atom_site_fract_x
_atom_site_fract_y
_atom_site_fract_z
Si Si1 0.306652 0.027221 0.949218
Si Si2 0.045434 0.215483 0.401578
Si Si3 0.000000 0.158104 0.250000
Si Si4 0.351499 0.622212 0.441358
Si Si5 0.826407 0.381896 0.115847
Si Si6 0.798233 0.643255 0.273492
Si Si7 0.899601 0.118733 0.601268
O O1 0.342368 0.198136 0.918159
O O2 0.324484 0.944108 0.841884
O O3 0.219072 0.028670 0.037475
O O4 0.342439 0.930531 0.001328
O O5 0.021178 0.262262 0.319793
O O6 0.095972 0.352227 0.399143
O O7 0.976016 0.203423 0.520910
O O8 0.087636 0.049753 0.364264
O O9 0.072166 0.057078 0.162328
O O10 0.352108 0.603705 0.548206
O O11 0.787063 0.521385 0.200962
O O12 0.779968 0.223583 0.152243
O O13 0.857952 0.774617 0.205240
#
# Coordination Sequence:
#
# PCOD8144509 Si02
#       7
#     8   8   4   8   8   8   8
#     4  11  24  41  65  98 141 172 228 287 339 405
#     4  10  23  44  68  98 134 174 222 277 342 410
#     4  10  22  38  72  96 128 186 224 268 338 414
#     4  10  21  43  65  98 133 180 224 278 345 411
#     4  12  25  42  67  98 134 178 222 287 337 407
#     4  12  25  41  67  99 130 180 226 282 342 400
#     4  10  22  45  67  94 133 175 224 280 341 409
#
# _framework density 22.299382000000001
#
# number of rings (size 3 to 8) (size 9 to 14) (size 15 to 20)
#    0.000    1.231    1.538    4.154    6.462    0.615 
#    8.308    0.000    0.000    0.000    0.000    0.000 
#    0.000    0.000    0.000    0.000    0.000    0.000 
#
# Total GULP energy -322463.555710 kJ/mol
# GULP energy per Si atom -12402.444450 kJ/mol
# Density = 2.224863 g / cm^3
# Si number density = 22.299382 Si / 1000 Ang^3
#
#
#
# Elastic Constant Matrix: (Units=GPa)
#
#
# Indices 1 2 3 4 5 6 
#
# 1 108.3776 32.9967 41.1444 0.0000 15.6920 0.0000
# 2 32.9967 53.7674 13.3964 0.0001 3.1792 0.0001
# 3 41.1444 13.3964 90.8922 0.0000 10.6366 0.0000
# 4 0.0000 0.0001 0.0000 25.3804 0.0000 0.4217
# 5 15.6920 3.1792 10.6366 0.0000 35.0365 0.0000
# 6 0.0000 0.0001 0.0000 0.4217 0.0000 32.2052
#
#
#
# Elastic Compliance Matrix: (Units=1/GPa)
#
#
# Indices 1 2 3 4 5 6 
#
# 1 0.013744 -0.007020 -0.004708 0.000000 -0.004089 0.000000
# 2 -0.007020 0.022922 -0.000337 0.000000 0.001166 0.000000
# 3 -0.004708 -0.000337 0.013409 0.000000 -0.001931 0.000000
# 4 0.000000 0.000000 0.000000 0.039409 0.000000 -0.000516
# 5 -0.004089 0.001166 -0.001931 0.000000 0.030854 0.000000
# 6 0.000000 0.000000 0.000000 -0.000516 0.000000 0.031058
#
#
# Mechanical properties :
#
#
# Convention : Reuss Voigt Hill
#
# Bulk Modulus (GPa) = 38.54437 47.56801 43.05619
# Shear Modulus (GPa) = 27.14840 29.55773 28.35306
#
# Velocity S-wave (km/s) = 3.49298 3.64468 3.56964
# Velocity P-wave (km/s) = 5.79572 6.25216 6.02826
#
# Compressibility (1/GPa) = 0.02594413
#
# Stress axis : x y z
#
# Youngs Moduli (GPa) = 72.76076 43.62712 74.57623
#
# Poissons Ratio (x) = 0.30624 0.35112
# Poissons Ratio (y) = 0.51075 0.02515
# Poissons Ratio (z) = 0.34258 0.01472
#
# Static dielectric constant tensor:
#      x y z
#    x 4.243460 0.000000 -0.039200 
#    y 0.000000 3.776590 0.000000 
#    z -0.039200 0.000000 3.998310 
# 
# 
# High freq. dielectric constant tensor:
#      x y z
#    x 1.892030 0.000000 0.001690 
#    y 0.000000 1.853910 0.000000 
#    z 0.001690 0.000000 1.884270 
# 
# From -- ./inp_files/176476.got.cif
#   From: 2010.06.25/outbox.cif.g09.slc.cpg/sg15_89_cif.got.tgz:176476.got - 2010.06.28 07:06:18.
