data_PCOD8144593
_publ_section_title
;
Structure prediction by ZEFSAII (Michael W. Deem and Ramdas Pophale) SiO2 
 PCOD8144593
Probable space group: C 2/C
;
_chemical_formula_sum "Si O2"
_cell_formula_units_Z 48
_cell_length_a 9.007382
_cell_length_b 32.430165
_cell_length_c 14.993366
_cell_angle_alpha 90.000000
_cell_angle_beta 147.505781
_cell_angle_gamma 90.000000
_cell_volume 2352.852035
_symmetry_space_group_name_H-M "C 2/C"
_symmetry_group_IT_number 15
_symmetry_cell_setting 'monoclinic'
loop_
_space_group_symop_operation_xyz
x,y,z
-x,y,1/2-z
-x,-y,-z
x,-y,1/2+z
1/2+x,1/2+y,z
1/2-x,1/2+y,1/2-z
1/2-x,1/2-y,-z
1/2+x,1/2-y,1/2+z
loop_
_atom_site_type_symbol
_atom_site_label
_atom_site_fract_x
_atom_site_fract_y
_atom_site_fract_z
Si Si1 0.511851 0.282861 0.894287
Si Si2 0.062342 0.398140 0.009941
Si Si3 0.500000 0.668780 0.750000
Si Si4 0.980215 0.771708 0.397799
Si Si5 0.693362 0.472385 0.266624
Si Si6 0.500000 0.646591 0.250000
Si Si7 0.870641 0.467153 0.589516
O O1 0.558104 0.326181 0.867872
O O2 0.244413 0.264117 0.711485
O O3 0.750000 0.250000 0.000000
O O4 0.476811 0.291523 0.982431
O O5 0.241422 0.357445 0.086596
O O6 0.192763 0.426282 0.155287
O O7 0.071899 0.422418 0.921781
O O8 0.752858 0.384688 0.871344
O O9 0.609272 0.694703 0.720698
O O10 0.250000 0.750000 0.500000
O O11 0.500000 0.488254 0.250000
O O12 0.963473 0.500200 0.388378
O O13 0.463745 0.473425 0.070990
O O14 0.000000 0.471146 0.750000
#
# Coordination Sequence:
#
# PCOD8144593 Si02
#       7
#     8   8   4   8   8   4   8
#     4  12  23  44  64  95 125 166 222 279 330 394
#     4  11  24  42  63  92 138 176 215 267 337 392
#     4  12  22  42  67  92 132 172 214 278 341 384
#     4  12  23  40  71  93 121 167 221 276 332 396
#     4  10  21  43  68  96 129 179 215 258 322 395
#     4  12  26  40  67  96 134 178 222 280 341 384
#     4  11  23  41  71 101 133 171 220 269 314 394
#
# _framework density 20.400772
#
# number of rings (size 3 to 8) (size 9 to 14) (size 15 to 20)
#    0.000    0.667    5.833    4.500    3.500    1.333 
#    0.000    0.000    0.000    0.000    0.000    0.000 
#    0.000    0.000    0.000    0.000    0.000    0.000 
#
# Total GULP energy -297503.150450 kJ/mol
# GULP energy per Si atom -12395.964602 kJ/mol
# Density = 2.035434 g / cm^3
# Si number density = 20.400772 Si / 1000 Ang^3
#
#
#
# Elastic Constant Matrix: (Units=GPa)
#
#
# Indices 1 2 3 4 5 6 
#
# 1 73.4716 19.6598 18.3342 0.0000 -3.1920 0.0000
# 2 19.6598 67.9427 -2.6886 0.0000 5.4888 0.0000
# 3 18.3342 -2.6886 60.2632 0.0000 6.6093 0.0000
# 4 0.0000 0.0000 0.0000 35.5947 0.0000 20.7644
# 5 -3.1920 5.4888 6.6093 0.0000 59.7581 0.0000
# 6 0.0000 0.0000 0.0000 20.7644 0.0000 8.7912
#
#
#
# Elastic Compliance Matrix: (Units=1/GPa)
#
#
# Indices 1 2 3 4 5 6 
#
# 1 0.016424 -0.005125 -0.005439 0.000000 0.001950 0.000000
# 2 -0.005125 0.016468 0.002520 0.000000 -0.002065 0.000000
# 3 -0.005439 0.002520 0.018645 0.000000 -0.002584 0.000000
# 4 0.000000 0.000000 0.000000 -0.074350 0.000000 0.175610
# 5 0.001950 -0.002065 -0.002584 0.000000 0.017314 0.000000
# 6 0.000000 0.000000 0.000000 0.175610 0.000000 -0.301033
#
#
# Mechanical properties :
#
#
# Convention : Reuss Voigt Hill
#
# Bulk Modulus (GPa) = 28.20995 30.25427 29.23211
# Shear Modulus (GPa) = -17.94505 31.92026 6.98761
#
# Velocity S-wave (km/s) = -2.96907 3.95987 1.85273
# Velocity P-wave (km/s) = 1.45055 5.98077 4.35165
#
# Compressibility (1/GPa) = 0.03544848
#
# Stress axis : x y z
#
# Youngs Moduli (GPa) = 60.88589 60.72424 53.63496
#
# Poissons Ratio (x) = 0.31123 0.29174
# Poissons Ratio (y) = 0.31205 -0.13518
# Poissons Ratio (z) = 0.33118 -0.15305
#
# Static dielectric constant tensor:
#      x y z
#    x 3.356490 0.000000 0.542300 
#    y 0.000000 3.761800 0.000000 
#    z 0.542300 0.000000 3.926800 
# 
# 
# High freq. dielectric constant tensor:
#      x y z
#    x 1.795050 0.000000 0.011770 
#    y 0.000000 1.790340 0.000000 
#    z 0.011770 0.000000 1.821440 
# 
# From -- ./inp_files/139671.got.cif
#   From: 2010.06.25/outbox.cif.g09.slc.cpg/sg15_70_cif.got.tgz:139671.got - 2010.06.28 07:06:18.
