data_PCOD8144392
_publ_section_title
;
Structure prediction by ZEFSAII (Michael W. Deem and Ramdas Pophale) SiO2 
 PCOD8144392
Probable space group: C 2/C
;
_chemical_formula_sum "Si O2"
_cell_formula_units_Z 40
_cell_length_a 11.654559
_cell_length_b 10.833826
_cell_length_c 14.543717
_cell_angle_alpha 90.000000
_cell_angle_beta 107.667320
_cell_angle_gamma 90.000000
_cell_volume 1749.728632
_symmetry_space_group_name_H-M "C 2/C"
_symmetry_group_IT_number 15
_symmetry_cell_setting 'monoclinic'
loop_
_space_group_symop_operation_xyz
x,y,z
-x,y,1/2-z
-x,-y,-z
x,-y,1/2+z
1/2+x,1/2+y,z
1/2-x,1/2+y,1/2-z
1/2-x,1/2-y,-z
1/2+x,1/2-y,1/2+z
loop_
_atom_site_type_symbol
_atom_site_label
_atom_site_fract_x
_atom_site_fract_y
_atom_site_fract_z
Si Si1 0.309639 0.504733 0.857153
Si Si2 0.161332 0.637721 0.969044
Si Si3 0.410239 0.246646 0.941850
Si Si4 0.474384 0.664219 0.643259
Si Si5 0.249025 0.969797 0.357980
O O1 0.201091 0.545811 0.897164
O O2 0.384950 0.388446 0.911672
O O3 0.401585 0.618451 0.871397
O O4 0.251294 0.475332 0.744355
O O5 0.028443 0.691833 0.920563
O O6 0.250000 0.750000 0.000000
O O7 0.165968 0.560231 0.064127
O O8 0.299287 0.169195 0.876133
O O9 0.420676 0.237872 0.056375
O O10 0.500000 0.725983 0.750000
O O11 0.387221 0.544513 0.636564
#
# Coordination Sequence:
#
# PCOD8144392 Si02
#       5
#     8   8   8   8   8
#     4  11  25  46  71 105 142 188 242 292 356 433
#     4  12  25  45  73 101 143 187 241 295 352 430
#     4  12  24  45  72  98 147 188 236 299 357 423
#     4  10  21  42  69  98 137 191 234 286 362 422
#     4  11  26  44  67 106 142 187 237 294 367 422
#
# _framework density 22.860686999999999
#
# number of rings (size 3 to 8) (size 9 to 14) (size 15 to 20)
#    0.000    0.800    4.000    3.000    2.800    0.800 
#    0.000    0.000    0.000    0.000    0.000    0.000 
#    0.000    0.000    0.000    0.000    0.000    0.000 
#
# Total GULP energy -248037.499275 kJ/mol
# GULP energy per Si atom -12401.874964 kJ/mol
# Density = 2.280866 g / cm^3
# Si number density = 22.860687 Si / 1000 Ang^3
#
#
#
# Elastic Constant Matrix: (Units=GPa)
#
#
# Indices 1 2 3 4 5 6 
#
# 1 100.8413 39.7614 55.9859 0.0000 -13.0751 0.0000
# 2 39.7614 62.1030 31.4023 0.0000 -6.2369 0.0000
# 3 55.9859 31.4023 146.6541 0.0000 -13.7867 0.0000
# 4 0.0000 0.0000 0.0000 27.6543 0.0000 7.0002
# 5 -13.0751 -6.2369 -13.7867 0.0000 24.4104 0.0000
# 6 0.0000 0.0000 0.0000 7.0002 0.0000 41.5535
#
#
#
# Elastic Compliance Matrix: (Units=1/GPa)
#
#
# Indices 1 2 3 4 5 6 
#
# 1 0.015654 -0.007601 -0.003953 0.000000 0.004210 0.000000
# 2 -0.007601 0.021902 -0.001737 0.000000 0.000544 0.000000
# 3 -0.003953 -0.001737 0.008933 0.000000 0.002484 0.000000
# 4 0.000000 0.000000 0.000000 0.037771 0.000000 -0.006363
# 5 0.004210 0.000544 0.002484 0.000000 0.044763 0.000000
# 6 0.000000 0.000000 0.000000 -0.006363 0.000000 0.025137
#
#
# Mechanical properties :
#
#
# Convention : Reuss Voigt Hill
#
# Bulk Modulus (GPa) = 50.23145 62.65528 56.44337
# Shear Modulus (GPa) = 26.68406 30.88690 28.78548
#
# Velocity S-wave (km/s) = 3.42021 3.67971 3.55233
# Velocity P-wave (km/s) = 6.13332 6.74690 6.44741
#
# Compressibility (1/GPa) = 0.01990785
#
# Stress axis : x y z
#
# Youngs Moduli (GPa) = 63.88152 45.65871 111.94251
#
# Poissons Ratio (x) = 0.34705 0.44246
# Poissons Ratio (y) = 0.48556 0.19443
# Poissons Ratio (z) = 0.25250 0.07930
#
# Static dielectric constant tensor:
#      x y z
#    x 4.289330 0.000000 -0.010390 
#    y 0.000000 -0.171150 0.000000 
#    z -0.010390 0.000000 4.318960 
# 
# 
# High freq. dielectric constant tensor:
#      x y z
#    x 1.909530 0.000000 0.000400 
#    y 0.000000 1.883680 0.000000 
#    z 0.000400 0.000000 1.911250 
# 
# From -- ./inp_files/142131.got.cif
#   From: 2010.06.25/outbox.cif.g09.slc.cpg/sg15_72_cif.got.tgz:142131.got - 2010.06.28 07:06:18.
