data_PCOD8144357
_publ_section_title
;
Structure prediction by ZEFSAII (Michael W. Deem and Ramdas Pophale) SiO2 
 PCOD8144357
Probable space group: C 2/C
;
_chemical_formula_sum "Si O2"
_cell_formula_units_Z 60
_cell_length_a 13.610611
_cell_length_b 10.657713
_cell_length_c 21.600253
_cell_angle_alpha 90.000000
_cell_angle_beta 119.304029
_cell_angle_gamma 90.000000
_cell_volume 2732.337394
_symmetry_space_group_name_H-M "C 2/C"
_symmetry_group_IT_number 15
_symmetry_cell_setting 'monoclinic'
loop_
_space_group_symop_operation_xyz
x,y,z
-x,y,1/2-z
-x,-y,-z
x,-y,1/2+z
1/2+x,1/2+y,z
1/2-x,1/2+y,1/2-z
1/2-x,1/2-y,-z
1/2+x,1/2-y,1/2+z
loop_
_atom_site_type_symbol
_atom_site_label
_atom_site_fract_x
_atom_site_fract_y
_atom_site_fract_z
Si Si1 0.530789 0.731564 0.063314
Si Si2 0.000000 0.154446 0.250000
Si Si3 0.817280 0.723310 0.776387
Si Si4 0.880863 0.226443 0.543671
Si Si5 0.179511 0.373135 0.487757
Si Si6 0.416533 0.954666 0.637544
Si Si7 0.103450 0.031519 0.397201
Si Si8 0.666169 0.955481 0.754886
O O1 0.631772 0.779536 0.138514
O O2 0.442041 0.843027 0.019944
O O3 0.465044 0.616052 0.074864
O O4 0.580155 0.691711 0.013177
O O5 0.084140 0.246764 0.241280
O O6 0.068314 0.064676 0.317117
O O7 0.723691 0.833796 0.741444
O O8 0.766002 0.586045 0.740392
O O9 0.750000 0.250000 0.500000
O O10 0.933119 0.348143 0.591142
O O11 0.923318 0.113144 0.599713
O O12 0.250000 0.250000 0.500000
O O13 0.153686 0.430570 0.412547
O O14 0.259642 0.460401 0.554355
O O15 0.543514 0.991280 0.691989
O O16 0.343837 0.919315 0.675715
#
# Coordination Sequence:
#
# PCOD8144357 Si02
#       8
#     8   4   8   8   8   8   8   8
#     4  10  23  43  68  99 134 175 238 276 334 415
#     4  10  24  44  70  98 136 174 236 272 332 420
#     4  11  24  45  71 101 133 186 223 287 336 406
#     4  12  24  41  64  99 142 176 220 286 353 399
#     4  10  21  42  69 100 125 178 232 274 337 400
#     4  11  24  46  67  99 136 184 219 290 342 404
#     4  10  23  43  68 100 133 182 220 288 343 406
#     4  11  26  45  72  97 144 177 235 275 350 408
#
# _framework density 21.959220999999999
#
# number of rings (size 3 to 8) (size 9 to 14) (size 15 to 20)
#    0.000    1.333    2.667    2.000    3.733    6.933 
#    4.800    0.000    0.000    0.000    0.000    0.000 
#    0.000    0.000    0.000    0.000    0.000    0.000 
#
# Total GULP energy -371847.423693 kJ/mol
# GULP energy per Si atom -12394.914123 kJ/mol
# Density = 2.190924 g / cm^3
# Si number density = 21.959221 Si / 1000 Ang^3
#
#
#
# Elastic Constant Matrix: (Units=GPa)
#
#
# Indices 1 2 3 4 5 6 
#
# 1 67.8786 36.4522 37.0113 0.0000 5.1082 0.0000
# 2 36.4522 117.7322 35.2378 0.0000 -8.2277 0.0000
# 3 37.0113 35.2378 123.3860 0.0000 -1.6931 0.0000
# 4 0.0000 0.0000 0.0000 35.6959 0.0000 -0.1906
# 5 5.1082 -8.2277 -1.6931 0.0000 26.9867 0.0000
# 6 0.0000 0.0000 0.0000 -0.1906 0.0000 25.5786
#
#
#
# Elastic Compliance Matrix: (Units=1/GPa)
#
#
# Indices 1 2 3 4 5 6 
#
# 1 0.020645 -0.005383 -0.004736 0.000000 -0.005846 0.000000
# 2 -0.005383 0.010887 -0.001436 0.000000 0.004248 0.000000
# 3 -0.004736 -0.001436 0.009950 0.000000 0.001083 0.000000
# 4 0.000000 0.000000 0.000000 0.028016 0.000000 0.000209
# 5 -0.005846 0.004248 0.001083 0.000000 0.039525 0.000000
# 6 0.000000 0.000000 0.000000 0.000209 0.000000 0.039097
#
#
# Mechanical properties :
#
#
# Convention : Reuss Voigt Hill
#
# Bulk Modulus (GPa) = 54.42932 58.48883 56.45907
# Shear Modulus (GPa) = 28.19212 31.00529 29.59871
#
# Velocity S-wave (km/s) = 3.58696 3.76167 3.67535
# Velocity P-wave (km/s) = 6.48038 6.74981 6.61647
#
# Compressibility (1/GPa) = 0.01837245
#
# Stress axis : x y z
#
# Youngs Moduli (GPa) = 48.43739 91.84921 100.50067
#
# Poissons Ratio (x) = 0.49446 0.47593
# Poissons Ratio (y) = 0.26076 0.14434
# Poissons Ratio (z) = 0.22938 0.13192
#
# Static dielectric constant tensor:
#      x y z
#    x 4.009540 0.000000 0.350920 
#    y 0.000000 6.115060 0.000000 
#    z 0.350920 0.000000 3.231380 
# 
# 
# High freq. dielectric constant tensor:
#      x y z
#    x 1.854720 0.000000 0.006010 
#    y 0.000000 1.871260 0.000000 
#    z 0.006010 0.000000 1.867950 
# 
# From -- ./inp_files/243768.got.cif
#   From: 2010.06.25/outbox.cif.g09.slc.cpg/sg15_122_cif.got.tgz:243768.got - 2010.06.28 07:06:18.
