data_PCOD8144819
_publ_section_title
;
Structure prediction by ZEFSAII (Michael W. Deem and Ramdas Pophale) SiO2 
 PCOD8144819
Probable space group: C 2/C
;
_chemical_formula_sum "Si O2"
_cell_formula_units_Z 40
_cell_length_a 13.112097
_cell_length_b 6.716007
_cell_length_c 19.197942
_cell_angle_alpha 90.000000
_cell_angle_beta 104.731319
_cell_angle_gamma 90.000000
_cell_volume 1635.017215
_symmetry_space_group_name_H-M "C 2/C"
_symmetry_group_IT_number 15
_symmetry_cell_setting 'monoclinic'
loop_
_space_group_symop_operation_xyz
x,y,z
-x,y,1/2-z
-x,-y,-z
x,-y,1/2+z
1/2+x,1/2+y,z
1/2-x,1/2+y,1/2-z
1/2-x,1/2-y,-z
1/2+x,1/2-y,1/2+z
loop_
_atom_site_type_symbol
_atom_site_label
_atom_site_fract_x
_atom_site_fract_y
_atom_site_fract_z
Si Si1 0.318797 0.776688 0.841452
Si Si2 0.860614 0.263504 0.592423
Si Si3 0.015280 0.963707 0.583857
Si Si4 0.115048 0.538485 0.777799
Si Si5 0.367514 0.122241 0.944216
O O1 0.392936 0.586182 0.860960
O O2 0.197761 0.708122 0.813930
O O3 0.344076 0.923077 0.782639
O O4 0.337226 0.902192 0.915309
O O5 0.906172 0.035233 0.601056
O O6 0.905027 0.375857 0.666263
O O7 0.734847 0.265772 0.573394
O O8 0.906201 0.380489 0.531578
O O9 0.000000 0.000000 0.500000
O O10 0.047685 0.729367 0.593624
O O11 0.000000 0.642254 0.750000
#
# Coordination Sequence:
#
# PCOD8144819 Si02
#       5
#     8   8   8   8   8
#     4  12  26  47  70 100 148 189 244 299 364 438
#     4  10  21  45  69 103 140 179 240 293 363 430
#     4  10  22  43  72 103 135 178 233 297 363 427
#     4  12  26  47  69 106 145 200 242 295 367 439
#     4  10  23  44  71 102 138 182 233 307 357 425
#
# _framework density 24.464572
#
# number of rings (size 3 to 8) (size 9 to 14) (size 15 to 20)
#    0.000    1.200    4.000    1.200    0.000    5.600 
#    0.000    0.000    0.000    0.000    0.000    0.000 
#    0.000    0.000    0.000    0.000    0.000    0.000 
#
# Total GULP energy -247863.572514 kJ/mol
# GULP energy per Si atom -12393.178626 kJ/mol
# Density = 2.440889 g / cm^3
# Si number density = 24.464572 Si / 1000 Ang^3
#
#
#
# Elastic Constant Matrix: (Units=GPa)
#
#
# Indices 1 2 3 4 5 6 
#
# 1 99.3436 32.2514 25.6562 0.0000 16.7085 0.0000
# 2 32.2514 59.0787 3.5202 0.0000 1.5063 0.0000
# 3 25.6562 3.5202 56.2897 0.0000 5.9239 0.0000
# 4 0.0000 0.0000 0.0000 33.3144 0.0000 14.9522
# 5 16.7085 1.5063 5.9239 0.0000 40.7966 0.0000
# 6 0.0000 0.0000 0.0000 14.9522 0.0000 46.3767
#
#
#
# Elastic Compliance Matrix: (Units=1/GPa)
#
#
# Indices 1 2 3 4 5 6 
#
# 1 0.014879 -0.007651 -0.005780 0.000000 -0.004972 0.000000
# 2 -0.007651 0.020934 0.001960 0.000000 0.002076 0.000000
# 3 -0.005780 0.001960 0.020347 0.000000 -0.000660 0.000000
# 4 0.000000 0.000000 0.000000 0.035095 0.000000 -0.011315
# 5 -0.004972 0.002076 -0.000660 0.000000 0.026567 0.000000
# 6 0.000000 0.000000 0.000000 -0.011315 0.000000 0.025211
#
#
# Mechanical properties :
#
#
# Convention : Reuss Voigt Hill
#
# Bulk Modulus (GPa) = 30.10575 37.50752 33.80663
# Shear Modulus (GPa) = 28.24099 34.31651 31.27875
#
# Velocity S-wave (km/s) = 3.40128 3.74933 3.57954
# Velocity P-wave (km/s) = 5.26854 5.84020 5.56172
#
# Compressibility (1/GPa) = 0.03321624
#
# Stress axis : x y z
#
# Youngs Moduli (GPa) = 67.20891 47.76971 49.14845
#
# Poissons Ratio (x) = 0.36550 0.28407
# Poissons Ratio (y) = 0.51424 -0.09632
# Poissons Ratio (z) = 0.38846 -0.09362
#
# Static dielectric constant tensor:
#      x y z
#    x 4.628510 0.000000 0.154820 
#    y 0.000000 4.319660 0.000000 
#    z 0.154820 0.000000 4.583880 
# 
# 
# High freq. dielectric constant tensor:
#      x y z
#    x 1.978300 0.000000 0.015960 
#    y 0.000000 1.954790 0.000000 
#    z 0.015960 0.000000 1.984080 
# 
# From -- ./inp_files/271959.got.cif
#   From: 2010.06.25/outbox.cif.g09.slc.cpg/sg15_136_cif.got.tgz:271959.got - 2010.06.28 07:06:18.
