data_PCOD8144660
_publ_section_title
;
Structure prediction by ZEFSAII (Michael W. Deem and Ramdas Pophale) SiO2 
 PCOD8144660
Probable space group: C 2/C
;
_chemical_formula_sum "Si O2"
_cell_formula_units_Z 48
_cell_length_a 15.367097
_cell_length_b 10.896406
_cell_length_c 15.001032
_cell_angle_alpha 90.000000
_cell_angle_beta 125.774102
_cell_angle_gamma 90.000000
_cell_volume 2037.946535
_symmetry_space_group_name_H-M "C 2/C"
_symmetry_group_IT_number 15
_symmetry_cell_setting 'monoclinic'
loop_
_space_group_symop_operation_xyz
x,y,z
-x,y,1/2-z
-x,-y,-z
x,-y,1/2+z
1/2+x,1/2+y,z
1/2-x,1/2+y,1/2-z
1/2-x,1/2-y,-z
1/2+x,1/2-y,1/2+z
loop_
_atom_site_type_symbol
_atom_site_label
_atom_site_fract_x
_atom_site_fract_y
_atom_site_fract_z
Si Si1 0.467650 0.533130 0.833784
Si Si2 0.126396 0.161413 0.459995
Si Si3 0.575611 0.933288 0.719244
Si Si4 0.660911 0.184517 0.822050
Si Si5 0.307284 0.343068 0.818709
Si Si6 0.501280 0.236664 0.036395
O O1 0.500000 0.537258 0.750000
O O2 0.566118 0.466062 0.943095
O O3 0.361286 0.457349 0.798261
O O4 0.454029 0.669551 0.862191
O O5 0.250430 0.133077 0.555237
O O6 0.101344 0.209559 0.344463
O O7 0.076725 0.264315 0.495036
O O8 0.500000 0.874943 0.750000
O O9 0.696952 0.883036 0.798770
O O10 0.516436 0.898059 0.590469
O O11 0.580346 0.080298 0.737502
O O12 0.719692 0.242437 0.772358
O O13 0.380627 0.275433 0.937072
#
# Coordination Sequence:
#
# PCOD8144660 Si02
#       6
#     8   8   8   8   8   8
#     4  11  21  40  74 104 135 178 238 298 343 416
#     4  10  21  43  72 106 131 190 247 288 337 435
#     4  12  28  46  67 105 154 186 230 304 362 421
#     4  11  23  44  73 100 143 181 241 290 357 416
#     4  11  24  45  71 101 140 189 237 293 351 426
#     4  11  24  43  70 104 142 183 237 285 363 426
#
# _framework density 23.55312
#
# number of rings (size 3 to 8) (size 9 to 14) (size 15 to 20)
#    0.000    1.000    3.333    4.500    4.667    1.333 
#    0.000    1.667    0.000    0.000    0.000    0.000 
#    0.000    0.000    0.000    0.000    0.000    0.000 
#
# Total GULP energy -297468.178615 kJ/mol
# GULP energy per Si atom -12394.507442 kJ/mol
# Density = 2.349951 g / cm^3
# Si number density = 23.553120 Si / 1000 Ang^3
#
#
#
# Elastic Constant Matrix: (Units=GPa)
#
#
# Indices 1 2 3 4 5 6 
#
# 1 143.8362 21.8167 30.5166 0.0000 -1.8510 0.0000
# 2 21.8167 83.1537 37.4557 0.0000 -4.8366 0.0000
# 3 30.5166 37.4557 86.6781 0.0000 -4.8692 0.0000
# 4 0.0000 0.0000 0.0000 41.7731 0.0000 -3.1909
# 5 -1.8510 -4.8366 -4.8692 0.0000 32.0680 0.0000
# 6 0.0000 0.0000 0.0000 -3.1909 0.0000 20.4434
#
#
#
# Elastic Compliance Matrix: (Units=1/GPa)
#
#
# Indices 1 2 3 4 5 6 
#
# 1 0.007577 -0.000978 -0.002248 0.000000 -0.000052 0.000000
# 2 -0.000978 0.015111 -0.006113 0.000000 0.001294 0.000000
# 3 -0.002248 -0.006113 0.015039 0.000000 0.001232 0.000000
# 4 0.000000 0.000000 0.000000 0.024228 0.000000 0.003782
# 5 -0.000052 0.001294 0.001232 0.000000 0.031563 0.000000
# 6 0.000000 0.000000 0.000000 0.003782 0.000000 0.049506
#
#
# Mechanical properties :
#
#
# Convention : Reuss Voigt Hill
#
# Bulk Modulus (GPa) = 52.49504 54.80510 53.65007
# Shear Modulus (GPa) = 29.75276 33.78215 31.76746
#
# Velocity S-wave (km/s) = 3.55804 3.79132 3.67653
# Velocity P-wave (km/s) = 6.26225 6.51803 6.39142
#
# Compressibility (1/GPa) = 0.01904942
#
# Stress axis : x y z
#
# Youngs Moduli (GPa) = 131.97876 66.17528 66.49396
#
# Poissons Ratio (x) = 0.06475 0.14946
# Poissons Ratio (y) = 0.12914 0.40646
# Poissons Ratio (z) = 0.29665 0.40451
#
# Static dielectric constant tensor:
#      x y z
#    x 4.244540 0.000000 -0.158850 
#    y 0.000000 4.095410 0.000000 
#    z -0.158850 0.000000 4.280080 
# 
# 
# High freq. dielectric constant tensor:
#      x y z
#    x 1.938680 0.000000 -0.005150 
#    y 0.000000 1.917810 0.000000 
#    z -0.005150 0.000000 1.932350 
# 
# From -- ./inp_files/152740.got.cif
#   From: 2010.06.25/outbox.cif.g09.slc.cpg/sg15_77_cif.got.tgz:152740.got - 2010.06.28 07:06:18.
