data_PCOD8144711
_publ_section_title
;
Structure prediction by ZEFSAII (Michael W. Deem and Ramdas Pophale) SiO2 
 PCOD8144711
Probable space group: C 2/C
;
_chemical_formula_sum "Si O2"
_cell_formula_units_Z 48
_cell_length_a 12.080634
_cell_length_b 20.467262
_cell_length_c 12.360779
_cell_angle_alpha 90.000000
_cell_angle_beta 134.847977
_cell_angle_gamma 90.000000
_cell_volume 2166.853661
_symmetry_space_group_name_H-M "C 2/C"
_symmetry_group_IT_number 15
_symmetry_cell_setting 'monoclinic'
loop_
_space_group_symop_operation_xyz
x,y,z
-x,y,1/2-z
-x,-y,-z
x,-y,1/2+z
1/2+x,1/2+y,z
1/2-x,1/2+y,1/2-z
1/2-x,1/2-y,-z
1/2+x,1/2-y,1/2+z
loop_
_atom_site_type_symbol
_atom_site_label
_atom_site_fract_x
_atom_site_fract_y
_atom_site_fract_z
Si Si1 0.013366 0.257790 0.548283
Si Si2 0.290764 0.080324 0.026219
Si Si3 0.310781 0.705207 0.639160
Si Si4 0.132577 0.808437 0.931459
Si Si5 0.131599 0.393074 0.681648
Si Si6 0.683712 0.557275 0.388522
O O1 0.031470 0.226065 0.684004
O O2 0.059148 0.199580 0.499627
O O3 0.131299 0.319770 0.631686
O O4 0.844369 0.284513 0.393336
O O5 0.286612 0.107659 0.145292
O O6 0.457794 0.081024 0.082313
O O7 0.174551 0.128737 0.881614
O O8 0.237179 0.005814 0.991009
O O9 0.250000 0.750000 0.500000
O O10 0.221393 0.878039 0.985639
O O11 0.000000 0.804584 0.750000
O O12 0.250000 0.750000 0.000000
O O13 0.228325 0.439079 0.666548
O O14 0.500000 0.551902 0.250000
#
# Coordination Sequence:
#
# PCOD8144711 Si02
#       6
#     8   8   8   8   8   8
#     4  11  22  39  66  96 130 174 218 280 332 392
#     4  10  23  42  65  94 132 181 223 271 332 409
#     4  11  22  38  65  96 128 170 224 274 331 391
#     4  11  23  42  64  95 131 172 217 271 334 393
#     4  10  21  44  66  90 135 174 224 280 327 393
#     4  11  25  41  64  97 136 176 217 279 340 396
#
# _framework density 22.151933
#
# number of rings (size 3 to 8) (size 9 to 14) (size 15 to 20)
#    0.000    1.333    3.333    2.000    2.333    3.333 
#    3.000    0.000    0.000    0.000    0.000    0.000 
#    0.000    0.000    0.000    0.000    0.000    0.000 
#
# Total GULP energy -297460.141154 kJ/mol
# GULP energy per Si atom -12394.172548 kJ/mol
# Density = 2.210151 g / cm^3
# Si number density = 22.151933 Si / 1000 Ang^3
#
#
#
# Elastic Constant Matrix: (Units=GPa)
#
#
# Indices 1 2 3 4 5 6 
#
# 1 89.3523 28.7289 29.2893 0.0000 -12.8315 0.0000
# 2 28.7289 168.1324 47.3818 0.0000 2.7196 0.0000
# 3 29.2893 47.3818 102.6054 0.0000 4.5889 0.0000
# 4 0.0000 0.0000 0.0000 35.4612 0.0000 0.5418
# 5 -12.8315 2.7196 4.5889 0.0000 34.9098 0.0000
# 6 0.0000 0.0000 0.0000 0.5418 0.0000 32.9428
#
#
#
# Elastic Compliance Matrix: (Units=1/GPa)
#
#
# Indices 1 2 3 4 5 6 
#
# 1 0.013587 -0.001435 -0.003465 0.000000 0.005561 0.000000
# 2 -0.001435 0.006990 -0.002786 0.000000 -0.000706 0.000000
# 3 -0.003465 -0.002786 0.012140 0.000000 -0.002652 0.000000
# 4 0.000000 0.000000 0.000000 0.028207 0.000000 -0.000464
# 5 0.005561 -0.000706 -0.002652 0.000000 0.031093 0.000000
# 6 0.000000 0.000000 0.000000 -0.000464 0.000000 0.030363
#
#
# Mechanical properties :
#
#
# Convention : Reuss Voigt Hill
#
# Bulk Modulus (GPa) = 57.65375 63.43223 60.54299
# Shear Modulus (GPa) = 34.83474 37.64210 36.23842
#
# Velocity S-wave (km/s) = 3.96982 4.12669 4.04902
# Velocity P-wave (km/s) = 6.86263 7.16961 7.01780
#
# Compressibility (1/GPa) = 0.01734493
#
# Stress axis : x y z
#
# Youngs Moduli (GPa) = 73.59725 143.06942 82.36964
#
# Poissons Ratio (x) = 0.20535 0.28537
# Poissons Ratio (y) = 0.10563 0.22952
# Poissons Ratio (z) = 0.25498 0.39865
#
# Static dielectric constant tensor:
#      x y z
#    x 4.973690 0.000000 0.544010 
#    y 0.000000 4.364740 0.000000 
#    z 0.544010 0.000000 4.269650 
# 
# 
# High freq. dielectric constant tensor:
#      x y z
#    x 1.893510 0.000000 0.007790 
#    y 0.000000 1.870650 0.000000 
#    z 0.007790 0.000000 1.858800 
# 
# From -- ./inp_files/89780.got.cif
#   From: 2010.06.25/outbox.cif.g09.slc.cpg/sg15_45_cif.got.tgz:89780.got - 2010.06.28 07:06:18.
