data_PCOD8144667
_publ_section_title
;
Structure prediction by ZEFSAII (Michael W. Deem and Ramdas Pophale) SiO2 
 PCOD8144667
Probable space group: C 2/C
;
_chemical_formula_sum "Si O2"
_cell_formula_units_Z 40
_cell_length_a 10.293844
_cell_length_b 12.034165
_cell_length_c 24.529148
_cell_angle_alpha 90.000000
_cell_angle_beta 146.543472
_cell_angle_gamma 90.000000
_cell_volume 1675.202282
_symmetry_space_group_name_H-M "C 2/C"
_symmetry_group_IT_number 15
_symmetry_cell_setting 'monoclinic'
loop_
_space_group_symop_operation_xyz
x,y,z
-x,y,1/2-z
-x,-y,-z
x,-y,1/2+z
1/2+x,1/2+y,z
1/2-x,1/2+y,1/2-z
1/2-x,1/2-y,-z
1/2+x,1/2-y,1/2+z
loop_
_atom_site_type_symbol
_atom_site_label
_atom_site_fract_x
_atom_site_fract_y
_atom_site_fract_z
Si Si1 0.247836 0.984915 0.939431
Si Si2 0.786326 0.874812 0.885190
Si Si3 0.599525 0.301048 0.693763
Si Si4 0.570945 0.720494 0.889656
Si Si5 0.699424 0.083627 0.919143
O O1 0.105792 0.885580 0.858426
O O2 0.071358 0.089806 0.877387
O O3 0.303485 0.965590 0.021755
O O4 0.500000 0.000000 0.000000
O O5 0.797092 0.860326 0.824192
O O6 0.648126 0.770087 0.859135
O O7 0.651793 0.988621 0.856778
O O8 0.042213 0.868384 0.003032
O O9 0.490678 0.180241 0.646697
O O10 0.811322 0.274726 0.810778
O O11 0.750000 0.750000 0.000000
#
# Coordination Sequence:
#
# PCOD8144667 Si02
#       5
#     8   8   8   8   8
#     4  11  23  44  74 103 147 189 233 310 379 428
#     4  10  21  43  72  99 136 189 232 296 368 429
#     4  11  25  44  72 107 140 192 250 292 366 453
#     4  12  25  43  66 103 151 182 240 308 361 436
#     4  10  21  43  73 100 141 179 246 300 360 439
#
# _framework density 23.877713
#
# number of rings (size 3 to 8) (size 9 to 14) (size 15 to 20)
#    0.000    1.200    2.000    5.400    2.800    0.000 
#    0.000    6.000    0.000    0.000    0.000    0.000 
#    0.000    0.000    0.000    0.000    0.000    0.000 
#
# Total GULP energy -247810.205852 kJ/mol
# GULP energy per Si atom -12390.510293 kJ/mol
# Density = 2.382337 g / cm^3
# Si number density = 23.877713 Si / 1000 Ang^3
#
#
#
# Elastic Constant Matrix: (Units=GPa)
#
#
# Indices 1 2 3 4 5 6 
#
# 1 81.2873 49.9283 36.4952 0.0000 24.0182 0.0000
# 2 49.9283 169.6244 77.5532 0.0000 12.9521 0.0000
# 3 36.4952 77.5532 157.6720 0.0001 23.2323 0.0000
# 4 0.0000 0.0000 0.0001 30.0488 0.0000 12.1874
# 5 24.0182 12.9521 23.2323 0.0000 19.5674 0.0000
# 6 0.0000 0.0000 0.0000 12.1874 0.0000 38.0209
#
#
#
# Elastic Compliance Matrix: (Units=1/GPa)
#
#
# Indices 1 2 3 4 5 6 
#
# 1 0.022541 -0.005186 0.001096 0.000000 -0.025536 0.000000
# 2 -0.005186 0.008807 -0.003891 0.000000 0.005156 0.000000
# 3 0.001096 -0.003891 0.009480 0.000000 -0.010025 0.000000
# 4 0.000000 0.000000 0.000000 0.038252 0.000000 -0.012262
# 5 -0.025536 0.005156 -0.010025 0.000000 0.090940 0.000000
# 6 0.000000 0.000000 0.000000 -0.012262 0.000000 0.030232
#
#
# Mechanical properties :
#
#
# Convention : Reuss Voigt Hill
#
# Bulk Modulus (GPa) = 40.21674 81.83744 61.02709
# Shear Modulus (GPa) = 22.27145 33.83455 28.05300
#
# Velocity S-wave (km/s) = 3.05738 3.76838 3.43134
# Velocity P-wave (km/s) = 5.41689 7.29947 6.42748
#
# Compressibility (1/GPa) = 0.02486527
#
# Stress axis : x y z
#
# Youngs Moduli (GPa) = 44.36440 113.54210 105.48845
#
# Poissons Ratio (x) = 0.58883 -0.11564
# Poissons Ratio (y) = 0.23007 0.41049
# Poissons Ratio (z) = -0.04863 0.44183
#
# Static dielectric constant tensor:
#      x y z
#    x 4.536330 0.000000 0.664420 
#    y 0.000000 4.771460 0.000000 
#    z 0.664420 0.000000 4.944430 
# 
# 
# High freq. dielectric constant tensor:
#      x y z
#    x 1.942840 0.000000 0.020190 
#    y 0.000000 1.960750 0.000000 
#    z 0.020190 0.000000 1.944670 
# 
# From -- ./inp_files/141830.got.cif
#   From: 2010.06.25/outbox.cif.g09.slc.cpg/sg15_71_cif.got.tgz:141830.got - 2010.06.28 07:06:18.
