data_PCOD8144461
_publ_section_title
;
Structure prediction by ZEFSAII (Michael W. Deem and Ramdas Pophale) SiO2 
 PCOD8144461
Probable space group: C 2/C
;
_chemical_formula_sum "Si O2"
_cell_formula_units_Z 60
_cell_length_a 9.074304
_cell_length_b 10.945329
_cell_length_c 30.618782
_cell_angle_alpha 90.000000
_cell_angle_beta 74.931023
_cell_angle_gamma 90.000000
_cell_volume 2936.522972
_symmetry_space_group_name_H-M "C 2/C"
_symmetry_group_IT_number 15
_symmetry_cell_setting 'monoclinic'
loop_
_space_group_symop_operation_xyz
x,y,z
-x,y,1/2-z
-x,-y,-z
x,-y,1/2+z
1/2+x,1/2+y,z
1/2-x,1/2+y,1/2-z
1/2-x,1/2-y,-z
1/2+x,1/2-y,1/2+z
loop_
_atom_site_type_symbol
_atom_site_label
_atom_site_fract_x
_atom_site_fract_y
_atom_site_fract_z
Si Si1 0.123654 0.839032 0.818957
Si Si2 0.184492 0.766174 0.612459
Si Si3 0.585524 0.311400 0.201382
Si Si4 0.000000 0.956901 0.750000
Si Si5 0.000481 0.297043 0.618540
Si Si6 0.762683 0.983645 0.612042
Si Si7 0.061676 0.898174 0.540337
Si Si8 0.112327 0.164818 0.525592
O O1 0.239428 0.727638 0.815340
O O2 0.118241 0.875197 0.768341
O O3 0.959006 0.790992 0.845896
O O4 0.184114 0.953493 0.842661
O O5 0.328989 0.841115 0.620317
O O6 0.230321 0.625233 0.609249
O O7 0.149566 0.808233 0.565918
O O8 0.500000 0.250347 0.250000
O O9 0.587749 0.458440 0.207564
O O10 0.496662 0.276096 0.164367
O O11 0.106333 0.415249 0.612317
O O12 0.057819 0.203150 0.577497
O O13 0.894473 0.938173 0.569832
O O14 0.029199 0.824709 0.497818
O O15 0.161350 0.021261 0.524545
O O16 0.250000 0.250000 0.500000
#
# Coordination Sequence:
#
# PCOD8144461 Si02
#       8
#     8   8   8   4   8   8   8   8
#     4  10  23  40  63  95 126 166 205 260 321 369
#     4  11  24  40  66  96 128 163 215 260 312 379
#     4   9  23  43  63  91 127 160 208 261 306 379
#     4  10  22  38  68  88 126 160 212 256 314 372
#     4  11  22  41  68  91 126 172 209 256 321 375
#     4  10  21  43  62  92 130 167 209 261 314 374
#     4  10  23  41  64  93 128 166 210 267 313 368
#     4  11  22  41  68  90 128 173 211 259 322 377
#
# _framework density 20.432327999999998
#
# number of rings (size 3 to 8) (size 9 to 14) (size 15 to 20)
#    0.400    1.333    2.667    0.800    3.733    2.667 
#    2.400    1.333    0.000    0.000    0.000    0.000 
#    0.000    0.000    0.000    0.000    0.000    0.000 
#
# Total GULP energy -371934.798891 kJ/mol
# GULP energy per Si atom -12397.826630 kJ/mol
# Density = 2.038582 g / cm^3
# Si number density = 20.432328 Si / 1000 Ang^3
#
#
#
# Elastic Constant Matrix: (Units=GPa)
#
#
# Indices 1 2 3 4 5 6 
#
# 1 127.2553 47.2124 42.9392 0.0000 14.6954 0.0000
# 2 47.2124 73.2279 23.6211 0.0000 10.8174 0.0000
# 3 42.9392 23.6211 120.8304 0.0000 26.1613 0.0000
# 4 0.0000 0.0000 0.0000 30.4640 0.0000 2.3058
# 5 14.6954 10.8174 26.1613 0.0000 37.8586 0.0000
# 6 0.0000 0.0000 0.0000 2.3058 0.0000 28.2164
#
#
#
# Elastic Compliance Matrix: (Units=1/GPa)
#
#
# Indices 1 2 3 4 5 6 
#
# 1 0.011125 -0.006231 -0.002571 0.000000 -0.000762 0.000000
# 2 -0.006231 0.018283 -0.000885 0.000000 -0.002194 0.000000
# 3 -0.002571 -0.000885 0.010691 0.000000 -0.006137 0.000000
# 4 0.000000 0.000000 0.000000 0.033030 0.000000 -0.002699
# 5 -0.000762 -0.002194 -0.006137 0.000000 0.031578 0.000000
# 6 0.000000 0.000000 0.000000 -0.002699 0.000000 0.035661
#
#
# Mechanical properties :
#
#
# Convention : Reuss Voigt Hill
#
# Bulk Modulus (GPa) = 48.24703 60.98432 54.61567
# Shear Modulus (GPa) = 30.00300 33.14386 31.57343
#
# Velocity S-wave (km/s) = 3.83614 4.03194 3.93525
# Velocity P-wave (km/s) = 6.57918 7.18242 6.88741
#
# Compressibility (1/GPa) = 0.02072667
#
# Stress axis : x y z
#
# Youngs Moduli (GPa) = 89.88490 54.69590 93.53372
#
# Poissons Ratio (x) = 0.34082 0.24043
# Poissons Ratio (y) = 0.56009 0.08275
# Poissons Ratio (z) = 0.23105 0.04839
#
# Static dielectric constant tensor:
#      x y z
#    x 4.040160 0.000000 0.146650 
#    y 0.000000 3.560450 0.000000 
#    z 0.146650 0.000000 3.868710 
# 
# 
# High freq. dielectric constant tensor:
#      x y z
#    x 1.797520 0.000000 0.013280 
#    y 0.000000 1.788370 0.000000 
#    z 0.013280 0.000000 1.811920 
# 
# From -- ./inp_files/307123.got.cif
#   From: 2010.06.25/outbox.cif.g09.slc.cpg/sg15_154_cif.got.tgz:307123.got - 2010.06.28 07:06:18.
