data_PCOD8144059
_publ_section_title
;
Structure prediction by ZEFSAII (Michael W. Deem and Ramdas Pophale) SiO2 
 PCOD8144059
Probable space group: C 2/C
;
_chemical_formula_sum "Si O2"
_cell_formula_units_Z 40
_cell_length_a 25.133841
_cell_length_b 9.037151
_cell_length_c 13.919862
_cell_angle_alpha 90.000000
_cell_angle_beta 31.679209
_cell_angle_gamma 90.000000
_cell_volume 1660.425347
_symmetry_space_group_name_H-M "C 2/C"
_symmetry_group_IT_number 15
_symmetry_cell_setting 'monoclinic'
loop_
_space_group_symop_operation_xyz
x,y,z
-x,y,1/2-z
-x,-y,-z
x,-y,1/2+z
1/2+x,1/2+y,z
1/2-x,1/2+y,1/2-z
1/2-x,1/2-y,-z
1/2+x,1/2-y,1/2+z
loop_
_atom_site_type_symbol
_atom_site_label
_atom_site_fract_x
_atom_site_fract_y
_atom_site_fract_z
Si Si1 0.614680 0.568977 0.603905
Si Si2 0.051033 0.846147 0.395918
Si Si3 0.697575 0.856721 0.791384
Si Si4 0.906959 0.608380 0.646553
Si Si5 0.886656 0.722753 0.888418
O O1 0.500000 0.593847 0.750000
O O2 0.626787 0.641612 0.690283
O O3 0.687323 0.664381 0.421762
O O4 0.638916 0.395562 0.575642
O O5 0.117460 0.769302 0.378471
O O6 0.948966 0.753968 0.529906
O O7 0.000000 0.000000 0.500000
O O8 0.679073 0.024298 0.781208
O O9 0.692270 0.852561 0.915203
O O10 0.868328 0.645939 0.813712
O O11 0.000000 0.500000 0.500000
O O12 0.000000 0.690706 0.750000
#
# Coordination Sequence:
#
# PCOD8144059 Si02
#       5
#     8   8   8   8   8
#     4  11  25  45  67  99 139 192 240 291 347 421
#     4  11  20  44  73 100 142 180 227 293 367 423
#     4  11  25  45  70 106 142 189 237 290 356 430
#     4  10  21  41  71 105 134 186 235 292 352 430
#     4  11  20  45  71  95 146 188 228 296 365 420
#
# _framework density 24.090214
#
# number of rings (size 3 to 8) (size 9 to 14) (size 15 to 20)
#    0.000    1.200    6.000    1.800    0.000    2.400 
#   21.600    0.000    0.000    0.000    0.000    0.000 
#    0.000    0.000    0.000    0.000    0.000    0.000 
#
# Total GULP energy -247831.293041 kJ/mol
# GULP energy per Si atom -12391.564652 kJ/mol
# Density = 2.403538 g / cm^3
# Si number density = 24.090214 Si / 1000 Ang^3
#
#
#
# Elastic Constant Matrix: (Units=GPa)
#
#
# Indices 1 2 3 4 5 6 
#
# 1 53.0710 32.7728 44.0945 0.0001 19.8848 -0.0001
# 2 32.7728 123.9898 58.6680 0.0002 5.4734 -0.0001
# 3 44.0945 58.6680 215.0581 0.0001 36.9445 -0.0001
# 4 0.0001 0.0002 0.0001 38.1770 0.0000 14.7642
# 5 19.8848 5.4734 36.9445 0.0000 47.9262 0.0000
# 6 -0.0001 -0.0001 -0.0001 14.7642 0.0000 23.2735
#
#
#
# Elastic Compliance Matrix: (Units=1/GPa)
#
#
# Indices 1 2 3 4 5 6 
#
# 1 0.027903 -0.005740 -0.002627 0.000000 -0.008897 0.000000
# 2 -0.005740 0.010485 -0.002175 0.000000 0.002860 0.000000
# 3 -0.002627 -0.002175 0.006399 0.000000 -0.003595 0.000000
# 4 0.000000 0.000000 0.000000 0.034709 0.000000 -0.022019
# 5 -0.008897 0.002860 -0.003595 0.000000 0.027001 0.000000
# 6 0.000000 0.000000 0.000000 -0.022019 0.000000 0.056935
#
#
# Mechanical properties :
#
#
# Convention : Reuss Voigt Hill
#
# Bulk Modulus (GPa) = 42.18602 73.68772 57.93687
# Shear Modulus (GPa) = 25.98518 38.98092 32.48305
#
# Velocity S-wave (km/s) = 3.28786 4.02695 3.67603
# Velocity P-wave (km/s) = 5.65359 7.23025 6.48997
#
# Compressibility (1/GPa) = 0.02370454
#
# Stress axis : x y z
#
# Youngs Moduli (GPa) = 35.83835 95.37364 156.26488
#
# Poissons Ratio (x) = 0.54740 0.41051
# Poissons Ratio (y) = 0.20570 0.33986
# Poissons Ratio (z) = 0.09415 0.20743
#
# Static dielectric constant tensor:
#      x y z
#    x 4.738310 0.000000 -0.014820 
#    y 0.000000 4.822700 0.000000 
#    z -0.014820 0.000000 4.910460 
# 
# 
# High freq. dielectric constant tensor:
#      x y z
#    x 1.935570 0.000000 0.004230 
#    y 0.000000 1.957270 0.000000 
#    z 0.004230 0.000000 1.981160 
# 
# From -- ./inp_files/180989.got.cif
#   From: 2010.06.25/outbox.cif.g09.slc.cpg/sg15_91_cif.got.tgz:180989.got - 2010.06.28 07:06:18.
