data_PCOD8144612
_publ_section_title
;
Structure prediction by ZEFSAII (Michael W. Deem and Ramdas Pophale) SiO2 
 PCOD8144612
Probable space group: C 2/C
;
_chemical_formula_sum "Si O2"
_cell_formula_units_Z 60
_cell_length_a 23.688877
_cell_length_b 8.204787
_cell_length_c 13.517735
_cell_angle_alpha 90.000000
_cell_angle_beta 88.456560
_cell_angle_gamma 90.000000
_cell_volume 2626.383358
_symmetry_space_group_name_H-M "C 2/C"
_symmetry_group_IT_number 15
_symmetry_cell_setting 'monoclinic'
loop_
_space_group_symop_operation_xyz
x,y,z
-x,y,1/2-z
-x,-y,-z
x,-y,1/2+z
1/2+x,1/2+y,z
1/2-x,1/2+y,1/2-z
1/2-x,1/2-y,-z
1/2+x,1/2-y,1/2+z
loop_
_atom_site_type_symbol
_atom_site_label
_atom_site_fract_x
_atom_site_fract_y
_atom_site_fract_z
Si Si1 0.043243 0.586437 0.070750
Si Si2 0.000000 0.781844 0.250000
Si Si3 0.768991 0.913268 0.603234
Si Si4 0.190661 0.554697 0.440072
Si Si5 0.437924 0.405280 0.757911
Si Si6 0.255957 0.223964 0.792178
Si Si7 0.622274 0.246605 0.922759
Si Si8 0.628916 0.194488 0.609772
O O1 0.003936 0.668412 0.154683
O O2 0.076302 0.730297 0.011515
O O3 0.088520 0.464307 0.118202
O O4 0.000000 0.500000 0.000000
O O5 0.055990 0.898161 0.252570
O O6 0.722525 0.949824 0.523173
O O7 0.749348 0.763411 0.676003
O O8 0.826301 0.862415 0.544529
O O9 0.780815 0.066622 0.675601
O O10 0.233769 0.623000 0.357801
O O11 0.145147 0.434511 0.392722
O O12 0.157553 0.701859 0.498995
O O13 0.500000 0.324042 0.750000
O O14 0.402683 0.328841 0.672181
O O15 0.408363 0.354933 0.863656
O O16 0.321349 0.184418 0.811341
#
# Coordination Sequence:
#
# PCOD8144612 Si02
#       8
#     8   4   8   8   8   8   8   8
#     4  11  26  47  75 101 137 187 243 297 352 430
#     4  10  28  46  66 106 138 178 244 306 344 408
#     4  11  22  41  65  97 141 178 226 285 341 424
#     4  10  24  42  66 104 137 179 236 281 340 442
#     4  10  23  46  67  97 140 178 233 300 349 417
#     4  11  23  42  66 102 141 183 228 286 345 425
#     4  11  23  45  67 101 132 189 223 287 366 407
#     4  10  21  43  69  96 137 187 224 282 363 409
#
# _framework density 22.845103000000002
#
# number of rings (size 3 to 8) (size 9 to 14) (size 15 to 20)
#    0.400    1.067    1.333    3.600    4.667    2.667 
#   14.400    0.000    0.000    0.000    0.000    0.000 
#    0.000    0.000    0.000    0.000    0.000    0.000 
#
# Total GULP energy -371851.383931 kJ/mol
# GULP energy per Si atom -12395.046131 kJ/mol
# Density = 2.279311 g / cm^3
# Si number density = 22.845103 Si / 1000 Ang^3
#
#
#
# Elastic Constant Matrix: (Units=GPa)
#
#
# Indices 1 2 3 4 5 6 
#
# 1 100.4913 41.8499 52.8107 0.0000 -21.0277 0.0000
# 2 41.8499 83.6927 45.5537 0.0000 -4.4108 0.0000
# 3 52.8107 45.5537 119.6575 0.0000 -12.1955 0.0000
# 4 0.0000 0.0000 0.0000 46.3697 0.0000 -8.6130
# 5 -21.0277 -4.4108 -12.1955 0.0000 29.5846 0.0000
# 6 0.0000 0.0000 0.0000 -8.6130 0.0000 33.0015
#
#
#
# Elastic Compliance Matrix: (Units=1/GPa)
#
#
# Indices 1 2 3 4 5 6 
#
# 1 0.016304 -0.005375 -0.004228 0.000000 0.009044 0.000000
# 2 -0.005375 0.016844 -0.004357 0.000000 -0.003105 0.000000
# 3 -0.004228 -0.004357 0.012014 0.000000 0.001298 0.000000
# 4 0.000000 0.000000 0.000000 0.022665 0.000000 0.005915
# 5 0.009044 -0.003105 0.001298 0.000000 0.040302 0.000000
# 6 0.000000 0.000000 0.000000 0.005915 0.000000 0.031845
#
#
# Mechanical properties :
#
#
# Convention : Reuss Voigt Hill
#
# Bulk Modulus (GPa) = 57.99431 64.91891 61.45661
# Shear Modulus (GPa) = 28.79536 32.69964 30.74750
#
# Velocity S-wave (km/s) = 3.55415 3.78744 3.67265
# Velocity P-wave (km/s) = 6.50259 6.89963 6.70405
#
# Compressibility (1/GPa) = 0.01724307
#
# Stress axis : x y z
#
# Youngs Moduli (GPa) = 61.33610 59.36894 83.23645
#
# Poissons Ratio (x) = 0.31909 0.35189
# Poissons Ratio (y) = 0.32967 0.36264
# Poissons Ratio (z) = 0.25931 0.25866
#
# Static dielectric constant tensor:
#      x y z
#    x 4.429950 0.000000 -0.453430 
#    y 0.000000 4.157450 0.000000 
#    z -0.453430 0.000000 4.155060 
# 
# 
# High freq. dielectric constant tensor:
#      x y z
#    x 1.900860 0.000000 -0.017340 
#    y 0.000000 1.896570 0.000000 
#    z -0.017340 0.000000 1.900200 
# 
# From -- ./inp_files/171855.got.cif
#   From: 2010.06.25/outbox.cif.g09.slc.cpg/sg15_86_cif.got.tgz:171855.got - 2010.06.28 07:06:18.
