data_PCOD8144567
_publ_section_title
;
Structure prediction by ZEFSAII (Michael W. Deem and Ramdas Pophale) SiO2 
 PCOD8144567
Probable space group: C 2/C
;
_chemical_formula_sum "Si O2"
_cell_formula_units_Z 40
_cell_length_a 6.918126
_cell_length_b 13.647096
_cell_length_c 21.504876
_cell_angle_alpha 90.000000
_cell_angle_beta 116.143832
_cell_angle_gamma 90.000000
_cell_volume 1822.604377
_symmetry_space_group_name_H-M "C 2/C"
_symmetry_group_IT_number 15
_symmetry_cell_setting 'monoclinic'
loop_
_space_group_symop_operation_xyz
x,y,z
-x,y,1/2-z
-x,-y,-z
x,-y,1/2+z
1/2+x,1/2+y,z
1/2-x,1/2+y,1/2-z
1/2-x,1/2-y,-z
1/2+x,1/2-y,1/2+z
loop_
_atom_site_type_symbol
_atom_site_label
_atom_site_fract_x
_atom_site_fract_y
_atom_site_fract_z
Si Si1 0.351267 0.522585 0.536733
Si Si2 0.911696 0.811587 0.361624
Si Si3 0.749607 0.051800 0.224754
Si Si4 0.000000 0.290417 0.750000
Si Si5 0.922810 0.618951 0.428340
Si Si6 0.000000 0.616512 0.750000
O O1 0.500000 0.500000 0.500000
O O2 0.488318 0.583294 0.606889
O O3 0.270245 0.419897 0.554828
O O4 0.149840 0.587268 0.488066
O O5 0.931746 0.736746 0.422652
O O6 0.653138 0.816568 0.314401
O O7 0.034292 0.775513 0.316369
O O8 0.705701 0.137444 0.269370
O O9 0.610767 0.074670 0.144385
O O10 0.000000 0.045230 0.250000
O O11 0.667990 0.946419 0.234351
#
# Coordination Sequence:
#
# PCOD8144567 Si02
#       6
#     8   8   8   4   8   4
#     4  11  24  46  67  94 132 183 226 275 337 399
#     4  11  24  44  66 101 138 175 224 284 341 410
#     4  10  21  43  67  94 135 175 222 282 338 406
#     4   9  24  40  63 100 128 174 223 278 344 405
#     4  10  24  42  66  96 128 176 228 277 334 404
#     4  11  24  38  63 104 132 178 217 268 352 405
#
# _framework density 21.946617
#
# number of rings (size 3 to 8) (size 9 to 14) (size 15 to 20)
#    0.000    1.600    0.000    3.000    9.800    4.000 
#    0.000    0.000    0.000    0.000    0.000    0.000 
#    0.000    0.000    0.000    0.000    0.000    0.000 
#
# Total GULP energy -247997.975472 kJ/mol
# GULP energy per Si atom -12399.898774 kJ/mol
# Density = 2.189667 g / cm^3
# Si number density = 21.946617 Si / 1000 Ang^3
#
#
#
# Elastic Constant Matrix: (Units=GPa)
#
#
# Indices 1 2 3 4 5 6 
#
# 1 159.4471 49.0529 42.2796 0.0000 -8.3449 0.0000
# 2 49.0529 72.1024 21.8260 0.0000 -13.4503 0.0000
# 3 42.2796 21.8260 85.0726 0.0000 4.1902 0.0000
# 4 0.0000 0.0000 0.0000 37.9125 0.0000 -0.2801
# 5 -8.3449 -13.4503 4.1902 0.0000 44.3762 0.0000
# 6 0.0000 0.0000 0.0000 -0.2801 0.0000 21.7465
#
#
#
# Elastic Compliance Matrix: (Units=1/GPa)
#
#
# Indices 1 2 3 4 5 6 
#
# 1 0.008593 -0.004841 -0.003050 0.000000 0.000436 0.000000
# 2 -0.004841 0.018928 -0.002701 0.000000 0.005082 0.000000
# 3 -0.003050 -0.002701 0.014097 0.000000 -0.002723 0.000000
# 4 0.000000 0.000000 0.000000 0.026379 0.000000 0.000340
# 5 0.000436 0.005082 -0.002723 0.000000 0.024414 0.000000
# 6 0.000000 0.000000 0.000000 0.000340 0.000000 0.045989
#
#
# Mechanical properties :
#
#
# Convention : Reuss Voigt Hill
#
# Bulk Modulus (GPa) = 48.93529 60.32656 54.63093
# Shear Modulus (GPa) = 30.04911 34.37130 32.21021
#
# Velocity S-wave (km/s) = 3.70427 3.96173 3.83516
# Velocity P-wave (km/s) = 6.37506 6.96237 6.67518
#
# Compressibility (1/GPa) = 0.02043515
#
# Stress axis : x y z
#
# Youngs Moduli (GPa) = 116.37993 52.83161 70.93537
#
# Poissons Ratio (x) = 0.25576 0.21634
# Poissons Ratio (y) = 0.56340 0.19156
# Poissons Ratio (z) = 0.35494 0.14267
#
# Static dielectric constant tensor:
#      x y z
#    x 4.124840 0.000000 -0.147430 
#    y 0.000000 4.280470 0.000000 
#    z -0.147430 0.000000 4.047560 
# 
# 
# High freq. dielectric constant tensor:
#      x y z
#    x 1.867560 0.000000 0.001950 
#    y 0.000000 1.872190 0.000000 
#    z 0.001950 0.000000 1.859910 
# 
# From -- ./inp_files/260484.got.cif
#   From: 2010.06.25/outbox.cif.g09.slc.cpg/sg15_131_cif.got.tgz:260484.got - 2010.06.28 07:06:18.
