data_PCOD8144126
_publ_section_title
;
Structure prediction by ZEFSAII (Michael W. Deem and Ramdas Pophale) SiO2 
 PCOD8144126
Probable space group: C 2/C
;
_chemical_formula_sum "Si O2"
_cell_formula_units_Z 56
_cell_length_a 27.005083
_cell_length_b 8.579530
_cell_length_c 16.133121
_cell_angle_alpha 90.000000
_cell_angle_beta 49.935725
_cell_angle_gamma 90.000000
_cell_volume 2860.698572
_symmetry_space_group_name_H-M "C 2/C"
_symmetry_group_IT_number 15
_symmetry_cell_setting 'monoclinic'
loop_
_space_group_symop_operation_xyz
x,y,z
-x,y,1/2-z
-x,-y,-z
x,-y,1/2+z
1/2+x,1/2+y,z
1/2-x,1/2+y,1/2-z
1/2-x,1/2-y,-z
1/2+x,1/2-y,1/2+z
loop_
_atom_site_type_symbol
_atom_site_label
_atom_site_fract_x
_atom_site_fract_y
_atom_site_fract_z
Si Si1 0.436368 0.905170 0.046505
Si Si2 0.759746 0.873515 0.139104
Si Si3 0.978400 0.176868 0.864668
Si Si4 0.320748 0.875715 0.690883
Si Si5 0.124800 0.973324 0.595772
Si Si6 0.381051 0.631561 0.741510
Si Si7 0.130096 0.796610 0.747023
O O1 0.421227 0.797152 0.142519
O O2 0.377832 0.021932 0.091056
O O3 0.441163 0.809796 0.955820
O O4 0.500000 0.000000 0.000000
O O5 0.798632 0.744624 0.146591
O O6 0.696294 0.799216 0.166486
O O7 0.739617 0.017259 0.218967
O O8 0.807352 0.937235 0.018627
O O9 0.000000 0.237225 0.750000
O O10 0.041028 0.135895 0.852218
O O11 0.932896 0.021296 0.905292
O O12 0.347180 0.782963 0.741868
O O13 0.103744 0.830807 0.681103
O O14 0.136851 0.125722 0.641141
O O15 0.357752 0.467855 0.723773
#
# Coordination Sequence:
#
# PCOD8144126 Si02
#       7
#     8   8   8   8   8   8   8
#     4  11  23  42  66  92 128 173 207 266 324 373
#     4  11  23  41  61  93 131 165 220 254 315 386
#     4  10  21  42  62  96 126 157 217 259 318 384
#     4  11  24  39  63  94 126 167 218 261 315 384
#     4   9  22  39  66  90 124 168 204 267 323 363
#     4   9  20  41  61  91 123 162 212 260 316 373
#     4   9  22  41  63  93 124 165 216 254 316 378
#
# _framework density 19.575638999999999
#
# number of rings (size 3 to 8) (size 9 to 14) (size 15 to 20)
#    0.857    1.143    1.429    1.286    6.000    2.286 
#    2.571    1.429    0.000    0.000    0.000    0.000 
#    0.000    0.000    0.000    0.000    0.000    0.000 
#
# Total GULP energy -346934.416847 kJ/mol
# GULP energy per Si atom -12390.514887 kJ/mol
# Density = 1.953108 g / cm^3
# Si number density = 19.575639 Si / 1000 Ang^3
#
#
#
# Elastic Constant Matrix: (Units=GPa)
#
#
# Indices 1 2 3 4 5 6 
#
# 1 68.3972 41.4987 40.9970 -0.0002 -1.0803 0.0003
# 2 41.4987 105.7259 66.6475 -0.0008 -9.9620 0.0011
# 3 40.9970 66.6475 148.2207 0.0000 -9.8991 0.0001
# 4 -0.0002 -0.0008 0.0000 38.3281 0.0002 5.1434
# 5 -1.0803 -9.9620 -9.8991 0.0002 13.7482 -0.0003
# 6 0.0003 0.0011 0.0001 5.1434 -0.0003 43.5608
#
#
#
# Elastic Compliance Matrix: (Units=1/GPa)
#
#
# Indices 1 2 3 4 5 6 
#
# 1 0.020342 -0.006582 -0.003024 0.000000 -0.005349 0.000000
# 2 -0.006582 0.015747 -0.004761 0.000000 0.007465 0.000000
# 3 -0.003024 -0.004761 0.009957 0.000000 0.003481 0.000000
# 4 0.000000 0.000000 0.000000 0.026511 0.000000 -0.003130
# 5 -0.005349 0.007465 0.003481 0.000000 0.080232 0.000000
# 6 0.000000 0.000000 0.000000 -0.003130 0.000000 0.023326
#
#
# Mechanical properties :
#
#
# Convention : Reuss Voigt Hill
#
# Bulk Modulus (GPa) = 57.76915 68.95894 63.36405
# Shear Modulus (GPa) = 23.73946 30.67414 27.20680
#
# Velocity S-wave (km/s) = 3.48617 3.96277 3.73209
# Velocity P-wave (km/s) = 6.76604 7.49943 7.14216
#
# Compressibility (1/GPa) = 0.01731028
#
# Stress axis : x y z
#
# Youngs Moduli (GPa) = 49.15875 63.50455 100.43560
#
# Poissons Ratio (x) = 0.41800 0.30372
# Poissons Ratio (y) = 0.32357 0.47822
# Poissons Ratio (z) = 0.14866 0.30237
#
# Static dielectric constant tensor:
#      x y z
#    x 3.446970 0.000000 -0.123060 
#    y 0.000000 3.684100 0.000000 
#    z -0.123060 0.000000 3.615510 
# 
# 
# High freq. dielectric constant tensor:
#      x y z
#    x 1.750950 0.000000 -0.009310 
#    y 0.000000 1.761100 0.000000 
#    z -0.009310 0.000000 1.767720 
# 
# From -- ./inp_files/224379.got.cif
#   From: 2010.06.25/outbox.cif.g09.slc.cpg/sg15_113_cif.got.tgz:224379.got - 2010.06.28 07:06:18.
