data_PCOD8144786
_publ_section_title
;
Structure prediction by ZEFSAII (Michael W. Deem and Ramdas Pophale) SiO2 
 PCOD8144786
Probable space group: C 2/C
;
_chemical_formula_sum "Si O2"
_cell_formula_units_Z 40
_cell_length_a 13.227552
_cell_length_b 17.080759
_cell_length_c 11.054913
_cell_angle_alpha 90.000000
_cell_angle_beta 131.313349
_cell_angle_gamma 90.000000
_cell_volume 1876.055639
_symmetry_space_group_name_H-M "C 2/C"
_symmetry_group_IT_number 15
_symmetry_cell_setting 'monoclinic'
loop_
_space_group_symop_operation_xyz
x,y,z
-x,y,1/2-z
-x,-y,-z
x,-y,1/2+z
1/2+x,1/2+y,z
1/2-x,1/2+y,1/2-z
1/2-x,1/2-y,-z
1/2+x,1/2-y,1/2+z
loop_
_atom_site_type_symbol
_atom_site_label
_atom_site_fract_x
_atom_site_fract_y
_atom_site_fract_z
Si Si1 0.507219 0.153710 0.480129
Si Si2 0.236424 0.910842 0.721499
Si Si3 0.260695 0.590550 0.793335
Si Si4 0.017183 0.174446 0.901923
Si Si5 0.299553 0.835639 0.007335
O O1 0.396984 0.100517 0.321379
O O2 0.648149 0.108499 0.602837
O O3 0.531724 0.232799 0.425907
O O4 0.450456 0.171598 0.570996
O O5 0.153727 0.864956 0.555319
O O6 0.195016 0.001110 0.684525
O O7 0.203099 0.873883 0.827331
O O8 0.389668 0.645272 0.877448
O O9 0.201436 0.607161 0.878952
O O10 0.000000 0.150180 0.750000
O O11 0.250000 0.750000 0.000000
#
# Coordination Sequence:
#
# PCOD8144786 Si02
#       5
#     8   8   8   8   8
#     4  10  23  45  68 101 127 181 233 273 340 410
#     4  10  26  42  66 105 134 176 228 283 353 391
#     4  12  23  44  69  98 140 172 227 293 335 406
#     4  12  26  44  66  97 140 184 225 276 347 414
#     4  10  21  44  72  98 130 175 230 278 338 408
#
# _framework density 21.321328999999999
#
# number of rings (size 3 to 8) (size 9 to 14) (size 15 to 20)
#    1.200    0.000    2.000    4.200    2.800    4.000 
#    0.000    0.000    0.000    0.000    0.000    0.000 
#    0.000    0.000    0.000    0.000    0.000    0.000 
#
# Total GULP energy -248005.990790 kJ/mol
# GULP energy per Si atom -12400.299539 kJ/mol
# Density = 2.127280 g / cm^3
# Si number density = 21.321329 Si / 1000 Ang^3
#
#
#
# Elastic Constant Matrix: (Units=GPa)
#
#
# Indices 1 2 3 4 5 6 
#
# 1 34.5442 13.4657 18.6779 0.0000 -0.8290 0.0000
# 2 13.4657 98.6340 28.0362 0.0000 -14.4885 0.0000
# 3 18.6779 28.0362 132.3749 0.0000 -2.3208 0.0000
# 4 0.0000 0.0000 0.0000 22.7367 0.0000 9.0545
# 5 -0.8290 -14.4885 -2.3208 0.0000 30.9409 0.0000
# 6 0.0000 0.0000 0.0000 9.0545 0.0000 26.7220
#
#
#
# Elastic Compliance Matrix: (Units=1/GPa)
#
#
# Indices 1 2 3 4 5 6 
#
# 1 0.032360 -0.003478 -0.003848 0.000000 -0.001050 0.000000
# 2 -0.003478 0.011954 -0.001947 0.000000 0.005358 0.000000
# 3 -0.003848 -0.001947 0.008503 0.000000 -0.000377 0.000000
# 4 0.000000 0.000000 0.000000 0.050842 0.000000 -0.017227
# 5 -0.001050 0.005358 -0.000377 0.000000 0.034772 0.000000
# 6 0.000000 0.000000 0.000000 -0.017227 0.000000 0.043260
#
#
# Mechanical properties :
#
#
# Convention : Reuss Voigt Hill
#
# Bulk Modulus (GPa) = 29.17980 42.87921 36.02950
# Shear Modulus (GPa) = 23.62276 29.77146 26.69711
#
# Velocity S-wave (km/s) = 3.33219 3.74079 3.54239
# Velocity P-wave (km/s) = 5.34042 6.22998 5.80227
#
# Compressibility (1/GPa) = 0.03427029
#
# Stress axis : x y z
#
# Youngs Moduli (GPa) = 30.90281 83.65464 117.60628
#
# Poissons Ratio (x) = 0.29099 0.45250
# Poissons Ratio (y) = 0.10749 0.22898
# Poissons Ratio (z) = 0.11890 0.16288
#
# Static dielectric constant tensor:
#      x y z
#    x 3.640450 0.000000 0.001210 
#    y 0.000000 3.680740 0.000000 
#    z 0.001210 0.000000 3.876580 
# 
# 
# High freq. dielectric constant tensor:
#      x y z
#    x 1.819780 0.000000 0.004080 
#    y 0.000000 1.838690 0.000000 
#    z 0.004080 0.000000 1.843990 
# 
# From -- ./inp_files/96641.got.cif
#   From: 2010.06.25/outbox.cif.g09.slc.cpg/sg15_49_cif.got.tgz:96641.got - 2010.06.28 07:06:18.
