data_PCOD8144989
_publ_section_title
;
Structure prediction by ZEFSAII (Michael W. Deem and Ramdas Pophale) SiO2 
 PCOD8144989
Probable space group: C 2/C
;
_chemical_formula_sum "Si O2"
_cell_formula_units_Z 56
_cell_length_a 11.634840
_cell_length_b 23.349404
_cell_length_c 10.654944
_cell_angle_alpha 90.000000
_cell_angle_beta 63.014192
_cell_angle_gamma 90.000000
_cell_volume 2579.425953
_symmetry_space_group_name_H-M "C 2/C"
_symmetry_group_IT_number 15
_symmetry_cell_setting 'monoclinic'
loop_
_space_group_symop_operation_xyz
x,y,z
-x,y,1/2-z
-x,-y,-z
x,-y,1/2+z
1/2+x,1/2+y,z
1/2-x,1/2+y,1/2-z
1/2-x,1/2-y,-z
1/2+x,1/2-y,1/2+z
loop_
_atom_site_type_symbol
_atom_site_label
_atom_site_fract_x
_atom_site_fract_y
_atom_site_fract_z
Si Si1 0.576837 0.057347 0.943786
Si Si2 0.677509 0.827006 0.991633
Si Si3 0.721085 0.449368 0.953249
Si Si4 0.551072 0.282676 0.589592
Si Si5 0.262554 0.075967 0.863093
Si Si6 0.098759 0.371668 0.799268
Si Si7 0.511521 0.634993 0.891308
O O1 0.610168 0.067309 0.783135
O O2 0.715152 0.053695 0.942794
O O3 0.491999 0.108266 0.041126
O O4 0.500000 0.000000 0.000000
O O5 0.551188 0.787071 0.083671
O O6 0.675929 0.891900 0.046859
O O7 0.800452 0.799389 0.995600
O O8 0.691615 0.828463 0.830378
O O9 0.697009 0.515577 0.931965
O O10 0.820404 0.422428 0.803165
O O11 0.587031 0.415695 0.024765
O O12 0.500000 0.304672 0.750000
O O13 0.480283 0.312205 0.503860
O O14 0.155348 0.112914 0.843948
O O15 0.000000 0.341792 0.750000
O O16 0.500000 0.654066 0.750000
#
# Coordination Sequence:
#
# PCOD8144989 Si02
#       7
#     8   8   8   8   8   8   8
#     4  11  21  36  57  90 131 169 209 253 321 393
#     4  10  23  41  64  91 124 164 221 271 329 397
#     4  11  22  39  61  93 134 169 210 266 329 405
#     4  10  23  44  66  91 122 169 224 282 333 385
#     4  11  23  38  64  94 129 175 214 264 330 408
#     4  10  22  36  58  90 124 163 203 259 322 397
#     4  11  23  43  66  93 130 173 226 278 331 396
#
# _framework density 21.710256999999999
#
# number of rings (size 3 to 8) (size 9 to 14) (size 15 to 20)
#    0.000    1.429    2.857    2.143    2.000    1.714 
#    0.000    0.714    0.000    6.000    0.000    0.000 
#    0.000    0.000    0.000    0.000    0.000    0.000 
#
# Total GULP energy -346917.780695 kJ/mol
# GULP energy per Si atom -12389.920739 kJ/mol
# Density = 2.166084 g / cm^3
# Si number density = 21.710257 Si / 1000 Ang^3
#
#
#
# Elastic Constant Matrix: (Units=GPa)
#
#
# Indices 1 2 3 4 5 6 
#
# 1 79.8146 28.0169 38.5469 0.0000 21.8460 0.0000
# 2 28.0169 101.4096 47.8213 0.0000 12.3305 0.0000
# 3 38.5469 47.8213 131.3940 0.0000 16.6980 0.0000
# 4 0.0000 0.0000 0.0000 28.9992 0.0000 2.4370
# 5 21.8460 12.3305 16.6980 0.0000 43.1531 0.0000
# 6 0.0000 0.0000 0.0000 2.4370 0.0000 17.0010
#
#
#
# Elastic Compliance Matrix: (Units=1/GPa)
#
#
# Indices 1 2 3 4 5 6 
#
# 1 0.016683 -0.002291 -0.003229 0.000000 -0.006542 0.000000
# 2 -0.002291 0.012355 -0.003706 0.000000 -0.000937 0.000000
# 3 -0.003229 -0.003706 0.010059 0.000000 -0.001199 0.000000
# 4 0.000000 0.000000 0.000000 0.034904 0.000000 -0.005003
# 5 -0.006542 -0.000937 -0.001199 0.000000 0.027216 0.000000
# 6 0.000000 0.000000 0.000000 -0.005003 0.000000 0.059537
#
#
# Mechanical properties :
#
#
# Convention : Reuss Voigt Hill
#
# Bulk Modulus (GPa) = 48.43543 60.15426 54.29484
# Shear Modulus (GPa) = 26.86888 31.04622 28.95755
#
# Velocity S-wave (km/s) = 3.52179 3.78567 3.65611
# Velocity P-wave (km/s) = 6.23664 6.84663 6.54874
#
# Compressibility (1/GPa) = 0.02064604
#
# Stress axis : x y z
#
# Youngs Moduli (GPa) = 59.94018 80.93718 99.41299
#
# Poissons Ratio (x) = 0.18542 0.32103
# Poissons Ratio (y) = 0.13732 0.36838
# Poissons Ratio (z) = 0.19356 0.29992
#
# Static dielectric constant tensor:
#      x y z
#    x 3.976250 0.000000 0.319510 
#    y 0.000000 4.060990 0.000000 
#    z 0.319510 0.000000 4.014040 
# 
# 
# High freq. dielectric constant tensor:
#      x y z
#    x 1.860890 0.000000 0.016140 
#    y 0.000000 1.839290 0.000000 
#    z 0.016140 0.000000 1.856200 
# 
# From -- ./inp_files/34161.got.cif
#   From: 2010.06.25/outbox.cif.g09.slc.cpg/sg15_18_cif.got.tgz:34161.got - 2010.06.28 07:06:18.
