data_PCOD8144781
_publ_section_title
;
Structure prediction by ZEFSAII (Michael W. Deem and Ramdas Pophale) SiO2 
 PCOD8144781
Probable space group: C 2/C
;
_chemical_formula_sum "Si O2"
_cell_formula_units_Z 48
_cell_length_a 8.348877
_cell_length_b 17.205697
_cell_length_c 13.668573
_cell_angle_alpha 90.000000
_cell_angle_beta 92.706170
_cell_angle_gamma 90.000000
_cell_volume 1961.276899
_symmetry_space_group_name_H-M "C 2/C"
_symmetry_group_IT_number 15
_symmetry_cell_setting 'monoclinic'
loop_
_space_group_symop_operation_xyz
x,y,z
-x,y,1/2-z
-x,-y,-z
x,-y,1/2+z
1/2+x,1/2+y,z
1/2-x,1/2+y,1/2-z
1/2-x,1/2-y,-z
1/2+x,1/2-y,1/2+z
loop_
_atom_site_type_symbol
_atom_site_label
_atom_site_fract_x
_atom_site_fract_y
_atom_site_fract_z
Si Si1 0.587632 0.774480 0.447448
Si Si2 0.199463 0.358944 0.821251
Si Si3 0.897574 0.801166 0.102703
Si Si4 0.500000 0.289599 0.750000
Si Si5 0.119615 0.595946 0.525434
Si Si6 0.156499 0.501343 0.703287
Si Si7 0.000000 0.078859 0.750000
O O1 0.750000 0.750000 0.500000
O O2 0.452740 0.719984 0.495022
O O3 0.596956 0.762927 0.330659
O O4 0.556490 0.865355 0.472665
O O5 0.107759 0.277082 0.830995
O O6 0.386059 0.344284 0.810165
O O7 0.140531 0.408811 0.725014
O O8 0.178918 0.414798 0.916026
O O9 0.722626 0.839428 0.088645
O O10 0.013668 0.864926 0.155767
O O11 0.133305 0.514548 0.585036
O O12 0.333501 0.529701 0.743940
O O13 0.000000 0.542690 0.750000
#
# Coordination Sequence:
#
# PCOD8144781 Si02
#       7
#     8   8   8   4   8   8   4
#     4  11  24  37  71 116 136 187 249 314 384 451
#     4  11  23  44  71 104 144 200 247 311 391 440
#     4  10  21  44  72 100 144 191 241 320 382 428
#     4  12  23  42  74 111 152 184 252 320 371 466
#     4  10  22  48  68  98 151 190 239 325 379 441
#     4  11  27  45  71 102 151 206 247 305 393 463
#     4  10  25  46  72 105 150 198 252 308 385 470
#
# _framework density 24.473849999999999
#
# number of rings (size 3 to 8) (size 9 to 14) (size 15 to 20)
#    0.000    1.333    3.333    1.500    7.000    2.000 
#    3.000    2.500    0.000    0.000    0.000    0.000 
#    0.000    0.000    0.000    0.000    0.000    0.000 
#
# Total GULP energy -297407.999992 kJ/mol
# GULP energy per Si atom -12392.000000 kJ/mol
# Density = 2.441815 g / cm^3
# Si number density = 24.473850 Si / 1000 Ang^3
#
#
#
# Elastic Constant Matrix: (Units=GPa)
#
#
# Indices 1 2 3 4 5 6 
#
# 1 118.1019 17.8604 21.7243 0.0000 -10.1257 0.0000
# 2 17.8604 94.3843 29.1822 0.0000 -9.3438 0.0000
# 3 21.7243 29.1822 125.9998 0.0000 -10.1584 0.0000
# 4 0.0000 0.0000 0.0000 44.5520 0.0000 2.8811
# 5 -10.1257 -9.3438 -10.1584 0.0000 32.7946 0.0000
# 6 0.0000 0.0000 0.0000 2.8811 0.0000 12.4012
#
#
#
# Elastic Compliance Matrix: (Units=1/GPa)
#
#
# Indices 1 2 3 4 5 6 
#
# 1 0.009029 -0.001153 -0.001119 0.000000 0.002112 0.000000
# 2 -0.001153 0.011762 -0.002342 0.000000 0.002270 0.000000
# 3 -0.001119 -0.002342 0.008810 0.000000 0.001716 0.000000
# 4 0.000000 0.000000 0.000000 0.022788 0.000000 -0.005294
# 5 0.002112 0.002270 0.001716 0.000000 0.032323 0.000000
# 6 0.000000 0.000000 0.000000 -0.005294 0.000000 0.081867
#
#
# Mechanical properties :
#
#
# Convention : Reuss Voigt Hill
#
# Bulk Modulus (GPa) = 49.08863 52.89108 50.98985
# Shear Modulus (GPa) = 27.38226 35.93083 31.65654
#
# Velocity S-wave (km/s) = 3.34853 3.83578 3.60041
# Velocity P-wave (km/s) = 5.92042 6.42462 6.17767
#
# Compressibility (1/GPa) = 0.02037132
#
# Stress axis : x y z
#
# Youngs Moduli (GPa) = 110.75824 85.01868 113.50284
#
# Poissons Ratio (x) = 0.09805 0.12704
# Poissons Ratio (y) = 0.12774 0.26586
# Poissons Ratio (z) = 0.12397 0.19914
#
# Static dielectric constant tensor:
#      x y z
#    x 12.749030 0.000000 -6.365480 
#    y 0.000000 4.250940 0.000000 
#    z -6.365480 0.000000 9.552490 
# 
# 
# High freq. dielectric constant tensor:
#      x y z
#    x 1.978380 0.000000 0.005420 
#    y 0.000000 1.956150 0.000000 
#    z 0.005420 0.000000 1.977770 
# 
# From -- ./inp_files/134899.got.cif
#   From: 2010.06.25/outbox.cif.g09.slc.cpg/sg15_68_cif.got.tgz:134899.got - 2010.06.28 07:06:18.
