data_PCOD8144132
_publ_section_title
;
Structure prediction by ZEFSAII (Michael W. Deem and Ramdas Pophale) SiO2 
 PCOD8144132
Probable space group: C 2/C
;
_chemical_formula_sum "Si O2"
_cell_formula_units_Z 36
_cell_length_a 16.139038
_cell_length_b 8.439173
_cell_length_c 23.267706
_cell_angle_alpha 90.000000
_cell_angle_beta 146.541602
_cell_angle_gamma 90.000000
_cell_volume 1747.204741
_symmetry_space_group_name_H-M "C 2/C"
_symmetry_group_IT_number 15
_symmetry_cell_setting 'monoclinic'
loop_
_space_group_symop_operation_xyz
x,y,z
-x,y,1/2-z
-x,-y,-z
x,-y,1/2+z
1/2+x,1/2+y,z
1/2-x,1/2+y,1/2-z
1/2-x,1/2-y,-z
1/2+x,1/2-y,1/2+z
loop_
_atom_site_type_symbol
_atom_site_label
_atom_site_fract_x
_atom_site_fract_y
_atom_site_fract_z
Si Si1 0.000000 0.949943 0.750000
Si Si2 0.736097 0.265895 0.810262
Si Si3 0.299869 0.892169 0.724340
Si Si4 0.415545 0.310559 0.105465
Si Si5 0.543424 0.337760 0.498649
O O1 0.875300 0.842260 0.708299
O O2 0.916005 0.055688 0.654197
O O3 0.724347 0.351702 0.741917
O O4 0.697276 0.080256 0.782315
O O5 0.908883 0.288385 0.933088
O O6 0.469718 0.832016 0.813751
O O7 0.204151 0.793902 0.620054
O O8 0.250000 0.250000 0.000000
O O9 0.460279 0.381636 0.070386
O O10 0.500000 0.500000 0.500000
#
# Coordination Sequence:
#
# PCOD8144132 Si02
#       5
#     4   8   8   8   8
#     4  12  24  40  60  94 126 152 202 254 298 360
#     4  10  22  39  64  92 120 159 200 248 303 357
#     4  10  21  42  63  86 122 162 202 246 299 361
#     4  11  24  40  61  87 120 161 201 248 301 353
#     4   9  19  38  61  84 115 155 195 239 296 355
#
# _framework density 20.604340000000001
#
# number of rings (size 3 to 8) (size 9 to 14) (size 15 to 20)
#    0.000    1.778    0.000    5.333    0.000    6.222 
#    0.000   12.222    0.000    0.000    0.000    0.000 
#    0.000    0.000    0.000    0.000    0.000    0.000 
#
# Total GULP energy -223040.871203 kJ/mol
# GULP energy per Si atom -12391.159511 kJ/mol
# Density = 2.055744 g / cm^3
# Si number density = 20.604340 Si / 1000 Ang^3
#
#
#
# Elastic Constant Matrix: (Units=GPa)
#
#
# Indices 1 2 3 4 5 6 
#
# 1 134.6446 75.5197 76.7670 0.0000 1.9513 0.0000
# 2 75.5197 115.9062 66.6837 0.0000 3.2033 0.0000
# 3 76.7670 66.6837 182.0917 0.0001 12.2221 0.0000
# 4 0.0000 0.0000 0.0001 29.8129 0.0000 -5.5307
# 5 1.9513 3.2033 12.2221 0.0000 32.4945 0.0000
# 6 0.0000 0.0000 0.0000 -5.5307 0.0000 38.0844
#
#
#
# Elastic Compliance Matrix: (Units=1/GPa)
#
#
# Indices 1 2 3 4 5 6 
#
# 1 0.012901 -0.006671 -0.003066 0.000000 0.001036 0.000000
# 2 -0.006671 0.014386 -0.002449 0.000000 -0.000096 0.000000
# 3 -0.003066 -0.002449 0.007851 0.000000 -0.002527 0.000000
# 4 0.000000 0.000000 0.000000 0.034471 0.000000 0.005006
# 5 0.001036 -0.000096 -0.002527 0.000000 0.031672 0.000000
# 6 0.000000 0.000000 0.000000 0.005006 0.000000 0.026984
#
#
# Mechanical properties :
#
#
# Convention : Reuss Voigt Hill
#
# Bulk Modulus (GPa) = 92.88303 96.73149 94.80726
# Shear Modulus (GPa) = 32.00471 34.32319 33.16395
#
# Velocity S-wave (km/s) = 3.94547 4.08588 4.01629
# Velocity P-wave (km/s) = 8.11990 8.32516 8.22317
#
# Compressibility (1/GPa) = 0.01076623
#
# Stress axis : x y z
#
# Youngs Moduli (GPa) = 77.51103 69.51159 127.37531
#
# Poissons Ratio (x) = 0.46371 0.39048
# Poissons Ratio (y) = 0.51707 0.31201
# Poissons Ratio (z) = 0.23762 0.17027
#
# Static dielectric constant tensor:
#      x y z
#    x 3.034910 0.000000 3.545260 
#    y 0.000000 3.246550 0.000000 
#    z 3.545260 0.000000 -5.717300 
# 
# 
# High freq. dielectric constant tensor:
#      x y z
#    x 1.819930 0.000000 0.001020 
#    y 0.000000 1.790820 0.000000 
#    z 0.001020 0.000000 1.827750 
# 
# From -- ./inp_files/102453.got.cif
#   From: 2010.06.25/outbox.cif.g09.slc.cpg/sg15_52_cif.got.tgz:102453.got - 2010.06.28 07:06:18.
