data_PCOD8144120
_publ_section_title
;
Structure prediction by ZEFSAII (Michael W. Deem and Ramdas Pophale) SiO2 
 PCOD8144120
Probable space group: C 2/C
;
_chemical_formula_sum "Si O2"
_cell_formula_units_Z 56
_cell_length_a 6.084464
_cell_length_b 22.781045
_cell_length_c 20.489250
_cell_angle_alpha 90.000000
_cell_angle_beta 62.978078
_cell_angle_gamma 90.000000
_cell_volume 2529.986522
_symmetry_space_group_name_H-M "C 2/C"
_symmetry_group_IT_number 15
_symmetry_cell_setting 'monoclinic'
loop_
_space_group_symop_operation_xyz
x,y,z
-x,y,1/2-z
-x,-y,-z
x,-y,1/2+z
1/2+x,1/2+y,z
1/2-x,1/2+y,1/2-z
1/2-x,1/2-y,-z
1/2+x,1/2-y,1/2+z
loop_
_atom_site_type_symbol
_atom_site_label
_atom_site_fract_x
_atom_site_fract_y
_atom_site_fract_z
Si Si1 0.157006 0.209624 0.359788
Si Si2 0.000000 0.384059 0.250000
Si Si3 0.493609 0.884782 0.626733
Si Si4 0.484920 0.445907 0.176657
Si Si5 0.000000 0.846983 0.750000
Si Si6 0.647850 0.840513 0.365136
Si Si7 0.065524 0.035326 0.427072
Si Si8 0.272097 0.146958 0.026270
O O1 0.371911 0.167393 0.354187
O O2 0.103959 0.195760 0.291522
O O3 0.259005 0.275398 0.358759
O O4 0.896804 0.203361 0.433828
O O5 0.213064 0.425683 0.193776
O O6 0.095694 0.344061 0.295472
O O7 0.642407 0.946632 0.615385
O O8 0.480472 0.866700 0.552326
O O9 0.216806 0.889927 0.693668
O O10 0.500000 0.465816 0.250000
O O11 0.667588 0.391674 0.137192
O O12 0.535196 0.500911 0.122835
O O13 0.396609 0.845894 0.439535
O O14 0.921321 0.095037 0.450299
O O15 0.000000 0.000000 0.500000
#
# Coordination Sequence:
#
# PCOD8144120 Si02
#       8
#     8   4   8   8   4   8   8   8
#     4  10  22  40  63  97 128 169 208 261 331 382
#     4  10  23  42  60  92 124 166 210 255 318 374
#     4  10  23  41  62  95 129 169 216 265 328 384
#     4  10  24  42  60  95 125 166 218 259 322 380
#     4  10  21  42  62  92 138 164 220 267 322 400
#     4  11  22  40  68  93 130 165 211 267 316 397
#     4  11  23  44  68  91 126 174 217 269 326 384
#     4  10  23  41  64  95 126 163 216 266 323 386
#
# _framework density 22.134505999999998
#
# number of rings (size 3 to 8) (size 9 to 14) (size 15 to 20)
#    0.000    1.714    0.000    3.000    0.000   12.000 
#   21.857    0.000    0.000    0.000    0.000    0.000 
#    0.000    0.000    0.000    0.000    0.000    0.000 
#
# Total GULP energy -347191.830492 kJ/mol
# GULP energy per Si atom -12399.708232 kJ/mol
# Density = 2.208413 g / cm^3
# Si number density = 22.134506 Si / 1000 Ang^3
#
#
#
# Elastic Constant Matrix: (Units=GPa)
#
#
# Indices 1 2 3 4 5 6 
#
# 1 84.5363 25.6347 17.8400 0.0000 -3.8009 0.0000
# 2 25.6347 99.6230 33.2192 0.0000 -3.3962 0.0000
# 3 17.8400 33.2192 107.8560 0.0000 -11.0388 0.0000
# 4 0.0000 0.0000 0.0000 25.9151 0.0000 0.6537
# 5 -3.8009 -3.3962 -11.0388 0.0000 31.6902 0.0000
# 6 0.0000 0.0000 0.0000 0.6537 0.0000 19.9679
#
#
#
# Elastic Compliance Matrix: (Units=1/GPa)
#
#
# Indices 1 2 3 4 5 6 
#
# 1 0.013000 -0.002929 -0.001162 0.000000 0.000841 0.000000
# 2 -0.002929 0.011847 -0.003184 0.000000 -0.000191 0.000000
# 3 -0.001162 -0.003184 0.010780 0.000000 0.003274 0.000000
# 4 0.000000 0.000000 0.000000 0.038619 0.000000 -0.001264
# 5 0.000841 -0.000191 0.003274 0.000000 0.032776 0.000000
# 6 0.000000 0.000000 0.000000 -0.001264 0.000000 0.050122
#
#
# Mechanical properties :
#
#
# Convention : Reuss Voigt Hill
#
# Bulk Modulus (GPa) = 47.44581 49.48925 48.46753
# Shear Modulus (GPa) = 27.97674 29.86941 28.92307
#
# Velocity S-wave (km/s) = 3.55905 3.67747 3.61875
# Velocity P-wave (km/s) = 6.19443 6.35914 6.27732
#
# Compressibility (1/GPa) = 0.02107667
#
# Stress axis : x y z
#
# Youngs Moduli (GPa) = 76.92016 84.41200 92.76816
#
# Poissons Ratio (x) = 0.24725 0.10781
# Poissons Ratio (y) = 0.22530 0.29535
# Poissons Ratio (z) = 0.08940 0.26875
#
# Static dielectric constant tensor:
#      x y z
#    x 4.128890 0.000000 -0.140520 
#    y 0.000000 3.498190 0.000000 
#    z -0.140520 0.000000 3.974470 
# 
# 
# High freq. dielectric constant tensor:
#      x y z
#    x 1.875390 0.000000 -0.000460 
#    y 0.000000 1.866160 0.000000 
#    z -0.000460 0.000000 1.881640 
# 
# From -- ./inp_files/228123.got.cif
#   From: 2010.06.25/outbox.cif.g09.slc.cpg/sg15_115_cif.got.tgz:228123.got - 2010.06.28 07:06:18.
