data_PCOD8144816
_publ_section_title
;
Structure prediction by ZEFSAII (Michael W. Deem and Ramdas Pophale) SiO2 
 PCOD8144816
Probable space group: C 2/C
;
_chemical_formula_sum "Si O2"
_cell_formula_units_Z 48
_cell_length_a 10.977143
_cell_length_b 23.425771
_cell_length_c 8.258728
_cell_angle_alpha 90.000000
_cell_angle_beta 87.404606
_cell_angle_gamma 90.000000
_cell_volume 2121.537223
_symmetry_space_group_name_H-M "C 2/C"
_symmetry_group_IT_number 15
_symmetry_cell_setting 'monoclinic'
loop_
_space_group_symop_operation_xyz
x,y,z
-x,y,1/2-z
-x,-y,-z
x,-y,1/2+z
1/2+x,1/2+y,z
1/2-x,1/2+y,1/2-z
1/2-x,1/2-y,-z
1/2+x,1/2-y,1/2+z
loop_
_atom_site_type_symbol
_atom_site_label
_atom_site_fract_x
_atom_site_fract_y
_atom_site_fract_z
Si Si1 0.675181 0.283947 0.638419
Si Si2 0.514219 0.384522 0.566791
Si Si3 0.745302 0.867450 0.592949
Si Si4 0.130912 0.667616 0.778894
Si Si5 0.752576 0.928762 0.092600
Si Si6 0.358739 0.972131 0.726817
O O1 0.750000 0.250000 0.500000
O O2 0.567050 0.320097 0.563179
O O3 0.751698 0.328463 0.745103
O O4 0.622232 0.235273 0.756390
O O5 0.500000 0.408434 0.750000
O O6 0.378061 0.380151 0.503371
O O7 0.603791 0.427834 0.465144
O O8 0.662813 0.837868 0.464671
O O9 0.682235 0.926839 0.637525
O O10 0.223878 0.635970 0.650792
O O11 0.000000 0.639574 0.750000
O O12 0.724059 0.971060 0.243353
O O13 0.665928 0.948144 0.950341
O O14 0.500000 0.986557 0.750000
#
# Coordination Sequence:
#
# PCOD8144816 Si02
#       6
#     8   8   8   8   8   8
#     4  11  21  43  70  99 137 180 223 279 344 399
#     4  10  21  45  68  93 137 178 224 287 339 412
#     4  11  24  43  67 101 139 181 229 276 346 405
#     4  12  24  42  67 101 137 182 230 278 335 411
#     4  12  24  44  67  96 136 177 229 284 346 402
#     4  12  24  43  68  99 135 179 226 285 340 408
#
# _framework density 22.625104
#
# number of rings (size 3 to 8) (size 9 to 14) (size 15 to 20)
#    0.000    0.667    5.000    5.000    0.000    1.333 
#    0.000    1.667    0.000    0.000    0.000    0.000 
#    0.000    0.000    0.000    0.000    0.000    0.000 
#
# Total GULP energy -297571.786883 kJ/mol
# GULP energy per Si atom -12398.824453 kJ/mol
# Density = 2.257361 g / cm^3
# Si number density = 22.625104 Si / 1000 Ang^3
#
#
#
# Elastic Constant Matrix: (Units=GPa)
#
#
# Indices 1 2 3 4 5 6 
#
# 1 119.8544 33.6790 36.9783 0.0000 -10.4999 0.0000
# 2 33.6790 111.7111 17.4712 0.0000 -15.9024 0.0000
# 3 36.9783 17.4712 57.2571 0.0000 -6.9156 0.0000
# 4 0.0000 0.0000 0.0000 40.0655 0.0000 -12.9092
# 5 -10.4999 -15.9024 -6.9156 0.0000 38.0996 0.0000
# 6 0.0000 0.0000 0.0000 -12.9092 0.0000 35.7072
#
#
#
# Elastic Compliance Matrix: (Units=1/GPa)
#
#
# Indices 1 2 3 4 5 6 
#
# 1 0.010991 -0.002188 -0.006314 0.000000 0.000970 0.000000
# 2 -0.002188 0.010310 -0.001315 0.000000 0.003462 0.000000
# 3 -0.006314 -0.001315 0.022153 0.000000 0.001732 0.000000
# 4 0.000000 0.000000 0.000000 0.028250 0.000000 0.010213
# 5 0.000970 0.003462 0.001732 0.000000 0.028274 0.000000
# 6 0.000000 0.000000 0.000000 0.010213 0.000000 0.031698
#
#
# Mechanical properties :
#
#
# Convention : Reuss Voigt Hill
#
# Bulk Modulus (GPa) = 41.97958 51.67551 46.82754
# Shear Modulus (GPa) = 31.39750 36.15407 33.77579
#
# Velocity S-wave (km/s) = 3.72926 4.00179 3.86793
# Velocity P-wave (km/s) = 6.09409 6.65146 6.37886
#
# Compressibility (1/GPa) = 0.02382111
#
# Stress axis : x y z
#
# Youngs Moduli (GPa) = 90.98171 96.99588 45.14063
#
# Poissons Ratio (x) = 0.21225 0.28500
# Poissons Ratio (y) = 0.19909 0.05934
# Poissons Ratio (z) = 0.57442 0.12751
#
# Static dielectric constant tensor:
#      x y z
#    x 4.191300 0.000000 -0.188290 
#    y 0.000000 4.299980 0.000000 
#    z -0.188290 0.000000 3.951680 
# 
# 
# High freq. dielectric constant tensor:
#      x y z
#    x 1.888430 0.000000 -0.013130 
#    y 0.000000 1.900950 0.000000 
#    z -0.013130 0.000000 1.890970 
# 
# From -- ./inp_files/31892.got.cif
#   From: 2010.06.25/outbox.cif.g09.slc.cpg/sg15_16_cif.got.tgz:31892.got - 2010.06.28 07:06:18.
