data_PCOD8144879
_publ_section_title
;
Structure prediction by ZEFSAII (Michael W. Deem and Ramdas Pophale) SiO2 
 PCOD8144879
Probable space group: C 2/C
;
_chemical_formula_sum "Si O2"
_cell_formula_units_Z 48
_cell_length_a 11.238348
_cell_length_b 22.388484
_cell_length_c 11.358654
_cell_angle_alpha 90.000000
_cell_angle_beta 132.389043
_cell_angle_gamma 90.000000
_cell_volume 2110.834055
_symmetry_space_group_name_H-M "C 2/C"
_symmetry_group_IT_number 15
_symmetry_cell_setting 'monoclinic'
loop_
_space_group_symop_operation_xyz
x,y,z
-x,y,1/2-z
-x,-y,-z
x,-y,1/2+z
1/2+x,1/2+y,z
1/2-x,1/2+y,1/2-z
1/2-x,1/2-y,-z
1/2+x,1/2-y,1/2+z
loop_
_atom_site_type_symbol
_atom_site_label
_atom_site_fract_x
_atom_site_fract_y
_atom_site_fract_z
Si Si1 0.000000 0.145363 0.750000
Si Si2 0.671718 0.121272 0.819775
Si Si3 0.442039 0.711838 0.951177
Si Si4 0.000000 0.614012 0.250000
Si Si5 0.690770 0.437827 0.874291
Si Si6 0.701037 0.067291 0.585693
Si Si7 0.773935 0.673498 0.269691
O O1 0.972346 0.188021 0.841145
O O2 0.850428 0.101898 0.627943
O O3 0.500000 0.144897 0.750000
O O4 0.798156 0.175145 0.915232
O O5 0.649581 0.096557 0.673990
O O6 0.740046 0.068196 0.947530
O O7 0.394265 0.781264 0.916472
O O8 0.604044 0.706252 0.135124
O O9 0.853538 0.655383 0.198279
O O10 0.055905 0.572813 0.395975
O O11 0.500000 0.440573 0.750000
O O12 0.758913 0.498475 0.863968
O O13 0.750926 0.383700 0.835209
#
# Coordination Sequence:
#
# PCOD8144879 Si02
#       7
#     4   8   8   4   8   8   8
#     4  10  21  46  74 106 140 197 246 310 374 428
#     4  11  27  48  72 105 145 194 247 309 369 439
#     4  11  26  46  73 106 151 192 251 304 372 436
#     4  12  27  48  76 114 150 187 252 310 380 432
#     4  12  27  49  74 109 151 199 248 302 377 450
#     4  11  26  46  77 108 148 193 246 311 372 448
#     4  12  28  46  74 111 147 202 245 309 368 439
#
# _framework density 22.739826999999998
#
# number of rings (size 3 to 8) (size 9 to 14) (size 15 to 20)
#    0.000    0.667    4.167    1.500   10.500    4.667 
#    0.000    0.000    0.000    0.000    0.000    0.000 
#    0.000    0.000    0.000    0.000    0.000    0.000 
#
# Total GULP energy -297766.813539 kJ/mol
# GULP energy per Si atom -12406.950564 kJ/mol
# Density = 2.268807 g / cm^3
# Si number density = 22.739827 Si / 1000 Ang^3
#
#
#
# Elastic Constant Matrix: (Units=GPa)
#
#
# Indices 1 2 3 4 5 6 
#
# 1 141.9796 55.4253 51.9421 0.0000 18.0753 0.0000
# 2 55.4253 149.1805 36.5781 0.0000 11.7318 0.0000
# 3 51.9421 36.5781 129.4665 0.0000 13.5470 0.0000
# 4 0.0000 0.0000 0.0000 39.9563 0.0000 3.8766
# 5 18.0753 11.7318 13.5470 0.0000 31.2125 0.0000
# 6 0.0000 0.0000 0.0000 3.8766 0.0000 22.4722
#
#
#
# Elastic Compliance Matrix: (Units=1/GPa)
#
#
# Indices 1 2 3 4 5 6 
#
# 1 0.009474 -0.002591 -0.002720 0.000000 -0.003332 0.000000
# 2 -0.002591 0.008021 -0.001119 0.000000 -0.001029 0.000000
# 3 -0.002720 -0.001119 0.009347 0.000000 -0.002061 0.000000
# 4 0.000000 0.000000 0.000000 0.025453 0.000000 -0.004391
# 5 -0.003332 -0.001029 -0.002061 0.000000 0.035249 0.000000
# 6 0.000000 0.000000 0.000000 -0.004391 0.000000 0.045257
#
#
# Mechanical properties :
#
#
# Convention : Reuss Voigt Hill
#
# Bulk Modulus (GPa) = 71.52145 78.72417 75.12281
# Shear Modulus (GPa) = 33.26166 37.17361 35.21764
#
# Velocity S-wave (km/s) = 3.82868 4.04757 3.93965
# Velocity P-wave (km/s) = 7.14601 7.51921 7.33498
#
# Compressibility (1/GPa) = 0.01398182
#
# Stress axis : x y z
#
# Youngs Moduli (GPa) = 105.55097 124.66983 106.98332
#
# Poissons Ratio (x) = 0.32300 0.29103
# Poissons Ratio (y) = 0.27347 0.11973
# Poissons Ratio (z) = 0.28714 0.13952
#
# Static dielectric constant tensor:
#      x y z
#    x 4.374640 0.000000 0.193770 
#    y 0.000000 3.976890 0.000000 
#    z 0.193770 0.000000 4.163150 
# 
# 
# High freq. dielectric constant tensor:
#      x y z
#    x 1.915030 0.000000 0.009090 
#    y 0.000000 1.895540 0.000000 
#    z 0.009090 0.000000 1.906590 
# 
# From -- ./inp_files/32569.got.cif
#   From: 2010.06.25/outbox.cif.g09.slc.cpg/sg15_17_cif.got.tgz:32569.got - 2010.06.28 07:06:18.
