data_PCOD8144592
_publ_section_title
;
Structure prediction by ZEFSAII (Michael W. Deem and Ramdas Pophale) SiO2 
 PCOD8144592
Probable space group: C 2/C
;
_chemical_formula_sum "Si O2"
_cell_formula_units_Z 44
_cell_length_a 23.797831
_cell_length_b 12.330281
_cell_length_c 8.182457
_cell_angle_alpha 90.000000
_cell_angle_beta 58.760416
_cell_angle_gamma 90.000000
_cell_volume 2052.878889
_symmetry_space_group_name_H-M "C 2/C"
_symmetry_group_IT_number 15
_symmetry_cell_setting 'monoclinic'
loop_
_space_group_symop_operation_xyz
x,y,z
-x,y,1/2-z
-x,-y,-z
x,-y,1/2+z
1/2+x,1/2+y,z
1/2-x,1/2+y,1/2-z
1/2-x,1/2-y,-z
1/2+x,1/2-y,1/2+z
loop_
_atom_site_type_symbol
_atom_site_label
_atom_site_fract_x
_atom_site_fract_y
_atom_site_fract_z
Si Si1 0.789012 0.201546 0.291015
Si Si2 0.160504 0.610153 0.372541
Si Si3 0.367993 0.871190 0.964743
Si Si4 0.900358 0.807336 0.846006
Si Si5 0.500000 0.765476 0.750000
Si Si6 0.974572 0.880179 0.010636
O O1 0.750000 0.250000 0.500000
O O2 0.739927 0.123006 0.266008
O O3 0.850070 0.140640 0.288733
O O4 0.814794 0.292470 0.127421
O O5 0.143280 0.489841 0.449393
O O6 0.138177 0.633209 0.221677
O O7 0.123041 0.689563 0.555689
O O8 0.441985 0.839702 0.911256
O O9 0.910250 0.885124 0.990174
O O10 0.970325 0.801914 0.651651
O O11 0.457837 0.683695 0.699621
O O12 0.000000 0.000000 0.000000
#
# Coordination Sequence:
#
# PCOD8144592 Si02
#       6
#     8   8   8   8   4   8
#     4  10  22  45  69  98 140 176 232 286 330 418
#     4  11  24  44  69 101 143 181 230 282 344 419
#     4  12  25  45  71 107 139 187 232 283 357 406
#     4  10  21  43  68  95 139 178 227 285 345 405
#     4  12  24  42  72 104 144 176 236 292 340 428
#     4  11  23  43  66  97 138 180 231 290 345 411
#
# _framework density 21.433315
#
# number of rings (size 3 to 8) (size 9 to 14) (size 15 to 20)
#    0.000    1.091    3.636    3.818    0.000    2.182 
#    9.818    0.000    0.000    0.000    0.000    0.000 
#    0.000    0.000    0.000    0.000    0.000    0.000 
#
# Total GULP energy -272557.773802 kJ/mol
# GULP energy per Si atom -12388.989718 kJ/mol
# Density = 2.138453 g / cm^3
# Si number density = 21.433315 Si / 1000 Ang^3
#
#
#
# Elastic Constant Matrix: (Units=GPa)
#
#
# Indices 1 2 3 4 5 6 
#
# 1 126.6732 62.7390 14.7225 0.0000 13.2825 0.0000
# 2 62.7390 139.2855 41.0554 0.0000 -5.3881 0.0000
# 3 14.7225 41.0554 85.2403 0.0000 -2.6303 0.0000
# 4 0.0000 0.0000 0.0000 32.3980 0.0000 -0.5304
# 5 13.2825 -5.3881 -2.6303 0.0000 37.7737 0.0000
# 6 0.0000 0.0000 0.0000 -0.5304 0.0000 30.4184
#
#
#
# Elastic Compliance Matrix: (Units=1/GPa)
#
#
# Indices 1 2 3 4 5 6 
#
# 1 0.010906 -0.005235 0.000497 0.000000 -0.004547 0.000000
# 2 -0.005235 0.010912 -0.004256 0.000000 0.003101 0.000000
# 3 0.000497 -0.004256 0.013701 0.000000 0.000172 0.000000
# 4 0.000000 0.000000 0.000000 0.030875 0.000000 0.000538
# 5 -0.004547 0.003101 0.000172 0.000000 0.028527 0.000000
# 6 0.000000 0.000000 0.000000 0.000538 0.000000 0.032884
#
#
# Mechanical properties :
#
#
# Convention : Reuss Voigt Hill
#
# Bulk Modulus (GPa) = 57.03859 65.35921 61.19890
# Shear Modulus (GPa) = 32.97386 35.63016 34.30201
#
# Velocity S-wave (km/s) = 3.92655 4.08164 4.00485
# Velocity P-wave (km/s) = 6.87219 7.26454 7.07108
#
# Compressibility (1/GPa) = 0.01753199
#
# Stress axis : x y z
#
# Youngs Moduli (GPa) = 91.69181 91.64307 72.98889
#
# Poissons Ratio (x) = 0.47975 -0.03631
# Poissons Ratio (y) = 0.48001 0.31063
# Poissons Ratio (z) = -0.04561 0.39001
#
# Static dielectric constant tensor:
#      x y z
#    x 4.253370 0.000000 0.051870 
#    y 0.000000 3.578930 0.000000 
#    z 0.051870 0.000000 4.062620 
# 
# 
# High freq. dielectric constant tensor:
#      x y z
#    x 1.864640 0.000000 0.013860 
#    y 0.000000 1.818720 0.000000 
#    z 0.013860 0.000000 1.848720 
# 
# From -- ./inp_files/54347.got.cif
#   From: 2010.06.25/outbox.cif.g09.slc.cpg/sg15_28_cif.got.tgz:54347.got - 2010.06.28 07:06:18.
