data_PCOD8144666
_publ_section_title
;
Structure prediction by ZEFSAII (Michael W. Deem and Ramdas Pophale) SiO2 
 PCOD8144666
Probable space group: C 2/C
;
_chemical_formula_sum "Si O2"
_cell_formula_units_Z 40
_cell_length_a 26.078052
_cell_length_b 8.504058
_cell_length_c 17.344680
_cell_angle_alpha 90.000000
_cell_angle_beta 26.992871
_cell_angle_gamma 90.000000
_cell_volume 1745.855709
_symmetry_space_group_name_H-M "C 2/C"
_symmetry_group_IT_number 15
_symmetry_cell_setting 'monoclinic'
loop_
_space_group_symop_operation_xyz
x,y,z
-x,y,1/2-z
-x,-y,-z
x,-y,1/2+z
1/2+x,1/2+y,z
1/2-x,1/2+y,1/2-z
1/2-x,1/2-y,-z
1/2+x,1/2-y,1/2+z
loop_
_atom_site_type_symbol
_atom_site_label
_atom_site_fract_x
_atom_site_fract_y
_atom_site_fract_z
Si Si1 0.603628 0.722980 0.938779
Si Si2 0.551111 0.501013 0.263540
Si Si3 0.483062 0.819791 0.603263
Si Si4 0.695250 0.975624 0.384404
Si Si5 0.208615 0.574014 0.043094
O O1 0.541125 0.820406 0.955387
O O2 0.684151 0.841471 0.877770
O O3 0.678096 0.581291 0.804028
O O4 0.509468 0.654968 0.122230
O O5 0.500000 0.454039 0.250000
O O6 0.534801 0.356290 0.342761
O O7 0.685715 0.538769 0.075744
O O8 0.399370 0.947155 0.756396
O O9 0.610383 0.870631 0.448076
O O10 0.668061 0.954224 0.510604
O O11 0.250000 0.750000 0.000000
#
# Coordination Sequence:
#
# PCOD8144666 Si02
#       5
#     8   8   8   8   8
#     4  12  27  43  70 106 140 188 234 297 353 410
#     4  11  24  43  71 101 141 184 235 289 355 415
#     4  11  23  45  74 100 136 188 242 281 354 431
#     4  12  25  43  70 102 144 178 241 292 353 420
#     4  10  21  43  72  99 130 189 234 281 347 430
#
# _framework density 22.911401999999999
#
# number of rings (size 3 to 8) (size 9 to 14) (size 15 to 20)
#    0.000    0.800    4.000    5.400    5.600    1.600 
#    0.000    2.000    0.000    0.000    0.000    0.000 
#    0.000    0.000    0.000    0.000    0.000    0.000 
#
# Total GULP energy -248093.145803 kJ/mol
# GULP energy per Si atom -12404.657290 kJ/mol
# Density = 2.285925 g / cm^3
# Si number density = 22.911402 Si / 1000 Ang^3
#
#
#
# Elastic Constant Matrix: (Units=GPa)
#
#
# Indices 1 2 3 4 5 6 
#
# 1 136.0835 26.8054 27.0378 0.0002 -2.9687 -0.0001
# 2 26.8054 67.8326 17.0630 -0.0015 0.6284 0.0002
# 3 27.0378 17.0630 93.0314 -0.0004 -13.8640 0.0000
# 4 0.0002 -0.0015 -0.0004 32.9921 0.0000 1.6518
# 5 -2.9687 0.6284 -13.8640 0.0000 36.8512 0.0000
# 6 -0.0001 0.0002 0.0000 1.6518 0.0000 28.7812
#
#
#
# Elastic Compliance Matrix: (Units=1/GPa)
#
#
# Indices 1 2 3 4 5 6 
#
# 1 0.008275 -0.002794 -0.001892 0.000000 0.000002 0.000000
# 2 -0.002794 0.016468 -0.002419 0.000001 -0.001416 0.000000
# 3 -0.001892 -0.002419 0.012423 0.000000 0.004562 0.000000
# 4 0.000000 0.000001 0.000000 0.030398 0.000000 -0.001745
# 5 0.000002 -0.001416 0.004562 0.000000 0.028877 0.000000
# 6 0.000000 0.000000 0.000000 -0.001745 0.000000 0.034845
#
#
# Mechanical properties :
#
#
# Convention : Reuss Voigt Hill
#
# Bulk Modulus (GPa) = 43.56476 48.75108 46.15792
# Shear Modulus (GPa) = 32.64828 34.79434 33.72131
#
# Velocity S-wave (km/s) = 3.77899 3.90121 3.84058
# Velocity P-wave (km/s) = 6.17225 6.45111 6.31322
#
# Compressibility (1/GPa) = 0.02295433
#
# Stress axis : x y z
#
# Youngs Moduli (GPa) = 120.84931 60.72387 80.49830
#
# Poissons Ratio (x) = 0.16966 0.15231
# Poissons Ratio (y) = 0.33765 0.19476
# Poissons Ratio (z) = 0.22866 0.14692
#
# Static dielectric constant tensor:
#      x y z
#    x 4.131240 0.000000 -0.148650 
#    y 0.000000 3.865670 0.000000 
#    z -0.148650 0.000000 4.816010 
# 
# 
# High freq. dielectric constant tensor:
#      x y z
#    x 1.916620 0.000000 -0.007890 
#    y 0.000000 1.884210 0.000000 
#    z -0.007890 0.000000 1.912590 
# 
# From -- ./inp_files/213681.got.cif
#   From: 2010.06.25/outbox.cif.g09.slc.cpg/sg15_107_cif.got.tgz:213681.got - 2010.06.28 07:06:18.
