data_PCOD8144274
_publ_section_title
;
Structure prediction by ZEFSAII (Michael W. Deem and Ramdas Pophale) SiO2 
 PCOD8144274
Probable space group: C 2/C
;
_chemical_formula_sum "Si O2"
_cell_formula_units_Z 44
_cell_length_a 12.401143
_cell_length_b 21.343771
_cell_length_c 12.181332
_cell_angle_alpha 90.000000
_cell_angle_beta 40.332139
_cell_angle_gamma 90.000000
_cell_volume 2086.785872
_symmetry_space_group_name_H-M "C 2/C"
_symmetry_group_IT_number 15
_symmetry_cell_setting 'monoclinic'
loop_
_space_group_symop_operation_xyz
x,y,z
-x,y,1/2-z
-x,-y,-z
x,-y,1/2+z
1/2+x,1/2+y,z
1/2-x,1/2+y,1/2-z
1/2-x,1/2-y,-z
1/2+x,1/2-y,1/2+z
loop_
_atom_site_type_symbol
_atom_site_label
_atom_site_fract_x
_atom_site_fract_y
_atom_site_fract_z
Si Si1 0.306897 0.181479 0.423514
Si Si2 0.821552 0.565692 0.079364
Si Si3 0.410881 0.063793 0.437917
Si Si4 0.500000 0.865439 0.250000
Si Si5 0.229856 0.222140 0.895959
Si Si6 0.633878 0.333557 0.837820
O O1 0.500000 0.187498 0.250000
O O2 0.250000 0.250000 0.500000
O O3 0.295406 0.126597 0.524797
O O4 0.193006 0.154300 0.415011
O O5 0.656012 0.603490 0.246347
O O6 0.948853 0.573799 0.080100
O O7 0.791284 0.492851 0.072197
O O8 0.885609 0.593558 0.916159
O O9 0.500000 0.051301 0.250000
O O10 0.616009 0.824715 0.241445
O O11 0.243780 0.278433 0.799119
O O12 0.250000 0.250000 0.000000
O O13 0.057703 0.185690 0.016237
#
# Coordination Sequence:
#
# PCOD8144274 Si02
#       6
#     8   8   8   4   8   8
#     4  11  23  41  67  97 129 173 219 273 337 396
#     4  11  22  39  69  94 129 177 224 268 336 409
#     4  10  21  42  66  97 130 174 227 269 331 407
#     4  12  24  38  64  94 130 176 218 278 334 400
#     4  12  23  37  60  97 133 168 224 273 339 393
#     4  12  22  39  64  96 133 175 219 282 329 402
#
# _framework density 21.085059000000001
#
# number of rings (size 3 to 8) (size 9 to 14) (size 15 to 20)
#    0.000    0.727    8.182    1.091    2.545    0.000 
#    0.000    0.000    4.000    5.455    0.000    0.000 
#    0.000    0.000    0.000    0.000    0.000    0.000 
#
# Total GULP energy -272657.531028 kJ/mol
# GULP energy per Si atom -12393.524138 kJ/mol
# Density = 2.103707 g / cm^3
# Si number density = 21.085059 Si / 1000 Ang^3
#
#
#
# Elastic Constant Matrix: (Units=GPa)
#
#
# Indices 1 2 3 4 5 6 
#
# 1 99.1504 44.1233 23.5306 0.0008 -6.0733 -0.0003
# 2 44.1233 182.9233 39.8723 -0.0001 -9.9039 0.0000
# 3 23.5306 39.8723 48.8922 -0.0001 -16.3078 0.0001
# 4 0.0008 -0.0001 -0.0001 -48.7416 -0.0004 24.4693
# 5 -6.0733 -9.9039 -16.3078 -0.0004 39.9312 0.0001
# 6 -0.0003 0.0000 0.0001 24.4693 0.0001 32.0847
#
#
#
# Elastic Compliance Matrix: (Units=1/GPa)
#
#
# Indices 1 2 3 4 5 6 
#
# 1 0.011955 -0.001972 -0.004286 0.000000 -0.000421 0.000000
# 2 -0.001972 0.006989 -0.004946 0.000000 -0.000586 0.000000
# 3 -0.004286 -0.004946 0.030011 0.000000 0.010378 0.000000
# 4 0.000000 0.000000 0.000000 -0.014836 0.000000 0.011315
# 5 -0.000421 -0.000586 0.010378 0.000000 0.029072 0.000000
# 6 0.000000 0.000000 0.000000 0.011315 0.000000 0.022538
#
#
# Mechanical properties :
#
#
# Convention : Reuss Voigt Hill
#
# Bulk Modulus (GPa) = 37.66956 60.66871 49.16913
# Shear Modulus (GPa) = 42.74079 19.55083 31.14581
#
# Velocity S-wave (km/s) = 4.50718 3.04836 3.84754
# Velocity P-wave (km/s) = 6.70750 6.42073 6.56568
#
# Compressibility (1/GPa) = 0.02654663
#
# Stress axis : x y z
#
# Youngs Moduli (GPa) = 83.64960 143.08556 33.32163
#
# Poissons Ratio (x) = 0.28220 0.14280
# Poissons Ratio (y) = 0.16498 0.16481
# Poissons Ratio (z) = 0.35848 0.70769
#
# Static dielectric constant tensor:
#      x y z
#    x 3.984830 0.000000 0.435360 
#    y 0.000000 4.380780 0.000000 
#    z 0.435360 0.000000 3.725400 
# 
# 
# High freq. dielectric constant tensor:
#      x y z
#    x 1.832220 0.000000 0.013990 
#    y 0.000000 1.842370 0.000000 
#    z 0.013990 0.000000 1.799990 
# 
# From -- ./inp_files/31006.got.cif
#   From: 2010.06.25/outbox.cif.g09.slc.cpg/sg15_16_cif.got.tgz:31006.got - 2010.06.28 07:06:18.
