data_PCOD8144096
_publ_section_title
;
Structure prediction by ZEFSAII (Michael W. Deem and Ramdas Pophale) SiO2 
 PCOD8144096
Probable space group: C 2/C
;
_chemical_formula_sum "Si O2"
_cell_formula_units_Z 56
_cell_length_a 10.780924
_cell_length_b 8.976136
_cell_length_c 31.335765
_cell_angle_alpha 90.000000
_cell_angle_beta 59.150560
_cell_angle_gamma 90.000000
_cell_volume 2603.364533
_symmetry_space_group_name_H-M "C 2/C"
_symmetry_group_IT_number 15
_symmetry_cell_setting 'monoclinic'
loop_
_space_group_symop_operation_xyz
x,y,z
-x,y,1/2-z
-x,-y,-z
x,-y,1/2+z
1/2+x,1/2+y,z
1/2-x,1/2+y,1/2-z
1/2-x,1/2-y,-z
1/2+x,1/2-y,1/2+z
loop_
_atom_site_type_symbol
_atom_site_label
_atom_site_fract_x
_atom_site_fract_y
_atom_site_fract_z
Si Si1 0.402324 0.810956 0.631710
Si Si2 0.205786 0.274729 0.616987
Si Si3 0.599559 0.682071 0.017579
Si Si4 0.402198 0.552920 0.572124
Si Si5 0.840315 0.082081 0.264051
Si Si6 0.581330 0.949831 0.442903
Si Si7 0.335781 0.760065 0.778004
O O1 0.535863 0.798369 0.640123
O O2 0.366892 0.645684 0.620565
O O3 0.262754 0.872299 0.679326
O O4 0.441739 0.919400 0.586164
O O5 0.284946 0.422754 0.584728
O O6 0.254448 0.118700 0.584355
O O7 0.232353 0.258998 0.662846
O O8 0.562296 0.523435 0.046087
O O9 0.493425 0.798016 0.059216
O O10 0.750000 0.750000 0.000000
O O11 0.590068 0.668893 0.968240
O O12 0.777564 0.148606 0.231115
O O13 0.000000 0.140079 0.250000
O O14 0.843957 0.905176 0.257066
O O15 0.500000 0.000000 0.500000
O O16 0.500000 0.827432 0.750000
#
# Coordination Sequence:
#
# PCOD8144096 Si02
#       7
#     8   8   8   8   8   8   8
#     4  12  24  44  70 100 135 183 226 281 349 415
#     4  11  25  43  68  99 139 178 229 283 348 413
#     4  10  21  42  60  90 134 178 221 278 321 386
#     4  10  24  39  62  98 130 170 229 268 330 397
#     4  11  27  46  72 103 135 175 232 287 354 424
#     4  11  23  42  64  98 138 184 230 278 336 402
#     4  11  24  48  71  99 138 176 226 294 354 417
#
# _framework density 21.510626999999999
#
# number of rings (size 3 to 8) (size 9 to 14) (size 15 to 20)
#    0.000    1.143    4.286    0.857    4.000    2.286 
#    5.143    0.000    0.000    0.000    0.000    0.000 
#    0.000    0.000    0.000    0.000    0.000    0.000 
#
# Total GULP energy -346938.301388 kJ/mol
# GULP energy per Si atom -12390.653621 kJ/mol
# Density = 2.146167 g / cm^3
# Si number density = 21.510627 Si / 1000 Ang^3
#
#
#
# Elastic Constant Matrix: (Units=GPa)
#
#
# Indices 1 2 3 4 5 6 
#
# 1 135.2006 51.7594 37.0341 0.0000 -9.2858 0.0000
# 2 51.7594 85.1508 26.3703 0.0000 13.5012 0.0000
# 3 37.0341 26.3703 115.2298 0.0000 1.6022 0.0000
# 4 0.0000 0.0000 0.0000 38.7198 0.0000 0.8180
# 5 -9.2858 13.5012 1.6022 0.0000 28.8518 0.0000
# 6 0.0000 0.0000 0.0000 0.8180 0.0000 32.5982
#
#
#
# Elastic Compliance Matrix: (Units=1/GPa)
#
#
# Indices 1 2 3 4 5 6 
#
# 1 0.011263 -0.007354 -0.002037 0.000000 0.007179 0.000000
# 2 -0.007354 0.018475 -0.001713 0.000000 -0.010917 0.000000
# 3 -0.002037 -0.001713 0.009730 0.000000 -0.000394 0.000000
# 4 0.000000 0.000000 0.000000 0.025840 0.000000 -0.000648
# 5 0.007179 -0.010917 -0.000394 0.000000 0.042101 0.000000
# 6 0.000000 0.000000 0.000000 -0.000648 0.000000 0.030693
#
#
# Mechanical properties :
#
#
# Convention : Reuss Voigt Hill
#
# Bulk Modulus (GPa) = 57.93095 62.87876 60.40485
# Shear Modulus (GPa) = 30.10917 34.72845 32.41881
#
# Velocity S-wave (km/s) = 3.74536 4.02242 3.88636
# Velocity P-wave (km/s) = 6.75969 7.13218 6.94843
#
# Compressibility (1/GPa) = 0.01726193
#
# Stress axis : x y z
#
# Youngs Moduli (GPa) = 88.78982 54.12662 102.77120
#
# Poissons Ratio (x) = 0.39802 0.20931
# Poissons Ratio (y) = 0.65292 0.17603
# Poissons Ratio (z) = 0.18084 0.09271
#
# Static dielectric constant tensor:
#      x y z
#    x 4.242400 0.000000 -0.253080 
#    y 0.000000 4.221550 0.000000 
#    z -0.253080 0.000000 3.979380 
# 
# 
# High freq. dielectric constant tensor:
#      x y z
#    x 1.832700 0.000000 -0.013500 
#    y 0.000000 1.858020 0.000000 
#    z -0.013500 0.000000 1.854470 
# 
# From -- ./inp_files/310200.got.cif
#   From: 2010.06.25/outbox.cif.g09.slc.cpg/sg15_156_cif.got.tgz:310200.got - 2010.06.28 07:06:18.
