data_PCOD8144369
_publ_section_title
;
Structure prediction by ZEFSAII (Michael W. Deem and Ramdas Pophale) SiO2 
 PCOD8144369
Probable space group: C 2/C
;
_chemical_formula_sum "Si O2"
_cell_formula_units_Z 48
_cell_length_a 18.716333
_cell_length_b 8.186706
_cell_length_c 32.172945
_cell_angle_alpha 90.000000
_cell_angle_beta 152.642856
_cell_angle_gamma 90.000000
_cell_volume 2265.374075
_symmetry_space_group_name_H-M "C 2/C"
_symmetry_group_IT_number 15
_symmetry_cell_setting 'monoclinic'
loop_
_space_group_symop_operation_xyz
x,y,z
-x,y,1/2-z
-x,-y,-z
x,-y,1/2+z
1/2+x,1/2+y,z
1/2-x,1/2+y,1/2-z
1/2-x,1/2-y,-z
1/2+x,1/2-y,1/2+z
loop_
_atom_site_type_symbol
_atom_site_label
_atom_site_fract_x
_atom_site_fract_y
_atom_site_fract_z
Si Si1 0.552727 0.146012 0.926642
Si Si2 0.756161 0.955235 0.458569
Si Si3 0.823532 0.660023 0.160214
Si Si4 0.259130 0.344801 0.788511
Si Si5 0.566206 0.884950 0.998912
Si Si6 0.044746 0.842149 0.121492
O O1 0.605469 0.101865 0.907020
O O2 0.370685 0.189476 0.836472
O O3 0.639926 0.295804 0.993488
O O4 0.601676 0.986797 0.976513
O O5 0.702571 0.010059 0.385057
O O6 0.866984 0.093860 0.537654
O O7 0.771422 0.613727 0.179464
O O8 0.729018 0.819120 0.098825
O O9 0.000000 0.716127 0.250000
O O10 0.096365 0.299517 0.681170
O O11 0.336307 0.508892 0.810829
O O12 0.453230 0.736498 0.924449
O O13 0.500000 0.000000 0.000000
#
# Coordination Sequence:
#
# PCOD8144369 Si02
#       6
#     8   8   8   8   8   8
#     4  10  21  42  69  92 127 165 221 256 326 384
#     4   9  23  43  65  92 126 174 209 268 318 391
#     4  11  26  40  63  95 134 166 216 266 328 375
#     4  11  23  41  65  96 128 168 217 270 318 389
#     4  11  23  41  66  92 125 171 212 263 318 385
#     4  10  24  39  66  93 127 170 215 263 323 380
#
# _framework density 21.188554
#
# number of rings (size 3 to 8) (size 9 to 14) (size 15 to 20)
#    0.000    1.667    1.667    1.000    9.333    3.333 
#    0.000    0.833    0.000    0.000    0.000    0.000 
#    0.000    0.000    0.000    0.000    0.000    0.000 
#
# Total GULP energy -297415.340476 kJ/mol
# GULP energy per Si atom -12392.305853 kJ/mol
# Density = 2.114033 g / cm^3
# Si number density = 21.188554 Si / 1000 Ang^3
#
#
#
# Elastic Constant Matrix: (Units=GPa)
#
#
# Indices 1 2 3 4 5 6 
#
# 1 105.7706 26.8705 52.8736 0.0005 -4.0897 -0.0001
# 2 26.8705 84.3251 48.8181 0.0005 -4.8463 0.0002
# 3 52.8736 48.8181 129.6071 0.0003 -10.9384 -0.0004
# 4 0.0005 0.0005 0.0003 27.4132 -0.0004 -8.9214
# 5 -4.0897 -4.8463 -10.9384 -0.0004 27.9867 0.0002
# 6 -0.0001 0.0002 -0.0004 -8.9214 0.0002 39.8305
#
#
#
# Elastic Compliance Matrix: (Units=1/GPa)
#
#
# Indices 1 2 3 4 5 6 
#
# 1 0.011982 -0.001266 -0.004428 0.000000 -0.000199 0.000000
# 2 -0.001266 0.015304 -0.005212 0.000000 0.000428 0.000000
# 3 -0.004428 -0.005212 0.011742 0.000000 0.003040 0.000000
# 4 0.000000 0.000000 0.000000 0.039347 0.000000 0.008813
# 5 -0.000199 0.000428 0.003040 0.000000 0.036964 0.000000
# 6 0.000000 0.000000 0.000000 0.008813 0.000000 0.027080
#
#
# Mechanical properties :
#
#
# Convention : Reuss Voigt Hill
#
# Bulk Modulus (GPa) = 58.08566 64.09190 61.08878
# Shear Modulus (GPa) = 29.41702 31.78881 30.60291
#
# Velocity S-wave (km/s) = 3.73009 3.87755 3.80454
# Velocity P-wave (km/s) = 6.78415 7.09656 6.94211
#
# Compressibility (1/GPa) = 0.01721595
#
# Stress axis : x y z
#
# Youngs Moduli (GPa) = 83.45958 65.34152 85.16673
#
# Poissons Ratio (x) = 0.08272 0.37711
# Poissons Ratio (y) = 0.10566 0.44388
# Poissons Ratio (z) = 0.36955 0.34055
#
# Static dielectric constant tensor:
#      x y z
#    x 3.763770 0.000000 -0.043340 
#    y 0.000000 4.137590 0.000000 
#    z -0.043340 0.000000 3.985860 
# 
# 
# High freq. dielectric constant tensor:
#      x y z
#    x 1.813610 0.000000 -0.003260 
#    y 0.000000 1.845890 0.000000 
#    z -0.003260 0.000000 1.838240 
# 
# From -- ./inp_files/315626.got.cif
#   From: 2010.06.25/outbox.cif.g09.slc.cpg/sg15_158_cif.got.tgz:315626.got - 2010.06.28 07:06:18.
