data_PCOD8144820
_publ_section_title
;
Structure prediction by ZEFSAII (Michael W. Deem and Ramdas Pophale) SiO2 
 PCOD8144820
Probable space group: C 2/C
;
_chemical_formula_sum "Si O2"
_cell_formula_units_Z 36
_cell_length_a 15.192597
_cell_length_b 22.616699
_cell_length_c 7.742821
_cell_angle_alpha 90.000000
_cell_angle_beta 34.826556
_cell_angle_gamma 90.000000
_cell_volume 1519.386031
_symmetry_space_group_name_H-M "C 2/C"
_symmetry_group_IT_number 15
_symmetry_cell_setting 'monoclinic'
loop_
_space_group_symop_operation_xyz
x,y,z
-x,y,1/2-z
-x,-y,-z
x,-y,1/2+z
1/2+x,1/2+y,z
1/2-x,1/2+y,1/2-z
1/2-x,1/2-y,-z
1/2+x,1/2-y,1/2+z
loop_
_atom_site_type_symbol
_atom_site_label
_atom_site_fract_x
_atom_site_fract_y
_atom_site_fract_z
Si Si1 0.579510 0.941431 0.798110
Si Si2 0.500000 0.355951 0.750000
Si Si3 0.404495 0.813978 0.659274
Si Si4 0.433090 0.560113 0.673990
Si Si5 0.277401 0.218702 0.724565
O O1 0.500000 0.922541 0.750000
O O2 0.563108 0.882587 0.945501
O O3 0.755364 0.955211 0.481438
O O4 0.500000 0.000000 0.000000
O O5 0.526207 0.391808 0.533537
O O6 0.653380 0.317604 0.534875
O O7 0.564084 0.776860 0.421449
O O8 0.296089 0.783691 0.690101
O O9 0.309640 0.814173 0.991437
O O10 0.500000 0.581118 0.750000
O O11 0.500000 0.500000 0.500000
#
# Coordination Sequence:
#
# PCOD8144820 Si02
#       5
#     8   4   8   8   8
#     4  12  25  48  73 106 153 197 247 315 385 456
#     4  12  24  46  74 108 156 194 252 318 380 456
#     4  10  21  45  69 105 143 195 246 311 380 448
#     4  12  26  45  73 110 149 199 256 312 381 453
#     4  10  22  42  74 100 145 190 250 309 379 447
#
# _framework density 23.693781000000001
#
# number of rings (size 3 to 8) (size 9 to 14) (size 15 to 20)
#    0.000    0.889    5.556    1.333    3.111    2.667 
#    2.000    0.000    0.000    0.000    0.000    0.000 
#    0.000    0.000    0.000    0.000    0.000    0.000 
#
# Total GULP energy -223170.208504 kJ/mol
# GULP energy per Si atom -12398.344917 kJ/mol
# Density = 2.363985 g / cm^3
# Si number density = 23.693781 Si / 1000 Ang^3
#
#
#
# Elastic Constant Matrix: (Units=GPa)
#
#
# Indices 1 2 3 4 5 6 
#
# 1 85.8348 45.9599 71.9050 -0.0003 -14.1883 0.0000
# 2 45.9599 192.1840 70.7870 0.0000 -13.6739 0.0000
# 3 71.9050 70.7870 166.6296 -0.0004 -30.0498 0.0001
# 4 -0.0003 0.0000 -0.0004 60.7834 0.0004 -0.3983
# 5 -14.1883 -13.6739 -30.0498 0.0004 52.7954 -0.0001
# 6 0.0000 0.0000 0.0001 -0.3983 -0.0001 24.7469
#
#
#
# Elastic Compliance Matrix: (Units=1/GPa)
#
#
# Indices 1 2 3 4 5 6 
#
# 1 0.018757 -0.001781 -0.007257 0.000000 0.000449 0.000000
# 2 -0.001781 0.006338 -0.001910 0.000000 0.000076 0.000000
# 3 -0.007257 -0.001910 0.010590 0.000000 0.003583 0.000000
# 4 0.000000 0.000000 0.000000 0.016454 0.000000 0.000265
# 5 0.000449 0.000076 0.003583 0.000000 0.021121 0.000000
# 6 0.000000 0.000000 0.000000 0.000265 0.000000 0.040413
#
#
# Mechanical properties :
#
#
# Convention : Reuss Voigt Hill
#
# Bulk Modulus (GPa) = 72.51666 91.32803 81.92235
# Shear Modulus (GPa) = 35.67198 44.73157 40.20178
#
# Velocity S-wave (km/s) = 3.88434 4.34971 4.12360
# Velocity P-wave (km/s) = 7.12669 7.99096 7.57117
#
# Compressibility (1/GPa) = 0.01378993
#
# Stress axis : x y z
#
# Youngs Moduli (GPa) = 53.31329 157.77091 94.42445
#
# Poissons Ratio (x) = 0.28097 0.68520
# Poissons Ratio (y) = 0.09494 0.18040
# Poissons Ratio (z) = 0.38687 0.30142
#
# Static dielectric constant tensor:
#      x y z
#    x 4.277370 0.000000 -0.281800 
#    y 0.000000 4.484820 0.000000 
#    z -0.281800 0.000000 4.658040 
# 
# 
# High freq. dielectric constant tensor:
#      x y z
#    x 1.929630 0.000000 -0.015600 
#    y 0.000000 1.948980 0.000000 
#    z -0.015600 0.000000 1.955990 
# 
# From -- ./inp_files/50546.got.cif
#   From: 2010.06.25/outbox.cif.g09.slc.cpg/sg15_26_cif.got.tgz:50546.got - 2010.06.28 07:06:18.
