data_PCOD8144886
_publ_section_title
;
Structure prediction by ZEFSAII (Michael W. Deem and Ramdas Pophale) SiO2 
 PCOD8144886
Probable space group: C 2/C
;
_chemical_formula_sum "Si O2"
_cell_formula_units_Z 52
_cell_length_a 8.116273
_cell_length_b 13.952372
_cell_length_c 30.487952
_cell_angle_alpha 90.000000
_cell_angle_beta 43.143490
_cell_angle_gamma 90.000000
_cell_volume 2360.911454
_symmetry_space_group_name_H-M "C 2/C"
_symmetry_group_IT_number 15
_symmetry_cell_setting 'monoclinic'
loop_
_space_group_symop_operation_xyz
x,y,z
-x,y,1/2-z
-x,-y,-z
x,-y,1/2+z
1/2+x,1/2+y,z
1/2-x,1/2+y,1/2-z
1/2-x,1/2-y,-z
1/2+x,1/2-y,1/2+z
loop_
_atom_site_type_symbol
_atom_site_label
_atom_site_fract_x
_atom_site_fract_y
_atom_site_fract_z
Si Si1 0.692126 0.201263 0.678558
Si Si2 0.464031 0.816910 0.941973
Si Si3 0.055623 0.326248 0.366878
Si Si4 0.239233 0.978222 0.478325
Si Si5 0.000000 0.070831 0.750000
Si Si6 0.095189 0.129304 0.091064
Si Si7 0.228918 0.995907 0.291190
O O1 0.500000 0.247574 0.750000
O O2 0.549154 0.177064 0.661926
O O3 0.913060 0.273553 0.625942
O O4 0.804222 0.105467 0.677866
O O5 0.658791 0.819411 0.942437
O O6 0.391594 0.925481 0.947927
O O7 0.250000 0.750000 0.000000
O O8 0.327940 0.364156 0.313556
O O9 0.891638 0.394926 0.427477
O O10 0.068439 0.222226 0.388654
O O11 0.151778 0.946368 0.542823
O O12 0.000000 0.000000 0.500000
O O13 0.172171 0.010807 0.749921
O O14 0.965926 0.072034 0.154837
O O15 0.500000 0.032666 0.250000
#
# Coordination Sequence:
#
# PCOD8144886 Si02
#       7
#     8   8   8   8   4   8   8
#     4  10  21  47  68  97 144 189 232 301 367 428
#     4  11  24  44  73 101 139 188 243 291 367 433
#     4  11  24  44  66 107 139 186 242 296 355 436
#     4  12  25  44  70 104 142 187 239 297 356 429
#     4  12  24  42  70 104 140 186 244 294 362 436
#     4  11  25  46  70 101 145 189 241 295 365 431
#     4  11  23  45  72 100 147 189 238 300 369 426
#
# _framework density 22.025392
#
# number of rings (size 3 to 8) (size 9 to 14) (size 15 to 20)
#    0.000    0.923    3.077    5.538    1.077    2.462 
#   12.462    0.000    0.000    0.000    0.000    0.000 
#    0.000    0.000    0.000    0.000    0.000    0.000 
#
# Total GULP energy -322315.352585 kJ/mol
# GULP energy per Si atom -12396.744330 kJ/mol
# Density = 2.197526 g / cm^3
# Si number density = 22.025392 Si / 1000 Ang^3
#
#
#
# Elastic Constant Matrix: (Units=GPa)
#
#
# Indices 1 2 3 4 5 6 
#
# 1 89.1628 15.0205 31.4914 -0.0006 -7.8549 -0.0024
# 2 15.0205 121.3584 70.4627 0.0015 -2.2645 -0.0024
# 3 31.4914 70.4627 144.7439 -0.0083 -16.5778 -0.0024
# 4 -0.0006 0.0015 -0.0083 52.8903 0.0019 -8.8234
# 5 -7.8549 -2.2645 -16.5778 0.0019 32.5513 0.0023
# 6 -0.0024 -0.0024 -0.0024 -8.8234 0.0023 19.1503
#
#
#
# Elastic Compliance Matrix: (Units=1/GPa)
#
#
# Indices 1 2 3 4 5 6 
#
# 1 0.012237 -0.000070 -0.002432 0.000000 0.001709 0.000001
# 2 -0.000070 0.011634 -0.005902 -0.000001 -0.002213 0.000000
# 3 -0.002432 -0.005902 0.010828 0.000002 0.004517 0.000001
# 4 0.000000 -0.000001 0.000002 0.020481 -0.000001 0.009437
# 5 0.001709 -0.002213 0.004517 -0.000001 0.033280 -0.000004
# 6 0.000001 0.000000 0.000001 0.009437 -0.000004 0.056566
#
#
# Mechanical properties :
#
#
# Convention : Reuss Voigt Hill
#
# Bulk Modulus (GPa) = 55.89588 65.46827 60.68207
# Shear Modulus (GPa) = 29.79747 36.80442 33.30094
#
# Velocity S-wave (km/s) = 3.68213 4.09222 3.89258
# Velocity P-wave (km/s) = 6.59624 7.21920 6.91474
#
# Compressibility (1/GPa) = 0.01789041
#
# Stress axis : x y z
#
# Youngs Moduli (GPa) = 81.71974 85.95387 92.35027
#
# Poissons Ratio (x) = 0.00605 0.22462
# Poissons Ratio (y) = 0.00576 0.54503
# Poissons Ratio (z) = 0.19877 0.50728
#
# Static dielectric constant tensor:
#      x y z
#    x 3.962300 0.000000 -0.077630 
#    y 0.000000 4.152440 0.000010 
#    z -0.077630 0.000010 4.170370 
# 
# 
# High freq. dielectric constant tensor:
#      x y z
#    x 1.862240 0.000000 -0.009710 
#    y 0.000000 1.874410 0.000000 
#    z -0.009710 0.000000 1.882300 
# 
# From -- ./inp_files/308185.got.cif
#   From: 2010.06.25/outbox.cif.g09.slc.cpg/sg15_155_cif.got.tgz:308185.got - 2010.06.28 07:06:18.
