data_PCOD8144518
_publ_section_title
;
Structure prediction by ZEFSAII (Michael W. Deem and Ramdas Pophale) SiO2 
 PCOD8144518
Probable space group: C 2/C
;
_chemical_formula_sum "Si O2"
_cell_formula_units_Z 48
_cell_length_a 12.618513
_cell_length_b 11.946344
_cell_length_c 20.986592
_cell_angle_alpha 90.000000
_cell_angle_beta 46.926186
_cell_angle_gamma 90.000000
_cell_volume 2310.947941
_symmetry_space_group_name_H-M "C 2/C"
_symmetry_group_IT_number 15
_symmetry_cell_setting 'monoclinic'
loop_
_space_group_symop_operation_xyz
x,y,z
-x,y,1/2-z
-x,-y,-z
x,-y,1/2+z
1/2+x,1/2+y,z
1/2-x,1/2+y,1/2-z
1/2-x,1/2-y,-z
1/2+x,1/2-y,1/2+z
loop_
_atom_site_type_symbol
_atom_site_label
_atom_site_fract_x
_atom_site_fract_y
_atom_site_fract_z
Si Si1 0.220119 0.619843 0.504362
Si Si2 0.244577 0.725590 0.709614
Si Si3 0.837844 0.048543 0.327442
Si Si4 0.125796 0.625655 0.246227
Si Si5 0.338707 0.535004 0.584909
Si Si6 0.910871 0.560396 0.645138
O O1 0.250000 0.750000 0.500000
O O2 0.322264 0.565585 0.409219
O O3 0.245299 0.555858 0.560074
O O4 0.054436 0.599856 0.548808
O O5 0.182465 0.832637 0.698832
O O6 0.324678 0.758815 0.742158
O O7 0.346899 0.650474 0.621977
O O8 0.112536 0.649456 0.788288
O O9 0.000000 0.003076 0.250000
O O10 0.724152 0.956205 0.347826
O O11 0.262229 0.562805 0.157246
O O12 0.058032 0.555499 0.332013
O O13 0.000000 0.657402 0.250000
O O14 0.500000 0.500000 0.500000
#
# Coordination Sequence:
#
# PCOD8144518 Si02
#       6
#     8   8   8   8   8   8
#     4  12  23  40  68  91 127 167 220 270 317 378
#     4  10  23  40  65  93 129 162 221 257 323 388
#     4  11  24  40  66  95 128 169 215 269 330 383
#     4  10  21  43  66  88 129 174 206 260 327 387
#     4  11  25  42  63  98 130 168 215 272 326 382
#     4  10  23  41  63  93 127 166 215 269 317 385
#
# _framework density 20.770696000000001
#
# number of rings (size 3 to 8) (size 9 to 14) (size 15 to 20)
#    0.000    1.333    3.333    1.500    9.333    0.667 
#    0.000    0.833    0.000    0.000    0.000    0.000 
#    0.000    0.000    0.000    0.000    0.000    0.000 
#
# Total GULP energy -297602.069865 kJ/mol
# GULP energy per Si atom -12400.086244 kJ/mol
# Density = 2.072342 g / cm^3
# Si number density = 20.770696 Si / 1000 Ang^3
#
#
#
# Elastic Constant Matrix: (Units=GPa)
#
#
# Indices 1 2 3 4 5 6 
#
# 1 126.9802 34.7396 50.7575 0.0000 -5.8356 0.0000
# 2 34.7396 60.7026 32.6626 0.0000 -3.2121 0.0000
# 3 50.7575 32.6626 129.1290 0.0000 -11.4569 0.0000
# 4 0.0000 0.0000 0.0000 26.5776 0.0000 4.2299
# 5 -5.8356 -3.2121 -11.4569 0.0000 46.7700 0.0000
# 6 0.0000 0.0000 0.0000 4.2299 0.0000 26.8666
#
#
#
# Elastic Compliance Matrix: (Units=1/GPa)
#
#
# Indices 1 2 3 4 5 6 
#
# 1 0.010220 -0.004266 -0.002914 0.000000 0.000268 0.000000
# 2 -0.004266 0.020851 -0.003595 0.000000 0.000019 0.000000
# 3 -0.002914 -0.003595 0.009961 0.000000 0.001830 0.000000
# 4 0.000000 0.000000 0.000000 0.038593 0.000000 -0.006076
# 5 0.000268 0.000019 0.001830 0.000000 0.021864 0.000000
# 6 0.000000 0.000000 0.000000 -0.006076 0.000000 0.038178
#
#
# Mechanical properties :
#
#
# Convention : Reuss Voigt Hill
#
# Bulk Modulus (GPa) = 51.33437 61.45902 56.39670
# Shear Modulus (GPa) = 29.81300 33.28629 31.54964
#
# Velocity S-wave (km/s) = 3.79270 4.00754 3.90160
# Velocity P-wave (km/s) = 6.62932 7.14614 6.89258
#
# Compressibility (1/GPa) = 0.01948013
#
# Stress axis : x y z
#
# Youngs Moduli (GPa) = 97.85080 47.95927 100.38690
#
# Poissons Ratio (x) = 0.20461 0.29254
# Poissons Ratio (y) = 0.41747 0.36094
# Poissons Ratio (z) = 0.28515 0.17244
#
# Static dielectric constant tensor:
#      x y z
#    x 3.828220 0.000000 0.152490 
#    y 0.000000 3.756130 0.000000 
#    z 0.152490 0.000000 3.823960 
# 
# 
# High freq. dielectric constant tensor:
#      x y z
#    x 1.813700 0.000000 0.008420 
#    y 0.000000 1.807300 0.000000 
#    z 0.008420 0.000000 1.818100 
# 
# From -- ./inp_files/237243.got.cif
#   From: 2010.06.25/outbox.cif.g09.slc.cpg/sg15_119_cif.got.tgz:237243.got - 2010.06.28 07:06:18.
