data_PCOD8144900
_publ_section_title
;
Structure prediction by ZEFSAII (Michael W. Deem and Ramdas Pophale) SiO2 
 PCOD8144900
Probable space group: C 2/C
;
_chemical_formula_sum "Si O2"
_cell_formula_units_Z 52
_cell_length_a 17.897702
_cell_length_b 17.493959
_cell_length_c 8.630912
_cell_angle_alpha 90.000000
_cell_angle_beta 89.464820
_cell_angle_gamma 90.000000
_cell_volume 2702.235031
_symmetry_space_group_name_H-M "C 2/C"
_symmetry_group_IT_number 15
_symmetry_cell_setting 'monoclinic'
loop_
_space_group_symop_operation_xyz
x,y,z
-x,y,1/2-z
-x,-y,-z
x,-y,1/2+z
1/2+x,1/2+y,z
1/2-x,1/2+y,1/2-z
1/2-x,1/2-y,-z
1/2+x,1/2-y,1/2+z
loop_
_atom_site_type_symbol
_atom_site_label
_atom_site_fract_x
_atom_site_fract_y
_atom_site_fract_z
Si Si1 0.805109 0.178699 0.646279
Si Si2 0.398827 0.551442 0.510194
Si Si3 0.837132 0.661224 0.045605
Si Si4 0.696259 0.959353 0.696565
Si Si5 0.551131 0.949398 0.109702
Si Si6 0.214549 0.068590 0.601018
Si Si7 0.000000 0.014632 0.250000
O O1 0.845057 0.123301 0.522247
O O2 0.848863 0.259523 0.637897
O O3 0.718701 0.181441 0.594343
O O4 0.808548 0.150601 0.825708
O O5 0.356791 0.473141 0.468086
O O6 0.461202 0.568658 0.378518
O O7 0.438082 0.539967 0.674561
O O8 0.802040 0.601932 0.167061
O O9 0.913593 0.624639 0.977092
O O10 0.722805 0.922571 0.533500
O O11 0.615048 0.995405 0.675664
O O12 0.754099 0.024732 0.747441
O O13 0.500000 0.917927 0.250000
O O14 0.500000 0.000000 0.000000
#
# Coordination Sequence:
#
# PCOD8144900 Si02
#       7
#     8   8   8   8   8   8   4
#     4  11  23  40  63  89 128 157 203 271 319 347
#     4  11  19  37  58  88 113 159 196 249 297 371
#     4  11  24  41  60  94 125 160 205 269 315 361
#     4  12  20  37  64  95 116 152 218 256 297 382
#     4  12  22  38  66  91 122 170 207 252 309 385
#     4  12  19  36  68  89 114 160 213 258 304 367
#     4  10  22  32  60  86 114 144 206 232 296 372
#
# _framework density 19.24333
#
# number of rings (size 3 to 8) (size 9 to 14) (size 15 to 20)
#    0.000    0.615    9.231    0.000    0.000    0.615 
#    1.385    1.538    0.000    0.000    0.000    0.000 
#    0.000    0.000    0.000    0.000    0.000    0.000 
#
# Total GULP energy -322390.110040 kJ/mol
# GULP energy per Si atom -12399.619617 kJ/mol
# Density = 1.919953 g / cm^3
# Si number density = 19.243330 Si / 1000 Ang^3
#
#
#
# Elastic Constant Matrix: (Units=GPa)
#
#
# Indices 1 2 3 4 5 6 
#
# 1 93.3071 39.2025 31.8401 0.0000 1.1496 0.0000
# 2 39.2025 96.6467 33.4302 0.0000 -9.1761 0.0000
# 3 31.8401 33.4302 93.3386 0.0000 -14.8022 0.0000
# 4 0.0000 0.0000 0.0000 31.7157 0.0000 -5.5768
# 5 1.1496 -9.1761 -14.8022 0.0000 50.4532 0.0000
# 6 0.0000 0.0000 0.0000 -5.5768 0.0000 26.4257
#
#
#
# Elastic Compliance Matrix: (Units=1/GPa)
#
#
# Indices 1 2 3 4 5 6 
#
# 1 0.013859 -0.004649 -0.003405 0.000000 -0.002160 0.000000
# 2 -0.004649 0.013413 -0.002952 0.000000 0.001679 0.000000
# 3 -0.003405 -0.002952 0.013487 0.000000 0.003498 0.000000
# 4 0.000000 0.000000 0.000000 0.032745 0.000000 0.006911
# 5 -0.002160 0.001679 0.003498 0.000000 0.021201 0.000000
# 6 0.000000 0.000000 0.000000 0.006911 0.000000 0.039300
#
#
# Mechanical properties :
#
#
# Convention : Reuss Voigt Hill
#
# Bulk Modulus (GPa) = 53.34044 54.69312 54.01678
# Shear Modulus (GPa) = 30.81331 33.64022 32.22677
#
# Velocity S-wave (km/s) = 4.00590 4.18562 4.09675
# Velocity P-wave (km/s) = 7.01252 7.20020 7.10698
#
# Compressibility (1/GPa) = 0.01874750
#
# Stress axis : x y z
#
# Youngs Moduli (GPa) = 72.15472 74.55345 74.14423
#
# Poissons Ratio (x) = 0.34659 0.25248
# Poissons Ratio (y) = 0.33544 0.21887
# Poissons Ratio (z) = 0.24570 0.22008
#
# Static dielectric constant tensor:
#      x y z
#    x 3.630130 0.000000 -0.119330 
#    y 0.000000 3.428380 0.000000 
#    z -0.119330 0.000000 3.710680 
# 
# 
# High freq. dielectric constant tensor:
#      x y z
#    x 1.754060 0.000000 -0.008550 
#    y 0.000000 1.714470 0.000000 
#    z -0.008550 0.000000 1.764610 
# 
# From -- ./inp_files/48558.got.cif
#   From: 2010.06.25/outbox.cif.g09.slc.cpg/sg15_25_cif.got.tgz:48558.got - 2010.06.28 07:06:18.
