data_PCOD8144164
_publ_section_title
;
Structure prediction by ZEFSAII (Michael W. Deem and Ramdas Pophale) SiO2 
 PCOD8144164
Probable space group: C 2/C
;
_chemical_formula_sum "Si O2"
_cell_formula_units_Z 52
_cell_length_a 18.568740
_cell_length_b 15.007387
_cell_length_c 11.587410
_cell_angle_alpha 90.000000
_cell_angle_beta 129.587527
_cell_angle_gamma 90.000000
_cell_volume 2488.468769
_symmetry_space_group_name_H-M "C 2/C"
_symmetry_group_IT_number 15
_symmetry_cell_setting 'monoclinic'
loop_
_space_group_symop_operation_xyz
x,y,z
-x,y,1/2-z
-x,-y,-z
x,-y,1/2+z
1/2+x,1/2+y,z
1/2-x,1/2+y,1/2-z
1/2-x,1/2-y,-z
1/2+x,1/2-y,1/2+z
loop_
_atom_site_type_symbol
_atom_site_label
_atom_site_fract_x
_atom_site_fract_y
_atom_site_fract_z
Si Si1 0.831310 0.679866 0.093050
Si Si2 0.736223 0.912499 0.755337
Si Si3 0.051176 0.092650 0.078502
Si Si4 0.500000 0.679070 0.250000
Si Si5 0.250612 0.109617 0.802117
Si Si6 0.814875 0.252448 0.955119
Si Si7 0.566241 0.660769 0.723008
O O1 0.808157 0.606116 0.165391
O O2 0.920549 0.737231 0.222154
O O3 0.750000 0.750000 0.000000
O O4 0.839221 0.638891 0.972118
O O5 0.847171 0.900751 0.872974
O O6 0.690551 0.848580 0.612049
O O7 0.716354 0.015530 0.711599
O O8 0.054247 0.114314 0.216903
O O9 0.989611 0.168664 0.953910
O O10 0.000000 0.000000 0.000000
O O11 0.578050 0.737690 0.395633
O O12 0.223890 0.178139 0.673518
O O13 0.160787 0.103066 0.797295
O O14 0.750000 0.250000 0.000000
O O15 0.500000 0.611016 0.750000
#
# Coordination Sequence:
#
# PCOD8144164 Si02
#       7
#     8   8   8   4   8   8   8
#     4  10  21  42  64  87 130 176 223 260 324 404
#     4  12  23  41  69  96 135 178 216 277 341 397
#     4  12  23  36  60 100 132 163 209 275 342 405
#     4  12  24  42  60  88 138 170 222 266 324 412
#     4  11  24  43  63 103 128 169 232 271 342 409
#     4  12  25  44  67  95 136 184 218 277 345 400
#     4  11  22  39  66  97 132 170 217 281 337 397
#
# _framework density 20.896384999999999
#
# number of rings (size 3 to 8) (size 9 to 14) (size 15 to 20)
#    0.000    0.615    7.692    1.846    3.231    1.231 
#    0.000    0.000    1.692    1.846    0.000    0.000 
#    0.000    0.000    0.000    0.000    0.000    0.000 
#
# Total GULP energy -322204.439716 kJ/mol
# GULP energy per Si atom -12392.478451 kJ/mol
# Density = 2.084882 g / cm^3
# Si number density = 20.896385 Si / 1000 Ang^3
#
#
#
# Elastic Constant Matrix: (Units=GPa)
#
#
# Indices 1 2 3 4 5 6 
#
# 1 63.6179 19.9751 27.6753 0.0000 -12.3613 0.0000
# 2 19.9751 128.7401 66.7323 0.0000 -5.6160 0.0000
# 3 27.6753 66.7323 148.9721 0.0000 -10.0644 0.0000
# 4 0.0000 0.0000 0.0000 41.7569 0.0000 -4.0009
# 5 -12.3613 -5.6160 -10.0644 0.0000 33.9355 0.0000
# 6 0.0000 0.0000 0.0000 -4.0009 0.0000 26.3373
#
#
#
# Elastic Compliance Matrix: (Units=1/GPa)
#
#
# Indices 1 2 3 4 5 6 
#
# 1 0.018302 -0.001339 -0.002413 0.000000 0.005730 0.000000
# 2 -0.001339 0.010218 -0.004334 0.000000 -0.000082 0.000000
# 3 -0.002413 -0.004334 0.009179 0.000000 0.001126 0.000000
# 4 0.000000 0.000000 0.000000 0.024302 0.000000 0.003692
# 5 0.005730 -0.000082 0.001126 0.000000 0.031875 0.000000
# 6 0.000000 0.000000 0.000000 0.003692 0.000000 0.038530
#
#
# Mechanical properties :
#
#
# Convention : Reuss Voigt Hill
#
# Bulk Modulus (GPa) = 46.45418 63.34396 54.89907
# Shear Modulus (GPa) = 32.10190 35.53577 33.81884
#
# Velocity S-wave (km/s) = 3.92374 4.12827 4.02731
# Velocity P-wave (km/s) = 6.54268 7.28716 6.92493
#
# Compressibility (1/GPa) = 0.02152659
#
# Stress axis : x y z
#
# Youngs Moduli (GPa) = 54.63780 97.86328 108.94991
#
# Poissons Ratio (x) = 0.13103 0.26293
# Poissons Ratio (y) = 0.07315 0.47220
# Poissons Ratio (z) = 0.13186 0.42415
#
# Static dielectric constant tensor:
#      x y z
#    x 3.813360 0.000000 -0.037800 
#    y 0.000000 4.503780 0.000000 
#    z -0.037800 0.000000 4.167260 
# 
# 
# High freq. dielectric constant tensor:
#      x y z
#    x 1.808330 0.000000 -0.017130 
#    y 0.000000 1.801350 0.000000 
#    z -0.017130 0.000000 1.837270 
# 
# From -- ./inp_files/112787.got.cif
#   From: 2010.06.25/outbox.cif.g09.slc.cpg/sg15_57_cif.got.tgz:112787.got - 2010.06.28 07:06:18.
