data_PCOD8144474
_publ_section_title
;
Structure prediction by ZEFSAII (Michael W. Deem and Ramdas Pophale) SiO2 
 PCOD8144474
Probable space group: C 2/C
;
_chemical_formula_sum "Si O2"
_cell_formula_units_Z 48
_cell_length_a 10.533888
_cell_length_b 21.774931
_cell_length_c 9.385200
_cell_angle_alpha 90.000000
_cell_angle_beta 83.542345
_cell_angle_gamma 90.000000
_cell_volume 2139.068767
_symmetry_space_group_name_H-M "C 2/C"
_symmetry_group_IT_number 15
_symmetry_cell_setting 'monoclinic'
loop_
_space_group_symop_operation_xyz
x,y,z
-x,y,1/2-z
-x,-y,-z
x,-y,1/2+z
1/2+x,1/2+y,z
1/2-x,1/2+y,1/2-z
1/2-x,1/2-y,-z
1/2+x,1/2-y,1/2+z
loop_
_atom_site_type_symbol
_atom_site_label
_atom_site_fract_x
_atom_site_fract_y
_atom_site_fract_z
Si Si1 0.016243 0.324143 0.083499
Si Si2 0.170072 0.450030 0.021916
Si Si3 0.871858 0.908706 0.198979
Si Si4 0.637178 0.061277 0.209544
Si Si5 0.990862 0.215457 0.593723
Si Si6 0.755761 0.854357 0.480577
O O1 0.095806 0.385959 0.050040
O O2 0.000000 0.310632 0.250000
O O3 0.880354 0.322768 0.022083
O O4 0.079829 0.263957 0.001970
O O5 0.306484 0.450511 0.087233
O O6 0.095483 0.506033 0.106549
O O7 0.195132 0.462675 0.851974
O O8 0.774487 0.898091 0.341217
O O9 0.000000 0.939064 0.250000
O O10 0.902732 0.844510 0.117418
O O11 0.500000 0.095424 0.250000
O O12 0.744110 0.104604 0.125213
O O13 0.130598 0.194658 0.516922
O O14 0.000000 0.245287 0.750000
#
# Coordination Sequence:
#
# PCOD8144474 Si02
#       6
#     8   8   8   8   8   8
#     4  12  23  37  64  98 131 170 218 266 331 389
#     4  12  25  41  66  98 132 173 220 269 333 395
#     4   9  21  46  66  91 134 175 219 271 324 387
#     4  12  25  41  66  99 135 167 215 277 331 394
#     4   9  23  43  65  91 133 175 217 267 321 388
#     4  10  21  43  63  94 133 171 213 272 326 384
#
# _framework density 22.439671000000001
#
# number of rings (size 3 to 8) (size 9 to 14) (size 15 to 20)
#    0.000    1.667    3.333    2.500    2.333    2.000 
#    0.000   10.000    0.000    0.000    0.000    0.000 
#    0.000    0.000    0.000    0.000    0.000    0.000 
#
# Total GULP energy -297489.778816 kJ/mol
# GULP energy per Si atom -12395.407451 kJ/mol
# Density = 2.238860 g / cm^3
# Si number density = 22.439671 Si / 1000 Ang^3
#
#
#
# Elastic Constant Matrix: (Units=GPa)
#
#
# Indices 1 2 3 4 5 6 
#
# 1 69.9967 23.6497 29.6529 0.0000 -14.5131 0.0000
# 2 23.6497 72.3849 50.9229 0.0000 -10.8791 0.0000
# 3 29.6529 50.9229 165.5399 0.0000 -3.2197 0.0000
# 4 0.0000 0.0000 0.0000 42.4994 0.0000 6.7730
# 5 -14.5131 -10.8791 -3.2197 0.0000 26.4174 0.0000
# 6 0.0000 0.0000 0.0000 6.7730 0.0000 19.4599
#
#
#
# Elastic Compliance Matrix: (Units=1/GPa)
#
#
# Indices 1 2 3 4 5 6 
#
# 1 0.017958 -0.003150 -0.002086 0.000000 0.008314 0.000000
# 2 -0.003150 0.019417 -0.005299 0.000000 0.005620 0.000000
# 3 -0.002086 -0.005299 0.007999 0.000000 -0.002354 0.000000
# 4 0.000000 0.000000 0.000000 0.024912 0.000000 -0.008670
# 5 0.008314 0.005620 -0.002354 0.000000 0.044449 0.000000
# 6 0.000000 0.000000 0.000000 -0.008670 0.000000 0.054405
#
#
# Mechanical properties :
#
#
# Convention : Reuss Voigt Hill
#
# Bulk Modulus (GPa) = 41.14732 57.37473 49.26103
# Shear Modulus (GPa) = 25.21269 31.25508 28.23389
#
# Velocity S-wave (km/s) = 3.35562 3.73614 3.55098
# Velocity P-wave (km/s) = 5.77843 6.65098 6.23000
#
# Compressibility (1/GPa) = 0.02430292
#
# Stress axis : x y z
#
# Youngs Moduli (GPa) = 55.68431 51.50111 125.01671
#
# Poissons Ratio (x) = 0.16224 0.26079
# Poissons Ratio (y) = 0.17542 0.66252
# Poissons Ratio (z) = 0.11616 0.27293
#
# Static dielectric constant tensor:
#      x y z
#    x 3.960380 0.000000 -0.026290 
#    y 0.000000 3.794900 0.000000 
#    z -0.026290 0.000000 4.286170 
# 
# 
# High freq. dielectric constant tensor:
#      x y z
#    x 1.870090 0.000000 -0.006270 
#    y 0.000000 1.872330 0.000000 
#    z -0.006270 0.000000 1.896120 
# 
# From -- ./inp_files/32048.got.cif
#   From: 2010.06.25/outbox.cif.g09.slc.cpg/sg15_17_cif.got.tgz:32048.got - 2010.06.28 07:06:18.
