data_PCOD8144754
_publ_section_title
;
Structure prediction by ZEFSAII (Michael W. Deem and Ramdas Pophale) SiO2 
 PCOD8144754
Probable space group: C 2/C
;
_chemical_formula_sum "Si O2"
_cell_formula_units_Z 48
_cell_length_a 21.000534
_cell_length_b 11.542901
_cell_length_c 11.833113
_cell_angle_alpha 90.000000
_cell_angle_beta 49.712535
_cell_angle_gamma 90.000000
_cell_volume 2188.066882
_symmetry_space_group_name_H-M "C 2/C"
_symmetry_group_IT_number 15
_symmetry_cell_setting 'monoclinic'
loop_
_space_group_symop_operation_xyz
x,y,z
-x,y,1/2-z
-x,-y,-z
x,-y,1/2+z
1/2+x,1/2+y,z
1/2-x,1/2+y,1/2-z
1/2-x,1/2-y,-z
1/2+x,1/2-y,1/2+z
loop_
_atom_site_type_symbol
_atom_site_label
_atom_site_fract_x
_atom_site_fract_y
_atom_site_fract_z
Si Si1 0.593974 0.562507 0.632211
Si Si2 0.338052 0.686683 0.158243
Si Si3 0.076617 0.289912 0.788728
Si Si4 0.345830 0.857222 0.570426
Si Si5 0.391577 0.113472 0.468254
Si Si6 0.404752 0.685087 0.321696
O O1 0.500000 0.520557 0.750000
O O2 0.617176 0.599508 0.479382
O O3 0.604969 0.663455 0.711812
O O4 0.639895 0.440784 0.607245
O O5 0.251412 0.627892 0.292604
O O6 0.397674 0.710279 0.196646
O O7 0.322142 0.811283 0.114906
O O8 0.107887 0.295891 0.879512
O O9 0.122479 0.381542 0.651608
O O10 0.977760 0.316348 0.896504
O O11 0.353109 0.781322 0.449629
O O12 0.390679 0.981264 0.506213
O O13 0.500000 0.697911 0.250000
#
# Coordination Sequence:
#
# PCOD8144754 Si02
#       6
#     8   8   8   8   8   8
#     4  10  22  44  70  93 125 172 216 276 314 395
#     4  11  25  45  63  97 136 167 217 274 333 374
#     4  10  21  44  69  94 126 174 228 252 329 388
#     4  12  27  38  69 100 133 173 213 274 328 383
#     4  10  23  43  69  90 134 174 214 272 315 395
#     4  11  27  41  69  97 129 172 224 265 328 387
#
# _framework density 21.937172
#
# number of rings (size 3 to 8) (size 9 to 14) (size 15 to 20)
#    0.000    1.333    3.333    2.000    9.333    5.333 
#    0.000    0.000    0.000    0.000    0.000    0.000 
#    0.000    0.000    0.000    0.000    0.000    0.000 
#
# Total GULP energy -297465.849125 kJ/mol
# GULP energy per Si atom -12394.410380 kJ/mol
# Density = 2.188724 g / cm^3
# Si number density = 21.937172 Si / 1000 Ang^3
#
#
#
# Elastic Constant Matrix: (Units=GPa)
#
#
# Indices 1 2 3 4 5 6 
#
# 1 40.0384 10.9443 19.3063 0.0000 5.7909 0.0000
# 2 10.9443 133.6372 57.0718 0.0000 9.5036 0.0000
# 3 19.3063 57.0718 120.8449 0.0000 10.2796 0.0000
# 4 0.0000 0.0000 0.0000 19.5609 0.0000 5.1479
# 5 5.7909 9.5036 10.2796 0.0000 36.4249 0.0000
# 6 0.0000 0.0000 0.0000 5.1479 0.0000 15.8144
#
#
#
# Elastic Compliance Matrix: (Units=1/GPa)
#
#
# Indices 1 2 3 4 5 6 
#
# 1 0.027432 -0.000332 -0.003957 0.000000 -0.003158 0.000000
# 2 -0.000332 0.009431 -0.004299 0.000000 -0.001195 0.000000
# 3 -0.003957 -0.004299 0.011054 0.000000 -0.001369 0.000000
# 4 0.000000 0.000000 0.000000 0.055912 0.000000 -0.018201
# 5 -0.003158 -0.001195 -0.001369 0.000000 0.028654 0.000000
# 6 0.000000 0.000000 0.000000 -0.018201 0.000000 0.069158
#
#
# Mechanical properties :
#
#
# Convention : Reuss Voigt Hill
#
# Bulk Modulus (GPa) = 32.53100 52.12946 42.33023
# Shear Modulus (GPa) = 21.82786 28.17324 25.00055
#
# Velocity S-wave (km/s) = 3.15781 3.58756 3.37952
# Velocity P-wave (km/s) = 5.30632 6.40121 5.87931
#
# Compressibility (1/GPa) = 0.03073991
#
# Stress axis : x y z
#
# Youngs Moduli (GPa) = 36.45431 106.03059 90.46323
#
# Poissons Ratio (x) = 0.03520 0.35797
# Poissons Ratio (y) = 0.01210 0.38894
# Poissons Ratio (z) = 0.14425 0.45587
#
# Static dielectric constant tensor:
#      x y z
#    x 3.703690 0.000000 0.180430 
#    y 0.000000 4.018740 0.000000 
#    z 0.180430 0.000000 4.202680 
# 
# 
# High freq. dielectric constant tensor:
#      x y z
#    x 1.840760 0.000000 0.014240 
#    y 0.000000 1.870510 0.000000 
#    z 0.014240 0.000000 1.877190 
# 
# From -- ./inp_files/111429.got.cif
#   From: 2010.06.25/outbox.cif.g09.slc.cpg/sg15_56_cif.got.tgz:111429.got - 2010.06.28 07:06:18.
