data_PCOD8144349
_publ_section_title
;
Structure prediction by ZEFSAII (Michael W. Deem and Ramdas Pophale) SiO2 
 PCOD8144349
Probable space group: C 2/C
;
_chemical_formula_sum "Si O2"
_cell_formula_units_Z 56
_cell_length_a 14.409693
_cell_length_b 14.258340
_cell_length_c 18.274124
_cell_angle_alpha 90.000000
_cell_angle_beta 140.436096
_cell_angle_gamma 90.000000
_cell_volume 2391.430287
_symmetry_space_group_name_H-M "C 2/C"
_symmetry_group_IT_number 15
_symmetry_cell_setting 'monoclinic'
loop_
_space_group_symop_operation_xyz
x,y,z
-x,y,1/2-z
-x,-y,-z
x,-y,1/2+z
1/2+x,1/2+y,z
1/2-x,1/2+y,1/2-z
1/2-x,1/2-y,-z
1/2+x,1/2-y,1/2+z
loop_
_atom_site_type_symbol
_atom_site_label
_atom_site_fract_x
_atom_site_fract_y
_atom_site_fract_z
Si Si1 0.758183 0.791213 0.223100
Si Si2 0.623686 0.942735 0.032087
Si Si3 0.242494 0.891074 0.967292
Si Si4 0.523741 0.734040 0.400839
Si Si5 0.507136 0.371265 0.042327
Si Si6 0.766904 0.992987 0.393063
Si Si7 0.937047 0.370446 0.786857
O O1 0.705948 0.868013 0.132730
O O2 0.634991 0.780632 0.213596
O O3 0.922431 0.809949 0.350865
O O4 0.789113 0.687780 0.210850
O O5 0.745273 0.018735 0.078274
O O6 0.554665 0.883011 0.923270
O O7 0.500000 0.000000 0.000000
O O8 0.080724 0.841255 0.874525
O O9 0.357638 0.813734 0.012308
O O10 0.278707 0.920660 0.072003
O O11 0.486833 0.688397 0.456676
O O12 0.630927 0.449967 0.106753
O O13 0.358530 0.418325 0.981812
O O14 0.618789 0.024117 0.263828
O O15 0.000000 0.327283 0.750000
#
# Coordination Sequence:
#
# PCOD8144349 Si02
#       7
#     8   8   8   8   8   8   8
#     4  12  25  42  69 100 142 183 231 287 356 416
#     4  12  25  45  72 101 141 182 235 289 357 422
#     4  10  22  42  70 100 139 174 232 296 345 413
#     4  10  21  44  67 102 138 178 230 288 352 415
#     4  10  22  42  67  97 135 182 224 279 347 420
#     4  10  21  42  68  96 132 178 234 278 343 415
#     4  12  26  43  70  99 134 184 237 287 344 420
#
# _framework density 23.416947
#
# number of rings (size 3 to 8) (size 9 to 14) (size 15 to 20)
#    0.000    1.143    4.286    1.714    0.000    1.714 
#    0.000    3.571    0.000    0.000    0.000    0.000 
#    0.000    0.000    0.000    0.000    0.000    0.000 
#
# Total GULP energy -346877.053664 kJ/mol
# GULP energy per Si atom -12388.466202 kJ/mol
# Density = 2.336365 g / cm^3
# Si number density = 23.416947 Si / 1000 Ang^3
#
#
#
# Elastic Constant Matrix: (Units=GPa)
#
#
# Indices 1 2 3 4 5 6 
#
# 1 96.7791 32.3160 12.5004 0.0001 0.7891 0.0000
# 2 32.3160 96.4322 10.1018 0.0001 4.7151 0.0000
# 3 12.5004 10.1018 54.2064 0.0001 -0.8001 0.0001
# 4 0.0001 0.0001 0.0001 21.0310 0.0001 9.8095
# 5 0.7891 4.7151 -0.8001 0.0001 20.5742 0.0001
# 6 0.0000 0.0000 0.0001 9.8095 0.0001 45.3471
#
#
#
# Elastic Compliance Matrix: (Units=1/GPa)
#
#
# Indices 1 2 3 4 5 6 
#
# 1 0.011853 -0.003776 -0.002025 0.000000 0.000332 0.000000
# 2 -0.003776 0.011910 -0.001388 0.000000 -0.002639 0.000000
# 3 -0.002025 -0.001388 0.019190 0.000000 0.001142 0.000000
# 4 0.000000 0.000000 0.000000 0.052885 0.000000 -0.011440
# 5 0.000332 -0.002639 0.001142 0.000000 0.049241 0.000000
# 6 0.000000 0.000000 0.000000 -0.011440 0.000000 0.024527
#
#
# Mechanical properties :
#
#
# Convention : Reuss Voigt Hill
#
# Bulk Modulus (GPa) = 34.99456 39.69488 37.34472
# Shear Modulus (GPa) = 25.83881 30.22376 28.03128
#
# Velocity S-wave (km/s) = 3.32539 3.59650 3.46360
# Velocity P-wave (km/s) = 5.45168 5.85103 5.65488
#
# Compressibility (1/GPa) = 0.02857587
#
# Stress axis : x y z
#
# Youngs Moduli (GPa) = 84.37034 83.96453 52.10946
#
# Poissons Ratio (x) = 0.31706 0.10550
# Poissons Ratio (y) = 0.31859 0.07231
# Poissons Ratio (z) = 0.17082 0.11651
#
# Static dielectric constant tensor:
#      x y z
#    x 4.475130 0.000000 0.264560 
#    y 0.000000 4.659280 0.000000 
#    z 0.264560 0.000000 3.967920 
# 
# 
# High freq. dielectric constant tensor:
#      x y z
#    x 1.930010 0.000000 0.018600 
#    y 0.000000 1.945110 0.000000 
#    z 0.018600 0.000000 1.902100 
# 
# From -- ./inp_files/206305.got.cif
#   From: 2010.06.25/outbox.cif.g09.slc.cpg/sg15_104_cif.got.tgz:206305.got - 2010.06.28 07:06:18.
