data_PCOD8144832
_publ_section_title
;
Structure prediction by ZEFSAII (Michael W. Deem and Ramdas Pophale) SiO2 
 PCOD8144832
Probable space group: C 2/C
;
_chemical_formula_sum "Si O2"
_cell_formula_units_Z 52
_cell_length_a 17.251322
_cell_length_b 5.182495
_cell_length_c 27.846241
_cell_angle_alpha 90.000000
_cell_angle_beta 104.029062
_cell_angle_gamma 90.000000
_cell_volume 2415.332841
_symmetry_space_group_name_H-M "C 2/C"
_symmetry_group_IT_number 15
_symmetry_cell_setting 'monoclinic'
loop_
_space_group_symop_operation_xyz
x,y,z
-x,y,1/2-z
-x,-y,-z
x,-y,1/2+z
1/2+x,1/2+y,z
1/2-x,1/2+y,1/2-z
1/2-x,1/2-y,-z
1/2+x,1/2-y,1/2+z
loop_
_atom_site_type_symbol
_atom_site_label
_atom_site_fract_x
_atom_site_fract_y
_atom_site_fract_z
Si Si1 0.500000 0.303844 0.250000
Si Si2 0.468949 0.608879 0.340177
Si Si3 0.405543 0.015678 0.669043
Si Si4 0.830153 0.825105 0.888002
Si Si5 0.554745 0.750186 0.007004
Si Si6 0.228503 0.168332 0.379435
Si Si7 0.889243 0.133967 0.585494
O O1 0.466302 0.471254 0.288455
O O2 0.576012 0.135880 0.279208
O O3 0.379928 0.629575 0.346907
O O4 0.521947 0.461224 0.387821
O O5 0.508725 0.887926 0.337991
O O6 0.363742 0.846125 0.621189
O O7 0.341660 0.246588 0.669315
O O8 0.886558 0.734795 0.939427
O O9 0.772526 0.586030 0.866464
O O10 0.787826 0.092271 0.897125
O O11 0.500000 0.500000 0.000000
O O12 0.609508 0.749589 0.967570
O O13 0.500000 0.000000 0.000000
O O14 0.178810 0.090267 0.420625
#
# Coordination Sequence:
#
# PCOD8144832 Si02
#       7
#     4   8   8   8   8   8   8
#     4  10  22  40  78 100 122 172 242 276 338 416
#     4  10  22  40  73  98 129 175 230 281 337 403
#     4  10  21  45  70  97 132 176 227 277 340 409
#     4  12  25  43  69 104 140 181 223 283 341 396
#     4  12  25  41  67 107 136 179 240 284 321 392
#     4  11  25  44  67  98 144 182 216 273 351 404
#     4  10  22  43  69  94 141 186 221 277 332 405
#
# _framework density 21.529122000000001
#
# number of rings (size 3 to 8) (size 9 to 14) (size 15 to 20)
#    0.000    1.231    3.077    2.308    6.462    1.231 
#    0.000    0.000   13.538    0.000    0.000    0.000 
#    0.000    0.000    0.000    0.000    0.000    0.000 
#
# Total GULP energy -322289.437927 kJ/mol
# GULP energy per Si atom -12395.747613 kJ/mol
# Density = 2.148012 g / cm^3
# Si number density = 21.529122 Si / 1000 Ang^3
#
#
#
# Elastic Constant Matrix: (Units=GPa)
#
#
# Indices 1 2 3 4 5 6 
#
# 1 148.2214 73.2198 55.9741 0.0000 -7.6254 0.0000
# 2 73.2198 148.0435 43.0297 0.0000 -1.3904 0.0001
# 3 55.9741 43.0297 122.9663 0.0000 -16.7241 0.0000
# 4 0.0000 0.0000 0.0000 23.0742 0.0000 13.1179
# 5 -7.6254 -1.3904 -16.7241 0.0000 16.5706 0.0000
# 6 0.0000 0.0001 0.0000 13.1179 0.0000 51.8860
#
#
#
# Elastic Compliance Matrix: (Units=1/GPa)
#
#
# Indices 1 2 3 4 5 6 
#
# 1 0.009913 -0.004040 -0.002926 0.000000 0.001270 0.000000
# 2 -0.004040 0.009246 -0.001789 0.000000 -0.002889 0.000000
# 3 -0.002926 -0.001789 0.011460 0.000000 0.010069 0.000000
# 4 0.000000 0.000000 0.000000 0.050613 0.000000 -0.012796
# 5 0.001270 -0.002889 0.010069 0.000000 0.070852 0.000000
# 6 0.000000 0.000000 0.000000 -0.012796 0.000000 0.022508
#
#
# Mechanical properties :
#
#
# Convention : Reuss Voigt Hill
#
# Bulk Modulus (GPa) = 76.29067 84.85313 80.57190
# Shear Modulus (GPa) = 25.44888 34.77332 30.11110
#
# Velocity S-wave (km/s) = 3.44185 4.02329 3.74387
# Velocity P-wave (km/s) = 7.16297 7.81545 7.49631
#
# Compressibility (1/GPa) = 0.01310776
#
# Stress axis : x y z
#
# Youngs Moduli (GPa) = 100.88004 108.15492 87.26227
#
# Poissons Ratio (x) = 0.43699 0.25531
# Poissons Ratio (y) = 0.40759 0.15613
# Poissons Ratio (z) = 0.29515 0.19352
#
# Static dielectric constant tensor:
#      x y z
#    x 4.039370 0.000000 0.090300 
#    y 0.000000 4.199320 0.000000 
#    z 0.090300 0.000000 3.789770 
# 
# 
# High freq. dielectric constant tensor:
#      x y z
#    x 1.844950 0.000000 0.006440 
#    y 0.000000 1.867360 0.000000 
#    z 0.006440 0.000000 1.820170 
# 
# From -- ./inp_files/297457.got.cif
#   From: 2010.06.25/outbox.cif.g09.slc.cpg/sg15_149_cif.got.tgz:297457.got - 2010.06.28 07:06:18.
