data_PCOD8144533
_publ_section_title
;
Structure prediction by ZEFSAII (Michael W. Deem and Ramdas Pophale) SiO2 
 PCOD8144533
Probable space group: C 2/C
;
_chemical_formula_sum "Si O2"
_cell_formula_units_Z 56
_cell_length_a 11.493367
_cell_length_b 30.522522
_cell_length_c 8.198841
_cell_angle_alpha 90.000000
_cell_angle_beta 103.427361
_cell_angle_gamma 90.000000
_cell_volume 2797.586264
_symmetry_space_group_name_H-M "C 2/C"
_symmetry_group_IT_number 15
_symmetry_cell_setting 'monoclinic'
loop_
_space_group_symop_operation_xyz
x,y,z
-x,y,1/2-z
-x,-y,-z
x,-y,1/2+z
1/2+x,1/2+y,z
1/2-x,1/2+y,1/2-z
1/2-x,1/2-y,-z
1/2+x,1/2-y,1/2+z
loop_
_atom_site_type_symbol
_atom_site_label
_atom_site_fract_x
_atom_site_fract_y
_atom_site_fract_z
Si Si1 0.251003 0.540298 0.143240
Si Si2 0.529148 0.088929 0.937928
Si Si3 0.707517 0.292852 0.392490
Si Si4 0.914083 0.123062 0.562909
Si Si5 0.000000 0.741260 0.250000
Si Si6 0.500000 0.415101 0.750000
Si Si7 0.960092 0.312709 0.407717
Si Si8 0.791484 0.554260 0.002820
O O1 0.387824 0.554855 0.165081
O O2 0.208345 0.544343 0.310228
O O3 0.162408 0.571516 0.013311
O O4 0.241703 0.489465 0.102205
O O5 0.500000 0.071918 0.750000
O O6 0.528828 0.141513 0.948415
O O7 0.426995 0.069737 0.019849
O O8 0.750000 0.250000 0.500000
O O9 0.641171 0.328627 0.484066
O O10 0.610392 0.272872 0.236639
O O11 0.816793 0.317553 0.339733
O O12 0.806824 0.090366 0.574797
O O13 0.000000 0.122039 0.750000
O O14 0.974868 0.112556 0.407394
O O15 0.016420 0.713268 0.418573
O O16 0.000000 0.289651 0.250000
#
# Coordination Sequence:
#
# PCOD8144533 Si02
#       8
#     8   8   8   8   4   4   8   8
#     4  11  25  41  64  96 132 171 223 267 327 386
#     4  11  23  40  66  94 130 173 222 271 320 390
#     4  10  21  43  66  95 129 165 217 266 328 394
#     4  11  24  43  70  92 133 175 214 274 334 392
#     4  10  22  40  65  90 134 168 201 274 328 388
#     4  10  28  44  65 102 130 174 225 270 328 398
#     4  10  23  40  65  97 126 168 218 261 325 390
#     4  11  24  41  65  94 131 174 216 275 324 385
#
# _framework density 20.017257000000001
#
# number of rings (size 3 to 8) (size 9 to 14) (size 15 to 20)
#    0.000    1.429    2.143    1.714    7.000    2.857 
#    5.143    0.000    0.000    0.000    0.000    0.000 
#    0.000    0.000    0.000    0.000    0.000    0.000 
#
# Total GULP energy -346910.656497 kJ/mol
# GULP energy per Si atom -12389.666303 kJ/mol
# Density = 1.997170 g / cm^3
# Si number density = 20.017257 Si / 1000 Ang^3
#
#
#
# Elastic Constant Matrix: (Units=GPa)
#
#
# Indices 1 2 3 4 5 6 
#
# 1 130.7830 42.4847 48.2595 0.0000 13.5366 0.0000
# 2 42.4847 114.4254 38.8943 0.0000 11.7797 0.0000
# 3 48.2595 38.8943 107.8184 0.0000 6.2453 0.0000
# 4 0.0000 0.0000 0.0000 20.5836 0.0000 14.9697
# 5 13.5366 11.7797 6.2453 0.0000 36.3497 0.0000
# 6 0.0000 0.0000 0.0000 14.9697 0.0000 -1.0802
#
#
#
# Elastic Compliance Matrix: (Units=1/GPa)
#
#
# Indices 1 2 3 4 5 6 
#
# 1 0.009908 -0.002251 -0.003486 0.000000 -0.002361 0.000000
# 2 -0.002251 0.010729 -0.002737 0.000000 -0.002168 0.000000
# 3 -0.003486 -0.002737 0.011814 0.000000 0.000156 0.000000
# 4 0.000000 0.000000 0.000000 0.004385 0.000000 0.060772
# 5 -0.002361 -0.002168 0.000156 0.000000 0.029066 0.000000
# 6 0.000000 0.000000 0.000000 0.060772 0.000000 -0.083563
#
#
# Mechanical properties :
#
#
# Convention : Reuss Voigt Hill
#
# Bulk Modulus (GPa) = 64.50672 68.03377 66.27024
# Shear Modulus (GPa) = 1122.39456 26.06317 574.22886
#
# Velocity S-wave (km/s) = 23.70508 3.61229 16.95552
# Velocity P-wave (km/s) = 27.95597 7.17353 20.40828
#
# Compressibility (1/GPa) = 0.01550226
#
# Stress axis : x y z
#
# Youngs Moduli (GPa) = 100.92602 93.20884 84.64753
#
# Poissons Ratio (x) = 0.20979 0.29510
# Poissons Ratio (y) = 0.22715 0.23170
# Poissons Ratio (z) = 0.35185 0.25513
#
# Static dielectric constant tensor:
#      x y z
#    x 4.540720 0.000000 0.453290 
#    y 0.000000 3.712300 0.000000 
#    z 0.453290 0.000000 3.761260 
# 
# 
# High freq. dielectric constant tensor:
#      x y z
#    x 1.799810 0.000000 0.008070 
#    y 0.000000 1.790650 0.000000 
#    z 0.008070 0.000000 1.781410 
# 
# From -- ./inp_files/34404.got.cif
#   From: 2010.06.25/outbox.cif.g09.slc.cpg/sg15_18_cif.got.tgz:34404.got - 2010.06.28 07:06:18.
