data_PCOD8144190
_publ_section_title
;
Structure prediction by ZEFSAII (Michael W. Deem and Ramdas Pophale) SiO2 
 PCOD8144190
Probable space group: C 2/C
;
_chemical_formula_sum "Si O2"
_cell_formula_units_Z 52
_cell_length_a 17.516305
_cell_length_b 9.189249
_cell_length_c 16.213663
_cell_angle_alpha 90.000000
_cell_angle_beta 77.364231
_cell_angle_gamma 90.000000
_cell_volume 2546.570744
_symmetry_space_group_name_H-M "C 2/C"
_symmetry_group_IT_number 15
_symmetry_cell_setting 'monoclinic'
loop_
_space_group_symop_operation_xyz
x,y,z
-x,y,1/2-z
-x,-y,-z
x,-y,1/2+z
1/2+x,1/2+y,z
1/2-x,1/2+y,1/2-z
1/2-x,1/2-y,-z
1/2+x,1/2-y,1/2+z
loop_
_atom_site_type_symbol
_atom_site_label
_atom_site_fract_x
_atom_site_fract_y
_atom_site_fract_z
Si Si1 0.941220 0.624445 0.479562
Si Si2 0.840335 0.261828 0.289651
Si Si3 0.500000 0.401088 0.750000
Si Si4 0.706322 0.461581 0.570382
Si Si5 0.306974 0.012818 0.404695
Si Si6 0.797362 0.721430 0.618438
Si Si7 0.033541 0.064856 0.575954
O O1 0.891510 0.552977 0.419176
O O2 0.885063 0.692082 0.563911
O O3 0.984803 0.761918 0.426587
O O4 0.000000 0.500000 0.500000
O O5 0.929159 0.210816 0.268439
O O6 0.826209 0.432143 0.314509
O O7 0.800962 0.231240 0.212125
O O8 0.798190 0.179700 0.373102
O O9 0.493999 0.501935 0.669260
O O10 0.761945 0.413119 0.481928
O O11 0.746322 0.578776 0.620341
O O12 0.624843 0.526967 0.557486
O O13 0.249112 0.150167 0.415219
O O14 0.000000 0.000000 0.500000
#
# Coordination Sequence:
#
# PCOD8144190 Si02
#       7
#     8   8   4   8   8   8   8
#     4  11  24  42  67  96 130 175 225 271 343 405
#     4  11  24  39  66  96 130 168 221 275 333 394
#     4  10  26  42  62 102 138 176 230 276 336 424
#     4  10  21  42  64  95 127 169 226 263 335 412
#     4  11  22  42  68  91 131 166 214 284 324 394
#     4  11  21  44  65  93 128 175 216 280 334 396
#     4  11  22  44  69  91 137 182 215 279 345 403
#
# _framework density 20.419616999999999
#
# number of rings (size 3 to 8) (size 9 to 14) (size 15 to 20)
#    0.000    1.231    3.077    3.231    6.462    0.000 
#    2.769    0.000    0.000    0.000    0.000    0.000 
#    0.000    0.000    0.000    0.000    0.000    0.000 
#
# Total GULP energy -322227.121826 kJ/mol
# GULP energy per Si atom -12393.350839 kJ/mol
# Density = 2.037314 g / cm^3
# Si number density = 20.419617 Si / 1000 Ang^3
#
#
#
# Elastic Constant Matrix: (Units=GPa)
#
#
# Indices 1 2 3 4 5 6 
#
# 1 92.0291 48.5795 47.7354 0.0000 2.4787 0.0000
# 2 48.5795 86.7857 29.4748 0.0000 -9.7573 0.0000
# 3 47.7354 29.4748 99.8231 0.0000 8.4550 0.0000
# 4 0.0000 0.0000 0.0000 31.7174 0.0000 4.0093
# 5 2.4787 -9.7573 8.4550 0.0000 29.2381 0.0000
# 6 0.0000 0.0000 0.0000 4.0093 0.0000 31.1163
#
#
#
# Elastic Compliance Matrix: (Units=1/GPa)
#
#
# Indices 1 2 3 4 5 6 
#
# 1 0.018721 -0.008693 -0.006156 0.000000 -0.002708 0.000000
# 2 -0.008693 0.017769 -0.001696 0.000000 0.007157 0.000000
# 3 -0.006156 -0.001696 0.013804 0.000000 -0.004036 0.000000
# 4 0.000000 0.000000 0.000000 0.032050 0.000000 -0.004130
# 5 -0.002708 0.007157 -0.004036 0.000000 0.037987 0.000000
# 6 0.000000 0.000000 0.000000 -0.004130 0.000000 0.032670
#
#
# Mechanical properties :
#
#
# Convention : Reuss Voigt Hill
#
# Bulk Modulus (GPa) = 58.12545 58.91305 58.51925
# Shear Modulus (GPa) = 26.06513 28.60425 27.33469
#
# Velocity S-wave (km/s) = 3.57665 3.74682 3.66272
# Velocity P-wave (km/s) = 6.75159 6.90159 6.82700
#
# Compressibility (1/GPa) = 0.01720417
#
# Stress axis : x y z
#
# Youngs Moduli (GPa) = 53.41569 56.27671 72.44126
#
# Poissons Ratio (x) = 0.48921 0.44597
# Poissons Ratio (y) = 0.46434 0.12286
# Poissons Ratio (z) = 0.32884 0.09545
#
# Static dielectric constant tensor:
#      x y z
#    x 3.827130 0.000000 -0.013080 
#    y 0.000000 4.077390 0.000000 
#    z -0.013080 0.000000 3.705810 
# 
# 
# High freq. dielectric constant tensor:
#      x y z
#    x 1.799320 0.000000 0.007610 
#    y 0.000000 1.806220 0.000000 
#    z 0.007610 0.000000 1.803750 
# 
# From -- ./inp_files/209091.got.cif
#   From: 2010.06.25/outbox.cif.g09.slc.cpg/sg15_105_cif.got.tgz:209091.got - 2010.06.28 07:06:18.
