data_PCOD8144645
_publ_section_title
;
Structure prediction by ZEFSAII (Michael W. Deem and Ramdas Pophale) SiO2 
 PCOD8144645
Probable space group: C 2/C
;
_chemical_formula_sum "Si O2"
_cell_formula_units_Z 40
_cell_length_a 24.891585
_cell_length_b 7.467343
_cell_length_c 22.370856
_cell_angle_alpha 90.000000
_cell_angle_beta 23.111179
_cell_angle_gamma 90.000000
_cell_volume 1632.146943
_symmetry_space_group_name_H-M "C 2/C"
_symmetry_group_IT_number 15
_symmetry_cell_setting 'monoclinic'
loop_
_space_group_symop_operation_xyz
x,y,z
-x,y,1/2-z
-x,-y,-z
x,-y,1/2+z
1/2+x,1/2+y,z
1/2-x,1/2+y,1/2-z
1/2-x,1/2-y,-z
1/2+x,1/2-y,1/2+z
loop_
_atom_site_type_symbol
_atom_site_label
_atom_site_fract_x
_atom_site_fract_y
_atom_site_fract_z
Si Si1 0.028604 0.061029 0.833169
Si Si2 0.887862 0.743472 0.822904
Si Si3 0.258988 0.721737 0.148526
Si Si4 0.381986 0.766593 0.196649
Si Si5 0.852307 0.429250 0.622718
O O1 0.140218 0.218212 0.725039
O O2 0.876455 0.138800 0.986981
O O3 0.058790 0.947126 0.742469
O O4 0.046235 0.929139 0.872371
O O5 0.869955 0.646769 0.776242
O O6 0.000000 0.643169 0.750000
O O7 0.750000 0.750000 0.000000
O O8 0.197481 0.569498 0.256387
O O9 0.322039 0.882082 0.123003
O O10 0.230161 0.731732 0.325760
O O11 0.483443 0.882197 0.049575
#
# Coordination Sequence:
#
# PCOD8144645 Si02
#       5
#     8   8   8   8   8
#     4   9  23  39  61  89 129 158 210 256 301 369
#     4  10  21  43  71  92 114 161 215 265 314 356
#     4  11  22  39  58  95 132 167 201 249 307 375
#     4   9  21  37  61  92 119 161 211 256 298 376
#     4  11  21  36  61  89 131 168 199 245 310 374
#
# _framework density 24.507598000000002
#
# number of rings (size 3 to 8) (size 9 to 14) (size 15 to 20)
#    1.200    0.800    0.000    3.600    0.000    8.000 
#    0.000    1.000    0.000    0.000    0.000    0.000 
#    0.000    0.000    0.000    0.000    0.000    0.000 
#
# Total GULP energy -247926.583600 kJ/mol
# GULP energy per Si atom -12396.329180 kJ/mol
# Density = 2.445182 g / cm^3
# Si number density = 24.507598 Si / 1000 Ang^3
#
#
#
# Elastic Constant Matrix: (Units=GPa)
#
#
# Indices 1 2 3 4 5 6 
#
# 1 96.7583 -14.8134 42.3712 -0.0424 13.8915 0.0271
# 2 -14.8134 63.1229 47.3702 -0.0785 10.8106 0.0509
# 3 42.3712 47.3702 209.1059 -0.1037 3.3564 0.0619
# 4 -0.0424 -0.0785 -0.1037 54.7331 0.0539 6.3630
# 5 13.8915 10.8106 3.3564 0.0539 44.8613 -0.0261
# 6 0.0271 0.0509 0.0619 6.3630 -0.0261 28.8092
#
#
#
# Elastic Compliance Matrix: (Units=1/GPa)
#
#
# Indices 1 2 3 4 5 6 
#
# 1 0.014424 0.007876 -0.004610 0.000023 -0.006019 -0.000028
# 2 0.007876 0.024245 -0.006964 0.000041 -0.007760 -0.000051
# 3 -0.004610 -0.006964 0.007253 -0.000003 0.002563 0.000004
# 4 0.000023 0.000041 -0.000003 0.018752 -0.000042 -0.004142
# 5 -0.006019 -0.007760 0.002563 -0.000042 0.025833 0.000046
# 6 -0.000028 -0.000051 0.000004 -0.004142 0.000046 0.035626
#
#
# Mechanical properties :
#
#
# Convention : Reuss Voigt Hill
#
# Bulk Modulus (GPa) = 25.95699 57.64924 41.80311
# Shear Modulus (GPa) = 34.15959 45.28464 39.72212
#
# Velocity S-wave (km/s) = 3.73746 4.30324 4.03029
# Velocity P-wave (km/s) = 5.40733 6.94727 6.22510
#
# Compressibility (1/GPa) = 0.03852527
#
# Stress axis : x y z
#
# Youngs Moduli (GPa) = 69.32998 41.24507 137.87755
#
# Poissons Ratio (x) = -0.32483 0.63564
# Poissons Ratio (y) = -0.54601 0.96014
# Poissons Ratio (z) = 0.31962 0.28722
#
# Static dielectric constant tensor:
#      x y z
#    x 4.127940 -0.000010 -0.176190 
#    y -0.000010 4.420000 0.000170 
#    z -0.176190 0.000170 4.279490 
# 
# 
# High freq. dielectric constant tensor:
#      x y z
#    x 1.966920 0.000000 -0.023260 
#    y 0.000000 1.976300 0.000020 
#    z -0.023260 0.000020 1.986550 
# 
# From -- ./inp_files/304175.got.cif
#   From: 2010.06.25/outbox.cif.g09.slc.cpg/sg15_153_cif.got.tgz:304175.got - 2010.06.28 07:06:18.
