data_PCOD8144946
_publ_section_title
;
Structure prediction by ZEFSAII (Michael W. Deem and Ramdas Pophale) SiO2 
 PCOD8144946
Probable space group: C 2/C
;
_chemical_formula_sum "Si O2"
_cell_formula_units_Z 60
_cell_length_a 20.898873
_cell_length_b 14.983004
_cell_length_c 14.717265
_cell_angle_alpha 90.000000
_cell_angle_beta 40.553186
_cell_angle_gamma 90.000000
_cell_volume 2996.159054
_symmetry_space_group_name_H-M "C 2/C"
_symmetry_group_IT_number 15
_symmetry_cell_setting 'monoclinic'
loop_
_space_group_symop_operation_xyz
x,y,z
-x,y,1/2-z
-x,-y,-z
x,-y,1/2+z
1/2+x,1/2+y,z
1/2-x,1/2+y,1/2-z
1/2-x,1/2-y,-z
1/2+x,1/2-y,1/2+z
loop_
_atom_site_type_symbol
_atom_site_label
_atom_site_fract_x
_atom_site_fract_y
_atom_site_fract_z
Si Si1 0.512328 0.709372 0.500999
Si Si2 0.922434 0.965557 0.511246
Si Si3 0.814874 0.133882 0.664715
Si Si4 0.093586 0.606895 0.930604
Si Si5 0.166111 0.708233 0.488490
Si Si6 0.000000 0.037595 0.250000
Si Si7 0.519578 0.057587 0.619825
Si Si8 0.620130 0.312845 0.705293
O O1 0.593785 0.639931 0.453878
O O2 0.401383 0.671306 0.638832
O O3 0.525611 0.807405 0.528644
O O4 0.535512 0.713921 0.367979
O O5 0.827446 0.029027 0.625711
O O6 0.000000 0.000000 0.500000
O O7 0.963505 0.972003 0.366433
O O8 0.705518 0.141221 0.822332
O O9 0.827731 0.194459 0.562400
O O10 0.074108 0.573085 0.846968
O O11 0.071423 0.533209 0.030449
O O12 0.093185 0.639329 0.518695
O O13 0.274118 0.664539 0.365996
O O14 0.129331 0.725468 0.631120
O O15 0.089640 0.098617 0.185857
O O16 0.500000 0.049821 0.750000
#
# Coordination Sequence:
#
# PCOD8144946 Si02
#       8
#     8   8   8   8   8   4   8   8
#     4  11  21  41  60  88 129 162 206 257 310 367
#     4  10  22  35  57  89 119 159 195 247 310 364
#     4  11  21  36  64  95 124 158 202 255 316 380
#     4  11  25  43  64  92 122 169 210 252 313 372
#     4  11  22  34  63  97 121 161 200 264 318 370
#     4  12  20  36  56  88 126 156 192 258 304 362
#     4  11  26  44  65  90 127 166 210 260 309 372
#     4  11  21  33  60  96 125 152 197 260 328 366
#
# _framework density 20.025639000000002
#
# number of rings (size 3 to 8) (size 9 to 14) (size 15 to 20)
#    0.000    1.067    6.667    0.800    4.667    0.000 
#    1.200    0.000    0.000    0.800    0.000    0.000 
#    0.000    0.000    0.000    0.000    0.000    0.000 
#
# Total GULP energy -371768.922843 kJ/mol
# GULP energy per Si atom -12392.297428 kJ/mol
# Density = 1.998006 g / cm^3
# Si number density = 20.025639 Si / 1000 Ang^3
#
#
#
# Elastic Constant Matrix: (Units=GPa)
#
#
# Indices 1 2 3 4 5 6 
#
# 1 62.1107 35.2091 22.6844 0.0000 -12.9564 0.0000
# 2 35.2091 125.9756 35.3024 0.0000 -4.9296 0.0000
# 3 22.6844 35.3024 59.3024 0.0000 -16.3572 0.0000
# 4 0.0000 0.0000 0.0000 16.1524 0.0000 10.8452
# 5 -12.9564 -4.9296 -16.3572 0.0000 33.9534 0.0000
# 6 0.0000 0.0000 0.0000 10.8452 0.0000 19.2945
#
#
#
# Elastic Compliance Matrix: (Units=1/GPa)
#
#
# Indices 1 2 3 4 5 6 
#
# 1 0.021313 -0.004664 -0.003828 0.000000 0.005612 0.000000
# 2 -0.004664 0.010620 -0.005309 0.000000 -0.002796 0.000000
# 3 -0.003828 -0.005309 0.024070 0.000000 0.009364 0.000000
# 4 0.000000 0.000000 0.000000 0.099438 0.000000 -0.055893
# 5 0.005612 -0.002796 0.009364 0.000000 0.035699 0.000000
# 6 0.000000 0.000000 0.000000 -0.055893 0.000000 0.083245
#
#
# Mechanical properties :
#
#
# Convention : Reuss Voigt Hill
#
# Bulk Modulus (GPa) = 35.21063 48.19782 41.70423
# Shear Modulus (GPa) = 16.05364 24.15959 20.10662
#
# Velocity S-wave (km/s) = 2.83442 3.47714 3.17210
# Velocity P-wave (km/s) = 5.32286 6.34358 5.85551
#
# Compressibility (1/GPa) = 0.02840051
#
# Stress axis : x y z
#
# Youngs Moduli (GPa) = 46.91929 94.16147 41.54480
#
# Poissons Ratio (x) = 0.43922 0.15904
# Poissons Ratio (y) = 0.21885 0.22056
# Poissons Ratio (z) = 0.17962 0.49989
#
# Static dielectric constant tensor:
#      x y z
#    x 3.671500 0.000000 -0.063100 
#    y 0.000000 3.863260 0.000000 
#    z -0.063100 0.000000 3.428710 
# 
# 
# High freq. dielectric constant tensor:
#      x y z
#    x 1.771600 0.000000 -0.015850 
#    y 0.000000 1.786900 0.000000 
#    z -0.015850 0.000000 1.757830 
# 
# From -- ./inp_files/168606.got.cif
#   From: 2010.06.25/outbox.cif.g09.slc.cpg/sg15_85_cif.got.tgz:168606.got - 2010.06.28 07:06:18.
