data_PCOD8144601
_publ_section_title
;
Structure prediction by ZEFSAII (Michael W. Deem and Ramdas Pophale) SiO2 
 PCOD8144601
Probable space group: C 2/C
;
_chemical_formula_sum "Si O2"
_cell_formula_units_Z 60
_cell_length_a 10.043442
_cell_length_b 16.968737
_cell_length_c 17.324690
_cell_angle_alpha 90.000000
_cell_angle_beta 93.236019
_cell_angle_gamma 90.000000
_cell_volume 2947.844160
_symmetry_space_group_name_H-M "C 2/C"
_symmetry_group_IT_number 15
_symmetry_cell_setting 'monoclinic'
loop_
_space_group_symop_operation_xyz
x,y,z
-x,y,1/2-z
-x,-y,-z
x,-y,1/2+z
1/2+x,1/2+y,z
1/2-x,1/2+y,1/2-z
1/2-x,1/2-y,-z
1/2+x,1/2-y,1/2+z
loop_
_atom_site_type_symbol
_atom_site_label
_atom_site_fract_x
_atom_site_fract_y
_atom_site_fract_z
Si Si1 0.566752 0.915533 0.503715
Si Si2 0.224651 0.396054 0.351672
Si Si3 0.277675 0.873558 0.843669
Si Si4 0.365796 0.541542 0.287550
Si Si5 0.000000 0.676296 0.750000
Si Si6 0.508883 0.308877 0.632403
Si Si7 0.595135 0.239832 0.482170
Si Si8 0.554707 0.727343 0.670736
O O1 0.646135 0.899250 0.428585
O O2 0.672120 0.914494 0.576825
O O3 0.451661 0.850408 0.510701
O O4 0.500000 0.000000 0.500000
O O5 0.306294 0.476231 0.341868
O O6 0.328769 0.325526 0.360184
O O7 0.121354 0.380071 0.278924
O O8 0.247922 0.940189 0.779350
O O9 0.389196 0.815056 0.813857
O O10 0.144238 0.824708 0.854728
O O11 0.500000 0.510417 0.250000
O O12 0.397603 0.619010 0.338793
O O13 0.051783 0.731103 0.681352
O O14 0.520910 0.294443 0.542016
O O15 0.750000 0.250000 0.500000
O O16 0.563285 0.271600 0.395783
O O17 0.500000 0.693826 0.750000
#
# Coordination Sequence:
#
# PCOD8144601 Si02
#       8
#     8   8   8   8   4   8   8   8
#     4  11  26  44  62  95 130 173 214 273 337 391
#     4  12  25  42  63  96 134 166 213 278 332 389
#     4  10  21  43  69  87 128 171 221 262 318 401
#     4  10  23  41  66  98 131 171 216 266 325 396
#     4  12  22  40  76  92 126 178 222 272 316 402
#     4  11  20  44  68  95 122 180 221 260 326 392
#     4  11  26  42  67  95 130 170 221 272 319 395
#     4  11  24  42  67  97 129 169 219 273 328 388
#
# _framework density 20.353859
#
# number of rings (size 3 to 8) (size 9 to 14) (size 15 to 20)
#    0.000    1.067    4.667    1.200    7.467    3.200 
#    4.800    3.333    0.000    0.000    0.000    0.000 
#    0.000    0.000    0.000    0.000    0.000    0.000 
#
# Total GULP energy -372128.079629 kJ/mol
# GULP energy per Si atom -12404.269321 kJ/mol
# Density = 2.030753 g / cm^3
# Si number density = 20.353859 Si / 1000 Ang^3
#
#
#
# Elastic Constant Matrix: (Units=GPa)
#
#
# Indices 1 2 3 4 5 6 
#
# 1 95.2228 38.0735 48.1664 0.0000 19.8436 0.0000
# 2 38.0735 90.7393 43.1357 0.0000 7.4549 0.0000
# 3 48.1664 43.1357 133.3476 0.0000 9.2899 0.0000
# 4 0.0000 0.0000 0.0000 30.7919 0.0000 -1.6589
# 5 19.8436 7.4549 9.2899 0.0000 41.2763 0.0000
# 6 0.0000 0.0000 0.0000 -1.6589 0.0000 33.2492
#
#
#
# Elastic Compliance Matrix: (Units=1/GPa)
#
#
# Indices 1 2 3 4 5 6 
#
# 1 0.015261 -0.004138 -0.003774 0.000000 -0.005740 0.000000
# 2 -0.004138 0.014228 -0.003116 0.000000 0.000121 0.000000
# 3 -0.003774 -0.003116 0.009860 0.000000 0.000158 0.000000
# 4 0.000000 0.000000 0.000000 0.032564 0.000000 0.001625
# 5 -0.005740 0.000121 0.000158 0.000000 0.026929 0.000000
# 6 0.000000 0.000000 0.000000 0.001625 0.000000 0.030157
#
#
# Mechanical properties :
#
#
# Convention : Reuss Voigt Hill
#
# Bulk Modulus (GPa) = 57.82853 64.22898 61.02875
# Shear Modulus (GPa) = 31.88372 33.72577 32.80475
#
# Velocity S-wave (km/s) = 3.96216 4.07501 4.01898
# Velocity P-wave (km/s) = 7.02886 7.33250 7.18229
#
# Compressibility (1/GPa) = 0.01729250
#
# Stress axis : x y z
#
# Youngs Moduli (GPa) = 65.52483 70.28236 101.42455
#
# Poissons Ratio (x) = 0.29081 0.38279
# Poissons Ratio (y) = 0.27113 0.31608
# Poissons Ratio (z) = 0.24730 0.21903
#
# Static dielectric constant tensor:
#      x y z
#    x 3.686970 0.000000 0.116850 
#    y 0.000000 3.706400 0.000000 
#    z 0.116850 0.000000 3.780740 
# 
# 
# High freq. dielectric constant tensor:
#      x y z
#    x 1.800440 0.000000 0.008200 
#    y 0.000000 1.792680 0.000000 
#    z 0.008200 0.000000 1.804680 
# 
# From -- ./inp_files/191004.got.cif
#   From: 2010.06.25/outbox.cif.g09.slc.cpg/sg15_96_cif.got.tgz:191004.got - 2010.06.28 07:06:18.
