data_PCOD8144446
_publ_section_title
;
Structure prediction by ZEFSAII (Michael W. Deem and Ramdas Pophale) SiO2 
 PCOD8144446
Probable space group: C 2/C
;
_chemical_formula_sum "Si O2"
_cell_formula_units_Z 36
_cell_length_a 20.914210
_cell_length_b 4.899059
_cell_length_c 21.539632
_cell_angle_alpha 90.000000
_cell_angle_beta 139.417598
_cell_angle_gamma 90.000000
_cell_volume 1435.711153
_symmetry_space_group_name_H-M "C 2/C"
_symmetry_group_IT_number 15
_symmetry_cell_setting 'monoclinic'
loop_
_space_group_symop_operation_xyz
x,y,z
-x,y,1/2-z
-x,-y,-z
x,-y,1/2+z
1/2+x,1/2+y,z
1/2-x,1/2+y,1/2-z
1/2-x,1/2-y,-z
1/2+x,1/2-y,1/2+z
loop_
_atom_site_type_symbol
_atom_site_label
_atom_site_fract_x
_atom_site_fract_y
_atom_site_fract_z
Si Si1 0.806002 0.325809 0.919294
Si Si2 0.500000 0.915027 0.250000
Si Si3 0.296365 0.817570 0.600168
Si Si4 0.491167 0.298178 0.873875
Si Si5 0.928600 0.346413 0.898388
O O1 0.735369 0.588596 0.873351
O O2 0.830671 0.268001 0.864561
O O3 0.744727 0.092614 0.904183
O O4 0.906630 0.347803 0.032249
O O5 0.588155 0.131843 0.322000
O O6 0.510857 0.695525 0.201924
O O7 0.250000 0.750000 0.500000
O O8 0.477372 0.584892 0.899734
O O9 0.405901 0.079218 0.830333
O O10 0.000000 0.500000 0.000000
#
# Coordination Sequence:
#
# PCOD8144446 Si02
#       5
#     8   4   8   8   8
#     4  11  22  45  74 104 141 193 254 310 379 456
#     4  12  30  46  72 112 156 204 258 322 388 450
#     4  12  26  46  71 107 150 196 254 311 379 461
#     4  11  23  42  73 110 150 192 248 314 383 458
#     4  10  21  42  74 110 143 190 249 313 380 456
#
# _framework density 25.074680000000001
#
# number of rings (size 3 to 8) (size 9 to 14) (size 15 to 20)
#    0.000    0.889    2.222    7.333    0.000    3.556 
#    0.000    4.444    0.000    0.000    0.000    0.000 
#    0.000    0.000    0.000    0.000    0.000    0.000 
#
# Total GULP energy -223008.681062 kJ/mol
# GULP energy per Si atom -12389.371170 kJ/mol
# Density = 2.501761 g / cm^3
# Si number density = 25.074680 Si / 1000 Ang^3
#
#
#
# Elastic Constant Matrix: (Units=GPa)
#
#
# Indices 1 2 3 4 5 6 
#
# 1 252.5956 158.7989 62.1169 0.1543 -19.4402 -0.4189
# 2 158.7989 276.8959 18.5437 0.2078 -9.5029 -0.6480
# 3 62.1169 18.5437 85.2278 -0.0361 3.5768 0.1000
# 4 0.1543 0.2078 -0.0361 19.0167 0.0029 1.4875
# 5 -19.4402 -9.5029 3.5768 0.0029 42.5831 -0.0157
# 6 -0.4189 -0.6480 0.1000 1.4875 -0.0157 55.9892
#
#
#
# Elastic Compliance Matrix: (Units=1/GPa)
#
#
# Indices 1 2 3 4 5 6 
#
# 1 0.008102 -0.004193 -0.005126 -0.000032 0.003193 0.000023
# 2 -0.004193 0.005869 0.001811 -0.000029 -0.000757 0.000034
# 3 -0.005126 0.001811 0.015210 0.000055 -0.003214 -0.000047
# 4 -0.000032 -0.000029 0.000055 0.052696 -0.000030 -0.001401
# 5 0.003193 -0.000757 -0.003214 -0.000030 0.025042 0.000029
# 6 0.000023 0.000034 -0.000047 -0.001401 0.000029 0.017898
#
#
# Mechanical properties :
#
#
# Convention : Reuss Voigt Hill
#
# Bulk Modulus (GPa) = 70.60303 121.51535 96.05919
# Shear Modulus (GPa) = 34.58861 48.53512 41.56187
#
# Velocity S-wave (km/s) = 3.71809 4.40434 4.07569
# Velocity P-wave (km/s) = 6.83012 8.62734 7.78079
#
# Compressibility (1/GPa) = 0.01416370
#
# Stress axis : x y z
#
# Youngs Moduli (GPa) = 123.43381 170.38337 65.74411
#
# Poissons Ratio (x) = 0.71445 0.33703
# Poissons Ratio (y) = 0.51758 -0.11905
# Poissons Ratio (z) = 0.63277 -0.30854
#
# Static dielectric constant tensor:
#      x y z
#    x 5.416250 0.000030 -0.578540 
#    y 0.000030 4.912930 -0.000830 
#    z -0.578540 -0.000830 3.667360 
# 
# 
# High freq. dielectric constant tensor:
#      x y z
#    x 2.035840 -0.000010 -0.006130 
#    y -0.000010 2.009810 0.000000 
#    z -0.006130 0.000000 1.970650 
# 
# From -- ./inp_files/275763.got.cif
#   From: 2010.06.25/outbox.cif.g09.slc.cpg/sg15_138_cif.got.tgz:275763.got - 2010.06.28 07:06:18.
