data_PCOD8144124
_publ_section_title
;
Structure prediction by ZEFSAII (Michael W. Deem and Ramdas Pophale) SiO2 
 PCOD8144124
Probable space group: C 2/C
;
_chemical_formula_sum "Si O2"
_cell_formula_units_Z 36
_cell_length_a 12.559777
_cell_length_b 24.094980
_cell_length_c 5.386461
_cell_angle_alpha 90.000000
_cell_angle_beta 90.537354
_cell_angle_gamma 90.000000
_cell_volume 1630.019944
_symmetry_space_group_name_H-M "C 2/C"
_symmetry_group_IT_number 15
_symmetry_cell_setting 'monoclinic'
loop_
_space_group_symop_operation_xyz
x,y,z
-x,y,1/2-z
-x,-y,-z
x,-y,1/2+z
1/2+x,1/2+y,z
1/2-x,1/2+y,1/2-z
1/2-x,1/2-y,-z
1/2+x,1/2-y,1/2+z
loop_
_atom_site_type_symbol
_atom_site_label
_atom_site_fract_x
_atom_site_fract_y
_atom_site_fract_z
Si Si1 0.500000 0.315745 0.750000
Si Si2 0.616362 0.883307 0.368779
Si Si3 0.500000 0.826956 0.750000
Si Si4 0.648090 0.772408 0.132154
Si Si5 0.304278 0.464925 0.303064
Si Si6 0.500000 0.615365 0.750000
O O1 0.395609 0.277299 0.694769
O O2 0.523507 0.350152 0.500222
O O3 0.500000 0.893948 0.250000
O O4 0.594140 0.867982 0.655592
O O5 0.678677 0.829163 0.269734
O O6 0.689028 0.936532 0.329876
O O7 0.452633 0.786299 0.544172
O O8 0.750000 0.750000 0.000000
O O9 0.314442 0.505884 0.536721
O O10 0.398295 0.421023 0.319136
#
# Coordination Sequence:
#
# PCOD8144124 Si02
#       6
#     4   8   4   8   8   4
#     4  12  24  43  70 109 139 191 222 270 364 420
#     4  10  24  43  67  99 142 178 230 296 338 423
#     4  10  21  42  62  93 149 178 224 289 340 400
#     4  11  23  39  65 101 144 186 228 275 346 427
#     4  12  28  49  75 101 134 188 240 301 363 400
#     4  12  27  47  72 104 144 175 246 295 342 432
#
# _framework density 22.085621
#
# number of rings (size 3 to 8) (size 9 to 14) (size 15 to 20)
#    0.000    0.889    3.333    4.000    9.333    1.778 
#    0.000    0.000    0.000    0.000    0.000    0.000 
#    0.000    0.000    0.000    0.000    0.000    0.000 
#
# Total GULP energy -223075.049604 kJ/mol
# GULP energy per Si atom -12393.058311 kJ/mol
# Density = 2.203535 g / cm^3
# Si number density = 22.085621 Si / 1000 Ang^3
#
#
#
# Elastic Constant Matrix: (Units=GPa)
#
#
# Indices 1 2 3 4 5 6 
#
# 1 84.2241 27.4745 8.0221 0.0000 -23.6294 0.0000
# 2 27.4745 83.9876 26.4454 0.0000 -3.8642 0.0000
# 3 8.0221 26.4454 105.0048 0.0000 -11.9322 0.0000
# 4 0.0000 0.0000 0.0000 42.7807 0.0000 -29.3158
# 5 -23.6294 -3.8642 -11.9322 0.0000 35.4536 0.0000
# 6 0.0000 0.0000 0.0000 -29.3158 0.0000 32.6402
#
#
#
# Elastic Compliance Matrix: (Units=1/GPa)
#
#
# Indices 1 2 3 4 5 6 
#
# 1 0.016538 -0.005323 0.001314 0.000000 0.010884 0.000000
# 2 -0.005323 0.014649 -0.003644 0.000000 -0.003177 0.000000
# 3 0.001314 -0.003644 0.010808 0.000000 0.004116 0.000000
# 4 0.000000 0.000000 0.000000 0.060788 0.000000 0.054596
# 5 0.010884 -0.003177 0.004116 0.000000 0.036499 0.000000
# 6 0.000000 0.000000 0.000000 0.054596 0.000000 0.079673
#
#
# Mechanical properties :
#
#
# Convention : Reuss Voigt Hill
#
# Bulk Modulus (GPa) = 37.46733 44.12226 40.79480
# Shear Modulus (GPa) = 20.56286 36.25988 28.41137
#
# Velocity S-wave (km/s) = 3.05462 4.05629 3.59056
# Velocity P-wave (km/s) = 5.42608 6.47759 5.97501
#
# Compressibility (1/GPa) = 0.02668992
#
# Stress axis : x y z
#
# Youngs Moduli (GPa) = 60.46686 68.26449 92.52055
#
# Poissons Ratio (x) = 0.36337 -0.12157
# Poissons Ratio (y) = 0.32186 0.33712
# Poissons Ratio (z) = -0.07945 0.24874
#
# Static dielectric constant tensor:
#      x y z
#    x 3.666030 0.000000 -0.095790 
#    y 0.000000 4.256860 0.000000 
#    z -0.095790 0.000000 4.123750 
# 
# 
# High freq. dielectric constant tensor:
#      x y z
#    x 1.871280 0.000000 -0.025140 
#    y 0.000000 1.873980 0.000000 
#    z -0.025140 0.000000 1.881940 
# 
# From -- ./inp_files/4315.got.cif
#   From: 2010.06.25/outbox.cif.g09.slc.cpg/sg15_3_cif.got.tgz:4315.got - 2010.06.28 07:06:18.
