data_PCOD8144196
_publ_section_title
;
Structure prediction by ZEFSAII (Michael W. Deem and Ramdas Pophale) SiO2 
 PCOD8144196
Probable space group: C 2/C
;
_chemical_formula_sum "Si O2"
_cell_formula_units_Z 40
_cell_length_a 12.291269
_cell_length_b 5.071576
_cell_length_c 26.117514
_cell_angle_alpha 90.000000
_cell_angle_beta 90.904228
_cell_angle_gamma 90.000000
_cell_volume 1627.861350
_symmetry_space_group_name_H-M "C 2/C"
_symmetry_group_IT_number 15
_symmetry_cell_setting 'monoclinic'
loop_
_space_group_symop_operation_xyz
x,y,z
-x,y,1/2-z
-x,-y,-z
x,-y,1/2+z
1/2+x,1/2+y,z
1/2-x,1/2+y,1/2-z
1/2-x,1/2-y,-z
1/2+x,1/2-y,1/2+z
loop_
_atom_site_type_symbol
_atom_site_label
_atom_site_fract_x
_atom_site_fract_y
_atom_site_fract_z
Si Si1 0.371589 0.525628 0.602518
Si Si2 0.638222 0.900892 0.142742
Si Si3 0.462368 0.951004 0.056759
Si Si4 0.985313 0.792470 0.193329
Si Si5 0.238626 0.431395 0.783494
O O1 0.253470 0.485997 0.625223
O O2 0.385467 0.304702 0.559016
O O3 0.461560 0.486570 0.649433
O O4 0.391953 0.806848 0.576665
O O5 0.587934 0.108224 0.182395
O O6 0.566452 0.875304 0.091658
O O7 0.663007 0.628055 0.174610
O O8 0.500000 0.000000 0.000000
O O9 0.877710 0.604802 0.190066
O O10 0.000000 0.921135 0.250000
O O11 0.250674 0.726411 0.763537
#
# Coordination Sequence:
#
# PCOD8144196 Si02
#       5
#     8   8   8   8   8
#     4  10  25  44  67 103 133 173 228 273 336 405
#     4  10  24  44  67  96 141 172 221 281 324 393
#     4  11  25  46  72 100 131 174 226 280 342 400
#     4  10  21  42  64  97 131 183 217 267 324 394
#     4  11  24  41  63  94 129 175 222 262 325 390
#
# _framework density 24.572116999999999
#
# number of rings (size 3 to 8) (size 9 to 14) (size 15 to 20)
#    0.000    1.600    2.000    0.600    2.800   14.400 
#    0.000    0.000    0.000    0.000    0.000    0.000 
#    0.000    0.000    0.000    0.000    0.000    0.000 
#
# Total GULP energy -248004.879688 kJ/mol
# GULP energy per Si atom -12400.243984 kJ/mol
# Density = 2.451619 g / cm^3
# Si number density = 24.572117 Si / 1000 Ang^3
#
#
#
# Elastic Constant Matrix: (Units=GPa)
#
#
# Indices 1 2 3 4 5 6 
#
# 1 110.4479 22.9288 31.7265 0.0000 -11.6810 0.0000
# 2 22.9288 72.2612 19.1102 0.0000 -8.3506 0.0000
# 3 31.7265 19.1102 139.8562 0.0000 -9.0841 0.0000
# 4 0.0000 0.0000 0.0000 35.9552 0.0000 -3.6213
# 5 -11.6810 -8.3506 -9.0841 0.0000 38.5712 0.0000
# 6 0.0000 0.0000 0.0000 -3.6213 0.0000 17.8463
#
#
#
# Elastic Compliance Matrix: (Units=1/GPa)
#
#
# Indices 1 2 3 4 5 6 
#
# 1 0.010343 -0.002542 -0.001860 0.000000 0.002144 0.000000
# 2 -0.002542 0.015262 -0.001365 0.000000 0.002213 0.000000
# 3 -0.001860 -0.001365 0.007822 0.000000 0.000984 0.000000
# 4 0.000000 0.000000 0.000000 0.028393 0.000000 0.005761
# 5 0.002144 0.002213 0.000984 0.000000 0.027286 0.000000
# 6 0.000000 0.000000 0.000000 0.005761 0.000000 0.057203
#
#
# Mechanical properties :
#
#
# Convention : Reuss Voigt Hill
#
# Bulk Modulus (GPa) = 45.67564 52.23292 48.95428
# Shear Modulus (GPa) = 30.27722 35.06120 32.66921
#
# Velocity S-wave (km/s) = 3.51405 3.78149 3.65022
# Velocity P-wave (km/s) = 5.92397 6.35369 6.14259
#
# Compressibility (1/GPa) = 0.02189351
#
# Stress axis : x y z
#
# Youngs Moduli (GPa) = 96.68631 65.52196 127.83696
#
# Poissons Ratio (x) = 0.16657 0.23773
# Poissons Ratio (y) = 0.24580 0.17450
# Poissons Ratio (z) = 0.17980 0.08944
#
# Static dielectric constant tensor:
#      x y z
#    x 4.743440 0.000000 -0.025000 
#    y 0.000000 4.139780 0.000000 
#    z -0.025000 0.000000 4.518070 
# 
# 
# High freq. dielectric constant tensor:
#      x y z
#    x 2.001530 0.000000 -0.009950 
#    y 0.000000 1.966860 0.000000 
#    z -0.009950 0.000000 1.973680 
# 
# From -- ./inp_files/290507.got.cif
#   From: 2010.06.25/outbox.cif.g09.slc.cpg/sg15_146_cif.got.tgz:290507.got - 2010.06.28 07:06:18.
