data_PCOD8144568
_publ_section_title
;
Structure prediction by ZEFSAII (Michael W. Deem and Ramdas Pophale) SiO2 
 PCOD8144568
Probable space group: C 2/C
;
_chemical_formula_sum "Si O2"
_cell_formula_units_Z 44
_cell_length_a 11.957077
_cell_length_b 24.290522
_cell_length_c 9.887658
_cell_angle_alpha 90.000000
_cell_angle_beta 46.992584
_cell_angle_gamma 90.000000
_cell_volume 2100.053450
_symmetry_space_group_name_H-M "C 2/C"
_symmetry_group_IT_number 15
_symmetry_cell_setting 'monoclinic'
loop_
_space_group_symop_operation_xyz
x,y,z
-x,y,1/2-z
-x,-y,-z
x,-y,1/2+z
1/2+x,1/2+y,z
1/2-x,1/2+y,1/2-z
1/2-x,1/2-y,-z
1/2+x,1/2-y,1/2+z
loop_
_atom_site_type_symbol
_atom_site_label
_atom_site_fract_x
_atom_site_fract_y
_atom_site_fract_z
Si Si1 0.377004 0.043843 0.735596
Si Si2 0.331393 0.362799 0.040839
Si Si3 0.000000 0.259145 0.750000
Si Si4 0.674995 0.661004 0.262808
Si Si5 0.788406 0.281607 0.148941
Si Si6 0.575066 0.079105 0.329155
O O1 0.500000 0.053655 0.750000
O O2 0.220427 0.073807 0.907946
O O3 0.438107 0.071563 0.548197
O O4 0.337652 0.979566 0.752549
O O5 0.221270 0.327758 0.229403
O O6 0.302902 0.339107 0.915693
O O7 0.507351 0.361057 0.940016
O O8 0.865849 0.218624 0.811900
O O9 0.067229 0.295654 0.569537
O O10 0.687110 0.723041 0.302094
O O11 0.801888 0.624655 0.231711
O O12 0.500000 0.097030 0.250000
#
# Coordination Sequence:
#
# PCOD8144568 Si02
#       6
#     8   8   4   8   8   8
#     4  10  21  43  67  95 128 171 217 271 314 388
#     4  11  24  42  66  93 132 170 218 265 322 386
#     4  10  24  40  64  84 140 166 208 266 320 378
#     4  11  24  42  65  96 132 170 215 270 323 382
#     4  11  23  43  61  97 129 173 213 264 323 392
#     4  10  23  41  68  98 128 167 221 265 327 377
#
# _framework density 20.951848999999999
#
# number of rings (size 3 to 8) (size 9 to 14) (size 15 to 20)
#    0.000    1.455    3.636    0.545    3.818    2.182 
#    3.273    0.000    0.000    0.000    0.000    0.000 
#    0.000    0.000    0.000    0.000    0.000    0.000 
#
# Total GULP energy -272858.827789 kJ/mol
# GULP energy per Si atom -12402.673990 kJ/mol
# Density = 2.090416 g / cm^3
# Si number density = 20.951849 Si / 1000 Ang^3
#
#
#
# Elastic Constant Matrix: (Units=GPa)
#
#
# Indices 1 2 3 4 5 6 
#
# 1 95.2183 24.3950 35.6306 0.0000 1.7445 0.0000
# 2 24.3950 65.3888 38.8563 0.0000 -9.2367 0.0000
# 3 35.6306 38.8563 134.9309 0.0000 9.4665 0.0000
# 4 0.0000 0.0000 0.0000 24.6581 0.0000 4.6875
# 5 1.7445 -9.2367 9.4665 0.0000 35.2327 0.0000
# 6 0.0000 0.0000 0.0000 4.6875 0.0000 19.2192
#
#
#
# Elastic Compliance Matrix: (Units=1/GPa)
#
#
# Indices 1 2 3 4 5 6 
#
# 1 0.012203 -0.003382 -0.002185 0.000000 -0.000904 0.000000
# 2 -0.003382 0.020913 -0.005632 0.000000 0.007163 0.000000
# 3 -0.002185 -0.005632 0.009893 0.000000 -0.004026 0.000000
# 4 0.000000 0.000000 0.000000 0.042526 0.000000 -0.010372
# 5 -0.000904 0.007163 -0.004026 0.000000 0.031387 0.000000
# 6 0.000000 0.000000 0.000000 -0.010372 0.000000 0.054561
#
#
# Mechanical properties :
#
#
# Convention : Reuss Voigt Hill
#
# Bulk Modulus (GPa) = 48.51777 54.81129 51.66453
# Shear Modulus (GPa) = 24.90642 28.93242 26.91942
#
# Velocity S-wave (km/s) = 3.45156 3.72008 3.58833
# Velocity P-wave (km/s) = 6.25231 6.68351 6.47151
#
# Compressibility (1/GPa) = 0.02061101
#
# Stress axis : x y z
#
# Youngs Moduli (GPa) = 81.94832 47.81615 101.08609
#
# Poissons Ratio (x) = 0.16170 0.22088
# Poissons Ratio (y) = 0.27713 0.56932
# Poissons Ratio (z) = 0.17906 0.26930
#
# Static dielectric constant tensor:
#      x y z
#    x 3.831950 0.000000 0.102180 
#    y 0.000000 3.772580 0.000000 
#    z 0.102180 0.000000 4.143400 
# 
# 
# High freq. dielectric constant tensor:
#      x y z
#    x 1.822120 0.000000 0.011670 
#    y 0.000000 1.818180 0.000000 
#    z 0.011670 0.000000 1.835980 
# 
# From -- ./inp_files/32729.got.cif
#   From: 2010.06.25/outbox.cif.g09.slc.cpg/sg15_17_cif.got.tgz:32729.got - 2010.06.28 07:06:18.
