data_PCOD8144354
_publ_section_title
;
Structure prediction by ZEFSAII (Michael W. Deem and Ramdas Pophale) SiO2 
 PCOD8144354
Probable space group: C 2/C
;
_chemical_formula_sum "Si O2"
_cell_formula_units_Z 48
_cell_length_a 8.455346
_cell_length_b 11.352265
_cell_length_c 23.311304
_cell_angle_alpha 90.000000
_cell_angle_beta 111.022947
_cell_angle_gamma 90.000000
_cell_volume 2088.648713
_symmetry_space_group_name_H-M "C 2/C"
_symmetry_group_IT_number 15
_symmetry_cell_setting 'monoclinic'
loop_
_space_group_symop_operation_xyz
x,y,z
-x,y,1/2-z
-x,-y,-z
x,-y,1/2+z
1/2+x,1/2+y,z
1/2-x,1/2+y,1/2-z
1/2-x,1/2-y,-z
1/2+x,1/2-y,1/2+z
loop_
_atom_site_type_symbol
_atom_site_label
_atom_site_fract_x
_atom_site_fract_y
_atom_site_fract_z
Si Si1 0.741926 0.107425 0.939484
Si Si2 0.927066 0.856582 0.576212
Si Si3 0.688793 0.881041 0.871407
Si Si4 0.182828 0.528957 0.762312
Si Si5 0.098372 0.196647 0.645650
Si Si6 0.656501 0.595364 0.312907
O O1 0.621642 0.220183 0.923813
O O2 0.898770 0.128800 0.915179
O O3 0.634308 0.993633 0.903656
O O4 0.818543 0.082239 0.011989
O O5 0.899826 0.939204 0.629609
O O6 0.122449 0.849959 0.584998
O O7 0.678089 0.912882 0.802563
O O8 0.576080 0.765145 0.867640
O O9 0.352026 0.604826 0.797605
O O10 0.203062 0.490702 0.698228
O O11 0.000000 0.593148 0.750000
O O12 0.259984 0.279779 0.667214
O O13 0.500000 0.606640 0.250000
#
# Coordination Sequence:
#
# PCOD8144354 Si02
#       6
#     8   8   8   8   8   8
#     4   9  22  43  66  95 134 173 215 272 328 380
#     4  10  21  42  68  97 136 168 220 273 321 393
#     4  11  21  42  67  94 128 176 213 270 326 386
#     4  11  22  43  64  94 131 169 218 275 329 391
#     4  10  23  41  66  92 129 171 219 268 327 389
#     4  11  21  41  63  94 129 170 212 266 331 391
#
# _framework density 22.981366999999999
#
# number of rings (size 3 to 8) (size 9 to 14) (size 15 to 20)
#    0.000    1.667    3.333    1.000    0.000    0.667 
#    6.000    7.500    0.000    0.000    0.000    0.000 
#    0.000    0.000    0.000    0.000    0.000    0.000 
#
# Total GULP energy -297396.892664 kJ/mol
# GULP energy per Si atom -12391.537194 kJ/mol
# Density = 2.292906 g / cm^3
# Si number density = 22.981367 Si / 1000 Ang^3
#
#
#
# Elastic Constant Matrix: (Units=GPa)
#
#
# Indices 1 2 3 4 5 6 
#
# 1 87.7817 28.6810 37.3566 0.0000 3.9381 0.0000
# 2 28.6810 55.1639 41.1363 0.0000 -4.7557 0.0000
# 3 37.3566 41.1363 145.4782 0.0000 -12.7449 0.0000
# 4 0.0000 0.0000 0.0000 26.8005 0.0000 1.0345
# 5 3.9381 -4.7557 -12.7449 0.0000 31.4382 0.0000
# 6 0.0000 0.0000 0.0000 1.0345 0.0000 39.6835
#
#
#
# Elastic Compliance Matrix: (Units=1/GPa)
#
#
# Indices 1 2 3 4 5 6 
#
# 1 0.014557 -0.006156 -0.002321 0.000000 -0.003696 0.000000
# 2 -0.006156 0.025598 -0.005444 0.000000 0.002436 0.000000
# 3 -0.002321 -0.005444 0.009293 0.000000 0.003234 0.000000
# 4 0.000000 0.000000 0.000000 0.037350 0.000000 -0.000974
# 5 -0.003696 0.002436 0.003234 0.000000 0.033951 0.000000
# 6 0.000000 0.000000 0.000000 -0.000974 0.000000 0.025225
#
#
# Mechanical properties :
#
#
# Convention : Reuss Voigt Hill
#
# Bulk Modulus (GPa) = 46.28513 55.86351 51.07432
# Shear Modulus (GPa) = 27.62151 31.66776 29.64463
#
# Velocity S-wave (km/s) = 3.47062 3.71614 3.59547
# Velocity P-wave (km/s) = 6.02032 6.54017 6.28562
#
# Compressibility (1/GPa) = 0.02160521
#
# Stress axis : x y z
#
# Youngs Moduli (GPa) = 68.69616 39.06509 107.61234
#
# Poissons Ratio (x) = 0.24050 0.24976
# Poissons Ratio (y) = 0.42291 0.58585
# Poissons Ratio (z) = 0.15944 0.21267
#
# Static dielectric constant tensor:
#      x y z
#    x 4.121740 0.000000 -0.133700 
#    y 0.000000 4.017280 0.000000 
#    z -0.133700 0.000000 4.319150 
# 
# 
# High freq. dielectric constant tensor:
#      x y z
#    x 1.901790 0.000000 0.003070 
#    y 0.000000 1.896160 0.000000 
#    z 0.003070 0.000000 1.911420 
# 
# From -- ./inp_files/263160.got.cif
#   From: 2010.06.25/outbox.cif.g09.slc.cpg/sg15_132_cif.got.tgz:263160.got - 2010.06.28 07:06:18.
