data_PCOD8144703
_publ_section_title
;
Structure prediction by ZEFSAII (Michael W. Deem and Ramdas Pophale) SiO2 
 PCOD8144703
Probable space group: C 2/C
;
_chemical_formula_sum "Si O2"
_cell_formula_units_Z 56
_cell_length_a 27.052174
_cell_length_b 18.533687
_cell_length_c 8.447065
_cell_angle_alpha 90.000000
_cell_angle_beta 37.787251
_cell_angle_gamma 90.000000
_cell_volume 2595.014813
_symmetry_space_group_name_H-M "C 2/C"
_symmetry_group_IT_number 15
_symmetry_cell_setting 'monoclinic'
loop_
_space_group_symop_operation_xyz
x,y,z
-x,y,1/2-z
-x,-y,-z
x,-y,1/2+z
1/2+x,1/2+y,z
1/2-x,1/2+y,1/2-z
1/2-x,1/2-y,-z
1/2+x,1/2-y,1/2+z
loop_
_atom_site_type_symbol
_atom_site_label
_atom_site_fract_x
_atom_site_fract_y
_atom_site_fract_z
Si Si1 0.836726 0.937787 0.038564
Si Si2 0.476523 0.922467 0.626950
Si Si3 0.853307 0.091959 0.862002
Si Si4 0.245634 0.278675 0.686059
Si Si5 0.679724 0.859608 0.355963
Si Si6 0.981711 0.164415 0.115457
Si Si7 0.092909 0.307621 0.263899
O O1 0.828144 0.924739 0.246544
O O2 0.756178 0.912724 0.151442
O O3 0.911889 0.894453 0.779774
O O4 0.852925 0.021378 0.969789
O O5 0.500000 0.917602 0.750000
O O6 0.524854 0.866402 0.392964
O O7 0.500000 0.000000 0.500000
O O8 0.382181 0.898387 0.863354
O O9 0.939815 0.129269 0.660348
O O10 0.787541 0.144759 0.103252
O O11 0.250000 0.250000 0.500000
O O12 0.291559 0.219699 0.671472
O O13 0.152346 0.288577 0.969372
O O14 0.641625 0.844865 0.282234
O O15 0.955247 0.233486 0.077193
O O16 0.000000 0.187909 0.250000
#
# Coordination Sequence:
#
# PCOD8144703 Si02
#       7
#     8   8   8   8   8   8   8
#     4  11  24  42  65  99 136 172 224 282 340 412
#     4  10  25  43  63  95 132 174 224 279 343 408
#     4  11  25  40  68  95 137 178 221 276 344 406
#     4  12  23  43  67 100 129 180 226 272 339 404
#     4  11  24  44  68  98 139 169 232 288 338 410
#     4  10  21  44  65  96 132 177 224 277 337 406
#     4  11  24  43  70  98 131 180 228 283 341 404
#
# _framework density 21.579839
#
# number of rings (size 3 to 8) (size 9 to 14) (size 15 to 20)
#    0.000    1.143    2.857    2.571    4.000    2.857 
#    0.000    1.429    0.000    0.000    0.000    0.000 
#    0.000    0.000    0.000    0.000    0.000    0.000 
#
# Total GULP energy -347158.444075 kJ/mol
# GULP energy per Si atom -12398.515860 kJ/mol
# Density = 2.153072 g / cm^3
# Si number density = 21.579839 Si / 1000 Ang^3
#
#
#
# Elastic Constant Matrix: (Units=GPa)
#
#
# Indices 1 2 3 4 5 6 
#
# 1 42.8798 18.1668 47.9037 0.0000 -25.5729 0.0000
# 2 18.1668 175.6510 76.9327 0.0000 -21.1917 0.0000
# 3 47.9037 76.9327 115.4510 0.0000 -20.9597 0.0000
# 4 0.0000 0.0000 0.0000 44.1301 0.0000 0.8307
# 5 -25.5729 -21.1917 -20.9597 0.0000 31.2400 0.0000
# 6 0.0000 0.0000 0.0000 0.8307 0.0000 33.4208
#
#
#
# Elastic Compliance Matrix: (Units=1/GPa)
#
#
# Indices 1 2 3 4 5 6 
#
# 1 0.100826 0.014981 -0.039842 0.000000 0.065967 0.000000
# 2 0.014981 0.010390 -0.010970 0.000000 0.011952 0.000000
# 3 -0.039842 -0.010970 0.028731 0.000000 -0.020780 0.000000
# 4 0.000000 0.000000 0.000000 0.022671 0.000000 -0.000563
# 5 0.065967 0.011952 -0.020780 0.000000 0.080176 0.000000
# 6 0.000000 0.000000 0.000000 -0.000563 0.000000 0.029935
#
#
# Mechanical properties :
#
#
# Convention : Reuss Voigt Hill
#
# Bulk Modulus (GPa) = 14.64458 68.88759 41.76609
# Shear Modulus (GPa) = 13.61830 34.49009 24.05419
#
# Velocity S-wave (km/s) = 2.51483 4.00216 3.34228
# Velocity P-wave (km/s) = 3.90300 7.30396 5.85582
#
# Compressibility (1/GPa) = 0.06828463
#
# Stress axis : x y z
#
# Youngs Moduli (GPa) = 9.91809 96.24343 34.80585
#
# Poissons Ratio (x) = -1.44182 1.38674
# Poissons Ratio (y) = -0.14858 0.38182
# Poissons Ratio (z) = 0.39516 1.05579
#
# Static dielectric constant tensor:
#      x y z
#    x 3.815690 0.000000 -0.413650 
#    y 0.000000 4.250710 0.000000 
#    z -0.413650 0.000000 4.313090 
# 
# 
# High freq. dielectric constant tensor:
#      x y z
#    x 1.838280 0.000000 -0.020140 
#    y 0.000000 1.864380 0.000000 
#    z -0.020140 0.000000 1.856870 
# 
# From -- ./inp_files/67096.got.cif
#   From: 2010.06.25/outbox.cif.g09.slc.cpg/sg15_34_cif.got.tgz:67096.got - 2010.06.28 07:06:18.
