data_PCOD8144681
_publ_section_title
;
Structure prediction by ZEFSAII (Michael W. Deem and Ramdas Pophale) SiO2 
 PCOD8144681
Probable space group: C 2/C
;
_chemical_formula_sum "Si O2"
_cell_formula_units_Z 60
_cell_length_a 20.450273
_cell_length_b 9.827462
_cell_length_c 21.694500
_cell_angle_alpha 90.000000
_cell_angle_beta 137.133800
_cell_angle_gamma 90.000000
_cell_volume 2966.083185
_symmetry_space_group_name_H-M "C 2/C"
_symmetry_group_IT_number 15
_symmetry_cell_setting 'monoclinic'
loop_
_space_group_symop_operation_xyz
x,y,z
-x,y,1/2-z
-x,-y,-z
x,-y,1/2+z
1/2+x,1/2+y,z
1/2-x,1/2+y,1/2-z
1/2-x,1/2-y,-z
1/2+x,1/2-y,1/2+z
loop_
_atom_site_type_symbol
_atom_site_label
_atom_site_fract_x
_atom_site_fract_y
_atom_site_fract_z
Si Si1 0.601448 0.742957 0.431237
Si Si2 0.503759 0.658394 0.488850
Si Si3 0.902850 0.114775 0.711452
Si Si4 0.206391 0.133586 0.165775
Si Si5 0.337193 0.094532 0.140876
Si Si6 0.500000 0.880162 0.250000
Si Si7 0.255761 0.460607 0.533371
Si Si8 0.850544 0.852916 0.311638
O O1 0.541210 0.690187 0.446904
O O2 0.526883 0.785917 0.326495
O O3 0.669087 0.622941 0.455156
O O4 0.669289 0.867791 0.499356
O O5 0.500000 0.500000 0.500000
O O6 0.394309 0.710527 0.418278
O O7 0.574812 0.719376 0.589566
O O8 0.895427 0.265843 0.678927
O O9 0.908281 0.116559 0.788825
O O10 0.000000 0.049598 0.750000
O O11 0.809311 0.027845 0.628144
O O12 0.255268 0.095101 0.135573
O O13 0.267643 0.242055 0.246313
O O14 0.192969 0.994761 0.194616
O O15 0.408920 0.971044 0.206209
O O16 0.288768 0.076768 0.040825
#
# Coordination Sequence:
#
# PCOD8144681 Si02
#       8
#     8   8   8   8   8   4   8   8
#     4  10  23  39  63 100 127 168 207 265 328 373
#     4  10  22  41  62  89 127 169 209 257 323 389
#     4  11  24  38  65  93 123 166 219 263 317 378
#     4  10  23  40  66  88 125 170 213 259 325 386
#     4  10  21  44  62  89 127 173 206 261 331 374
#     4  10  22  40  66  94 134 164 216 268 320 384
#     4  10  22  39  62  94 128 162 213 265 317 384
#     4  10  24  42  62  94 123 169 215 267 320 385
#
# _framework density 20.228697
#
# number of rings (size 3 to 8) (size 9 to 14) (size 15 to 20)
#    0.000    1.867    0.667    2.000   10.267    0.000 
#    0.000    0.667    0.000    0.000    0.000    0.000 
#    0.000    0.000    0.000    0.000    0.000    0.000 
#
# Total GULP energy -372026.252402 kJ/mol
# GULP energy per Si atom -12400.875080 kJ/mol
# Density = 2.018266 g / cm^3
# Si number density = 20.228697 Si / 1000 Ang^3
#
#
#
# Elastic Constant Matrix: (Units=GPa)
#
#
# Indices 1 2 3 4 5 6 
#
# 1 125.8385 30.9206 57.5722 0.0000 7.0133 0.0000
# 2 30.9206 64.6522 37.8291 0.0000 -4.3378 0.0000
# 3 57.5722 37.8291 150.4528 0.0000 3.4963 0.0000
# 4 0.0000 0.0000 0.0000 32.6493 0.0000 0.5783
# 5 7.0133 -4.3378 3.4963 0.0000 31.5238 0.0000
# 6 0.0000 0.0000 0.0000 0.5783 0.0000 23.4109
#
#
#
# Elastic Compliance Matrix: (Units=1/GPa)
#
#
# Indices 1 2 3 4 5 6 
#
# 1 0.010287 -0.003295 -0.003052 0.000000 -0.002403 0.000000
# 2 -0.003295 0.019480 -0.003726 0.000000 0.003827 0.000000
# 3 -0.003052 -0.003726 0.008770 0.000000 -0.000806 0.000000
# 4 0.000000 0.000000 0.000000 0.030642 0.000000 -0.000757
# 5 -0.002403 0.003827 -0.000806 0.000000 0.032873 0.000000
# 6 0.000000 0.000000 0.000000 -0.000757 0.000000 0.042734
#
#
# Mechanical properties :
#
#
# Convention : Reuss Voigt Hill
#
# Bulk Modulus (GPa) = 54.37541 65.95416 60.16478
# Shear Modulus (GPa) = 29.22920 31.82492 30.52706
#
# Velocity S-wave (km/s) = 3.80536 3.97073 3.88892
# Velocity P-wave (km/s) = 6.80047 7.32785 7.06908
#
# Compressibility (1/GPa) = 0.01839067
#
# Stress axis : x y z
#
# Youngs Moduli (GPa) = 97.21394 51.33401 114.02471
#
# Poissons Ratio (x) = 0.16916 0.34799
# Poissons Ratio (y) = 0.32034 0.42486
# Poissons Ratio (z) = 0.29669 0.19127
#
# Static dielectric constant tensor:
#      x y z
#    x 3.589160 0.000000 0.236800 
#    y 0.000000 3.665950 0.000000 
#    z 0.236800 0.000000 4.416860 
# 
# 
# High freq. dielectric constant tensor:
#      x y z
#    x 1.787540 0.000000 0.007760 
#    y 0.000000 1.785200 0.000000 
#    z 0.007760 0.000000 1.809790 
# 
# From -- ./inp_files/279710.got.cif
#   From: 2010.06.25/outbox.cif.g09.slc.cpg/sg15_140_cif.got.tgz:279710.got - 2010.06.28 07:06:18.
