data_PCOD8144565
_publ_section_title
;
Structure prediction by ZEFSAII (Michael W. Deem and Ramdas Pophale) SiO2 
 PCOD8144565
Probable space group: C 2/C
;
_chemical_formula_sum "Si O2"
_cell_formula_units_Z 44
_cell_length_a 16.846279
_cell_length_b 8.355866
_cell_length_c 20.223029
_cell_angle_alpha 90.000000
_cell_angle_beta 45.080888
_cell_angle_gamma 90.000000
_cell_volume 2015.760442
_symmetry_space_group_name_H-M "C 2/C"
_symmetry_group_IT_number 15
_symmetry_cell_setting 'monoclinic'
loop_
_space_group_symop_operation_xyz
x,y,z
-x,y,1/2-z
-x,-y,-z
x,-y,1/2+z
1/2+x,1/2+y,z
1/2-x,1/2+y,1/2-z
1/2-x,1/2-y,-z
1/2+x,1/2-y,1/2+z
loop_
_atom_site_type_symbol
_atom_site_label
_atom_site_fract_x
_atom_site_fract_y
_atom_site_fract_z
Si Si1 0.412832 0.819990 0.603943
Si Si2 0.915648 0.650290 0.394103
Si Si3 0.330487 0.682855 0.282133
Si Si4 0.000000 0.605934 0.750000
Si Si5 0.093150 0.300914 0.394713
Si Si6 0.769156 0.859746 0.390005
O O1 0.486911 0.755328 0.622284
O O2 0.289737 0.742866 0.669782
O O3 0.475077 0.770596 0.499872
O O4 0.398120 0.009662 0.623310
O O5 0.973403 0.494441 0.330704
O O6 0.871732 0.760353 0.360211
O O7 0.816002 0.590016 0.500999
O O8 0.388806 0.790837 0.302946
O O9 0.405684 0.689609 0.171171
O O10 0.320155 0.509565 0.320982
O O11 0.198502 0.251778 0.379825
#
# Coordination Sequence:
#
# PCOD8144565 Si02
#       6
#     8   8   8   4   8   8
#     4   9  19  40  67  87 130 170 212 260 320 392
#     4  10  21  43  67  94 124 181 214 260 330 390
#     4  11  23  39  63 102 125 168 219 275 317 384
#     4  12  26  38  64  94 134 170 218 268 330 388
#     4   9  18  38  66  95 124 171 211 261 325 385
#     4   9  22  41  69  93 133 167 217 270 323 384
#
# _framework density 21.82799
#
# number of rings (size 3 to 8) (size 9 to 14) (size 15 to 20)
#    0.000    2.182    1.818    1.091    2.545    1.455 
#    3.273    0.000    0.000    7.636    0.000    0.000 
#    0.000    0.000    0.000    0.000    0.000    0.000 
#
# Total GULP energy -272685.800506 kJ/mol
# GULP energy per Si atom -12394.809114 kJ/mol
# Density = 2.177831 g / cm^3
# Si number density = 21.827990 Si / 1000 Ang^3
#
#
#
# Elastic Constant Matrix: (Units=GPa)
#
#
# Indices 1 2 3 4 5 6 
#
# 1 150.8590 34.2724 40.6355 0.0000 -9.6730 0.0000
# 2 34.2724 55.2674 41.8483 0.0001 3.5573 -0.0001
# 3 40.6355 41.8483 88.9004 0.0000 17.3304 0.0000
# 4 0.0000 0.0001 0.0000 38.1897 0.0000 3.4743
# 5 -9.6730 3.5573 17.3304 0.0000 34.9731 0.0000
# 6 0.0000 -0.0001 0.0000 3.4743 0.0000 32.7339
#
#
#
# Elastic Compliance Matrix: (Units=1/GPa)
#
#
# Indices 1 2 3 4 5 6 
#
# 1 0.008478 -0.003057 -0.003270 0.000000 0.004276 0.000000
# 2 -0.003057 0.029757 -0.013123 0.000000 0.002631 0.000000
# 3 -0.003270 -0.013123 0.020851 0.000000 -0.009902 0.000000
# 4 0.000000 0.000000 0.000000 0.026440 0.000000 -0.002806
# 5 0.004276 0.002631 -0.009902 0.000000 0.034415 0.000000
# 6 0.000000 0.000000 0.000000 -0.002806 0.000000 0.030847
#
#
# Mechanical properties :
#
#
# Convention : Reuss Voigt Hill
#
# Bulk Modulus (GPa) = 49.53854 58.72658 54.13256
# Shear Modulus (GPa) = 25.45596 33.06403 29.26000
#
# Velocity S-wave (km/s) = 3.41868 3.89621 3.66523
# Velocity P-wave (km/s) = 6.19091 6.87046 6.53952
#
# Compressibility (1/GPa) = 0.02018630
#
# Stress axis : x y z
#
# Youngs Moduli (GPa) = 117.95052 33.60568 47.95910
#
# Poissons Ratio (x) = 0.10272 0.15683
# Poissons Ratio (y) = 0.36053 0.62938
# Poissons Ratio (z) = 0.38570 0.44101
#
# Static dielectric constant tensor:
#      x y z
#    x 4.477770 0.000000 -0.020860 
#    y 0.000000 3.363120 0.000000 
#    z -0.020860 0.000000 3.981020 
# 
# 
# High freq. dielectric constant tensor:
#      x y z
#    x 1.884480 0.000000 0.003680 
#    y 0.000000 1.805220 0.000000 
#    z 0.003680 0.000000 1.867300 
# 
# From -- ./inp_files/246809.got.cif
#   From: 2010.06.25/outbox.cif.g09.slc.cpg/sg15_124_cif.got.tgz:246809.got - 2010.06.28 07:06:18.
