data_PCOD8144505
_publ_section_title
;
Structure prediction by ZEFSAII (Michael W. Deem and Ramdas Pophale) SiO2 
 PCOD8144505
Probable space group: C 2/C
;
_chemical_formula_sum "Si O2"
_cell_formula_units_Z 60
_cell_length_a 19.512867
_cell_length_b 13.188149
_cell_length_c 24.959466
_cell_angle_alpha 90.000000
_cell_angle_beta 27.210468
_cell_angle_gamma 90.000000
_cell_volume 2936.999191
_symmetry_space_group_name_H-M "C 2/C"
_symmetry_group_IT_number 15
_symmetry_cell_setting 'monoclinic'
loop_
_space_group_symop_operation_xyz
x,y,z
-x,y,1/2-z
-x,-y,-z
x,-y,1/2+z
1/2+x,1/2+y,z
1/2-x,1/2+y,1/2-z
1/2-x,1/2-y,-z
1/2+x,1/2-y,1/2+z
loop_
_atom_site_type_symbol
_atom_site_label
_atom_site_fract_x
_atom_site_fract_y
_atom_site_fract_z
Si Si1 0.026102 0.395399 0.511182
Si Si2 0.207944 0.763139 0.311960
Si Si3 0.876083 0.914059 0.644433
Si Si4 0.831154 0.910519 0.249395
Si Si5 0.599091 0.870791 0.577737
Si Si6 0.278824 0.441099 0.120653
Si Si7 0.075213 0.161651 0.645003
Si Si8 0.000000 0.489722 0.750000
O O1 0.191325 0.361939 0.378489
O O2 0.009624 0.406782 0.587174
O O3 0.000000 0.500000 0.500000
O O4 0.908745 0.308870 0.575170
O O5 0.331488 0.700452 0.191811
O O6 0.117976 0.832279 0.332220
O O7 0.277598 0.843240 0.305907
O O8 0.056595 0.920279 0.518684
O O9 0.801813 0.979989 0.743982
O O10 0.800060 0.955847 0.641927
O O11 0.967024 0.923897 0.196078
O O12 0.772715 0.898219 0.448361
O O13 0.592632 0.749900 0.589013
O O14 0.534723 0.924161 0.674168
O O15 0.151861 0.450164 0.162154
O O16 0.000000 0.209552 0.750000
#
# Coordination Sequence:
#
# PCOD8144505 Si02
#       8
#     8   8   8   8   8   8   8   4
#     4  12  23  39  64  95 123 164 214 270 318 367
#     4  11  22  40  64  94 126 161 215 269 316 379
#     4  10  21  43  65  94 125 166 219 266 327 371
#     4  11  22  36  63  92 128 164 203 264 324 389
#     4  11  24  38  62  92 129 169 204 266 319 389
#     4  10  24  41  68  94 125 173 214 269 317 393
#     4  11  21  38  58  94 132 164 202 252 337 393
#     4  12  24  44  64  92 132 174 226 254 324 396
#
# _framework density 20.429015
#
# number of rings (size 3 to 8) (size 9 to 14) (size 15 to 20)
#    0.000    1.067    4.667    2.400    1.867    0.000 
#    0.000    0.667    4.400    0.000    0.000    0.000 
#    0.000    0.000    0.000    0.000    0.000    0.000 
#
# Total GULP energy -371763.086304 kJ/mol
# GULP energy per Si atom -12392.102877 kJ/mol
# Density = 2.038252 g / cm^3
# Si number density = 20.429015 Si / 1000 Ang^3
#
#
#
# Elastic Constant Matrix: (Units=GPa)
#
#
# Indices 1 2 3 4 5 6 
#
# 1 111.2158 26.0718 15.9210 0.0014 -3.1410 0.0006
# 2 26.0718 74.8710 9.3419 0.0059 6.6588 0.0022
# 3 15.9210 9.3419 82.1979 0.0042 2.4582 0.0047
# 4 0.0014 0.0059 0.0042 36.1843 0.0032 1.3057
# 5 -3.1410 6.6588 2.4582 0.0032 35.8375 -0.0008
# 6 0.0006 0.0022 0.0047 1.3057 -0.0008 1.3274
#
#
#
# Elastic Compliance Matrix: (Units=1/GPa)
#
#
# Indices 1 2 3 4 5 6 
#
# 1 0.010078 -0.003454 -0.001608 0.000000 0.001635 0.000008
# 2 -0.003454 0.014944 -0.000939 -0.000001 -0.003015 -0.000020
# 3 -0.001608 -0.000939 0.012609 0.000000 -0.000831 -0.000044
# 4 0.000000 -0.000001 0.000000 0.028653 -0.000003 -0.028185
# 5 0.001635 -0.003015 -0.000831 -0.000003 0.028664 0.000028
# 6 0.000008 -0.000020 -0.000044 -0.028185 0.000028 0.781077
#
#
# Mechanical properties :
#
#
# Convention : Reuss Voigt Hill
#
# Bulk Modulus (GPa) = 39.02019 41.21711 40.11865
# Shear Modulus (GPa) = 5.57680 29.13318 17.35499
#
# Velocity S-wave (km/s) = 1.65402 3.78043 2.91783
# Velocity P-wave (km/s) = 4.77384 6.26699 5.57067
#
# Compressibility (1/GPa) = 0.02562776
#
# Stress axis : x y z
#
# Youngs Moduli (GPa) = 99.22930 66.91457 79.30910
#
# Poissons Ratio (x) = 0.23113 0.12755
# Poissons Ratio (y) = 0.34274 0.07449
# Poissons Ratio (z) = 0.15959 0.06285
#
# Static dielectric constant tensor:
#      x y z
#    x 3.784640 -0.000010 -0.017790 
#    y -0.000010 3.569670 0.000010 
#    z -0.017790 0.000010 3.996870 
# 
# 
# High freq. dielectric constant tensor:
#      x y z
#    x 1.787320 0.000000 -0.001080 
#    y 0.000000 1.775330 0.000000 
#    z -0.001080 0.000000 1.819210 
# 
# From -- ./inp_files/280072.got.cif
#   From: 2010.06.25/outbox.cif.g09.slc.cpg/sg15_141_cif.got.tgz:280072.got - 2010.06.28 07:06:18.
