data_PCOD8144690
_publ_section_title
;
Structure prediction by ZEFSAII (Michael W. Deem and Ramdas Pophale) SiO2 
 PCOD8144690
Probable space group: C 2/C
;
_chemical_formula_sum "Si O2"
_cell_formula_units_Z 40
_cell_length_a 11.847941
_cell_length_b 8.215654
_cell_length_c 18.664280
_cell_angle_alpha 90.000000
_cell_angle_beta 72.023466
_cell_angle_gamma 90.000000
_cell_volume 1728.066071
_symmetry_space_group_name_H-M "C 2/C"
_symmetry_group_IT_number 15
_symmetry_cell_setting 'monoclinic'
loop_
_space_group_symop_operation_xyz
x,y,z
-x,y,1/2-z
-x,-y,-z
x,-y,1/2+z
1/2+x,1/2+y,z
1/2-x,1/2+y,1/2-z
1/2-x,1/2-y,-z
1/2+x,1/2-y,1/2+z
loop_
_atom_site_type_symbol
_atom_site_label
_atom_site_fract_x
_atom_site_fract_y
_atom_site_fract_z
Si Si1 0.664289 0.780186 0.224088
Si Si2 0.374149 0.699305 0.064824
Si Si3 0.396338 0.540734 0.683917
Si Si4 0.388602 0.728801 0.898539
Si Si5 0.484100 0.912482 0.364370
O O1 0.628589 0.597485 0.252580
O O2 0.803644 0.810483 0.207354
O O3 0.594466 0.910774 0.287345
O O4 0.624112 0.809004 0.149790
O O5 0.385576 0.532624 0.106344
O O6 0.243626 0.774728 0.107476
O O7 0.474727 0.826801 0.070114
O O8 0.387852 0.657602 0.978996
O O9 0.528222 0.616113 0.667996
O O10 0.441082 0.909032 0.891206
#
# Coordination Sequence:
#
# PCOD8144690 Si02
#       5
#     8   8   8   8   8
#     4  10  22  42  65  94 136 168 223 267 327 395
#     4  10  23  43  66 100 129 170 225 261 326 397
#     4  11  22  44  66  96 131 176 216 272 324 387
#     4  11  22  43  71  91 134 176 213 271 326 386
#     4  10  21  44  63  95 134 164 215 276 320 389
#
# _framework density 23.147262999999999
#
# number of rings (size 3 to 8) (size 9 to 14) (size 15 to 20)
#    0.000    1.600    2.000    2.400    0.000    0.000 
#   39.600    1.000    0.000    0.000    0.000    0.000 
#    0.000    0.000    0.000    0.000    0.000    0.000 
#
# Total GULP energy -248009.231511 kJ/mol
# GULP energy per Si atom -12400.461576 kJ/mol
# Density = 2.309458 g / cm^3
# Si number density = 23.147263 Si / 1000 Ang^3
#
#
#
# Elastic Constant Matrix: (Units=GPa)
#
#
# Indices 1 2 3 4 5 6 
#
# 1 92.5049 24.5841 7.1689 0.0000 -25.6421 0.0000
# 2 24.5841 96.7362 19.9362 0.0000 -19.4948 0.0000
# 3 7.1689 19.9362 29.3120 0.0000 -14.8887 0.0000
# 4 0.0000 0.0000 0.0000 34.0892 0.0000 -4.6839
# 5 -25.6421 -19.4948 -14.8887 0.0000 27.2159 0.0000
# 6 0.0000 0.0000 0.0000 -4.6839 0.0000 39.1906
#
#
#
# Elastic Compliance Matrix: (Units=1/GPa)
#
#
# Indices 1 2 3 4 5 6 
#
# 1 0.015374 -0.001801 0.005771 0.000000 0.016352 0.000000
# 2 -0.001801 0.012916 -0.006241 0.000000 0.004140 0.000000
# 3 0.005771 -0.006241 0.051847 0.000000 0.029330 0.000000
# 4 0.000000 0.000000 0.000000 0.029825 0.000000 0.003564
# 5 0.016352 0.004140 0.029330 0.000000 0.071161 0.000000
# 6 0.000000 0.000000 0.000000 0.003564 0.000000 0.025942
#
#
# Mechanical properties :
#
#
# Convention : Reuss Voigt Hill
#
# Bulk Modulus (GPa) = 13.22842 35.77017 24.49930
# Shear Modulus (GPa) = 21.11435 31.22339 26.16887
#
# Velocity S-wave (km/s) = 3.02350 3.67672 3.36600
# Velocity P-wave (km/s) = 4.23273 5.78889 5.07086
#
# Compressibility (1/GPa) = 0.07559481
#
# Stress axis : x y z
#
# Youngs Moduli (GPa) = 65.04281 77.42518 19.28756
#
# Poissons Ratio (x) = 0.13945 -0.11130
# Poissons Ratio (y) = 0.11715 0.12037
# Poissons Ratio (z) = -0.37535 0.48320
#
# Static dielectric constant tensor:
#      x y z
#    x 4.527250 0.000000 -0.005840 
#    y 0.000000 3.825540 0.000000 
#    z -0.005840 0.000000 4.016890 
# 
# 
# High freq. dielectric constant tensor:
#      x y z
#    x 1.933540 0.000000 0.010030 
#    y 0.000000 1.901050 0.000000 
#    z 0.010030 0.000000 1.902090 
# 
# From -- ./inp_files/235712.got.cif
#   From: 2010.06.25/outbox.cif.g09.slc.cpg/sg15_118_cif.got.tgz:235712.got - 2010.06.28 07:06:18.
