data_PCOD8144713
_publ_section_title
;
Structure prediction by ZEFSAII (Michael W. Deem and Ramdas Pophale) SiO2 
 PCOD8144713
Probable space group: C 2/C
;
_chemical_formula_sum "Si O2"
_cell_formula_units_Z 48
_cell_length_a 11.367797
_cell_length_b 10.906403
_cell_length_c 18.586007
_cell_angle_alpha 90.000000
_cell_angle_beta 110.917875
_cell_angle_gamma 90.000000
_cell_volume 2152.455231
_symmetry_space_group_name_H-M "C 2/C"
_symmetry_group_IT_number 15
_symmetry_cell_setting 'monoclinic'
loop_
_space_group_symop_operation_xyz
x,y,z
-x,y,1/2-z
-x,-y,-z
x,-y,1/2+z
1/2+x,1/2+y,z
1/2-x,1/2+y,1/2-z
1/2-x,1/2-y,-z
1/2+x,1/2-y,1/2+z
loop_
_atom_site_type_symbol
_atom_site_label
_atom_site_fract_x
_atom_site_fract_y
_atom_site_fract_z
Si Si1 0.598189 0.466651 0.174766
Si Si2 0.060017 0.272904 0.835837
Si Si3 0.750049 0.643230 0.584356
Si Si4 0.635165 0.612592 0.413102
Si Si5 0.984877 0.494597 0.080962
Si Si6 0.745305 0.417447 0.346839
O O1 0.513805 0.345769 0.153085
O O2 0.708814 0.444231 0.140773
O O3 0.512062 0.586386 0.138939
O O4 0.659044 0.481318 0.266466
O O5 0.049315 0.371649 0.896061
O O6 0.203455 0.225353 0.849980
O O7 0.000000 0.328684 0.750000
O O8 0.640981 0.644619 0.499483
O O9 0.794111 0.779985 0.617719
O O10 0.874388 0.595083 0.574631
O O11 0.717425 0.491618 0.414136
O O12 0.109413 0.432479 0.143079
O O13 0.000000 0.500000 0.000000
#
# Coordination Sequence:
#
# PCOD8144713 Si02
#       6
#     8   8   8   8   8   8
#     4  10  22  43  69  92 122 170 218 263 321 381
#     4   9  22  43  67  90 124 168 211 265 321 377
#     4  11  24  39  64  99 129 165 210 264 323 386
#     4  10  21  44  66  91 130 165 212 263 319 383
#     4  12  25  42  62  94 135 167 208 269 322 385
#     4  10  22  45  66  92 125 170 215 262 322 385
#
# _framework density 22.300115999999999
#
# number of rings (size 3 to 8) (size 9 to 14) (size 15 to 20)
#    0.000    1.667    1.667    3.000    4.667    2.000 
#    9.000    0.000    0.000    0.000    0.000    0.000 
#    0.000    0.000    0.000    0.000    0.000    0.000 
#
# Total GULP energy -297487.348429 kJ/mol
# GULP energy per Si atom -12395.306185 kJ/mol
# Density = 2.224936 g / cm^3
# Si number density = 22.300116 Si / 1000 Ang^3
#
#
#
# Elastic Constant Matrix: (Units=GPa)
#
#
# Indices 1 2 3 4 5 6 
#
# 1 111.9583 30.8786 34.1858 0.0000 6.8464 0.0000
# 2 30.8786 85.9422 51.0267 0.0000 5.6997 0.0000
# 3 34.1858 51.0267 90.9769 0.0000 2.4523 0.0000
# 4 0.0000 0.0000 0.0000 32.3767 0.0000 -4.7010
# 5 6.8464 5.6997 2.4523 0.0000 37.8909 0.0000
# 6 0.0000 0.0000 0.0000 -4.7010 0.0000 34.9459
#
#
#
# Elastic Compliance Matrix: (Units=1/GPa)
#
#
# Indices 1 2 3 4 5 6 
#
# 1 0.010412 -0.002020 -0.002741 0.000000 -0.001400 0.000000
# 2 -0.002020 0.017989 -0.009283 0.000000 -0.001740 0.000000
# 3 -0.002741 -0.009283 0.017208 0.000000 0.000778 0.000000
# 4 0.000000 0.000000 0.000000 0.031502 0.000000 0.004238
# 5 -0.001400 -0.001740 0.000778 0.000000 0.026856 0.000000
# 6 0.000000 0.000000 0.000000 0.004238 0.000000 0.029186
#
#
# Mechanical properties :
#
#
# Convention : Reuss Voigt Hill
#
# Bulk Modulus (GPa) = 57.08421 57.89554 57.48988
# Shear Modulus (GPa) = 29.92545 32.56178 31.24362
#
# Velocity S-wave (km/s) = 3.66723 3.82535 3.74712
# Velocity P-wave (km/s) = 6.60190 6.74755 6.67512
#
# Compressibility (1/GPa) = 0.01751798
#
# Stress axis : x y z
#
# Youngs Moduli (GPa) = 96.04466 55.58978 58.11312
#
# Poissons Ratio (x) = 0.11231 0.15932
# Poissons Ratio (y) = 0.19405 0.53949
# Poissons Ratio (z) = 0.26330 0.51606
#
# Static dielectric constant tensor:
#      x y z
#    x 6.339890 0.000000 -1.824930 
#    y 0.000000 4.104730 0.000000 
#    z -1.824930 0.000000 5.960240 
# 
# 
# High freq. dielectric constant tensor:
#      x y z
#    x 1.884880 0.000000 0.000970 
#    y 0.000000 1.867910 0.000000 
#    z 0.000970 0.000000 1.872290 
# 
# From -- ./inp_files/196207.got.cif
#   From: 2010.06.25/outbox.cif.g09.slc.cpg/sg15_99_cif.got.tgz:196207.got - 2010.06.28 07:06:18.
