data_PCOD8144113
_publ_section_title
;
Structure prediction by ZEFSAII (Michael W. Deem and Ramdas Pophale) SiO2 
 PCOD8144113
Probable space group: C 2/C
;
_chemical_formula_sum "Si O2"
_cell_formula_units_Z 56
_cell_length_a 11.062145
_cell_length_b 27.008259
_cell_length_c 14.050825
_cell_angle_alpha 90.000000
_cell_angle_beta 36.218494
_cell_angle_gamma 90.000000
_cell_volume 2480.429234
_symmetry_space_group_name_H-M "C 2/C"
_symmetry_group_IT_number 15
_symmetry_cell_setting 'monoclinic'
loop_
_space_group_symop_operation_xyz
x,y,z
-x,y,1/2-z
-x,-y,-z
x,-y,1/2+z
1/2+x,1/2+y,z
1/2-x,1/2+y,1/2-z
1/2-x,1/2-y,-z
1/2+x,1/2-y,1/2+z
loop_
_atom_site_type_symbol
_atom_site_label
_atom_site_fract_x
_atom_site_fract_y
_atom_site_fract_z
Si Si1 0.969344 0.208159 0.541311
Si Si2 0.320244 0.538881 0.938140
Si Si3 0.578720 0.189147 0.914871
Si Si4 0.320171 0.065441 0.940865
Si Si5 0.670198 0.331213 0.561645
Si Si6 0.769849 0.619057 0.358850
Si Si7 0.470813 0.911811 0.553897
O O1 0.789104 0.196439 0.727163
O O2 0.043147 0.264700 0.508632
O O3 0.889295 0.205977 0.483971
O O4 0.156129 0.171147 0.440393
O O5 0.500000 0.545841 0.750000
O O6 0.106286 0.547044 0.019838
O O7 0.316615 0.483677 0.984110
O O8 0.350938 0.577674 0.004093
O O9 0.600300 0.139163 0.962401
O O10 0.391990 0.183096 0.960010
O O11 0.500000 0.064508 0.750000
O O12 0.403249 0.067385 0.995699
O O13 0.178508 0.113275 0.012366
O O14 0.500000 0.327394 0.750000
O O15 0.000000 0.625577 0.250000
O O16 0.775175 0.601071 0.245092
#
# Coordination Sequence:
#
# PCOD8144113 Si02
#       7
#     8   8   8   8   8   8   8
#     4  12  22  40  61  88 124 164 203 255 313 366
#     4  11  23  40  61  89 121 161 208 257 307 365
#     4  11  23  38  62  92 122 160 204 250 308 375
#     4  11  22  39  62  91 124 162 204 251 309 376
#     4  11  22  38  60  91 126 160 201 253 309 375
#     4  10  23  43  65  89 123 165 213 262 307 364
#     4  10  21  42  62  86 121 162 203 256 310 365
#
# _framework density 22.576737999999999
#
# number of rings (size 3 to 8) (size 9 to 14) (size 15 to 20)
#    0.000    1.143    0.000    9.000    0.000    0.000 
#    0.000    9.286    0.000    0.000    0.000    0.000 
#    0.000    0.000    0.000    0.000    0.000    0.000 
#
# Total GULP energy -347305.569147 kJ/mol
# GULP energy per Si atom -12403.770327 kJ/mol
# Density = 2.252535 g / cm^3
# Si number density = 22.576738 Si / 1000 Ang^3
#
#
#
# Elastic Constant Matrix: (Units=GPa)
#
#
# Indices 1 2 3 4 5 6 
#
# 1 37.5351 -2.5823 5.7068 0.0000 12.4637 0.0000
# 2 -2.5823 115.1962 20.2327 0.0000 1.3590 0.0000
# 3 5.7068 20.2327 152.5459 0.0000 17.6474 0.0000
# 4 0.0000 0.0000 0.0000 43.3104 0.0000 0.2488
# 5 12.4637 1.3590 17.6474 0.0000 36.7908 0.0000
# 6 0.0000 0.0000 0.0000 0.2488 0.0000 30.2956
#
#
#
# Elastic Compliance Matrix: (Units=1/GPa)
#
#
# Indices 1 2 3 4 5 6 
#
# 1 0.030092 0.000804 -0.000053 0.000000 -0.010199 0.000000
# 2 0.000804 0.008912 -0.001210 0.000000 -0.000021 0.000000
# 3 -0.000053 -0.001210 0.007105 0.000000 -0.003345 0.000000
# 4 0.000000 0.000000 0.000000 0.023090 0.000000 -0.000190
# 5 -0.010199 -0.000021 -0.003345 0.000000 0.032241 0.000000
# 6 0.000000 0.000000 0.000000 -0.000190 0.000000 0.033010
#
#
# Mechanical properties :
#
#
# Convention : Reuss Voigt Hill
#
# Bulk Modulus (GPa) = 22.12790 39.11021 30.61905
# Shear Modulus (GPa) = 33.23825 40.87402 37.05613
#
# Velocity S-wave (km/s) = 3.84113 4.25955 4.05574
# Velocity P-wave (km/s) = 5.43092 6.44613 5.96018
#
# Compressibility (1/GPa) = 0.04519182
#
# Stress axis : x y z
#
# Youngs Moduli (GPa) = 33.23193 112.21370 140.74944
#
# Poissons Ratio (x) = -0.09023 0.00740
# Poissons Ratio (y) = -0.02672 0.17025
# Poissons Ratio (z) = 0.00175 0.13573
#
# Static dielectric constant tensor:
#      x y z
#    x 4.617220 0.000000 -0.172820 
#    y 0.000000 4.464590 0.000000 
#    z -0.172820 0.000000 4.359610 
# 
# 
# High freq. dielectric constant tensor:
#      x y z
#    x 1.867480 0.000000 0.012310 
#    y 0.000000 1.909540 0.000000 
#    z 0.012310 0.000000 1.906240 
# 
# From -- ./inp_files/149268.got.cif
#   From: 2010.06.25/outbox.cif.g09.slc.cpg/sg15_75_cif.got.tgz:149268.got - 2010.06.28 07:06:18.
