data_PCOD8144806
_publ_section_title
;
Structure prediction by ZEFSAII (Michael W. Deem and Ramdas Pophale) SiO2 
 PCOD8144806
Probable space group: C 2/C
;
_chemical_formula_sum "Si O2"
_cell_formula_units_Z 52
_cell_length_a 12.743018
_cell_length_b 28.562260
_cell_length_c 8.835641
_cell_angle_alpha 90.000000
_cell_angle_beta 128.368294
_cell_angle_gamma 90.000000
_cell_volume 2521.387065
_symmetry_space_group_name_H-M "C 2/C"
_symmetry_group_IT_number 15
_symmetry_cell_setting 'monoclinic'
loop_
_space_group_symop_operation_xyz
x,y,z
-x,y,1/2-z
-x,-y,-z
x,-y,1/2+z
1/2+x,1/2+y,z
1/2-x,1/2+y,1/2-z
1/2-x,1/2-y,-z
1/2+x,1/2-y,1/2+z
loop_
_atom_site_type_symbol
_atom_site_label
_atom_site_fract_x
_atom_site_fract_y
_atom_site_fract_z
Si Si1 0.219784 0.702218 0.666793
Si Si2 0.547913 0.657464 0.456948
Si Si3 0.500000 0.513317 0.750000
Si Si4 0.296507 0.690486 0.394897
Si Si5 0.528794 0.141138 0.100155
Si Si6 0.644704 0.555194 0.599978
Si Si7 0.541408 0.952249 0.115232
O O1 0.282561 0.688207 0.562257
O O2 0.184066 0.756584 0.643365
O O3 0.085734 0.672830 0.578820
O O4 0.328657 0.690824 0.890988
O O5 0.500000 0.673921 0.250000
O O6 0.427906 0.661655 0.469356
O O7 0.594720 0.604290 0.493510
O O8 0.581728 0.545504 0.707690
O O9 0.394118 0.482867 0.560523
O O10 0.168728 0.667475 0.199130
O O11 0.500000 0.133859 0.250000
O O12 0.538637 0.090613 0.031563
O O13 0.802242 0.556395 0.764179
O O14 0.500000 0.955486 0.250000
O O15 0.500000 0.000000 0.000000
#
# Coordination Sequence:
#
# PCOD8144806 Si02
#       7
#     8   8   4   8   8   8   8
#     4  10  21  45  66  97 131 170 227 273 325 395
#     4  12  25  39  65  97 139 171 218 270 331 403
#     4  10  24  42  70  90 132 168 218 280 324 402
#     4  10  23  40  71  96 127 176 221 273 329 391
#     4  10  22  39  65  97 130 167 219 273 327 393
#     4  11  24  44  64  99 128 173 220 272 337 398
#     4  12  26  43  68  92 132 174 221 278 332 401
#
# _framework density 20.623569
#
# number of rings (size 3 to 8) (size 9 to 14) (size 15 to 20)
#    0.000    1.231    2.308    2.769    4.308    5.538 
#    0.000    1.538    0.000    0.000    0.000    0.000 
#    0.000    0.000    0.000    0.000    0.000    0.000 
#
# Total GULP energy -322579.895303 kJ/mol
# GULP energy per Si atom -12406.919050 kJ/mol
# Density = 2.057663 g / cm^3
# Si number density = 20.623569 Si / 1000 Ang^3
#
#
#
# Elastic Constant Matrix: (Units=GPa)
#
#
# Indices 1 2 3 4 5 6 
#
# 1 70.9107 26.9910 32.0157 0.0000 15.1482 0.0000
# 2 26.9910 112.4939 41.9809 0.0000 10.3800 0.0000
# 3 32.0157 41.9809 122.1077 0.0000 14.8078 0.0000
# 4 0.0000 0.0000 0.0000 40.8120 0.0000 7.3279
# 5 15.1482 10.3800 14.8078 0.0000 31.5841 0.0000
# 6 0.0000 0.0000 0.0000 7.3279 0.0000 24.5671
#
#
#
# Elastic Compliance Matrix: (Units=1/GPa)
#
#
# Indices 1 2 3 4 5 6 
#
# 1 0.017780 -0.002560 -0.003021 0.000000 -0.006270 0.000000
# 2 -0.002560 0.010665 -0.002883 0.000000 -0.000925 0.000000
# 3 -0.003021 -0.002883 0.010266 0.000000 -0.002416 0.000000
# 4 0.000000 0.000000 0.000000 0.025889 0.000000 -0.007722
# 5 -0.006270 -0.000925 -0.002416 0.000000 0.036106 0.000000
# 6 0.000000 0.000000 0.000000 -0.007722 0.000000 0.043008
#
#
# Mechanical properties :
#
#
# Convention : Reuss Voigt Hill
#
# Bulk Modulus (GPa) = 45.90955 56.38750 51.14853
# Shear Modulus (GPa) = 29.77892 33.02760 31.40326
#
# Velocity S-wave (km/s) = 3.80403 4.00615 3.90640
# Velocity P-wave (km/s) = 6.45005 6.98568 6.72320
#
# Compressibility (1/GPa) = 0.02178196
#
# Stress axis : x y z
#
# Youngs Moduli (GPa) = 56.24239 93.76503 97.40933
#
# Poissons Ratio (x) = 0.24004 0.29431
# Poissons Ratio (y) = 0.14398 0.28085
# Poissons Ratio (z) = 0.16993 0.27034
#
# Static dielectric constant tensor:
#      x y z
#    x 3.905220 0.000000 0.244970 
#    y 0.000000 3.765510 0.000000 
#    z 0.244970 0.000000 3.959420 
# 
# 
# High freq. dielectric constant tensor:
#      x y z
#    x 1.807610 0.000000 0.008790 
#    y 0.000000 1.818160 0.000000 
#    z 0.008790 0.000000 1.818480 
# 
# From -- ./inp_files/34417.got.cif
#   From: 2010.06.25/outbox.cif.g09.slc.cpg/sg15_18_cif.got.tgz:34417.got - 2010.06.28 07:06:18.
