data_PCOD8144112
_publ_section_title
;
Structure prediction by ZEFSAII (Michael W. Deem and Ramdas Pophale) SiO2 
 PCOD8144112
Probable space group: C 2/C
;
_chemical_formula_sum "Si O2"
_cell_formula_units_Z 44
_cell_length_a 6.239022
_cell_length_b 24.078581
_cell_length_c 13.859425
_cell_angle_alpha 90.000000
_cell_angle_beta 98.466783
_cell_angle_gamma 90.000000
_cell_volume 2059.365491
_symmetry_space_group_name_H-M "C 2/C"
_symmetry_group_IT_number 15
_symmetry_cell_setting 'monoclinic'
loop_
_space_group_symop_operation_xyz
x,y,z
-x,y,1/2-z
-x,-y,-z
x,-y,1/2+z
1/2+x,1/2+y,z
1/2-x,1/2+y,1/2-z
1/2-x,1/2-y,-z
1/2+x,1/2-y,1/2+z
loop_
_atom_site_type_symbol
_atom_site_label
_atom_site_fract_x
_atom_site_fract_y
_atom_site_fract_z
Si Si1 0.590629 0.082621 0.984418
Si Si2 0.354452 0.815716 0.151147
Si Si3 0.217115 0.024588 0.058016
Si Si4 0.000000 0.230934 0.750000
Si Si5 0.148063 0.774388 0.590623
Si Si6 0.014701 0.887775 0.860120
O O1 0.345380 0.070604 0.001867
O O2 0.749957 0.090580 0.087798
O O3 0.620628 0.137309 0.925731
O O4 0.638599 0.029983 0.916766
O O5 0.500000 0.833861 0.250000
O O6 0.109524 0.807355 0.173947
O O7 0.433567 0.759320 0.105757
O O8 0.149317 0.059418 0.147835
O O9 0.000000 0.000000 0.000000
O O10 0.821905 0.269930 0.688583
O O11 0.250000 0.750000 0.500000
O O12 0.071421 0.838169 0.575818
O O13 0.000000 0.865726 0.750000
#
# Coordination Sequence:
#
# PCOD8144112 Si02
#       6
#     8   8   8   4   8   8
#     4  10  21  42  62  84 124 160 202 262 310 373
#     4  10  22  39  59  91 119 162 212 256 319 379
#     4   9  21  41  61  84 118 159 205 252 314 378
#     4  10  22  40  58  88 128 160 208 262 308 376
#     4  11  23  38  61  89 124 166 210 259 316 386
#     4  11  23  38  59  93 123 160 206 256 314 380
#
# _framework density 21.365805000000002
#
# number of rings (size 3 to 8) (size 9 to 14) (size 15 to 20)
#    0.000    1.818    0.000    3.818    0.000   12.364 
#   11.455    0.000    0.000    0.000    0.000    0.000 
#    0.000    0.000    0.000    0.000    0.000    0.000 
#
# Total GULP energy -272552.458039 kJ/mol
# GULP energy per Si atom -12388.748093 kJ/mol
# Density = 2.131718 g / cm^3
# Si number density = 21.365805 Si / 1000 Ang^3
#
#
#
# Elastic Constant Matrix: (Units=GPa)
#
#
# Indices 1 2 3 4 5 6 
#
# 1 133.8466 48.8905 29.0448 0.0000 -13.7660 0.0000
# 2 48.8905 112.5442 32.6095 0.0000 -0.2667 0.0000
# 3 29.0448 32.6095 73.9415 0.0000 -5.8732 0.0000
# 4 0.0000 0.0000 0.0000 11.7078 0.0000 2.8844
# 5 -13.7660 -0.2667 -5.8732 0.0000 20.0561 0.0000
# 6 0.0000 0.0000 0.0000 2.8844 0.0000 30.7064
#
#
#
# Elastic Compliance Matrix: (Units=1/GPa)
#
#
# Indices 1 2 3 4 5 6 
#
# 1 0.009861 -0.003771 -0.001716 0.000000 0.006215 0.000000
# 2 -0.003771 0.011658 -0.003945 0.000000 -0.003589 0.000000
# 3 -0.001716 -0.003945 0.016218 0.000000 0.003519 0.000000
# 4 0.000000 0.000000 0.000000 0.087436 0.000000 -0.008213
# 5 0.006215 -0.003589 0.003519 0.000000 0.055109 0.000000
# 6 0.000000 0.000000 0.000000 -0.008213 0.000000 0.033338
#
#
# Mechanical properties :
#
#
# Convention : Reuss Voigt Hill
#
# Bulk Modulus (GPa) = 52.99208 60.15799 56.57504
# Shear Modulus (GPa) = 20.94012 26.47990 23.71001
#
# Velocity S-wave (km/s) = 3.13401 3.52427 3.33486
# Velocity P-wave (km/s) = 6.16053 6.69164 6.43157
#
# Compressibility (1/GPa) = 0.01887074
#
# Stress axis : x y z
#
# Youngs Moduli (GPa) = 101.41441 85.77527 61.66085
#
# Poissons Ratio (x) = 0.32350 0.10583
# Poissons Ratio (y) = 0.38248 0.24326
# Poissons Ratio (z) = 0.17406 0.33840
#
# Static dielectric constant tensor:
#      x y z
#    x 4.355280 0.000000 -0.149450 
#    y 0.000000 4.105700 0.000000 
#    z -0.149450 0.000000 3.683850 
# 
# 
# High freq. dielectric constant tensor:
#      x y z
#    x 1.855450 0.000000 -0.010240 
#    y 0.000000 1.848090 0.000000 
#    z -0.010240 0.000000 1.813370 
# 
# From -- ./inp_files/129473.got.cif
#   From: 2010.06.25/outbox.cif.g09.slc.cpg/sg15_65_cif.got.tgz:129473.got - 2010.06.28 07:06:18.
