data_PCOD8144419
_publ_section_title
;
Structure prediction by ZEFSAII (Michael W. Deem and Ramdas Pophale) SiO2 
 PCOD8144419
Probable space group: C 2/C
;
_chemical_formula_sum "Si O2"
_cell_formula_units_Z 36
_cell_length_a 26.421519
_cell_length_b 4.947830
_cell_length_c 12.364089
_cell_angle_alpha 90.000000
_cell_angle_beta 61.873393
_cell_angle_gamma 90.000000
_cell_volume 1425.469657
_symmetry_space_group_name_H-M "C 2/C"
_symmetry_group_IT_number 15
_symmetry_cell_setting 'monoclinic'
loop_
_space_group_symop_operation_xyz
x,y,z
-x,y,1/2-z
-x,-y,-z
x,-y,1/2+z
1/2+x,1/2+y,z
1/2-x,1/2+y,1/2-z
1/2-x,1/2-y,-z
1/2+x,1/2-y,1/2+z
loop_
_atom_site_type_symbol
_atom_site_label
_atom_site_fract_x
_atom_site_fract_y
_atom_site_fract_z
Si Si1 0.000000 0.248647 0.250000
Si Si2 0.071108 0.979087 0.360547
Si Si3 0.686819 0.543432 0.635577
Si Si4 0.313127 0.042878 0.009917
Si Si5 0.571623 0.977792 0.497190
O O1 0.038949 0.050975 0.282585
O O2 0.959667 0.445322 0.360432
O O3 0.053405 0.177937 0.477228
O O4 0.139243 0.011010 0.274312
O O5 0.054393 0.677538 0.415753
O O6 0.680048 0.347436 0.539282
O O7 0.749874 0.504776 0.624880
O O8 0.677800 0.846556 0.601646
O O9 0.359973 0.991825 0.055119
#
# Coordination Sequence:
#
# PCOD8144419 Si02
#       5
#     4   8   8   8   8
#     4  12  28  50  70  96 152 186 232 312 340 408
#     4  12  27  45  72 105 134 185 239 283 352 418
#     4  10  21  42  71 101 138 181 221 281 356 415
#     4  10  21  42  71 101 138 181 221 281 356 415
#     4  12  27  45  72 105 134 185 239 283 352 418
#
# _framework density 25.254836000000001
#
# number of rings (size 3 to 8) (size 9 to 14) (size 15 to 20)
#    0.000    0.889    2.222    4.000    0.000    3.556 
#    0.000    0.000    0.000    0.000    0.000    0.000 
#    0.000    0.000    0.000    0.000    0.000    0.000 
#
# Total GULP energy -223351.703747 kJ/mol
# GULP energy per Si atom -12408.427986 kJ/mol
# Density = 2.519735 g / cm^3
# Si number density = 25.254836 Si / 1000 Ang^3
#
#
#
# Elastic Constant Matrix: (Units=GPa)
#
#
# Indices 1 2 3 4 5 6 
#
# 1 85.9491 -10.3108 12.3643 0.0000 0.3940 0.0000
# 2 -10.3108 93.0715 6.9948 0.0000 5.2303 0.0000
# 3 12.3643 6.9948 102.8646 0.0000 -13.9372 0.0000
# 4 0.0000 0.0000 0.0000 28.1251 0.0000 1.8345
# 5 0.3940 5.2303 -13.9372 0.0000 40.2416 0.0000
# 6 0.0000 0.0000 0.0000 1.8345 0.0000 18.8178
#
#
#
# Elastic Compliance Matrix: (Units=1/GPa)
#
#
# Indices 1 2 3 4 5 6 
#
# 1 0.012061 0.001512 -0.001674 0.000000 -0.000894 0.000000
# 2 0.001512 0.011107 -0.001190 0.000000 -0.001871 0.000000
# 3 -0.001674 -0.001190 0.010521 0.000000 0.003815 0.000000
# 4 0.000000 0.000000 0.000000 0.035783 0.000000 -0.003488
# 5 -0.000894 -0.001871 0.003815 0.000000 0.026423 0.000000
# 6 0.000000 0.000000 0.000000 -0.003488 0.000000 0.053481
#
#
# Mechanical properties :
#
#
# Convention : Reuss Voigt Hill
#
# Bulk Modulus (GPa) = 32.27458 33.33133 32.80296
# Shear Modulus (GPa) = 30.78680 35.62603 33.20641
#
# Velocity S-wave (km/s) = 3.49527 3.75995 3.63002
# Velocity P-wave (km/s) = 5.39412 5.66360 5.53050
#
# Compressibility (1/GPa) = 0.03098414
#
# Stress axis : x y z
#
# Youngs Moduli (GPa) = 82.91131 90.03697 95.05232
#
# Poissons Ratio (x) = -0.13616 0.15909
# Poissons Ratio (y) = -0.12538 0.11316
# Poissons Ratio (z) = 0.13877 0.10719
#
# Static dielectric constant tensor:
#      x y z
#    x 4.859150 0.000000 -0.420540 
#    y 0.000000 4.567700 0.000000 
#    z -0.420540 0.000000 4.220930 
# 
# 
# High freq. dielectric constant tensor:
#      x y z
#    x 2.027950 0.000000 -0.025770 
#    y 0.000000 2.018230 0.000000 
#    z -0.025770 0.000000 1.989050 
# 
# From -- ./inp_files/124712.got.cif
#   From: 2010.06.25/outbox.cif.g09.slc.cpg/sg15_63_cif.got.tgz:124712.got - 2010.06.28 07:06:18.
