data_PCOD8144588
_publ_section_title
;
Structure prediction by ZEFSAII (Michael W. Deem and Ramdas Pophale) SiO2 
 PCOD8144588
Probable space group: C 2/C
;
_chemical_formula_sum "Si O2"
_cell_formula_units_Z 64
_cell_length_a 15.876431
_cell_length_b 27.420606
_cell_length_c 9.801397
_cell_angle_alpha 90.000000
_cell_angle_beta 43.829009
_cell_angle_gamma 90.000000
_cell_volume 2954.901622
_symmetry_space_group_name_H-M "C 2/C"
_symmetry_group_IT_number 15
_symmetry_cell_setting 'monoclinic'
loop_
_space_group_symop_operation_xyz
x,y,z
-x,y,1/2-z
-x,-y,-z
x,-y,1/2+z
1/2+x,1/2+y,z
1/2-x,1/2+y,1/2-z
1/2-x,1/2-y,-z
1/2+x,1/2-y,1/2+z
loop_
_atom_site_type_symbol
_atom_site_label
_atom_site_fract_x
_atom_site_fract_y
_atom_site_fract_z
Si Si1 0.557874 0.705622 0.538120
Si Si2 0.563571 0.357439 0.540068
Si Si3 0.303506 0.131997 0.907459
Si Si4 0.059203 0.032928 0.041367
Si Si5 0.018611 0.285304 0.377868
Si Si6 0.948644 0.568865 0.170603
Si Si7 0.837156 0.532360 0.770772
Si Si8 0.299308 0.156677 0.212667
O O1 0.500000 0.721883 0.750000
O O2 0.459980 0.674830 0.565865
O O3 0.591907 0.751616 0.399776
O O4 0.678829 0.674469 0.432801
O O5 0.500000 0.335911 0.750000
O O6 0.707142 0.358861 0.400348
O O7 0.515805 0.411773 0.566224
O O8 0.419653 0.162683 0.724678
O O9 0.333632 0.074437 0.890478
O O10 0.252776 0.147543 0.113161
O O11 0.000000 0.014205 0.250000
O O12 0.204183 0.026756 0.860827
O O13 0.000000 0.000000 0.000000
O O14 0.000000 0.259558 0.250000
O O15 0.892332 0.298047 0.600253
O O16 0.873615 0.519520 0.291601
O O17 0.859475 0.608406 0.206484
O O18 0.000000 0.591883 0.250000
O O19 0.065329 0.553437 0.948461
#
# Coordination Sequence:
#
# PCOD8144588 Si02
#       8
#     8   8   8   8   8   8   8   8
#     4  12  28  45  68 100 137 180 220 286 356 414
#     4  10  21  43  68  94 130 178 229 278 333 402
#     4  10  21  43  73  99 133 172 235 283 326 400
#     4  10  24  40  65  98 136 180 224 281 334 401
#     4  10  24  44  72 102 130 176 229 285 341 410
#     4  11  26  41  68 101 141 181 223 285 343 408
#     4  10  24  42  68 100 135 183 228 272 337 400
#     4  11  25  45  72 100 134 178 227 289 333 410
#
# _framework density 21.658928
#
# number of rings (size 3 to 8) (size 9 to 14) (size 15 to 20)
#    0.000    1.500    2.500    0.375    8.750    4.500 
#    0.000    0.000    0.000    0.000    0.000    0.000 
#    0.000    0.000    0.000    0.000    0.000    0.000 
#
# Total GULP energy -396672.218875 kJ/mol
# GULP energy per Si atom -12396.006840 kJ/mol
# Density = 2.160963 g / cm^3
# Si number density = 21.658928 Si / 1000 Ang^3
#
#
#
# Elastic Constant Matrix: (Units=GPa)
#
#
# Indices 1 2 3 4 5 6 
#
# 1 107.9203 54.6790 37.2103 0.0000 3.4250 0.0000
# 2 54.6790 109.7795 36.0155 0.0000 3.3695 0.0000
# 3 37.2103 36.0155 83.4886 0.0000 -1.6631 0.0000
# 4 0.0000 0.0000 0.0000 19.7446 0.0000 2.5566
# 5 3.4250 3.3695 -1.6631 0.0000 38.2833 0.0000
# 6 0.0000 0.0000 0.0000 2.5566 0.0000 37.1423
#
#
#
# Elastic Compliance Matrix: (Units=1/GPa)
#
#
# Indices 1 2 3 4 5 6 
#
# 1 0.013273 -0.005402 -0.003602 0.000000 -0.000868 0.000000
# 2 -0.005402 0.012859 -0.003155 0.000000 -0.000786 0.000000
# 3 -0.003602 -0.003155 0.014969 0.000000 0.001250 0.000000
# 4 0.000000 0.000000 0.000000 0.051102 0.000000 -0.003518
# 5 -0.000868 -0.000786 0.001250 0.000000 0.026322 0.000000
# 6 0.000000 0.000000 0.000000 -0.003518 0.000000 0.027166
#
#
# Mechanical properties :
#
#
# Convention : Reuss Voigt Hill
#
# Bulk Modulus (GPa) = 59.58950 61.88864 60.73907
# Shear Modulus (GPa) = 28.47295 30.58627 29.52961
#
# Velocity S-wave (km/s) = 3.62968 3.76197 3.69642
# Velocity P-wave (km/s) = 6.71852 6.89247 6.80605
#
# Compressibility (1/GPa) = 0.01678148
#
# Stress axis : x y z
#
# Youngs Moduli (GPa) = 75.34094 77.76516 66.80385
#
# Poissons Ratio (x) = 0.42013 0.24066
# Poissons Ratio (y) = 0.40703 0.21077
# Poissons Ratio (z) = 0.27141 0.24535
#
# Static dielectric constant tensor:
#      x y z
#    x 3.890700 0.000000 -0.123350 
#    y 0.000000 4.057020 0.000000 
#    z -0.123350 0.000000 3.805360 
# 
# 
# High freq. dielectric constant tensor:
#      x y z
#    x 1.851750 0.000000 -0.013250 
#    y 0.000000 1.857220 0.000000 
#    z -0.013250 0.000000 1.841050 
# 
# From -- ./inp_files/44835.got.cif
#   From: 2010.06.25/outbox.cif.g09.slc.cpg/sg15_23_cif.got.tgz:44835.got - 2010.06.28 07:06:18.
