data_PCOD8144830
_publ_section_title
;
Structure prediction by ZEFSAII (Michael W. Deem and Ramdas Pophale) SiO2 
 PCOD8144830
Probable space group: C 2/C
;
_chemical_formula_sum "Si O2"
_cell_formula_units_Z 48
_cell_length_a 15.952037
_cell_length_b 23.339614
_cell_length_c 13.696780
_cell_angle_alpha 90.000000
_cell_angle_beta 153.424546
_cell_angle_gamma 90.000000
_cell_volume 2281.397513
_symmetry_space_group_name_H-M "C 2/C"
_symmetry_group_IT_number 15
_symmetry_cell_setting 'monoclinic'
loop_
_space_group_symop_operation_xyz
x,y,z
-x,y,1/2-z
-x,-y,-z
x,-y,1/2+z
1/2+x,1/2+y,z
1/2-x,1/2+y,1/2-z
1/2-x,1/2-y,-z
1/2+x,1/2-y,1/2+z
loop_
_atom_site_type_symbol
_atom_site_label
_atom_site_fract_x
_atom_site_fract_y
_atom_site_fract_z
Si Si1 0.997410 0.831455 0.143074
Si Si2 0.982410 0.545450 0.568374
Si Si3 0.827883 0.341826 0.826025
Si Si4 0.703140 0.811437 0.495938
Si Si5 0.707347 0.564236 0.453055
Si Si6 0.908720 0.704095 0.057829
O O1 0.208255 0.823972 0.323867
O O2 0.000000 0.864980 0.250000
O O3 0.885589 0.772043 0.049589
O O4 0.867222 0.863185 0.927734
O O5 0.955782 0.605106 0.486737
O O6 0.806393 0.537162 0.459443
O O7 0.000000 0.500000 0.500000
O O8 0.174847 0.546602 0.829159
O O9 0.953232 0.302557 0.888360
O O10 0.778389 0.303433 0.868637
O O11 0.500000 0.830780 0.250000
O O12 0.750000 0.750000 0.500000
O O13 0.822841 0.866604 0.587285
O O14 0.500000 0.537518 0.250000
O O15 0.000000 0.675497 0.250000
#
# Coordination Sequence:
#
# PCOD8144830 Si02
#       6
#     8   8   8   8   8   8
#     4  11  20  35  56  85 125 167 207 251 316 390
#     4  10  23  46  67  92 129 171 219 278 339 389
#     4  11  23  38  61  90 125 171 216 265 330 382
#     4  11  23  39  60  97 137 176 219 268 327 401
#     4  10  21  45  70  96 134 172 218 279 335 403
#     4  11  20  36  57  84 128 173 209 258 317 385
#
# _framework density 21.039736000000001
#
# number of rings (size 3 to 8) (size 9 to 14) (size 15 to 20)
#    0.000    1.333    6.667    1.500    2.333    3.333 
#    3.000    0.833    0.000    0.000    0.000    0.000 
#    0.000    0.000    0.000    0.000    0.000    0.000 
#
# Total GULP energy -297456.358142 kJ/mol
# GULP energy per Si atom -12394.014923 kJ/mol
# Density = 2.099185 g / cm^3
# Si number density = 21.039736 Si / 1000 Ang^3
#
#
#
# Elastic Constant Matrix: (Units=GPa)
#
#
# Indices 1 2 3 4 5 6 
#
# 1 127.1480 43.4830 74.6907 0.0000 -14.5976 0.0000
# 2 43.4830 60.2687 14.4895 0.0000 -12.2676 0.0000
# 3 74.6907 14.4895 158.1219 0.0000 -0.4954 0.0000
# 4 0.0000 0.0000 0.0000 17.4058 0.0000 -3.1468
# 5 -14.5976 -12.2676 -0.4954 0.0000 47.4347 0.0000
# 6 0.0000 0.0000 0.0000 -3.1468 0.0000 19.2285
#
#
#
# Elastic Compliance Matrix: (Units=1/GPa)
#
#
# Indices 1 2 3 4 5 6 
#
# 1 0.014690 -0.008673 -0.006137 0.000000 0.002214 0.000000
# 2 -0.008673 0.023044 0.001995 0.000000 0.003312 0.000000
# 3 -0.006137 0.001995 0.009036 0.000000 -0.001278 0.000000
# 4 0.000000 0.000000 0.000000 0.059204 0.000000 0.009689
# 5 0.002214 0.003312 -0.001278 0.000000 0.022606 0.000000
# 6 0.000000 0.000000 0.000000 0.009689 0.000000 0.053592
#
#
# Mechanical properties :
#
#
# Convention : Reuss Voigt Hill
#
# Bulk Modulus (GPa) = 47.30110 67.87388 57.58749
# Shear Modulus (GPa) = 23.27217 31.00548 27.13883
#
# Velocity S-wave (km/s) = 3.32942 3.84300 3.59539
# Velocity P-wave (km/s) = 6.10825 7.21259 6.68327
#
# Compressibility (1/GPa) = 0.02114116
#
# Stress axis : x y z
#
# Youngs Moduli (GPa) = 68.07216 43.39543 110.66243
#
# Poissons Ratio (x) = 0.37635 0.67919
# Poissons Ratio (y) = 0.59037 -0.22081
# Poissons Ratio (z) = 0.41779 -0.08659
#
# Static dielectric constant tensor:
#      x y z
#    x 3.855570 0.000000 -0.322810 
#    y 0.000000 3.388230 0.000000 
#    z -0.322810 0.000000 4.456250 
# 
# 
# High freq. dielectric constant tensor:
#      x y z
#    x 1.831820 0.000000 -0.006090 
#    y 0.000000 1.770820 0.000000 
#    z -0.006090 0.000000 1.848300 
# 
# From -- ./inp_files/101397.got.cif
#   From: 2010.06.25/outbox.cif.g09.slc.cpg/sg15_51_cif.got.tgz:101397.got - 2010.06.28 07:06:18.
