data_PCOD8144537
_publ_section_title
;
Structure prediction by ZEFSAII (Michael W. Deem and Ramdas Pophale) SiO2 
 PCOD8144537
Probable space group: C 2/C
;
_chemical_formula_sum "Si O2"
_cell_formula_units_Z 56
_cell_length_a 17.434677
_cell_length_b 5.076391
_cell_length_c 29.137783
_cell_angle_alpha 90.000000
_cell_angle_beta 77.228720
_cell_angle_gamma 90.000000
_cell_volume 2515.046477
_symmetry_space_group_name_H-M "C 2/C"
_symmetry_group_IT_number 15
_symmetry_cell_setting 'monoclinic'
loop_
_space_group_symop_operation_xyz
x,y,z
-x,y,1/2-z
-x,-y,-z
x,-y,1/2+z
1/2+x,1/2+y,z
1/2-x,1/2+y,1/2-z
1/2-x,1/2-y,-z
1/2+x,1/2-y,1/2+z
loop_
_atom_site_type_symbol
_atom_site_label
_atom_site_fract_x
_atom_site_fract_y
_atom_site_fract_z
Si Si1 0.214838 0.238020 0.275682
Si Si2 0.970093 0.198914 0.203174
Si Si3 0.818525 0.691152 0.424887
Si Si4 0.481232 0.189166 0.358289
Si Si5 0.112343 0.455932 0.905253
Si Si6 0.202018 0.974134 0.872710
Si Si7 0.696143 0.947918 0.980203
O O1 0.256191 0.520092 0.264339
O O2 0.121277 0.276906 0.284853
O O3 0.242785 0.133908 0.321524
O O4 0.019468 0.447124 0.177506
O O5 0.000000 0.130857 0.250000
O O6 0.980095 0.944242 0.169788
O O7 0.768684 0.473043 0.402960
O O8 0.841414 0.625389 0.474500
O O9 0.894180 0.770548 0.385629
O O10 0.755435 0.924798 0.435594
O O11 0.524124 0.089186 0.399133
O O12 0.134663 0.762612 0.896727
O O13 0.123630 0.355398 0.957188
O O14 0.164508 0.258737 0.866998
O O15 0.750000 0.750000 0.000000
#
# Coordination Sequence:
#
# PCOD8144537 Si02
#       7
#     8   8   8   8   8   8   8
#     4  12  25  42  69  97 126 171 226 267 328 392
#     4  12  28  47  66  97 140 173 215 282 332 387
#     4  10  25  39  69  99 130 177 220 271 326 397
#     4  12  25  46  67 100 135 174 221 266 341 394
#     4  11  21  42  68  89 133 174 206 274 323 384
#     4  11  22  42  64  94 128 172 218 265 321 387
#     4  10  21  43  66  97 136 168 225 271 323 386
#
# _framework density 22.265989000000001
#
# number of rings (size 3 to 8) (size 9 to 14) (size 15 to 20)
#    0.000    0.857    4.286    2.143    6.000    0.571 
#    0.000    0.714    0.000    0.000    0.000    0.000 
#    0.000    0.000    0.000    0.000    0.000    0.000 
#
# Total GULP energy -346986.344579 kJ/mol
# GULP energy per Si atom -12392.369449 kJ/mol
# Density = 2.221531 g / cm^3
# Si number density = 22.265989 Si / 1000 Ang^3
#
#
#
# Elastic Constant Matrix: (Units=GPa)
#
#
# Indices 1 2 3 4 5 6 
#
# 1 85.0667 1.7423 41.8884 -0.0012 3.4681 0.0024
# 2 1.7423 73.8263 9.6095 0.0003 -8.0099 0.0057
# 3 41.8884 9.6095 89.5240 -0.0003 5.5685 0.0001
# 4 -0.0012 0.0003 -0.0003 28.2606 -0.0009 10.3786
# 5 3.4681 -8.0099 5.5685 -0.0009 44.7046 -0.0012
# 6 0.0024 0.0057 0.0001 10.3786 -0.0012 20.1507
#
#
#
# Elastic Compliance Matrix: (Units=1/GPa)
#
#
# Indices 1 2 3 4 5 6 
#
# 1 0.015301 0.000556 -0.007207 0.000002 -0.000190 -0.000003
# 2 0.000556 0.014080 -0.001941 0.000002 0.002721 -0.000005
# 3 -0.007207 -0.001941 0.014853 -0.000001 -0.001639 0.000002
# 4 0.000002 0.000002 -0.000001 0.043639 0.000001 -0.022476
# 5 -0.000190 0.002721 -0.001639 0.000001 0.023075 0.000000
# 6 -0.000003 -0.000005 0.000002 -0.022476 0.000000 0.061203
#
#
# Mechanical properties :
#
#
# Convention : Reuss Voigt Hill
#
# Bulk Modulus (GPa) = 36.96843 39.43304 38.20074
# Shear Modulus (GPa) = 25.20784 31.63497 28.42141
#
# Velocity S-wave (km/s) = 3.36835 3.77341 3.57662
# Velocity P-wave (km/s) = 5.63621 6.06079 5.85236
#
# Compressibility (1/GPa) = 0.02705011
#
# Stress axis : x y z
#
# Youngs Moduli (GPa) = 65.35630 71.02232 67.32777
#
# Poissons Ratio (x) = -0.03952 0.48524
# Poissons Ratio (y) = -0.03637 0.13068
# Poissons Ratio (z) = 0.47103 0.13785
#
# Static dielectric constant tensor:
#      x y z
#    x -14.071770 -0.001710 -26.206420 
#    y -0.001710 4.052210 -0.002540 
#    z -26.206420 -0.002540 -34.814540 
# 
# 
# High freq. dielectric constant tensor:
#      x y z
#    x 1.866340 0.000000 0.026470 
#    y 0.000000 1.878720 0.000000 
#    z 0.026470 0.000000 1.882100 
# 
# From -- ./inp_files/297736.got.cif
#   From: 2010.06.25/outbox.cif.g09.slc.cpg/sg15_149_cif.got.tgz:297736.got - 2010.06.28 07:06:18.
