data_PCOD8144083
_publ_section_title
;
Structure prediction by ZEFSAII (Michael W. Deem and Ramdas Pophale) SiO2 
 PCOD8144083
Probable space group: C 2/C
;
_chemical_formula_sum "Si O2"
_cell_formula_units_Z 60
_cell_length_a 6.577586
_cell_length_b 27.337420
_cell_length_c 16.672154
_cell_angle_alpha 90.000000
_cell_angle_beta 109.485791
_cell_angle_gamma 90.000000
_cell_volume 2826.184104
_symmetry_space_group_name_H-M "C 2/C"
_symmetry_group_IT_number 15
_symmetry_cell_setting 'monoclinic'
loop_
_space_group_symop_operation_xyz
x,y,z
-x,y,1/2-z
-x,-y,-z
x,-y,1/2+z
1/2+x,1/2+y,z
1/2-x,1/2+y,1/2-z
1/2-x,1/2-y,-z
1/2+x,1/2-y,1/2+z
loop_
_atom_site_type_symbol
_atom_site_label
_atom_site_fract_x
_atom_site_fract_y
_atom_site_fract_z
Si Si1 0.811002 0.539912 0.892431
Si Si2 0.367310 0.651137 0.152209
Si Si3 0.749989 0.441132 0.969659
Si Si4 0.401493 0.406902 0.388688
Si Si5 0.717718 0.297673 0.102549
Si Si6 0.049706 0.237904 0.074374
Si Si7 0.000000 0.555335 0.750000
Si Si8 0.475616 0.778803 0.836640
O O1 0.709391 0.491065 0.916287
O O2 0.618485 0.580262 0.867707
O O3 0.904689 0.526251 0.815368
O O4 0.998035 0.562524 0.972906
O O5 0.500000 0.637985 0.250000
O O6 0.326100 0.602100 0.097257
O O7 0.506882 0.689313 0.120547
O O8 0.131700 0.674264 0.135394
O O9 0.609827 0.440761 0.033299
O O10 0.379712 0.351317 0.414665
O O11 0.196560 0.411543 0.304102
O O12 0.680981 0.269517 0.182228
O O13 0.966496 0.288532 0.107809
O O14 0.573108 0.263537 0.025656
O O15 0.302997 0.238319 0.092924
O O16 0.500000 0.795729 0.750000
#
# Coordination Sequence:
#
# PCOD8144083 Si02
#       8
#     8   8   8   8   8   8   4   8
#     4  10  23  44  67  94 130 168 215 271 329 391
#     4  11  22  39  62  91 130 167 214 269 326 382
#     4  10  23  42  66  96 126 168 217 272 330 389
#     4  11  22  41  67  95 125 170 213 269 318 391
#     4  10  23  37  64  88 120 168 211 258 315 382
#     4  10  21  42  57  88 125 162 208 262 314 379
#     4  10  24  42  62  94 132 160 212 266 318 378
#     4  11  23  37  59  89 128 169 208 262 316 383
#
# _framework density 21.230038
#
# number of rings (size 3 to 8) (size 9 to 14) (size 15 to 20)
#    0.000    1.600    2.667    1.200    1.867    5.333 
#    1.200    0.000    0.000    0.000    0.000    0.000 
#    0.000    0.000    0.000    0.000    0.000    0.000 
#
# Total GULP energy -371707.197541 kJ/mol
# GULP energy per Si atom -12390.239918 kJ/mol
# Density = 2.118172 g / cm^3
# Si number density = 21.230038 Si / 1000 Ang^3
#
#
#
# Elastic Constant Matrix: (Units=GPa)
#
#
# Indices 1 2 3 4 5 6 
#
# 1 122.1042 35.7917 29.9805 0.0000 -0.4198 0.0000
# 2 35.7917 93.9472 24.6161 0.0000 -10.2660 0.0000
# 3 29.9805 24.6161 79.3448 0.0000 -3.6590 0.0000
# 4 0.0000 0.0000 0.0000 22.6660 0.0000 -2.8293
# 5 -0.4198 -10.2660 -3.6590 0.0000 33.7257 0.0000
# 6 0.0000 0.0000 0.0000 -2.8293 0.0000 23.8456
#
#
#
# Elastic Compliance Matrix: (Units=1/GPa)
#
#
# Indices 1 2 3 4 5 6 
#
# 1 0.009784 -0.003122 -0.002780 0.000000 -0.001130 0.000000
# 2 -0.003122 0.012926 -0.002664 0.000000 0.003607 0.000000
# 3 -0.002780 -0.002664 0.014514 0.000000 0.000729 0.000000
# 4 0.000000 0.000000 0.000000 0.044782 0.000000 0.005313
# 5 -0.001130 0.003607 0.000729 0.000000 0.030814 0.000000
# 6 0.000000 0.000000 0.000000 0.005313 0.000000 0.042567
#
#
# Mechanical properties :
#
#
# Convention : Reuss Voigt Hill
#
# Bulk Modulus (GPa) = 49.77546 52.90809 51.34178
# Shear Modulus (GPa) = 27.89920 29.71466 28.80693
#
# Velocity S-wave (km/s) = 3.62904 3.74525 3.68760
# Velocity P-wave (km/s) = 6.40754 6.60893 6.50901
#
# Compressibility (1/GPa) = 0.02009022
#
# Stress axis : x y z
#
# Youngs Moduli (GPa) = 102.21063 77.36344 68.89966
#
# Poissons Ratio (x) = 0.24156 0.19156
# Poissons Ratio (y) = 0.31914 0.18355
# Poissons Ratio (z) = 0.28417 0.20610
#
# Static dielectric constant tensor:
#      x y z
#    x 4.118060 0.000000 -0.138640 
#    y 0.000000 3.495890 0.000000 
#    z -0.138640 0.000000 3.991840 
# 
# 
# High freq. dielectric constant tensor:
#      x y z
#    x 1.846740 0.000000 -0.010130 
#    y 0.000000 1.806930 0.000000 
#    z -0.010130 0.000000 1.841280 
# 
# From -- ./inp_files/186759.got.cif
#   From: 2010.06.25/outbox.cif.g09.slc.cpg/sg15_94_cif.got.tgz:186759.got - 2010.06.28 07:06:18.
