data_PCOD8144618
_publ_section_title
;
Structure prediction by ZEFSAII (Michael W. Deem and Ramdas Pophale) SiO2 
 PCOD8144618
Probable space group: C 2/C
;
_chemical_formula_sum "Si O2"
_cell_formula_units_Z 44
_cell_length_a 27.439982
_cell_length_b 10.742059
_cell_length_c 20.778932
_cell_angle_alpha 90.000000
_cell_angle_beta 18.804684
_cell_angle_gamma 90.000000
_cell_volume 1974.299038
_symmetry_space_group_name_H-M "C 2/C"
_symmetry_group_IT_number 15
_symmetry_cell_setting 'monoclinic'
loop_
_space_group_symop_operation_xyz
x,y,z
-x,y,1/2-z
-x,-y,-z
x,-y,1/2+z
1/2+x,1/2+y,z
1/2-x,1/2+y,1/2-z
1/2-x,1/2-y,-z
1/2+x,1/2-y,1/2+z
loop_
_atom_site_type_symbol
_atom_site_label
_atom_site_fract_x
_atom_site_fract_y
_atom_site_fract_z
Si Si1 0.672485 0.740182 0.923618
Si Si2 0.022574 0.997373 0.648382
Si Si3 0.244760 0.792459 0.900545
Si Si4 0.500000 0.867261 0.250000
Si Si5 0.300916 0.075659 0.460865
Si Si6 0.485504 0.851859 0.500885
O O1 0.853345 0.719441 0.699348
O O2 0.600126 0.604153 0.005943
O O3 0.618853 0.788226 0.060422
O O4 0.605862 0.832285 0.952166
O O5 0.000000 0.950663 0.750000
O O6 0.120830 0.121948 0.522251
O O7 0.864332 0.027376 0.814629
O O8 0.160459 0.663283 0.025453
O O9 0.386851 0.777003 0.676233
O O10 0.311841 0.850695 0.881337
O O11 0.407448 0.957166 0.318171
O O12 0.500000 0.000000 0.500000
#
# Coordination Sequence:
#
# PCOD8144618 Si02
#       6
#     8   8   8   4   8   8
#     4  12  27  45  74 102 146 196 237 301 364 428
#     4  10  21  43  69  98 134 183 239 293 351 415
#     4  10  23  43  68  98 140 179 238 293 356 423
#     4  12  26  44  68 108 140 182 250 290 356 434
#     4  10  24  40  71 100 136 184 238 296 350 421
#     4  12  27  46  71 108 150 193 238 298 370 434
#
# _framework density 22.286391999999999
#
# number of rings (size 3 to 8) (size 9 to 14) (size 15 to 20)
#    0.000    1.091    2.727    2.182   11.455    2.909 
#    0.000    2.727    0.000    0.000    0.000    0.000 
#    0.000    0.000    0.000    0.000    0.000    0.000 
#
# Total GULP energy -272683.722680 kJ/mol
# GULP energy per Si atom -12394.714667 kJ/mol
# Density = 2.223567 g / cm^3
# Si number density = 22.286392 Si / 1000 Ang^3
#
#
#
# Elastic Constant Matrix: (Units=GPa)
#
#
# Indices 1 2 3 4 5 6 
#
# 1 40.5396 0.4314 27.3453 0.0037 -23.1745 0.0032
# 2 0.4314 68.3802 28.4783 0.0036 -24.2550 0.0031
# 3 27.3453 28.4783 143.0611 0.0000 4.3562 0.0015
# 4 0.0037 0.0036 0.0000 -11.3626 0.0030 -35.2023
# 5 -23.1745 -24.2550 4.3562 0.0030 21.6721 0.0010
# 6 0.0032 0.0031 0.0015 -35.2023 0.0010 9.1290
#
#
#
# Elastic Compliance Matrix: (Units=1/GPa)
#
#
# Indices 1 2 3 4 5 6 
#
# 1 -0.041556 -0.041061 0.018986 -0.000012 -0.094208 -0.000012
# 2 -0.041061 -0.010641 0.011738 -0.000008 -0.058176 -0.000008
# 3 0.018986 0.011738 0.000006 0.000005 0.033438 0.000004
# 4 -0.000012 -0.000008 0.000005 -0.006798 -0.000021 -0.026213
# 5 -0.094208 -0.058176 0.033438 -0.000021 -0.126427 -0.000020
# 6 -0.000012 -0.000008 0.000004 -0.026213 -0.000020 0.008461
#
#
# Mechanical properties :
#
#
# Convention : Reuss Voigt Hill
#
# Bulk Modulus (GPa) = -13.72393 40.49901 13.38754
# Shear Modulus (GPa) = -27.69018 16.93610 -5.37704
#
# Velocity S-wave (km/s) = -3.52869 2.75967 -1.55497
# Velocity P-wave (km/s) = 4.77217 5.32597 1.67217
#
# Compressibility (1/GPa) = -0.07286542
#
# Stress axis : x y z
#
# Youngs Moduli (GPa) = -24.06368 -93.97698 161301.59424
#
# Poissons Ratio (x) = -3.85879 -3062.41247
# Poissons Ratio (y) = -0.98808 -1893.39663
# Poissons Ratio (z) = 0.45686 1.10312
#
# Static dielectric constant tensor:
#      x y z
#    x 3.819470 0.000000 0.000340 
#    y 0.000000 4.203290 0.000000 
#    z 0.000340 0.000000 4.262270 
# 
# 
# High freq. dielectric constant tensor:
#      x y z
#    x 1.856250 0.000000 -0.002560 
#    y 0.000000 1.883720 0.000000 
#    z -0.002560 0.000000 1.897490 
# 
# From -- ./inp_files/257474.got.cif
#   From: 2010.06.25/outbox.cif.g09.slc.cpg/sg15_129_cif.got.tgz:257474.got - 2010.06.28 07:06:18.
