data_PCOD8144560
_publ_section_title
;
Structure prediction by ZEFSAII (Michael W. Deem and Ramdas Pophale) SiO2 
 PCOD8144560
Probable space group: C 2/C
;
_chemical_formula_sum "Si O2"
_cell_formula_units_Z 48
_cell_length_a 15.651053
_cell_length_b 16.829268
_cell_length_c 15.952733
_cell_angle_alpha 90.000000
_cell_angle_beta 147.315862
_cell_angle_gamma 90.000000
_cell_volume 2269.047262
_symmetry_space_group_name_H-M "C 2/C"
_symmetry_group_IT_number 15
_symmetry_cell_setting 'monoclinic'
loop_
_space_group_symop_operation_xyz
x,y,z
-x,y,1/2-z
-x,-y,-z
x,-y,1/2+z
1/2+x,1/2+y,z
1/2-x,1/2+y,1/2-z
1/2-x,1/2-y,-z
1/2+x,1/2-y,1/2+z
loop_
_atom_site_type_symbol
_atom_site_label
_atom_site_fract_x
_atom_site_fract_y
_atom_site_fract_z
Si Si1 0.738291 0.799042 0.903715
Si Si2 0.092125 0.161159 0.686502
Si Si3 0.323020 0.661620 0.923151
Si Si4 0.619915 0.315581 0.775664
Si Si5 0.233569 0.555365 0.993392
Si Si6 0.500000 0.449247 0.250000
Si Si7 0.000000 0.565579 0.250000
O O1 0.667657 0.745124 0.772595
O O2 0.630657 0.877896 0.816862
O O3 0.750000 0.750000 0.000000
O O4 0.908420 0.827448 0.015733
O O5 0.176095 0.128606 0.671536
O O6 0.113092 0.102142 0.782380
O O7 0.246037 0.748497 0.858361
O O8 0.506601 0.664254 0.104005
O O9 0.212573 0.607721 0.891662
O O10 0.500000 0.288267 0.750000
O O11 0.727919 0.390940 0.893402
O O12 0.387717 0.502562 0.100054
O O13 0.085399 0.495824 0.885885
#
# Coordination Sequence:
#
# PCOD8144560 Si02
#       7
#     8   8   8   8   8   4   4
#     4  12  21  42  66  91 124 173 218 256 314 389
#     4  12  24  40  67  94 127 166 222 263 317 375
#     4  11  24  41  65  99 126 165 221 275 307 379
#     4  10  21  43  67  93 127 173 215 259 323 386
#     4  11  23  41  65  92 127 169 210 259 331 389
#     4  12  21  42  65  86 124 178 204 252 325 404
#     4  12  23  38  67  98 122 166 220 258 319 396
#
# _framework density 21.154253000000001
#
# number of rings (size 3 to 8) (size 9 to 14) (size 15 to 20)
#    0.000    0.667    7.500    3.000    3.500    0.667 
#    0.000    0.000    0.000    6.000    0.000    0.000 
#    0.000    0.000    0.000    0.000    0.000    0.000 
#
# Total GULP energy -297435.959978 kJ/mol
# GULP energy per Si atom -12393.164999 kJ/mol
# Density = 2.110610 g / cm^3
# Si number density = 21.154253 Si / 1000 Ang^3
#
#
#
# Elastic Constant Matrix: (Units=GPa)
#
#
# Indices 1 2 3 4 5 6 
#
# 1 69.3975 23.3835 15.9893 0.0031 -22.4536 0.0031
# 2 23.3835 102.2294 33.0714 0.0037 -5.6666 0.0028
# 3 15.9893 33.0714 80.4425 0.0037 0.0571 0.0029
# 4 0.0031 0.0037 0.0037 64.7326 0.0011 12.0351
# 5 -22.4536 -5.6666 0.0571 0.0011 30.7975 0.0011
# 6 0.0031 0.0028 0.0029 12.0351 0.0011 6.8715
#
#
#
# Elastic Compliance Matrix: (Units=1/GPa)
#
#
# Indices 1 2 3 4 5 6 
#
# 1 0.020832 -0.003011 -0.002913 0.000001 0.014640 -0.000012
# 2 -0.003011 0.011853 -0.004275 0.000000 -0.000007 -0.000002
# 3 -0.002913 -0.004275 0.014770 0.000000 -0.002938 -0.000003
# 4 0.000001 0.000000 0.000000 0.022908 0.000002 -0.040121
# 5 0.014640 -0.000007 -0.002938 0.000002 0.043148 -0.000015
# 6 -0.000012 -0.000002 -0.000003 -0.040121 -0.000015 0.215800
#
#
# Mechanical properties :
#
#
# Convention : Reuss Voigt Hill
#
# Bulk Modulus (GPa) = 36.95860 44.10641 40.53251
# Shear Modulus (GPa) = 13.93817 32.45531 23.19674
#
# Velocity S-wave (km/s) = 2.56966 3.92116 3.31502
# Velocity P-wave (km/s) = 5.12963 6.43396 5.81846
#
# Compressibility (1/GPa) = 0.02705730
#
# Stress axis : x y z
#
# Youngs Moduli (GPa) = 48.00254 84.36589 67.70613
#
# Poissons Ratio (x) = 0.25404 0.19724
# Poissons Ratio (y) = 0.14454 0.28941
# Poissons Ratio (z) = 0.13984 0.36062
#
# Static dielectric constant tensor:
#      x y z
#    x 3.549460 0.000010 0.076210 
#    y 0.000010 4.087970 0.000020 
#    z 0.076210 0.000020 4.168000 
# 
# 
# High freq. dielectric constant tensor:
#      x y z
#    x 1.789590 0.000000 0.005300 
#    y 0.000000 1.838620 0.000000 
#    z 0.005300 0.000000 1.844530 
# 
# From -- ./inp_files/56452.got.cif
#   From: 2010.06.25/outbox.cif.g09.slc.cpg/sg15_29_cif.got.tgz:56452.got - 2010.06.28 07:06:18.
