data_PCOD8144344
_publ_section_title
;
Structure prediction by ZEFSAII (Michael W. Deem and Ramdas Pophale) SiO2 
 PCOD8144344
Probable space group: C 2/C
;
_chemical_formula_sum "Si O2"
_cell_formula_units_Z 44
_cell_length_a 7.488277
_cell_length_b 18.203060
_cell_length_c 19.077609
_cell_angle_alpha 90.000000
_cell_angle_beta 129.522826
_cell_angle_gamma 90.000000
_cell_volume 2005.920043
_symmetry_space_group_name_H-M "C 2/C"
_symmetry_group_IT_number 15
_symmetry_cell_setting 'monoclinic'
loop_
_space_group_symop_operation_xyz
x,y,z
-x,y,1/2-z
-x,-y,-z
x,-y,1/2+z
1/2+x,1/2+y,z
1/2-x,1/2+y,1/2-z
1/2-x,1/2-y,-z
1/2+x,1/2-y,1/2+z
loop_
_atom_site_type_symbol
_atom_site_label
_atom_site_fract_x
_atom_site_fract_y
_atom_site_fract_z
Si Si1 0.936440 0.877709 0.504018
Si Si2 0.452031 0.148441 0.818960
Si Si3 0.769879 0.204732 0.318239
Si Si4 0.646509 0.004572 0.640521
Si Si5 0.000000 0.121267 0.250000
Si Si6 0.324349 0.475386 0.037000
O O1 0.680802 0.846234 0.425607
O O2 0.111838 0.815963 0.577534
O O3 0.015198 0.908476 0.447741
O O4 0.946695 0.944574 0.563530
O O5 0.500000 0.165394 0.750000
O O6 0.275862 0.207991 0.807040
O O7 0.332356 0.067567 0.794744
O O8 0.500000 0.178811 0.250000
O O9 0.939237 0.171147 0.301211
O O10 0.736067 0.042935 0.591939
O O11 0.383016 0.979686 0.570489
O O12 0.779735 0.930551 0.688222
#
# Coordination Sequence:
#
# PCOD8144344 Si02
#       6
#     8   8   8   8   4   8
#     4  10  21  42  68  95 133 179 222 278 341 402
#     4  11  26  44  67  98 141 177 227 283 342 404
#     4  12  26  46  68 100 138 182 227 282 343 406
#     4  10  22  38  67  97 132 175 222 284 338 397
#     4  12  24  42  72  96 138 176 234 276 340 404
#     4   9  19  39  64 100 129 167 232 280 326 407
#
# _framework density 21.935071000000001
#
# number of rings (size 3 to 8) (size 9 to 14) (size 15 to 20)
#    0.000    1.455    2.727    1.636    3.818    2.182 
#    0.000    1.818    0.000    0.000    0.000    0.000 
#    0.000    0.000    0.000    0.000    0.000    0.000 
#
# Total GULP energy -272734.391415 kJ/mol
# GULP energy per Si atom -12397.017792 kJ/mol
# Density = 2.188515 g / cm^3
# Si number density = 21.935071 Si / 1000 Ang^3
#
#
#
# Elastic Constant Matrix: (Units=GPa)
#
#
# Indices 1 2 3 4 5 6 
#
# 1 73.5852 15.2752 12.1323 0.0000 5.2645 0.0000
# 2 15.2752 74.7677 14.5392 0.0000 0.4361 0.0000
# 3 12.1323 14.5392 58.6797 0.0000 -1.2150 0.0000
# 4 0.0000 0.0000 0.0000 27.1532 0.0000 4.9353
# 5 5.2645 0.4361 -1.2150 0.0000 27.5624 0.0000
# 6 0.0000 0.0000 0.0000 4.9353 0.0000 43.5069
#
#
#
# Elastic Compliance Matrix: (Units=1/GPa)
#
#
# Indices 1 2 3 4 5 6 
#
# 1 0.014726 -0.002509 -0.002483 0.000000 -0.002882 0.000000
# 2 -0.002509 0.014483 -0.003067 0.000000 0.000115 0.000000
# 3 -0.002483 -0.003067 0.018343 0.000000 0.001331 0.000000
# 4 0.000000 0.000000 0.000000 0.037603 0.000000 -0.004266
# 5 -0.002882 0.000115 0.001331 0.000000 0.036889 0.000000
# 6 0.000000 0.000000 0.000000 -0.004266 0.000000 0.023469
#
#
# Mechanical properties :
#
#
# Convention : Reuss Voigt Hill
#
# Bulk Modulus (GPa) = 31.81307 32.32511 32.06909
# Shear Modulus (GPa) = 29.05141 30.65024 29.85082
#
# Velocity S-wave (km/s) = 3.64322 3.74212 3.69300
# Velocity P-wave (km/s) = 5.67734 5.78274 5.73028
#
# Compressibility (1/GPa) = 0.03143362
#
# Stress axis : x y z
#
# Youngs Moduli (GPa) = 67.90681 69.04572 54.51802
#
# Poissons Ratio (x) = 0.17323 0.13535
# Poissons Ratio (y) = 0.17038 0.16723
# Poissons Ratio (z) = 0.16859 0.21179
#
# Static dielectric constant tensor:
#      x y z
#    x 4.027710 0.000000 0.144870 
#    y 0.000000 3.835990 0.000000 
#    z 0.144870 0.000000 3.821290 
# 
# 
# High freq. dielectric constant tensor:
#      x y z
#    x 1.870480 0.000000 0.004910 
#    y 0.000000 1.855460 0.000000 
#    z 0.004910 0.000000 1.851300 
# 
# From -- ./inp_files/232377.got.cif
#   From: 2010.06.25/outbox.cif.g09.slc.cpg/sg15_117_cif.got.tgz:232377.got - 2010.06.28 07:06:18.
