data_PCOD8144624
_publ_section_title
;
Structure prediction by ZEFSAII (Michael W. Deem and Ramdas Pophale) SiO2 
 PCOD8144624
Probable space group: C 2/C
;
_chemical_formula_sum "Si O2"
_cell_formula_units_Z 64
_cell_length_a 6.766114
_cell_length_b 17.326005
_cell_length_c 27.124714
_cell_angle_alpha 90.000000
_cell_angle_beta 85.265858
_cell_angle_gamma 90.000000
_cell_volume 3168.974427
_symmetry_space_group_name_H-M "C 2/C"
_symmetry_group_IT_number 15
_symmetry_cell_setting 'monoclinic'
loop_
_space_group_symop_operation_xyz
x,y,z
-x,y,1/2-z
-x,-y,-z
x,-y,1/2+z
1/2+x,1/2+y,z
1/2-x,1/2+y,1/2-z
1/2-x,1/2-y,-z
1/2+x,1/2-y,1/2+z
loop_
_atom_site_type_symbol
_atom_site_label
_atom_site_fract_x
_atom_site_fract_y
_atom_site_fract_z
Si Si1 0.795995 0.978167 0.527771
Si Si2 0.461189 0.961306 0.650269
Si Si3 0.631056 0.628997 0.198170
Si Si4 0.695027 0.800050 0.367784
Si Si5 0.078364 0.613070 0.696515
Si Si6 0.170871 0.870465 0.881565
Si Si7 0.071173 0.558569 0.936370
Si Si8 0.911484 0.225861 0.698198
O O1 0.856345 0.917441 0.568129
O O2 0.662163 0.939312 0.488660
O O3 0.670596 0.050954 0.552692
O O4 0.000000 0.000000 0.500000
O O5 0.292036 0.940663 0.693784
O O6 0.609658 0.888441 0.644630
O O7 0.583369 0.038131 0.661911
O O8 0.367685 0.983267 0.598259
O O9 0.500000 0.630250 0.250000
O O10 0.489921 0.607959 0.155932
O O11 0.752733 0.707916 0.187700
O O12 0.563943 0.819580 0.322297
O O13 0.636632 0.719425 0.393888
O O14 0.653101 0.864410 0.409387
O O15 0.921232 0.787856 0.346239
O O16 0.298610 0.644460 0.699775
O O17 0.000000 0.584557 0.750000
O O18 0.000000 0.244982 0.750000
#
# Coordination Sequence:
#
# PCOD8144624 Si02
#       8
#     8   8   8   8   8   8   8   8
#     4  10  21  43  70  91 126 163 206 263 330 390
#     4  10  24  41  62  91 131 165 211 266 316 371
#     4  12  25  39  64  93 130 173 219 259 310 376
#     4  11  22  41  65  92 129 167 213 267 315 374
#     4  11  23  40  58  89 126 166 216 266 307 373
#     4  11  23  42  66  94 124 170 213 258 321 382
#     4   9  22  42  64  95 126 160 209 265 326 381
#     4  12  23  40  65  87 126 180 217 253 320 372
#
# _framework density 20.195808
#
# number of rings (size 3 to 8) (size 9 to 14) (size 15 to 20)
#    0.000    1.250    3.750    1.875    1.750    5.500 
#    0.000    0.625    0.000    0.000    0.000    0.000 
#    0.000    0.000    0.000    0.000    0.000    0.000 
#
# Total GULP energy -396559.578898 kJ/mol
# GULP energy per Si atom -12392.486841 kJ/mol
# Density = 2.014984 g / cm^3
# Si number density = 20.195808 Si / 1000 Ang^3
#
#
#
# Elastic Constant Matrix: (Units=GPa)
#
#
# Indices 1 2 3 4 5 6 
#
# 1 103.7278 50.3807 56.7462 0.0000 -18.5837 0.0000
# 2 50.3807 106.8386 44.7290 0.0000 -4.5472 0.0000
# 3 56.7462 44.7290 122.5071 0.0000 -4.6625 0.0000
# 4 0.0000 0.0000 0.0000 28.9435 0.0000 -3.4092
# 5 -18.5837 -4.5472 -4.6625 0.0000 45.6717 0.0000
# 6 0.0000 0.0000 0.0000 -3.4092 0.0000 26.3455
#
#
#
# Elastic Compliance Matrix: (Units=1/GPa)
#
#
# Indices 1 2 3 4 5 6 
#
# 1 0.016016 -0.005077 -0.005357 0.000000 0.005465 0.000000
# 2 -0.005077 0.012680 -0.002317 0.000000 -0.001040 0.000000
# 3 -0.005357 -0.002317 0.011443 0.000000 -0.001242 0.000000
# 4 0.000000 0.000000 0.000000 0.035085 0.000000 0.004540
# 5 0.005465 -0.001040 -0.001242 0.000000 0.023889 0.000000
# 6 0.000000 0.000000 0.000000 0.004540 0.000000 0.038545
#
#
# Mechanical properties :
#
#
# Convention : Reuss Voigt Hill
#
# Bulk Modulus (GPa) = 68.32518 70.75393 69.53956
# Shear Modulus (GPa) = 29.75481 32.27330 31.01406
#
# Velocity S-wave (km/s) = 3.84254 4.00186 3.92301
# Velocity P-wave (km/s) = 7.32063 7.51420 7.41805
#
# Compressibility (1/GPa) = 0.01463589
#
# Stress axis : x y z
#
# Youngs Moduli (GPa) = 62.43586 78.86376 87.38877
#
# Poissons Ratio (x) = 0.40041 0.46816
# Poissons Ratio (y) = 0.31700 0.20252
# Poissons Ratio (z) = 0.33448 0.18276
#
# Static dielectric constant tensor:
#      x y z
#    x 4.810650 0.000000 0.804580 
#    y 0.000000 3.601940 0.000000 
#    z 0.804580 0.000000 4.411320 
# 
# 
# High freq. dielectric constant tensor:
#      x y z
#    x 1.798220 0.000000 -0.000690 
#    y 0.000000 1.781370 0.000000 
#    z -0.000690 0.000000 1.791790 
# 
# From -- ./inp_files/305793.got.cif
#   From: 2010.06.25/outbox.cif.g09.slc.cpg/sg15_153_cif.got.tgz:305793.got - 2010.06.28 07:06:18.
