data_PCOD8144610
_publ_section_title
;
Structure prediction by ZEFSAII (Michael W. Deem and Ramdas Pophale) SiO2 
 PCOD8144610
Probable space group: C 2/C
;
_chemical_formula_sum "Si O2"
_cell_formula_units_Z 44
_cell_length_a 10.199612
_cell_length_b 28.224545
_cell_length_c 10.436170
_cell_angle_alpha 90.000000
_cell_angle_beta 136.079548
_cell_angle_gamma 90.000000
_cell_volume 2084.000236
_symmetry_space_group_name_H-M "C 2/C"
_symmetry_group_IT_number 15
_symmetry_cell_setting 'monoclinic'
loop_
_space_group_symop_operation_xyz
x,y,z
-x,y,1/2-z
-x,-y,-z
x,-y,1/2+z
1/2+x,1/2+y,z
1/2-x,1/2+y,1/2-z
1/2-x,1/2-y,-z
1/2+x,1/2-y,1/2+z
loop_
_atom_site_type_symbol
_atom_site_label
_atom_site_fract_x
_atom_site_fract_y
_atom_site_fract_z
Si Si1 0.716206 0.686537 0.103637
Si Si2 0.907072 0.139838 0.047405
Si Si3 0.000000 0.758806 0.250000
Si Si4 0.000000 0.606873 0.250000
Si Si5 0.959159 0.445022 0.964769
Si Si6 0.000000 0.614980 0.750000
Si Si7 0.035819 0.960232 0.631192
O O1 0.526284 0.678688 0.052384
O O2 0.876840 0.725008 0.261923
O O3 0.817374 0.636536 0.161929
O O4 0.648751 0.706673 0.920983
O O5 0.000000 0.142163 0.250000
O O6 0.906993 0.084724 0.001863
O O7 0.681645 0.150548 0.885473
O O8 0.071542 0.576376 0.422395
O O9 0.742873 0.438453 0.774644
O O10 0.000000 0.500000 0.000000
O O11 0.009527 0.418349 0.131305
O O12 0.000000 0.980464 0.750000
O O13 0.000000 0.000000 0.500000
#
# Coordination Sequence:
#
# PCOD8144610 Si02
#       7
#     8   8   4   4   8   4   8
#     4  10  21  43  69  96 131 163 218 273 353 404
#     4  11  22  44  66  93 134 175 217 275 332 403
#     4   9  22  42  69 100 126 160 208 293 340 419
#     4  11  23  40  66  98 134 180 220 282 328 404
#     4  12  25  39  60  94 136 178 233 275 323 384
#     4  12  23  42  65  92 126 184 224 273 328 387
#     4  11  23  43  61  88 134 179 225 282 328 373
#
# _framework density 21.113243000000001
#
# number of rings (size 3 to 8) (size 9 to 14) (size 15 to 20)
#    0.000    1.091    5.455    1.636    5.091    0.000 
#    4.909    0.909    0.000    0.000    0.000    0.000 
#    0.000    0.000    0.000    0.000    0.000    0.000 
#
# Total GULP energy -272575.522192 kJ/mol
# GULP energy per Si atom -12389.796463 kJ/mol
# Density = 2.106519 g / cm^3
# Si number density = 21.113243 Si / 1000 Ang^3
#
#
#
# Elastic Constant Matrix: (Units=GPa)
#
#
# Indices 1 2 3 4 5 6 
#
# 1 102.1196 38.4438 38.7602 0.0000 10.7869 0.0000
# 2 38.4438 84.4561 35.5957 0.0000 -8.9899 0.0000
# 3 38.7602 35.5957 101.5373 0.0000 4.5423 0.0000
# 4 0.0000 0.0000 0.0000 20.4212 0.0000 1.2941
# 5 10.7869 -8.9899 4.5423 0.0000 48.4912 0.0000
# 6 0.0000 0.0000 0.0000 1.2941 0.0000 23.9619
#
#
#
# Elastic Compliance Matrix: (Units=1/GPa)
#
#
# Indices 1 2 3 4 5 6 
#
# 1 0.013283 -0.005118 -0.003115 0.000000 -0.003612 0.000000
# 2 -0.005118 0.016328 -0.003973 0.000000 0.004538 0.000000
# 3 -0.003115 -0.003973 0.012485 0.000000 -0.001213 0.000000
# 4 0.000000 0.000000 0.000000 0.049137 0.000000 -0.002654
# 5 -0.003612 0.004538 -0.001213 0.000000 0.022381 0.000000
# 6 0.000000 0.000000 0.000000 -0.002654 0.000000 0.041876
#
#
# Mechanical properties :
#
#
# Convention : Reuss Voigt Hill
#
# Bulk Modulus (GPa) = 56.55010 57.07915 56.81463
# Shear Modulus (GPa) = 26.91128 30.26241 28.58685
#
# Velocity S-wave (km/s) = 3.57405 3.79005 3.68363
# Velocity P-wave (km/s) = 6.62375 6.80045 6.71268
#
# Compressibility (1/GPa) = 0.01768343
#
# Stress axis : x y z
#
# Youngs Moduli (GPa) = 75.28490 61.24532 80.09744
#
# Poissons Ratio (x) = 0.31345 0.24948
# Poissons Ratio (y) = 0.38530 0.31825
# Poissons Ratio (z) = 0.23449 0.24335
#
# Static dielectric constant tensor:
#      x y z
#    x 3.846740 0.000000 0.138220 
#    y 0.000000 3.367740 0.000000 
#    z 0.138220 0.000000 3.918240 
# 
# 
# High freq. dielectric constant tensor:
#      x y z
#    x 1.834640 0.000000 0.017580 
#    y 0.000000 1.814880 0.000000 
#    z 0.017580 0.000000 1.826490 
# 
# From -- ./inp_files/26294.got.cif
#   From: 2010.06.25/outbox.cif.g09.slc.cpg/sg15_14_cif.got.tgz:26294.got - 2010.06.28 07:06:18.
