data_PCOD8144009
_publ_section_title
;
Structure prediction by ZEFSAII (Michael W. Deem and Ramdas Pophale) SiO2 
 PCOD8144009
Probable space group: C 2/C
;
_chemical_formula_sum "Si O2"
_cell_formula_units_Z 48
_cell_length_a 9.802979
_cell_length_b 14.698555
_cell_length_c 30.259108
_cell_angle_alpha 90.000000
_cell_angle_beta 145.440599
_cell_angle_gamma 90.000000
_cell_volume 2473.268442
_symmetry_space_group_name_H-M "C 2/C"
_symmetry_group_IT_number 15
_symmetry_cell_setting 'monoclinic'
loop_
_space_group_symop_operation_xyz
x,y,z
-x,y,1/2-z
-x,-y,-z
x,-y,1/2+z
1/2+x,1/2+y,z
1/2-x,1/2+y,1/2-z
1/2-x,1/2-y,-z
1/2+x,1/2-y,1/2+z
loop_
_atom_site_type_symbol
_atom_site_label
_atom_site_fract_x
_atom_site_fract_y
_atom_site_fract_z
Si Si1 0.020348 0.379491 0.206102
Si Si2 0.631113 0.767590 0.593218
Si Si3 0.406593 0.021854 0.426311
Si Si4 0.281110 0.983385 0.574762
Si Si5 0.046287 0.864843 0.312760
Si Si6 0.721399 0.221204 0.422243
O O1 0.298419 0.364487 0.272298
O O2 0.000000 0.419202 0.250000
O O3 0.885386 0.282777 0.165529
O O4 0.914900 0.450375 0.143520
O O5 0.680081 0.874352 0.600360
O O6 0.471584 0.743891 0.593442
O O7 0.490719 0.728496 0.513313
O O8 0.621697 0.002824 0.449148
O O9 0.500000 0.000000 0.500000
O O10 0.176448 0.961447 0.352993
O O11 0.335144 0.881937 0.606305
O O12 0.000000 0.000000 0.500000
O O13 0.211502 0.784838 0.376626
O O14 0.000000 0.841680 0.250000
#
# Coordination Sequence:
#
# PCOD8144009 Si02
#       6
#     8   8   8   8   8   8
#     4  12  25  42  67  99 135 169 217 279 333 386
#     4  10  21  41  69  95 121 178 223 257 317 405
#     4  11  24  43  70  95 131 180 221 265 330 399
#     4  11  24  43  68  99 131 173 225 270 324 399
#     4  12  25  44  63  99 139 166 213 282 335 380
#     4  10  21  41  69  92 129 171 221 261 323 396
#
# _framework density 19.407516000000001
#
# number of rings (size 3 to 8) (size 9 to 14) (size 15 to 20)
#    0.000    1.000    6.667    0.000    2.333    2.667 
#    3.000    2.500    0.000    0.000    0.000    0.000 
#    0.000    0.000    0.000    0.000    0.000    0.000 
#
# Total GULP energy -297709.545772 kJ/mol
# GULP energy per Si atom -12404.564407 kJ/mol
# Density = 1.936334 g / cm^3
# Si number density = 19.407516 Si / 1000 Ang^3
#
#
#
# Elastic Constant Matrix: (Units=GPa)
#
#
# Indices 1 2 3 4 5 6 
#
# 1 105.7186 40.1338 40.3273 -0.0001 -3.2293 -0.0001
# 2 40.1338 117.7442 46.5738 0.0000 -10.4893 -0.0001
# 3 40.3273 46.5738 87.6755 -0.0002 -9.6088 -0.0002
# 4 -0.0001 0.0000 -0.0002 37.4520 -0.0001 -1.6774
# 5 -3.2293 -10.4893 -9.6088 -0.0001 48.3942 0.0000
# 6 -0.0001 -0.0001 -0.0002 -1.6774 0.0000 29.9883
#
#
#
# Elastic Compliance Matrix: (Units=1/GPa)
#
#
# Indices 1 2 3 4 5 6 
#
# 1 0.012006 -0.002449 -0.004285 0.000000 -0.000580 0.000000
# 2 -0.002449 0.011323 -0.004741 0.000000 0.001350 0.000000
# 3 -0.004285 -0.004741 0.016101 0.000000 0.001884 0.000000
# 4 0.000000 0.000000 0.000000 0.026768 0.000000 0.001497
# 5 -0.000580 0.001350 0.001884 0.000000 0.021291 0.000000
# 6 0.000000 0.000000 0.000000 0.001497 0.000000 0.033430
#
#
# Mechanical properties :
#
#
# Convention : Reuss Voigt Hill
#
# Bulk Modulus (GPa) = 60.67542 62.80089 61.73816
# Shear Modulus (GPa) = 33.47583 35.44046 34.45815
#
# Velocity S-wave (km/s) = 4.15769 4.27795 4.21825
# Velocity P-wave (km/s) = 7.37429 7.53860 7.45690
#
# Compressibility (1/GPa) = 0.01648114
#
# Stress axis : x y z
#
# Youngs Moduli (GPa) = 83.29503 88.31498 62.10740
#
# Poissons Ratio (x) = 0.21629 0.26611
# Poissons Ratio (y) = 0.20399 0.29442
# Poissons Ratio (z) = 0.35690 0.41866
#
# Static dielectric constant tensor:
#      x y z
#    x 3.593010 0.000000 0.115770 
#    y 0.000000 4.101220 0.000000 
#    z 0.115770 0.000000 4.897680 
# 
# 
# High freq. dielectric constant tensor:
#      x y z
#    x 1.753290 0.000000 -0.002900 
#    y 0.000000 1.764030 0.000000 
#    z -0.002900 0.000000 1.766080 
# 
# From -- ./inp_files/182407.got.cif
#   From: 2010.06.25/outbox.cif.g09.slc.cpg/sg15_92_cif.got.tgz:182407.got - 2010.06.28 07:06:18.
