data_PCOD8144377
_publ_section_title
;
Structure prediction by ZEFSAII (Michael W. Deem and Ramdas Pophale) SiO2 
 PCOD8144377
Probable space group: C 2/C
;
_chemical_formula_sum "Si O2"
_cell_formula_units_Z 40
_cell_length_a 9.567822
_cell_length_b 31.447489
_cell_length_c 8.320394
_cell_angle_alpha 90.000000
_cell_angle_beta 135.926005
_cell_angle_gamma 90.000000
_cell_volume 1741.382905
_symmetry_space_group_name_H-M "C 2/C"
_symmetry_group_IT_number 15
_symmetry_cell_setting 'monoclinic'
loop_
_space_group_symop_operation_xyz
x,y,z
-x,y,1/2-z
-x,-y,-z
x,-y,1/2+z
1/2+x,1/2+y,z
1/2-x,1/2+y,1/2-z
1/2-x,1/2-y,-z
1/2+x,1/2-y,1/2+z
loop_
_atom_site_type_symbol
_atom_site_label
_atom_site_fract_x
_atom_site_fract_y
_atom_site_fract_z
Si Si1 0.702120 0.700312 0.598519
Si Si2 0.380381 0.791392 0.911089
Si Si3 0.901892 0.054649 0.426087
Si Si4 0.106748 0.149840 0.004416
Si Si5 0.760517 0.524528 0.545900
O O1 0.599480 0.740852 0.606734
O O2 0.717693 0.707508 0.420994
O O3 0.559530 0.659745 0.498381
O O4 0.911788 0.688937 0.857208
O O5 0.300926 0.819542 0.695077
O O6 0.833953 0.100786 0.430504
O O7 0.143630 0.051375 0.590205
O O8 0.823759 0.023518 0.502805
O O9 0.791390 0.042383 0.170855
O O10 0.000000 0.161062 0.750000
O O11 0.000000 0.527228 0.750000
#
# Coordination Sequence:
#
# PCOD8144377 Si02
#       5
#     8   8   8   8   8
#     4  10  21  42  70  92 126 172 226 271 327 386
#     4  10  21  42  69  95 123 175 224 274 324 385
#     4  10  25  43  68 102 133 174 224 275 336 401
#     4  12  27  42  62  98 142 173 218 277 328 399
#     4  10  22  45  73  95 128 179 215 279 339 406
#
# _framework density 22.970248999999999
#
# number of rings (size 3 to 8) (size 9 to 14) (size 15 to 20)
#    0.000    1.600    2.000    1.200   11.200    3.200 
#    3.600    0.000    0.000    0.000    0.000    0.000 
#    0.000    0.000    0.000    0.000    0.000    0.000 
#
# Total GULP energy -247873.773516 kJ/mol
# GULP energy per Si atom -12393.688676 kJ/mol
# Density = 2.291797 g / cm^3
# Si number density = 22.970249 Si / 1000 Ang^3
#
#
#
# Elastic Constant Matrix: (Units=GPa)
#
#
# Indices 1 2 3 4 5 6 
#
# 1 49.8760 -10.3963 18.5723 0.0000 17.3233 0.0000
# 2 -10.3963 101.3507 25.3619 0.0000 -8.1840 0.0000
# 3 18.5723 25.3619 108.4887 0.0000 -4.5449 0.0000
# 4 0.0000 0.0000 0.0000 29.2379 0.0000 -8.6260
# 5 17.3233 -8.1840 -4.5449 0.0000 38.1587 0.0000
# 6 0.0000 0.0000 0.0000 -8.6260 0.0000 18.9659
#
#
#
# Elastic Compliance Matrix: (Units=1/GPa)
#
#
# Indices 1 2 3 4 5 6 
#
# 1 0.027248 0.003285 -0.005951 0.000000 -0.012374 0.000000
# 2 0.003285 0.011025 -0.003119 0.000000 0.000502 0.000000
# 3 -0.005951 -0.003119 0.011106 0.000000 0.003356 0.000000
# 4 0.000000 0.000000 0.000000 0.039503 0.000000 0.017967
# 5 -0.012374 0.000502 0.003356 0.000000 0.032331 0.000000
# 6 0.000000 0.000000 0.000000 0.017967 0.000000 0.060898
#
#
# Mechanical properties :
#
#
# Convention : Reuss Voigt Hill
#
# Bulk Modulus (GPa) = 26.44822 36.31013 31.37917
# Shear Modulus (GPa) = 24.23850 32.35101 28.29476
#
# Velocity S-wave (km/s) = 3.25193 3.75692 3.51351
# Velocity P-wave (km/s) = 5.06351 5.88736 5.49091
#
# Compressibility (1/GPa) = 0.03780973
#
# Stress axis : x y z
#
# Youngs Moduli (GPa) = 36.69931 90.70615 90.04189
#
# Poissons Ratio (x) = -0.29797 0.53584
# Poissons Ratio (y) = -0.12056 0.28081
# Poissons Ratio (z) = 0.21840 0.28288
#
# Static dielectric constant tensor:
#      x y z
#    x 4.076890 0.000000 0.098860 
#    y 0.000000 3.986570 0.000000 
#    z 0.098860 0.000000 4.166550 
# 
# 
# High freq. dielectric constant tensor:
#      x y z
#    x 1.893310 0.000000 0.007320 
#    y 0.000000 1.892390 0.000000 
#    z 0.007320 0.000000 1.919130 
# 
# From -- ./inp_files/35447.got.cif
#   From: 2010.06.25/outbox.cif.g09.slc.cpg/sg15_18_cif.got.tgz:35447.got - 2010.06.28 07:06:18.
