data_PCOD8144456
_publ_section_title
;
Structure prediction by ZEFSAII (Michael W. Deem and Ramdas Pophale) SiO2 
 PCOD8144456
Probable space group: C 2/C
;
_chemical_formula_sum "Si O2"
_cell_formula_units_Z 52
_cell_length_a 18.908741
_cell_length_b 20.758577
_cell_length_c 8.303750
_cell_angle_alpha 90.000000
_cell_angle_beta 126.946572
_cell_angle_gamma 90.000000
_cell_volume 2604.881377
_symmetry_space_group_name_H-M "C 2/C"
_symmetry_group_IT_number 15
_symmetry_cell_setting 'monoclinic'
loop_
_space_group_symop_operation_xyz
x,y,z
-x,y,1/2-z
-x,-y,-z
x,-y,1/2+z
1/2+x,1/2+y,z
1/2-x,1/2+y,1/2-z
1/2-x,1/2-y,-z
1/2+x,1/2-y,1/2+z
loop_
_atom_site_type_symbol
_atom_site_label
_atom_site_fract_x
_atom_site_fract_y
_atom_site_fract_z
Si Si1 0.400605 0.080936 0.170934
Si Si2 0.940422 0.829489 0.821968
Si Si3 0.741275 0.407077 0.929319
Si Si4 0.500000 0.694952 0.750000
Si Si5 0.192514 0.497788 0.224212
Si Si6 0.330491 0.209655 0.673449
Si Si7 0.165243 0.714778 0.453429
O O1 0.500000 0.091819 0.250000
O O2 0.392978 0.029096 0.303644
O O3 0.359790 0.149183 0.174685
O O4 0.342134 0.054688 0.945748
O O5 0.850603 0.869740 0.691135
O O6 0.919747 0.752403 0.774597
O O7 0.000000 0.850156 0.750000
O O8 0.984002 0.844267 0.058870
O O9 0.752428 0.442973 0.775331
O O10 0.740595 0.462174 0.064169
O O11 0.825961 0.358693 0.072724
O O12 0.414784 0.736482 0.671711
O O13 0.250000 0.250000 0.500000
O O14 0.315443 0.193953 0.838745
O O15 0.250000 0.750000 0.500000
#
# Coordination Sequence:
#
# PCOD8144456 Si02
#       7
#     8   8   8   4   8   8   8
#     4  11  22  40  59  90 126 161 212 258 309 378
#     4  10  23  41  65  93 130 161 204 276 326 377
#     4  10  21  43  61  92 119 165 217 257 314 387
#     4  10  24  40  60 102 128 160 220 254 338 394
#     4  10  23  39  65  83 121 171 213 255 309 377
#     4   9  20  38  59  88 121 152 207 246 313 381
#     4  11  23  37  63  92 127 165 196 261 322 380
#
# _framework density 19.962520999999999
#
# number of rings (size 3 to 8) (size 9 to 14) (size 15 to 20)
#    0.000    1.846    2.308    0.462   10.769    0.000 
#    2.769    1.538    0.000    0.000    0.000    0.000 
#    0.000    0.000    0.000    0.000    0.000    0.000 
#
# Total GULP energy -322173.881710 kJ/mol
# GULP energy per Si atom -12391.303143 kJ/mol
# Density = 1.991709 g / cm^3
# Si number density = 19.962521 Si / 1000 Ang^3
#
#
#
# Elastic Constant Matrix: (Units=GPa)
#
#
# Indices 1 2 3 4 5 6 
#
# 1 110.0903 50.9740 38.4916 0.0000 9.6154 0.0000
# 2 50.9740 102.3843 31.8111 0.0000 1.5695 0.0000
# 3 38.4916 31.8111 86.9149 0.0000 -5.3000 0.0000
# 4 0.0000 0.0000 0.0000 8.9970 0.0000 17.9213
# 5 9.6154 1.5695 -5.3000 0.0000 31.3608 0.0000
# 6 0.0000 0.0000 0.0000 17.9213 0.0000 1.2681
#
#
#
# Elastic Compliance Matrix: (Units=1/GPa)
#
#
# Indices 1 2 3 4 5 6 
#
# 1 0.013430 -0.005282 -0.004294 0.000000 -0.004579 0.000000
# 2 -0.005282 0.013146 -0.002439 0.000000 0.000550 0.000000
# 3 -0.004294 -0.002439 0.014537 0.000000 0.003895 0.000000
# 4 0.000000 0.000000 0.000000 -0.004094 0.000000 0.057855
# 5 -0.004579 0.000550 0.003895 0.000000 0.033922 0.000000
# 6 0.000000 0.000000 0.000000 0.057855 0.000000 -0.029045
#
#
# Mechanical properties :
#
#
# Convention : Reuss Voigt Hill
#
# Bulk Modulus (GPa) = 58.53318 60.21587 59.37452
# Shear Modulus (GPa) = 69.81133 20.19938 45.00535
#
# Velocity S-wave (km/s) = 5.92006 3.18443 4.75330
# Velocity P-wave (km/s) = 8.72437 6.61444 7.74162
#
# Compressibility (1/GPa) = 0.01708433
#
# Stress axis : x y z
#
# Youngs Moduli (GPa) = 74.45752 76.06685 68.78907
#
# Poissons Ratio (x) = 0.40181 0.29536
# Poissons Ratio (y) = 0.39331 0.16776
# Poissons Ratio (z) = 0.31970 0.18551
#
# Static dielectric constant tensor:
#      x y z
#    x 3.520560 0.000000 -0.226220 
#    y 0.000000 3.906400 0.000000 
#    z -0.226220 0.000000 3.806990 
# 
# 
# High freq. dielectric constant tensor:
#      x y z
#    x 1.763020 0.000000 -0.013150 
#    y 0.000000 1.781440 0.000000 
#    z -0.013150 0.000000 1.785330 
# 
# From -- ./inp_files/50702.got.cif
#   From: 2010.06.25/outbox.cif.g09.slc.cpg/sg15_26_cif.got.tgz:50702.got - 2010.06.28 07:06:18.
