data_PCOD8144158
_publ_section_title
;
Structure prediction by ZEFSAII (Michael W. Deem and Ramdas Pophale) SiO2 
 PCOD8144158
Probable space group: C 2/C
;
_chemical_formula_sum "Si O2"
_cell_formula_units_Z 52
_cell_length_a 29.600384
_cell_length_b 6.607799
_cell_length_c 13.264717
_cell_angle_alpha 90.000000
_cell_angle_beta 100.108105
_cell_angle_gamma 90.000000
_cell_volume 2554.220189
_symmetry_space_group_name_H-M "C 2/C"
_symmetry_group_IT_number 15
_symmetry_cell_setting 'monoclinic'
loop_
_space_group_symop_operation_xyz
x,y,z
-x,y,1/2-z
-x,-y,-z
x,-y,1/2+z
1/2+x,1/2+y,z
1/2-x,1/2+y,1/2-z
1/2-x,1/2-y,-z
1/2+x,1/2-y,1/2+z
loop_
_atom_site_type_symbol
_atom_site_label
_atom_site_fract_x
_atom_site_fract_y
_atom_site_fract_z
Si Si1 0.958354 0.362630 0.603401
Si Si2 0.500000 0.530517 0.750000
Si Si3 0.766631 0.865662 0.368847
Si Si4 0.038444 0.314867 0.128482
Si Si5 0.116523 0.582762 0.806784
Si Si6 0.301530 0.788963 0.679369
Si Si7 0.314160 0.611368 0.088644
O O1 0.954597 0.283212 0.487679
O O2 0.912615 0.484188 0.614145
O O3 0.001675 0.509998 0.635914
O O4 0.962712 0.169943 0.678784
O O5 0.476425 0.395627 0.826798
O O6 0.792812 0.843926 0.274686
O O7 0.728050 0.692801 0.360815
O O8 0.805036 0.833737 0.469046
O O9 0.743581 0.086867 0.371193
O O10 0.086323 0.378968 0.196287
O O11 0.156949 0.439888 0.784665
O O12 0.137678 0.790949 0.858432
O O13 0.316122 0.631214 0.598680
#
# Coordination Sequence:
#
# PCOD8144158 Si02
#       7
#     8   4   8   8   8   8   8
#     4  11  24  44  67  95 132 179 214 266 325 387
#     4  12  20  44  70  96 124 178 216 262 316 396
#     4  10  21  42  64  86 121 165 210 255 321 390
#     4  11  24  44  69  92 135 178 214 263 329 387
#     4  11  24  42  60 100 130 160 219 272 312 379
#     4  11  22  40  65  91 124 164 210 264 319 380
#     4  10  23  40  63  90 122 164 207 262 320 378
#
# _framework density 20.358464999999999
#
# number of rings (size 3 to 8) (size 9 to 14) (size 15 to 20)
#    0.000    1.231    4.615    0.923    4.308    0.000 
#    2.769    0.000    0.000    0.000    0.000    0.000 
#    0.000    0.000    0.000    0.000    0.000    0.000 
#
# Total GULP energy -322492.605964 kJ/mol
# GULP energy per Si atom -12403.561768 kJ/mol
# Density = 2.031213 g / cm^3
# Si number density = 20.358465 Si / 1000 Ang^3
#
#
#
# Elastic Constant Matrix: (Units=GPa)
#
#
# Indices 1 2 3 4 5 6 
#
# 1 79.1460 35.7565 50.1583 0.0000 16.0166 0.0000
# 2 35.7565 119.0635 46.3797 0.0000 8.0898 0.0000
# 3 50.1583 46.3797 122.1957 0.0000 6.2486 0.0000
# 4 0.0000 0.0000 0.0000 32.7043 0.0000 -2.9831
# 5 16.0166 8.0898 6.2486 0.0000 27.9609 0.0000
# 6 0.0000 0.0000 0.0000 -2.9831 0.0000 35.8245
#
#
#
# Elastic Compliance Matrix: (Units=1/GPa)
#
#
# Indices 1 2 3 4 5 6 
#
# 1 0.019970 -0.002775 -0.006676 0.000000 -0.009145 0.000000
# 2 -0.002775 0.010358 -0.002752 0.000000 -0.000792 0.000000
# 3 -0.006676 -0.002752 0.011868 0.000000 0.001968 0.000000
# 4 0.000000 0.000000 0.000000 0.030811 0.000000 0.002566
# 5 -0.009145 -0.000792 0.001968 0.000000 0.040792 0.000000
# 6 0.000000 0.000000 0.000000 0.002566 0.000000 0.028127
#
#
# Mechanical properties :
#
#
# Convention : Reuss Voigt Hill
#
# Bulk Modulus (GPa) = 56.21313 64.99935 60.60624
# Shear Modulus (GPa) = 29.02535 31.83865 30.43200
#
# Velocity S-wave (km/s) = 3.77996 3.95891 3.87047
# Velocity P-wave (km/s) = 6.83538 7.27283 7.05749
#
# Compressibility (1/GPa) = 0.01778944
#
# Stress axis : x y z
#
# Youngs Moduli (GPa) = 50.07418 96.54295 84.26144
#
# Poissons Ratio (x) = 0.26795 0.56256
# Poissons Ratio (y) = 0.13898 0.23186
# Poissons Ratio (z) = 0.33431 0.26566
#
# Static dielectric constant tensor:
#      x y z
#    x 3.556960 0.000000 0.048390 
#    y 0.000000 3.785850 0.000000 
#    z 0.048390 0.000000 3.669950 
# 
# 
# High freq. dielectric constant tensor:
#      x y z
#    x 1.784660 0.000000 0.003330 
#    y 0.000000 1.805350 0.000000 
#    z 0.003330 0.000000 1.801690 
# 
# From -- ./inp_files/180180.got.cif
#   From: 2010.06.25/outbox.cif.g09.slc.cpg/sg15_91_cif.got.tgz:180180.got - 2010.06.28 07:06:18.
