data_PCOD8144959
_publ_section_title
;
Structure prediction by ZEFSAII (Michael W. Deem and Ramdas Pophale) SiO2 
 PCOD8144959
Probable space group: C 2/C
;
_chemical_formula_sum "Si O2"
_cell_formula_units_Z 60
_cell_length_a 10.144142
_cell_length_b 19.268129
_cell_length_c 25.479615
_cell_angle_alpha 90.000000
_cell_angle_beta 143.867597
_cell_angle_gamma 90.000000
_cell_volume 2936.597305
_symmetry_space_group_name_H-M "C 2/C"
_symmetry_group_IT_number 15
_symmetry_cell_setting 'monoclinic'
loop_
_space_group_symop_operation_xyz
x,y,z
-x,y,1/2-z
-x,-y,-z
x,-y,1/2+z
1/2+x,1/2+y,z
1/2-x,1/2+y,1/2-z
1/2-x,1/2-y,-z
1/2+x,1/2-y,1/2+z
loop_
_atom_site_type_symbol
_atom_site_label
_atom_site_fract_x
_atom_site_fract_y
_atom_site_fract_z
Si Si1 0.000000 0.242050 0.750000
Si Si2 0.519130 0.556678 0.875516
Si Si3 0.928675 0.516425 0.536389
Si Si4 0.745548 0.825099 0.339797
Si Si5 0.796923 0.042451 0.224037
Si Si6 0.771907 0.799599 0.746569
Si Si7 0.855918 0.352029 0.415652
Si Si8 0.255496 0.760209 0.939562
O O1 0.074802 0.289220 0.725533
O O2 0.217623 0.195714 0.831533
O O3 0.405971 0.612075 0.876926
O O4 0.339341 0.510660 0.785803
O O5 0.680507 0.602526 0.891177
O O6 0.666816 0.502874 0.957574
O O7 0.000000 0.500000 0.500000
O O8 0.063515 0.472523 0.621626
O O9 0.980672 0.597212 0.565232
O O10 0.500000 0.854072 0.250000
O O11 0.778711 0.753867 0.317061
O O12 0.785020 0.809369 0.414235
O O13 0.763348 0.121521 0.227466
O O14 0.000000 0.030901 0.250000
O O15 0.021314 0.793404 0.848544
O O16 0.028247 0.307212 0.506269
O O17 0.250000 0.750000 0.000000
#
# Coordination Sequence:
#
# PCOD8144959 Si02
#       8
#     4   8   8   8   8   8   8   8
#     4  12  22  42  64  98 130 180 222 274 340 408
#     4  11  23  41  67 100 132 173 231 284 333 410
#     4  10  22  35  61 102 128 166 225 277 340 388
#     4  10  24  43  67  99 134 180 225 273 342 406
#     4  12  22  41  66  93 138 176 220 292 338 395
#     4  11  25  41  65  97 136 177 225 278 345 406
#     4  11  21  38  69  96 130 168 228 277 333 393
#     4  11  23  41  65  98 136 173 216 282 340 405
#
# _framework density 20.431812000000001
#
# number of rings (size 3 to 8) (size 9 to 14) (size 15 to 20)
#    0.000    1.067    5.333    2.800    5.600    1.600 
#    1.200    0.000    0.000    2.400    0.000    0.000 
#    0.000    0.000    0.000    0.000    0.000    0.000 
#
# Total GULP energy -371800.820296 kJ/mol
# GULP energy per Si atom -12393.360677 kJ/mol
# Density = 2.038531 g / cm^3
# Si number density = 20.431812 Si / 1000 Ang^3
#
#
#
# Elastic Constant Matrix: (Units=GPa)
#
#
# Indices 1 2 3 4 5 6 
#
# 1 74.3756 33.2619 40.0571 0.0004 -4.0184 0.0000
# 2 33.2619 103.3232 61.9848 0.0006 5.0223 0.0003
# 3 40.0571 61.9848 142.7533 0.0013 -7.2893 0.0009
# 4 0.0004 0.0006 0.0013 29.5517 0.0005 15.1133
# 5 -4.0184 5.0223 -7.2893 0.0005 24.1261 0.0002
# 6 0.0000 0.0003 0.0009 15.1133 0.0002 32.5934
#
#
#
# Elastic Compliance Matrix: (Units=1/GPa)
#
#
# Indices 1 2 3 4 5 6 
#
# 1 0.016878 -0.003796 -0.002949 0.000000 0.002710 0.000000
# 2 -0.003796 0.014443 -0.005476 0.000000 -0.005293 0.000000
# 3 -0.002949 -0.005476 0.010404 0.000000 0.003792 0.000000
# 4 0.000000 0.000000 0.000000 0.044358 -0.000001 -0.020568
# 5 0.002710 -0.005293 0.003792 -0.000001 0.044148 0.000000
# 6 0.000000 0.000000 0.000000 -0.020568 0.000000 0.040218
#
#
# Mechanical properties :
#
#
# Convention : Reuss Voigt Hill
#
# Bulk Modulus (GPa) = 57.86429 65.67330 61.76880
# Shear Modulus (GPa) = 24.91864 29.59748 27.25806
#
# Velocity S-wave (km/s) = 3.49607 3.81017 3.65649
# Velocity P-wave (km/s) = 6.68422 7.18116 6.93714
#
# Compressibility (1/GPa) = 0.01728182
#
# Stress axis : x y z
#
# Youngs Moduli (GPa) = 59.24992 69.23790 96.11404
#
# Poissons Ratio (x) = 0.26280 0.28349
# Poissons Ratio (y) = 0.22489 0.52637
# Poissons Ratio (z) = 0.17476 0.37918
#
# Static dielectric constant tensor:
#      x y z
#    x 4.006780 -0.000010 0.786750 
#    y -0.000010 4.142970 -0.000030 
#    z 0.786750 -0.000030 5.397610 
# 
# 
# High freq. dielectric constant tensor:
#      x y z
#    x 1.769850 0.000000 0.004480 
#    y 0.000000 1.805180 0.000000 
#    z 0.004480 0.000000 1.815810 
# 
# From -- ./inp_files/311579.got.cif
#   From: 2010.06.25/outbox.cif.g09.slc.cpg/sg15_156_cif.got.tgz:311579.got - 2010.06.28 07:06:18.
