data_PCOD8144717
_publ_section_title
;
Structure prediction by ZEFSAII (Michael W. Deem and Ramdas Pophale) SiO2 
 PCOD8144717
Probable space group: C 2/C
;
_chemical_formula_sum "Si O2"
_cell_formula_units_Z 60
_cell_length_a 8.757818
_cell_length_b 20.681602
_cell_length_c 20.257565
_cell_angle_alpha 90.000000
_cell_angle_beta 48.798705
_cell_angle_gamma 90.000000
_cell_volume 2760.680401
_symmetry_space_group_name_H-M "C 2/C"
_symmetry_group_IT_number 15
_symmetry_cell_setting 'monoclinic'
loop_
_space_group_symop_operation_xyz
x,y,z
-x,y,1/2-z
-x,-y,-z
x,-y,1/2+z
1/2+x,1/2+y,z
1/2-x,1/2+y,1/2-z
1/2-x,1/2-y,-z
1/2+x,1/2-y,1/2+z
loop_
_atom_site_type_symbol
_atom_site_label
_atom_site_fract_x
_atom_site_fract_y
_atom_site_fract_z
Si Si1 0.075784 0.154233 0.490761
Si Si2 0.682072 0.522489 0.246865
Si Si3 0.745569 0.826490 0.986328
Si Si4 0.524770 0.143198 0.318861
Si Si5 0.880431 0.965564 0.092842
Si Si6 0.000000 0.322532 0.250000
Si Si7 0.847644 0.266577 0.611677
Si Si8 0.478480 0.084875 0.649323
O O1 0.307096 0.133835 0.415205
O O2 0.958299 0.145546 0.453487
O O3 0.977407 0.105911 0.572591
O O4 0.043949 0.227238 0.527884
O O5 0.500000 0.542084 0.250000
O O6 0.835433 0.581815 0.209588
O O7 0.602817 0.503886 0.342739
O O8 0.799101 0.462896 0.177919
O O9 0.711759 0.828840 0.917007
O O10 0.750000 0.750000 0.000000
O O11 0.563304 0.870564 0.066409
O O12 0.500000 0.159937 0.250000
O O13 0.622061 0.207177 0.323499
O O14 0.647242 0.959503 0.137213
O O15 0.000000 0.000000 0.000000
O O16 0.159042 0.281866 0.162639
O O17 0.881131 0.367316 0.231582
#
# Coordination Sequence:
#
# PCOD8144717 Si02
#       8
#     8   8   8   8   8   4   8   8
#     4  10  21  44  66  97 133 180 224 271 345 413
#     4  12  27  45  65 101 134 178 237 295 343 399
#     4   9  19  38  67 102 128 171 216 277 334 405
#     4  12  28  44  66  96 138 184 228 286 346 405
#     4  11  21  41  71  94 128 174 226 273 346 416
#     4  12  20  40  74  98 134 180 222 268 348 404
#     4  11  24  40  67 101 138 178 227 279 337 416
#     4  11  20  42  70  94 131 176 226 269 341 417
#
# _framework density 21.733771999999998
#
# number of rings (size 3 to 8) (size 9 to 14) (size 15 to 20)
#    0.000    1.067    5.333    2.800    2.800    3.200 
#    0.000    7.333    0.000    0.000    0.000    0.000 
#    0.000    0.000    0.000    0.000    0.000    0.000 
#
# Total GULP energy -371828.654219 kJ/mol
# GULP energy per Si atom -12394.288474 kJ/mol
# Density = 2.168431 g / cm^3
# Si number density = 21.733772 Si / 1000 Ang^3
#
#
#
# Elastic Constant Matrix: (Units=GPa)
#
#
# Indices 1 2 3 4 5 6 
#
# 1 108.3158 54.5695 54.6691 0.0000 11.6396 0.0000
# 2 54.5695 100.8449 52.4244 0.0000 10.9349 0.0000
# 3 54.6691 52.4244 105.8503 0.0000 5.9156 0.0001
# 4 0.0000 0.0000 0.0000 41.7462 0.0000 9.0211
# 5 11.6396 10.9349 5.9156 0.0000 31.2574 0.0000
# 6 0.0000 0.0000 0.0001 9.0211 0.0000 14.2603
#
#
#
# Elastic Compliance Matrix: (Units=1/GPa)
#
#
# Indices 1 2 3 4 5 6 
#
# 1 0.014508 -0.005036 -0.004847 0.000000 -0.002724 0.000000
# 2 -0.005036 0.015483 -0.004921 0.000000 -0.002610 0.000000
# 3 -0.004847 -0.004921 0.014343 0.000000 0.000812 0.000000
# 4 0.000000 0.000000 0.000000 0.027747 0.000000 -0.017553
# 5 -0.002724 -0.002610 0.000812 0.000000 0.033766 0.000000
# 6 0.000000 0.000000 0.000000 -0.017553 0.000000 0.081229
#
#
# Mechanical properties :
#
#
# Convention : Reuss Voigt Hill
#
# Bulk Modulus (GPa) = 67.90970 70.92632 69.41801
# Shear Modulus (GPa) = 22.56399 27.67597 25.11998
#
# Velocity S-wave (km/s) = 3.22561 3.57236 3.40340
# Velocity P-wave (km/s) = 6.72211 7.05129 6.88866
#
# Compressibility (1/GPa) = 0.01472544
#
# Stress axis : x y z
#
# Youngs Moduli (GPa) = 68.92611 64.58889 69.72232
#
# Poissons Ratio (x) = 0.32525 0.33794
# Poissons Ratio (y) = 0.34710 0.34313
# Poissons Ratio (z) = 0.33408 0.31786
#
# Static dielectric constant tensor:
#      x y z
#    x 4.073050 0.000000 0.187610 
#    y 0.000000 4.112390 0.000000 
#    z 0.187610 0.000000 4.125090 
# 
# 
# High freq. dielectric constant tensor:
#      x y z
#    x 1.833500 0.000000 -0.000590 
#    y 0.000000 1.865190 0.000000 
#    z -0.000590 0.000000 1.858420 
# 
# From -- ./inp_files/234068.got.cif
#   From: 2010.06.25/outbox.cif.g09.slc.cpg/sg15_118_cif.got.tgz:234068.got - 2010.06.28 07:06:18.
