data_PCOD8144733
_publ_section_title
;
Structure prediction by ZEFSAII (Michael W. Deem and Ramdas Pophale) SiO2 
 PCOD8144733
Probable space group: C 2/C
;
_chemical_formula_sum "Si O2"
_cell_formula_units_Z 60
_cell_length_a 21.415621
_cell_length_b 17.617025
_cell_length_c 8.944976
_cell_angle_alpha 90.000000
_cell_angle_beta 124.133348
_cell_angle_gamma 90.000000
_cell_volume 2793.400179
_symmetry_space_group_name_H-M "C 2/C"
_symmetry_group_IT_number 15
_symmetry_cell_setting 'monoclinic'
loop_
_space_group_symop_operation_xyz
x,y,z
-x,y,1/2-z
-x,-y,-z
x,-y,1/2+z
1/2+x,1/2+y,z
1/2-x,1/2+y,1/2-z
1/2-x,1/2-y,-z
1/2+x,1/2-y,1/2+z
loop_
_atom_site_type_symbol
_atom_site_label
_atom_site_fract_x
_atom_site_fract_y
_atom_site_fract_z
Si Si1 0.897336 0.812566 0.743213
Si Si2 0.809743 0.473484 0.205257
Si Si3 0.369401 0.090561 0.503675
Si Si4 0.500000 0.811431 0.250000
Si Si5 0.685310 0.362784 0.153335
Si Si6 0.681158 0.582896 0.960089
Si Si7 0.457156 0.562734 0.541369
Si Si8 0.758777 0.795921 0.754311
O O1 0.876952 0.857688 0.562197
O O2 0.820553 0.779928 0.709311
O O3 0.949563 0.740268 0.789028
O O4 0.944195 0.866917 0.914717
O O5 0.863116 0.517090 0.392107
O O6 0.759786 0.409045 0.213924
O O7 0.869741 0.436288 0.175013
O O8 0.754960 0.531164 0.042320
O O9 0.446299 0.136308 0.574454
O O10 0.296932 0.142596 0.387917
O O11 0.646483 0.402415 0.247336
O O12 0.713784 0.279173 0.237675
O O13 0.624701 0.538198 0.999288
O O14 0.700965 0.666764 0.048147
O O15 0.500000 0.588038 0.750000
O O16 0.500000 0.500000 0.500000
#
# Coordination Sequence:
#
# PCOD8144733 Si02
#       8
#     8   8   8   4   8   8   8   8
#     4  11  25  43  68 102 130 179 229 282 337 411
#     4  11  23  40  69  97 131 172 228 282 337 387
#     4  11  23  44  66 100 134 181 225 283 335 408
#     4  12  26  42  70  94 144 182 230 268 346 414
#     4  12  21  40  74  99 128 170 225 292 336 390
#     4  10  25  40  65 102 132 171 226 283 335 405
#     4  11  29  44  63  93 143 181 216 272 353 428
#     4  10  21  44  67  99 135 171 231 281 343 400
#
# _framework density 21.479199999999999
#
# number of rings (size 3 to 8) (size 9 to 14) (size 15 to 20)
#    0.000    1.067    4.000    1.600    6.533    0.533 
#    0.000    0.000    0.000    0.000    0.000    0.000 
#    0.000    0.000    0.000    0.000    0.000    0.000 
#
# Total GULP energy -371955.844740 kJ/mol
# GULP energy per Si atom -12398.528158 kJ/mol
# Density = 2.143031 g / cm^3
# Si number density = 21.479200 Si / 1000 Ang^3
#
#
#
# Elastic Constant Matrix: (Units=GPa)
#
#
# Indices 1 2 3 4 5 6 
#
# 1 86.3783 30.5965 42.0502 0.0000 -8.1385 0.0000
# 2 30.5965 90.9115 43.0756 0.0000 -8.2434 0.0000
# 3 42.0502 43.0756 127.9928 0.0000 -8.0624 0.0000
# 4 0.0000 0.0000 0.0000 29.1297 0.0000 13.3606
# 5 -8.1385 -8.2434 -8.0624 0.0000 33.5501 0.0000
# 6 0.0000 0.0000 0.0000 13.3606 0.0000 37.3888
#
#
#
# Elastic Compliance Matrix: (Units=1/GPa)
#
#
# Indices 1 2 3 4 5 6 
#
# 1 0.014607 -0.003004 -0.003667 0.000000 0.001924 0.000000
# 2 -0.003004 0.013865 -0.003564 0.000000 0.001821 0.000000
# 3 -0.003667 -0.003564 0.010261 0.000000 0.000701 0.000000
# 4 0.000000 0.000000 0.000000 0.041059 0.000000 -0.014672
# 5 0.001924 0.001821 0.000701 0.000000 0.030889 0.000000
# 6 0.000000 0.000000 0.000000 -0.014672 0.000000 0.031989
#
#
# Mechanical properties :
#
#
# Convention : Reuss Voigt Hill
#
# Bulk Modulus (GPa) = 54.75667 59.63637 57.19652
# Shear Modulus (GPa) = 29.54585 32.65110 31.09847
#
# Velocity S-wave (km/s) = 3.71287 3.90311 3.80918
# Velocity P-wave (km/s) = 6.62788 6.93811 6.78477
#
# Compressibility (1/GPa) = 0.01826261
#
# Stress axis : x y z
#
# Youngs Moduli (GPa) = 68.45805 72.12482 97.45327
#
# Poissons Ratio (x) = 0.21669 0.35734
# Poissons Ratio (y) = 0.20567 0.34736
# Poissons Ratio (z) = 0.25102 0.25708
#
# Static dielectric constant tensor:
#      x y z
#    x 3.923430 0.000000 -0.019630 
#    y 0.000000 3.973660 0.000000 
#    z -0.019630 0.000000 4.018390 
# 
# 
# High freq. dielectric constant tensor:
#      x y z
#    x 1.837990 0.000000 -0.005540 
#    y 0.000000 1.848840 0.000000 
#    z -0.005540 0.000000 1.842650 
# 
# From -- ./inp_files/57040.got.cif
#   From: 2010.06.25/outbox.cif.g09.slc.cpg/sg15_29_cif.got.tgz:57040.got - 2010.06.28 07:06:18.
