data_PCOD8144907
_publ_section_title
;
Structure prediction by ZEFSAII (Michael W. Deem and Ramdas Pophale) SiO2 
 PCOD8144907
Probable space group: C 2/C
;
_chemical_formula_sum "Si O2"
_cell_formula_units_Z 48
_cell_length_a 23.901578
_cell_length_b 11.951620
_cell_length_c 20.385708
_cell_angle_alpha 90.000000
_cell_angle_beta 21.933720
_cell_angle_gamma 90.000000
_cell_volume 2175.249233
_symmetry_space_group_name_H-M "C 2/C"
_symmetry_group_IT_number 15
_symmetry_cell_setting 'monoclinic'
loop_
_space_group_symop_operation_xyz
x,y,z
-x,y,1/2-z
-x,-y,-z
x,-y,1/2+z
1/2+x,1/2+y,z
1/2-x,1/2+y,1/2-z
1/2-x,1/2-y,-z
1/2+x,1/2-y,1/2+z
loop_
_atom_site_type_symbol
_atom_site_label
_atom_site_fract_x
_atom_site_fract_y
_atom_site_fract_z
Si Si1 0.785202 0.645486 0.118598
Si Si2 0.095456 0.241303 0.702912
Si Si3 0.308773 0.688736 0.766613
Si Si4 0.440885 0.360980 0.988877
Si Si5 0.233916 0.432771 0.713115
Si Si6 0.532738 0.950709 0.588147
O O1 0.614479 0.640841 0.278553
O O2 0.845297 0.772407 0.050082
O O3 0.798387 0.591981 0.176271
O O4 0.896998 0.564076 0.955221
O O5 0.250000 0.250000 0.500000
O O6 0.107225 0.165023 0.755690
O O7 0.000000 0.180264 0.750000
O O8 0.029214 0.365592 0.789954
O O9 0.431787 0.675237 0.575442
O O10 0.236606 0.812535 0.852803
O O11 0.172463 0.607382 0.898263
O O12 0.374935 0.484771 0.049895
O O13 0.089271 0.485013 0.833931
#
# Coordination Sequence:
#
# PCOD8144907 Si02
#       6
#     8   8   8   8   8   8
#     4  11  23  35  56  83 125 166 210 242 302 369
#     4  11  23  41  60  87 121 162 208 262 316 358
#     4  10  23  34  61  89 129 161 206 252 308 369
#     4  11  23  37  57  89 130 171 205 242 298 389
#     4  10  22  33  55  85 124 168 202 241 306 368
#     4  11  22  38  58  85 123 159 206 259 310 364
#
# _framework density 22.066434999999998
#
# number of rings (size 3 to 8) (size 9 to 14) (size 15 to 20)
#    0.000    1.333    3.333    2.000   14.000    0.000 
#    0.000    0.000    0.000    0.000    0.000   10.500 
#    0.000    0.000    0.000    0.000    0.000    0.000 
#
# Total GULP energy -297420.321365 kJ/mol
# GULP energy per Si atom -12392.513390 kJ/mol
# Density = 2.201621 g / cm^3
# Si number density = 22.066435 Si / 1000 Ang^3
#
#
#
# Elastic Constant Matrix: (Units=GPa)
#
#
# Indices 1 2 3 4 5 6 
#
# 1 68.5907 9.4177 20.8446 0.0021 -28.5415 -0.0006
# 2 9.4177 103.1829 10.5268 0.0009 -15.1593 -0.0005
# 3 20.8446 10.5268 73.6011 0.0018 -27.4277 -0.0012
# 4 0.0021 0.0009 0.0018 49.5094 -0.0009 -10.4901
# 5 -28.5415 -15.1593 -27.4277 -0.0009 38.0749 0.0005
# 6 -0.0006 -0.0005 -0.0012 -10.4901 0.0005 15.3019
#
#
#
# Elastic Compliance Matrix: (Units=1/GPa)
#
#
# Indices 1 2 3 4 5 6 
#
# 1 0.021207 0.000424 -0.000109 -0.000001 0.015987 0.000000
# 2 0.000424 0.010302 0.000073 0.000000 0.004473 0.000000
# 3 -0.000109 0.000073 0.018574 0.000000 0.013327 0.000001
# 4 -0.000001 0.000000 0.000000 0.023631 0.000000 0.016200
# 5 0.015987 0.004473 0.013327 0.000000 0.049629 0.000000
# 6 0.000000 0.000000 0.000001 0.016200 0.000000 0.076457
#
#
# Mechanical properties :
#
#
# Convention : Reuss Voigt Hill
#
# Bulk Modulus (GPa) = 19.66204 36.32811 27.99507
# Shear Modulus (GPa) = 23.15074 34.21628 28.68351
#
# Velocity S-wave (km/s) = 3.24255 3.94204 3.60928
# Velocity P-wave (km/s) = 4.79047 6.10069 5.48484
#
# Compressibility (1/GPa) = 0.05085943
#
# Stress axis : x y z
#
# Youngs Moduli (GPa) = 47.15521 97.06444 53.84005
#
# Poissons Ratio (x) = -0.04119 0.00586
# Poissons Ratio (y) = -0.02001 -0.00393
# Poissons Ratio (z) = 0.00514 -0.00709
#
# Static dielectric constant tensor:
#      x y z
#    x 4.121880 0.000000 -0.315840 
#    y 0.000000 4.661270 0.000000 
#    z -0.315840 0.000000 3.920060 
# 
# 
# High freq. dielectric constant tensor:
#      x y z
#    x 1.829390 0.000000 -0.037590 
#    y 0.000000 1.867320 0.000000 
#    z -0.037590 0.000000 1.868180 
# 
# From -- ./inp_files/283540.got.cif
#   From: 2010.06.25/outbox.cif.g09.slc.cpg/sg15_142_cif.got.tgz:283540.got - 2010.06.28 07:06:18.
