data_PCOD8144582
_publ_section_title
;
Structure prediction by ZEFSAII (Michael W. Deem and Ramdas Pophale) SiO2 
 PCOD8144582
Probable space group: C 2/C
;
_chemical_formula_sum "Si O2"
_cell_formula_units_Z 40
_cell_length_a 5.373738
_cell_length_b 11.931901
_cell_length_c 26.011323
_cell_angle_alpha 90.000000
_cell_angle_beta 107.470146
_cell_angle_gamma 90.000000
_cell_volume 1590.887089
_symmetry_space_group_name_H-M "C 2/C"
_symmetry_group_IT_number 15
_symmetry_cell_setting 'monoclinic'
loop_
_space_group_symop_operation_xyz
x,y,z
-x,y,1/2-z
-x,-y,-z
x,-y,1/2+z
1/2+x,1/2+y,z
1/2-x,1/2+y,1/2-z
1/2-x,1/2-y,-z
1/2+x,1/2-y,1/2+z
loop_
_atom_site_type_symbol
_atom_site_label
_atom_site_fract_x
_atom_site_fract_y
_atom_site_fract_z
Si Si1 0.494257 0.411159 0.429205
Si Si2 0.202311 0.565717 0.715928
Si Si3 0.977572 0.273385 0.374350
Si Si4 0.279564 0.060031 0.378081
Si Si5 0.210566 0.143007 0.045787
O O1 0.220998 0.357771 0.396542
O O2 0.679931 0.435638 0.391147
O O3 0.468066 0.538570 0.448207
O O4 0.630255 0.331652 0.481180
O O5 0.500000 0.544260 0.750000
O O6 0.109366 0.464457 0.672111
O O7 0.000000 0.569481 0.750000
O O8 0.197631 0.681245 0.683203
O O9 0.054761 0.150933 0.359081
O O10 0.830508 0.252336 0.420079
O O11 0.489311 0.107805 0.431320
#
# Coordination Sequence:
#
# PCOD8144582 Si02
#       5
#     8   8   8   8   8
#     4  10  21  43  68 109 152 192 225 291 368 447
#     4  12  29  53  75 101 144 191 248 320 370 419
#     4  11  25  45  72 105 142 190 246 300 362 448
#     4  11  25  45  71 105 144 189 244 302 359 450
#     4  10  22  40  73 106 150 187 237 286 368 448
#
# _framework density 25.143205999999999
#
# number of rings (size 3 to 8) (size 9 to 14) (size 15 to 20)
#    0.000    1.200    2.000    2.400    8.400    1.600 
#    0.000    0.000    0.000    0.000    0.000    0.000 
#    0.000    0.000    0.000    0.000    0.000    0.000 
#
# Total GULP energy -248012.329569 kJ/mol
# GULP energy per Si atom -12400.616478 kJ/mol
# Density = 2.508598 g / cm^3
# Si number density = 25.143206 Si / 1000 Ang^3
#
#
#
# Elastic Constant Matrix: (Units=GPa)
#
#
# Indices 1 2 3 4 5 6 
#
# 1 117.6601 11.6740 48.3732 0.0000 -11.1605 0.0000
# 2 11.6740 83.6931 38.4392 0.0000 -9.7390 0.0000
# 3 48.3732 38.4392 131.9681 0.0000 -17.7345 0.0000
# 4 0.0000 0.0000 0.0000 41.9065 0.0000 3.1140
# 5 -11.1605 -9.7390 -17.7345 0.0000 53.3850 0.0000
# 6 0.0000 0.0000 0.0000 3.1140 0.0000 44.5705
#
#
#
# Elastic Compliance Matrix: (Units=1/GPa)
#
#
# Indices 1 2 3 4 5 6 
#
# 1 0.010061 0.000396 -0.003675 0.000000 0.000955 0.000000
# 2 0.000396 0.013888 -0.004018 0.000000 0.001281 0.000000
# 3 -0.003675 -0.004018 0.010356 0.000000 0.001939 0.000000
# 4 0.000000 0.000000 0.000000 0.023987 0.000000 -0.001676
# 5 0.000955 0.001281 0.001939 0.000000 0.019809 0.000000
# 6 0.000000 0.000000 0.000000 -0.001676 0.000000 0.022553
#
#
# Mechanical properties :
#
#
# Convention : Reuss Voigt Hill
#
# Bulk Modulus (GPa) = 50.73594 58.92157 54.82876
# Shear Modulus (GPa) = 41.04451 43.62805 42.33628
#
# Velocity S-wave (km/s) = 4.04472 4.17007 4.10787
# Velocity P-wave (km/s) = 6.48348 6.83164 6.65984
#
# Compressibility (1/GPa) = 0.01970990
#
# Stress axis : x y z
#
# Youngs Moduli (GPa) = 99.39162 72.00587 96.56701
#
# Poissons Ratio (x) = -0.02848 0.35487
# Poissons Ratio (y) = -0.03931 0.38800
# Poissons Ratio (z) = 0.36525 0.28932
#
# Static dielectric constant tensor:
#      x y z
#    x 4.491450 0.000000 -0.235800 
#    y 0.000000 4.799200 0.000000 
#    z -0.235800 0.000000 4.600760 
# 
# 
# High freq. dielectric constant tensor:
#      x y z
#    x 2.005760 0.000000 -0.013650 
#    y 0.000000 2.036020 0.000000 
#    z -0.013650 0.000000 2.003180 
# 
# From -- ./inp_files/260480.got.cif
#   From: 2010.06.25/outbox.cif.g09.slc.cpg/sg15_131_cif.got.tgz:260480.got - 2010.06.28 07:06:18.
