data_PCOD8144831
_publ_section_title
;
Structure prediction by ZEFSAII (Michael W. Deem and Ramdas Pophale) SiO2 
 PCOD8144831
Probable space group: C 2/C
;
_chemical_formula_sum "Si O2"
_cell_formula_units_Z 56
_cell_length_a 8.661215
_cell_length_b 18.360756
_cell_length_c 16.417829
_cell_angle_alpha 90.000000
_cell_angle_beta 70.045139
_cell_angle_gamma 90.000000
_cell_volume 2454.117215
_symmetry_space_group_name_H-M "C 2/C"
_symmetry_group_IT_number 15
_symmetry_cell_setting 'monoclinic'
loop_
_space_group_symop_operation_xyz
x,y,z
-x,y,1/2-z
-x,-y,-z
x,-y,1/2+z
1/2+x,1/2+y,z
1/2-x,1/2+y,1/2-z
1/2-x,1/2-y,-z
1/2+x,1/2-y,1/2+z
loop_
_atom_site_type_symbol
_atom_site_label
_atom_site_fract_x
_atom_site_fract_y
_atom_site_fract_z
Si Si1 0.194809 0.420352 0.264829
Si Si2 0.500000 0.796209 0.250000
Si Si3 0.754631 0.006617 0.095138
Si Si4 0.063984 0.436502 0.829758
Si Si5 0.427310 0.720966 0.938286
Si Si6 0.500000 0.668635 0.750000
Si Si7 0.456632 0.603809 0.464297
Si Si8 0.243801 0.308475 0.878718
O O1 0.071414 0.352314 0.304826
O O2 0.174862 0.453923 0.177452
O O3 0.162230 0.488144 0.329889
O O4 0.372881 0.388376 0.238549
O O5 0.653389 0.749727 0.191440
O O6 0.604902 0.056903 0.087087
O O7 0.823637 0.957000 0.010885
O O8 0.894990 0.060501 0.107135
O O9 0.189256 0.373653 0.830557
O O10 0.000000 0.422143 0.750000
O O11 0.433513 0.717654 0.837802
O O12 0.576314 0.772676 0.943277
O O13 0.250000 0.750000 0.000000
O O14 0.462576 0.641955 0.970878
O O15 0.367169 0.663906 0.425822
#
# Coordination Sequence:
#
# PCOD8144831 Si02
#       8
#     8   4   8   8   8   4   8   8
#     4  11  23  44  72 102 144 200 251 310 371 455
#     4  12  24  45  69 110 150 200 246 316 378 449
#     4  10  21  45  70  96 145 187 250 304 383 447
#     4  10  24  42  70 101 143 187 251 309 373 450
#     4  12  28  48  71 107 155 202 247 316 389 456
#     4  12  26  45  75 102 142 196 264 296 384 449
#     4  11  25  43  70 103 143 192 246 319 373 459
#     4  12  28  42  73 109 150 193 253 314 387 445
#
# _framework density 22.818795000000001
#
# number of rings (size 3 to 8) (size 9 to 14) (size 15 to 20)
#    0.000    0.857    5.000    1.286    9.000    1.714 
#    0.000    0.000    0.000    0.000    0.000    0.000 
#    0.000    0.000    0.000    0.000    0.000    0.000 
#
# Total GULP energy -346900.962528 kJ/mol
# GULP energy per Si atom -12389.320090 kJ/mol
# Density = 2.276686 g / cm^3
# Si number density = 22.818795 Si / 1000 Ang^3
#
#
#
# Elastic Constant Matrix: (Units=GPa)
#
#
# Indices 1 2 3 4 5 6 
#
# 1 99.4832 65.4472 40.5317 0.0000 -27.9090 0.0000
# 2 65.4472 145.4407 44.1968 0.0000 -16.8834 0.0000
# 3 40.5317 44.1968 83.7625 0.0000 -14.7561 0.0000
# 4 0.0000 0.0000 0.0000 19.1942 0.0000 -18.6177
# 5 -27.9090 -16.8834 -14.7561 0.0000 43.1746 0.0000
# 6 0.0000 0.0000 0.0000 -18.6177 0.0000 43.7651
#
#
#
# Elastic Compliance Matrix: (Units=1/GPa)
#
#
# Indices 1 2 3 4 5 6 
#
# 1 0.017759 -0.005828 -0.004147 0.000000 0.007784 0.000000
# 2 -0.005828 0.010240 -0.002704 0.000000 -0.000687 0.000000
# 3 -0.004147 -0.002704 0.015656 0.000000 0.001613 0.000000
# 4 0.000000 0.000000 0.000000 0.088698 0.000000 0.037732
# 5 0.007784 -0.000687 0.001613 0.000000 0.028476 0.000000
# 6 0.000000 0.000000 0.000000 0.037732 0.000000 0.038900
#
#
# Mechanical properties :
#
#
# Convention : Reuss Voigt Hill
#
# Bulk Modulus (GPa) = 54.65332 69.89309 62.27320
# Shear Modulus (GPa) = 21.62757 33.12750 27.37754
#
# Velocity S-wave (km/s) = 3.08197 3.81434 3.46754
# Velocity P-wave (km/s) = 6.05539 7.07778 6.58645
#
# Compressibility (1/GPa) = 0.01829715
#
# Stress axis : x y z
#
# Youngs Moduli (GPa) = 56.30934 97.65585 63.87205
#
# Poissons Ratio (x) = 0.56910 0.26490
# Poissons Ratio (y) = 0.32815 0.17272
# Poissons Ratio (z) = 0.23353 0.26408
#
# Static dielectric constant tensor:
#      x y z
#    x 4.711310 0.000000 -0.196460 
#    y 0.000000 4.373280 0.000000 
#    z -0.196460 0.000000 3.980970 
# 
# 
# High freq. dielectric constant tensor:
#      x y z
#    x 1.919370 0.000000 -0.028750 
#    y 0.000000 1.922110 0.000000 
#    z -0.028750 0.000000 1.864270 
# 
# From -- ./inp_files/190948.got.cif
#   From: 2010.06.25/outbox.cif.g09.slc.cpg/sg15_96_cif.got.tgz:190948.got - 2010.06.28 07:06:18.
