data_PCOD8144360
_publ_section_title
;
Structure prediction by ZEFSAII (Michael W. Deem and Ramdas Pophale) SiO2 
 PCOD8144360
Probable space group: C 2/C
;
_chemical_formula_sum "Si O2"
_cell_formula_units_Z 60
_cell_length_a 8.580131
_cell_length_b 26.369930
_cell_length_c 12.527833
_cell_angle_alpha 90.000000
_cell_angle_beta 84.223734
_cell_angle_gamma 90.000000
_cell_volume 2820.123301
_symmetry_space_group_name_H-M "C 2/C"
_symmetry_group_IT_number 15
_symmetry_cell_setting 'monoclinic'
loop_
_space_group_symop_operation_xyz
x,y,z
-x,y,1/2-z
-x,-y,-z
x,-y,1/2+z
1/2+x,1/2+y,z
1/2-x,1/2+y,1/2-z
1/2-x,1/2-y,-z
1/2+x,1/2-y,1/2+z
loop_
_atom_site_type_symbol
_atom_site_label
_atom_site_fract_x
_atom_site_fract_y
_atom_site_fract_z
Si Si1 0.156979 0.220683 0.093292
Si Si2 0.145275 0.374543 0.402788
Si Si3 0.317882 0.442563 0.781135
Si Si4 0.824472 0.801680 0.535918
Si Si5 0.319556 0.158535 0.249683
Si Si6 0.177470 0.542319 0.726452
Si Si7 0.600488 0.947725 0.000277
Si Si8 0.500000 0.796759 0.250000
O O1 0.254653 0.173732 0.136579
O O2 0.129330 0.259952 0.191334
O O3 0.009803 0.199742 0.037384
O O4 0.250000 0.250000 0.000000
O O5 0.283163 0.349286 0.462398
O O6 0.214278 0.414727 0.312253
O O7 0.062506 0.330502 0.342215
O O8 0.025398 0.401413 0.495137
O O9 0.500000 0.427892 0.750000
O O10 0.219351 0.400264 0.725270
O O11 0.299239 0.496999 0.729012
O O12 0.240591 0.445223 0.904783
O O13 0.750000 0.750000 0.500000
O O14 0.761805 0.806795 0.658581
O O15 0.500000 0.169021 0.250000
O O16 0.193288 0.561494 0.604677
O O17 0.000000 0.521663 0.750000
O O18 0.500000 0.000000 0.000000
#
# Coordination Sequence:
#
# PCOD8144360 Si02
#       8
#     8   8   8   8   8   8   8   4
#     4  12  26  45  70 104 145 186 235 300 369 433
#     4  11  22  41  74 106 137 193 244 296 352 432
#     4  12  26  42  65 105 146 178 233 304 363 426
#     4  12  23  43  70 104 144 185 239 299 360 431
#     4  12  26  45  70 101 137 189 243 298 361 438
#     4  10  21  42  69 101 136 185 242 285 351 433
#     4  11  22  42  73 103 137 194 246 287 356 437
#     4  12  22  46  70 100 148 182 244 294 350 442
#
# _framework density 21.275665
#
# number of rings (size 3 to 8) (size 9 to 14) (size 15 to 20)
#    0.000    0.533    7.333    2.800    3.733    0.533 
#    0.000    2.667    0.000    0.000    0.000    0.000 
#    0.000    0.000    0.000    0.000    0.000    0.000 
#
# Total GULP energy -371820.642506 kJ/mol
# GULP energy per Si atom -12394.021417 kJ/mol
# Density = 2.122724 g / cm^3
# Si number density = 21.275665 Si / 1000 Ang^3
#
#
#
# Elastic Constant Matrix: (Units=GPa)
#
#
# Indices 1 2 3 4 5 6 
#
# 1 138.5563 45.7220 65.2970 0.0000 5.6212 0.0000
# 2 45.7220 115.8638 42.1407 0.0000 10.2023 0.0000
# 3 65.2970 42.1407 115.8938 0.0000 -3.6967 0.0000
# 4 0.0000 0.0000 0.0000 98.3998 0.0000 -16.4983
# 5 5.6212 10.2023 -3.6967 0.0000 46.7646 0.0000
# 6 0.0000 0.0000 0.0000 -16.4983 0.0000 50.5977
#
#
#
# Elastic Compliance Matrix: (Units=1/GPa)
#
#
# Indices 1 2 3 4 5 6 
#
# 1 0.010377 -0.002132 -0.005109 0.000000 -0.001186 0.000000
# 2 -0.002132 0.010675 -0.002753 0.000000 -0.002290 0.000000
# 3 -0.005109 -0.002753 0.012579 0.000000 0.002209 0.000000
# 4 0.000000 0.000000 0.000000 0.010750 0.000000 0.003505
# 5 -0.001186 -0.002290 0.002209 0.000000 0.022201 0.000000
# 6 0.000000 0.000000 0.000000 0.003505 0.000000 0.020907
#
#
# Mechanical properties :
#
#
# Convention : Reuss Voigt Hill
#
# Bulk Modulus (GPa) = 73.30549 75.18148 74.24349
# Shear Modulus (GPa) = 44.63297 53.62939 49.13118
#
# Velocity S-wave (km/s) = 4.58519 5.02610 4.81070
# Velocity P-wave (km/s) = 7.90960 8.31238 8.11349
#
# Compressibility (1/GPa) = 0.01364154
#
# Stress axis : x y z
#
# Youngs Moduli (GPa) = 96.36983 93.67366 79.49928
#
# Poissons Ratio (x) = 0.19973 0.40616
# Poissons Ratio (y) = 0.20548 0.21890
# Poissons Ratio (z) = 0.49235 0.25792
#
# Static dielectric constant tensor:
#      x y z
#    x 3.641520 0.000000 0.031820 
#    y 0.000000 4.247320 0.000000 
#    z 0.031820 0.000000 4.272220 
# 
# 
# High freq. dielectric constant tensor:
#      x y z
#    x 1.814730 0.000000 0.003200 
#    y 0.000000 1.851920 0.000000 
#    z 0.003200 0.000000 1.849880 
# 
# From -- ./inp_files/81393.got.cif
#   From: 2010.06.25/outbox.cif.g09.slc.cpg/sg15_41_cif.got.tgz:81393.got - 2010.06.28 07:06:18.
