data_PCOD8144692
_publ_section_title
;
Structure prediction by ZEFSAII (Michael W. Deem and Ramdas Pophale) SiO2 
 PCOD8144692
Probable space group: C 2/C
;
_chemical_formula_sum "Si O2"
_cell_formula_units_Z 44
_cell_length_a 26.832103
_cell_length_b 5.730829
_cell_length_c 12.467980
_cell_angle_alpha 90.000000
_cell_angle_beta 104.772382
_cell_angle_gamma 90.000000
_cell_volume 1853.833234
_symmetry_space_group_name_H-M "C 2/C"
_symmetry_group_IT_number 15
_symmetry_cell_setting 'monoclinic'
loop_
_space_group_symop_operation_xyz
x,y,z
-x,y,1/2-z
-x,-y,-z
x,-y,1/2+z
1/2+x,1/2+y,z
1/2-x,1/2+y,1/2-z
1/2-x,1/2-y,-z
1/2+x,1/2-y,1/2+z
loop_
_atom_site_type_symbol
_atom_site_label
_atom_site_fract_x
_atom_site_fract_y
_atom_site_fract_z
Si Si1 0.259529 0.935780 0.812914
Si Si2 0.905836 0.951318 0.323004
Si Si3 0.500000 0.637391 0.250000
Si Si4 0.418271 0.805285 0.053136
Si Si5 0.335018 0.513480 0.606781
Si Si6 0.643534 0.826876 0.067839
O O1 0.246362 0.190653 0.752480
O O2 0.220571 0.913967 0.891184
O O3 0.319169 0.956338 0.880756
O O4 0.958842 0.977067 0.287532
O O5 0.878625 0.196990 0.340367
O O6 0.919782 0.809447 0.436377
O O7 0.862957 0.837918 0.218841
O O8 0.472819 0.795849 0.143918
O O9 0.374359 0.696014 0.103874
O O10 0.405088 0.075739 0.026108
O O11 0.324681 0.657371 0.492924
#
# Coordination Sequence:
#
# PCOD8144692 Si02
#       6
#     8   8   4   8   8   8
#     4  12  26  43  71 105 144 190 232 284 348 420
#     4  10  21  44  63  97 132 177 224 285 346 418
#     4  10  22  40  68  96 128 178 226 286 358 408
#     4  10  23  41  67  93 135 171 231 284 350 415
#     4  10  23  42  65  97 134 181 228 279 347 412
#     4  11  24  41  67  96 135 179 228 287 344 417
#
# _framework density 23.734604000000001
#
# number of rings (size 3 to 8) (size 9 to 14) (size 15 to 20)
#    0.000    1.455    1.818    2.182    5.091    4.364 
#    0.000    9.091    0.000    0.000    0.000    0.000 
#    0.000    0.000    0.000    0.000    0.000    0.000 
#
# Total GULP energy -272606.978604 kJ/mol
# GULP energy per Si atom -12391.226300 kJ/mol
# Density = 2.368058 g / cm^3
# Si number density = 23.734604 Si / 1000 Ang^3
#
#
#
# Elastic Constant Matrix: (Units=GPa)
#
#
# Indices 1 2 3 4 5 6 
#
# 1 104.9212 0.2908 27.6210 0.0000 -15.8298 0.0000
# 2 0.2908 65.5099 10.5869 0.0000 -0.9627 0.0000
# 3 27.6210 10.5869 105.0884 0.0000 -4.5006 0.0000
# 4 0.0000 0.0000 0.0000 18.0496 0.0000 13.8937
# 5 -15.8298 -0.9627 -4.5006 0.0000 48.1292 0.0000
# 6 0.0000 0.0000 0.0000 13.8937 0.0000 20.0471
#
#
#
# Elastic Compliance Matrix: (Units=1/GPa)
#
#
# Indices 1 2 3 4 5 6 
#
# 1 0.010744 0.000441 -0.002728 0.000000 0.003287 0.000000
# 2 0.000441 0.015537 -0.001668 0.000000 0.000300 0.000000
# 3 -0.002728 -0.001668 0.010403 0.000000 0.000042 0.000000
# 4 0.000000 0.000000 0.000000 0.118758 0.000000 -0.082306
# 5 0.003287 0.000300 0.000042 0.000000 0.021869 0.000000
# 6 0.000000 0.000000 0.000000 -0.082306 0.000000 0.106925
#
#
# Mechanical properties :
#
#
# Convention : Reuss Voigt Hill
#
# Bulk Modulus (GPa) = 34.75331 39.16854 36.96093
# Shear Modulus (GPa) = 16.57083 33.04657 24.80870
#
# Velocity S-wave (km/s) = 2.64516 3.73545 3.23655
# Velocity P-wave (km/s) = 4.89933 5.92818 5.43814
#
# Compressibility (1/GPa) = 0.02877423
#
# Stress axis : x y z
#
# Youngs Moduli (GPa) = 93.07736 64.36272 96.12996
#
# Poissons Ratio (x) = -0.02841 0.26220
# Poissons Ratio (y) = -0.04108 0.16038
# Poissons Ratio (z) = 0.25387 0.10738
#
# Static dielectric constant tensor:
#      x y z
#    x 4.368920 0.000000 0.075500 
#    y 0.000000 3.979590 0.000000 
#    z 0.075500 0.000000 4.600720 
# 
# 
# High freq. dielectric constant tensor:
#      x y z
#    x 1.950550 0.000000 -0.003430 
#    y 0.000000 1.912370 0.000000 
#    z -0.003430 0.000000 1.961030 
# 
# From -- ./inp_files/124958.got.cif
#   From: 2010.06.25/outbox.cif.g09.slc.cpg/sg15_63_cif.got.tgz:124958.got - 2010.06.28 07:06:18.
