data_PCOD8144075
_publ_section_title
;
Structure prediction by ZEFSAII (Michael W. Deem and Ramdas Pophale) SiO2 
 PCOD8144075
Probable space group: C 2/C
;
_chemical_formula_sum "Si O2"
_cell_formula_units_Z 52
_cell_length_a 7.832931
_cell_length_b 20.032557
_cell_length_c 16.333761
_cell_angle_alpha 90.000000
_cell_angle_beta 112.266262
_cell_angle_gamma 90.000000
_cell_volume 2371.875368
_symmetry_space_group_name_H-M "C 2/C"
_symmetry_group_IT_number 15
_symmetry_cell_setting 'monoclinic'
loop_
_space_group_symop_operation_xyz
x,y,z
-x,y,1/2-z
-x,-y,-z
x,-y,1/2+z
1/2+x,1/2+y,z
1/2-x,1/2+y,1/2-z
1/2-x,1/2-y,-z
1/2+x,1/2-y,1/2+z
loop_
_atom_site_type_symbol
_atom_site_label
_atom_site_fract_x
_atom_site_fract_y
_atom_site_fract_z
Si Si1 0.203822 0.270761 0.769805
Si Si2 0.966195 0.292088 0.440971
Si Si3 0.324926 0.295463 0.401106
Si Si4 0.087143 0.017338 0.385586
Si Si5 0.569068 0.945153 0.076869
Si Si6 0.209310 0.945021 0.086836
Si Si7 0.500000 0.630509 0.250000
O O1 0.280931 0.237597 0.866987
O O2 0.189401 0.213596 0.698602
O O3 0.334875 0.328367 0.759444
O O4 0.000000 0.300481 0.750000
O O5 0.939058 0.369723 0.460391
O O6 0.127451 0.278599 0.404670
O O7 0.015898 0.252111 0.532702
O O8 0.378708 0.371653 0.426855
O O9 0.161732 0.025070 0.490127
O O10 0.087812 0.086452 0.337861
O O11 0.221117 0.965057 0.361748
O O12 0.879495 0.987709 0.355287
O O13 0.433657 0.945914 0.132409
O O14 0.500000 0.000000 0.000000
#
# Coordination Sequence:
#
# PCOD8144075 Si02
#       7
#     8   8   8   8   8   8   4
#     4  12  27  43  64 101 134 171 230 281 331 409
#     4  10  21  42  69 100 136 180 218 280 336 392
#     4  10  21  41  73  93 136 179 217 274 340 392
#     4  10  22  40  64  90 131 167 213 271 323 398
#     4   9  20  37  64  96 127 168 217 267 325 397
#     4   9  20  40  63  97 122 166 218 264 322 394
#     4  12  26  46  62  92 134 176 218 278 344 396
#
# _framework density 21.923580000000001
#
# number of rings (size 3 to 8) (size 9 to 14) (size 15 to 20)
#    0.000    1.846    1.538    0.923    8.615    3.077 
#    5.538    1.538    0.000    0.000    0.000    0.000 
#    0.000    0.000    0.000    0.000    0.000    0.000 
#
# Total GULP energy -322293.453074 kJ/mol
# GULP energy per Si atom -12395.902041 kJ/mol
# Density = 2.187368 g / cm^3
# Si number density = 21.923580 Si / 1000 Ang^3
#
#
#
# Elastic Constant Matrix: (Units=GPa)
#
#
# Indices 1 2 3 4 5 6 
#
# 1 134.5983 73.0210 29.4488 0.0000 13.4172 0.0000
# 2 73.0210 144.4193 24.3963 0.0000 5.8832 0.0000
# 3 29.4488 24.3963 67.9059 0.0000 8.5227 0.0000
# 4 0.0000 0.0000 0.0000 30.0443 0.0000 -4.7559
# 5 13.4172 5.8832 8.5227 0.0000 20.4357 0.0000
# 6 0.0000 0.0000 0.0000 -4.7559 0.0000 27.7729
#
#
#
# Elastic Compliance Matrix: (Units=1/GPa)
#
#
# Indices 1 2 3 4 5 6 
#
# 1 0.011184 -0.005047 -0.002425 0.000000 -0.004879 0.000000
# 2 -0.005047 0.009671 -0.001427 0.000000 0.001124 0.000000
# 3 -0.002425 -0.001427 0.016925 0.000000 -0.005056 0.000000
# 4 0.000000 0.000000 0.000000 0.034212 0.000000 0.005858
# 5 -0.004879 0.001124 -0.005056 0.000000 0.053922 0.000000
# 6 0.000000 0.000000 0.000000 0.005858 0.000000 0.037010
#
#
# Mechanical properties :
#
#
# Convention : Reuss Voigt Hill
#
# Bulk Modulus (GPa) = 50.04141 66.73952 58.39047
# Shear Modulus (GPa) = 26.68346 30.32106 28.50226
#
# Velocity S-wave (km/s) = 3.49250 3.72295 3.60956
# Velocity P-wave (km/s) = 6.25606 6.99918 6.63803
#
# Compressibility (1/GPa) = 0.01998345
#
# Stress axis : x y z
#
# Youngs Moduli (GPa) = 89.41176 103.39991 59.08390
#
# Poissons Ratio (x) = 0.52181 0.14327
# Poissons Ratio (y) = 0.45122 0.08432
# Poissons Ratio (z) = 0.21681 0.14756
#
# Static dielectric constant tensor:
#      x y z
#    x 4.950910 0.000000 0.189940 
#    y 0.000000 3.898740 0.000000 
#    z 0.189940 0.000000 3.672940 
# 
# 
# High freq. dielectric constant tensor:
#      x y z
#    x 1.876950 0.000000 0.003690 
#    y 0.000000 1.863900 0.000000 
#    z 0.003690 0.000000 1.834530 
# 
# From -- ./inp_files/191130.got.cif
#   From: 2010.06.25/outbox.cif.g09.slc.cpg/sg15_96_cif.got.tgz:191130.got - 2010.06.28 07:06:18.
