data_PCOD8144290
_publ_section_title
;
Structure prediction by ZEFSAII (Michael W. Deem and Ramdas Pophale) SiO2 
 PCOD8144290
Probable space group: C 2/C
;
_chemical_formula_sum "Si O2"
_cell_formula_units_Z 48
_cell_length_a 18.952549
_cell_length_b 25.755296
_cell_length_c 10.293828
_cell_angle_alpha 90.000000
_cell_angle_beta 26.406428
_cell_angle_gamma 90.000000
_cell_volume 2234.668157
_symmetry_space_group_name_H-M "C 2/C"
_symmetry_group_IT_number 15
_symmetry_cell_setting 'monoclinic'
loop_
_space_group_symop_operation_xyz
x,y,z
-x,y,1/2-z
-x,-y,-z
x,-y,1/2+z
1/2+x,1/2+y,z
1/2-x,1/2+y,1/2-z
1/2-x,1/2-y,-z
1/2+x,1/2-y,1/2+z
loop_
_atom_site_type_symbol
_atom_site_label
_atom_site_fract_x
_atom_site_fract_y
_atom_site_fract_z
Si Si1 0.436631 0.247805 0.212102
Si Si2 0.586865 0.133145 0.237744
Si Si3 0.500000 0.577432 0.750000
Si Si4 0.537469 0.644968 0.925077
Si Si5 0.500000 0.408012 0.750000
Si Si6 0.244867 0.990225 0.375129
Si Si7 0.012387 0.441739 0.367384
O O1 0.500000 0.261556 0.250000
O O2 0.250000 0.250000 0.500000
O O3 0.488018 0.188856 0.093771
O O4 0.508861 0.293819 0.003783
O O5 0.500000 0.114315 0.250000
O O6 0.548804 0.093996 0.415688
O O7 0.773974 0.137147 0.902058
O O8 0.448183 0.613480 0.956890
O O9 0.640647 0.541341 0.572776
O O10 0.467298 0.626940 0.178536
O O11 0.646104 0.445080 0.466858
O O12 0.309955 0.963843 0.401442
O O13 0.398509 0.007512 0.039906
O O14 0.000000 0.411677 0.250000
#
# Coordination Sequence:
#
# PCOD8144290 Si02
#       7
#     8   8   4   8   4   8   8
#     4   9  19  38  67  93 120 164 209 254 315 386
#     4  10  21  42  67  89 125 164 205 251 315 379
#     4  11  22  40  66  86 120 162 214 253 310 372
#     4  11  22  40  65  94 124 161 208 258 314 376
#     4  11  26  38  62  92 130 160 204 263 316 362
#     4  10  25  40  57  89 124 165 202 254 314 369
#     4  11  24  41  63  91 122 162 213 259 306 369
#
# _framework density 21.479699
#
# number of rings (size 3 to 8) (size 9 to 14) (size 15 to 20)
#    0.000    1.667    2.500    1.000    4.667    4.000 
#    1.500    0.000    0.000    4.000    0.000    0.000 
#    0.000    0.000    0.000    0.000    0.000    0.000 
#
# Total GULP energy -297337.310941 kJ/mol
# GULP energy per Si atom -12389.054623 kJ/mol
# Density = 2.143081 g / cm^3
# Si number density = 21.479699 Si / 1000 Ang^3
#
#
#
# Elastic Constant Matrix: (Units=GPa)
#
#
# Indices 1 2 3 4 5 6 
#
# 1 132.5836 46.6803 37.7316 -0.0125 16.2946 0.0098
# 2 46.6803 122.5736 35.6194 -0.0022 18.2302 0.0018
# 3 37.7316 35.6194 47.9752 -0.0264 6.7996 0.0055
# 4 -0.0125 -0.0022 -0.0264 11.4074 0.0138 0.0253
# 5 16.2946 18.2302 6.7996 0.0138 42.8365 -0.0055
# 6 0.0098 0.0018 0.0055 0.0253 -0.0055 31.5978
#
#
#
# Elastic Compliance Matrix: (Units=1/GPa)
#
#
# Indices 1 2 3 4 5 6 
#
# 1 0.010253 -0.001697 -0.006500 -0.000002 -0.002146 -0.000002
# 2 -0.001697 0.011153 -0.006511 -0.000011 -0.003067 0.000000
# 3 -0.006500 -0.006511 0.030739 0.000062 0.000364 -0.000003
# 4 -0.000002 -0.000011 0.000062 0.087663 -0.000033 -0.000070
# 5 -0.002146 -0.003067 0.000364 -0.000033 0.025409 0.000005
# 6 -0.000002 0.000000 -0.000003 -0.000070 0.000005 0.031648
#
#
# Mechanical properties :
#
#
# Convention : Reuss Voigt Hill
#
# Bulk Modulus (GPa) = 43.99665 60.35499 52.17582
# Shear Modulus (GPa) = 21.38054 29.37509 25.37782
#
# Velocity S-wave (km/s) = 3.15839 3.70209 3.44099
# Velocity P-wave (km/s) = 5.81618 6.81422 6.33488
#
# Compressibility (1/GPa) = 0.02272900
#
# Stress axis : x y z
#
# Youngs Moduli (GPa) = 97.52797 89.66270 32.53180
#
# Poissons Ratio (x) = 0.15213 0.21146
# Poissons Ratio (y) = 0.16548 0.21183
# Poissons Ratio (z) = 0.63395 0.58382
#
# Static dielectric constant tensor:
#      x y z
#    x 4.172080 -0.000070 -0.330570 
#    y -0.000070 4.344920 0.000080 
#    z -0.330570 0.000080 3.396260 
# 
# 
# High freq. dielectric constant tensor:
#      x y z
#    x 1.862150 0.000000 -0.020900 
#    y 0.000000 1.858350 0.000000 
#    z -0.020900 0.000000 1.793830 
# 
# From -- ./inp_files/52766.got.cif
#   From: 2010.06.25/outbox.cif.g09.slc.cpg/sg15_27_cif.got.tgz:52766.got - 2010.06.28 07:06:18.
