data_PCOD8144860
_publ_section_title
;
Structure prediction by ZEFSAII (Michael W. Deem and Ramdas Pophale) SiO2 
 PCOD8144860
Probable space group: C 2/C
;
_chemical_formula_sum "Si O2"
_cell_formula_units_Z 44
_cell_length_a 6.509617
_cell_length_b 25.151116
_cell_length_c 15.619294
_cell_angle_alpha 90.000000
_cell_angle_beta 53.810413
_cell_angle_gamma 90.000000
_cell_volume 2063.878036
_symmetry_space_group_name_H-M "C 2/C"
_symmetry_group_IT_number 15
_symmetry_cell_setting 'monoclinic'
loop_
_space_group_symop_operation_xyz
x,y,z
-x,y,1/2-z
-x,-y,-z
x,-y,1/2+z
1/2+x,1/2+y,z
1/2-x,1/2+y,1/2-z
1/2-x,1/2-y,-z
1/2+x,1/2-y,1/2+z
loop_
_atom_site_type_symbol
_atom_site_label
_atom_site_fract_x
_atom_site_fract_y
_atom_site_fract_z
Si Si1 0.409733 0.923399 0.676079
Si Si2 0.581228 0.450239 0.038688
Si Si3 0.468438 0.758390 0.379562
Si Si4 0.500000 0.489669 0.250000
Si Si5 0.000000 0.809188 0.250000
Si Si6 0.252382 0.639439 0.656928
Si Si7 0.000000 0.163138 0.250000
O O1 0.500000 0.913226 0.750000
O O2 0.636029 0.932175 0.553520
O O3 0.252358 0.872508 0.683468
O O4 0.242794 0.975992 0.714904
O O5 0.560453 0.457546 0.147113
O O6 0.397438 0.400640 0.056988
O O7 0.500000 0.500000 0.000000
O O8 0.250000 0.750000 0.500000
O O9 0.347284 0.804128 0.351644
O O10 0.502804 0.700783 0.330793
O O11 0.752914 0.774547 0.339527
O O12 0.054181 0.848013 0.314787
O O13 0.000000 0.607621 0.750000
#
# Coordination Sequence:
#
# PCOD8144860 Si02
#       7
#     8   8   8   4   4   8   4
#     4  11  26  46  70 104 140 185 237 291 360 425
#     4  12  26  45  77 100 142 191 231 299 360 417
#     4  11  25  43  71 101 140 186 229 288 352 424
#     4  11  25  50  70 104 140 182 238 290 356 436
#     4  10  21  46  65  96 140 175 234 285 346 410
#     4  10  24  44  66 101 135 176 238 282 339 425
#     4  11  26  46  67 104 144 177 234 295 344 428
#
# _framework density 21.319091
#
# number of rings (size 3 to 8) (size 9 to 14) (size 15 to 20)
#    0.000    1.091    4.545    1.091    8.909    0.727 
#    3.273    0.000    0.000    0.000    0.000    0.000 
#    0.000    0.000    0.000    0.000    0.000    0.000 
#
# Total GULP energy -272576.601910 kJ/mol
# GULP energy per Si atom -12389.845541 kJ/mol
# Density = 2.127057 g / cm^3
# Si number density = 21.319091 Si / 1000 Ang^3
#
#
#
# Elastic Constant Matrix: (Units=GPa)
#
#
# Indices 1 2 3 4 5 6 
#
# 1 134.8695 61.1694 60.3309 0.0000 -21.7489 0.0000
# 2 61.1694 135.8925 62.4006 0.0000 -21.3335 0.0000
# 3 60.3309 62.4006 162.8066 0.0000 -30.2729 0.0000
# 4 0.0000 0.0000 0.0000 -72.8557 0.0000 16.3762
# 5 -21.7489 -21.3335 -30.2729 0.0000 47.9235 0.0000
# 6 0.0000 0.0000 0.0000 16.3762 0.0000 -10.6273
#
#
#
# Elastic Compliance Matrix: (Units=1/GPa)
#
#
# Indices 1 2 3 4 5 6 
#
# 1 0.010170 -0.003301 -0.002174 0.000000 0.001773 0.000000
# 2 -0.003301 0.010184 -0.002397 0.000000 0.001521 0.000000
# 3 -0.002174 -0.002397 0.008481 0.000000 0.003304 0.000000
# 4 0.000000 0.000000 0.000000 -0.020999 0.000000 -0.032359
# 5 0.001773 0.001521 0.003304 0.000000 0.024435 0.000000
# 6 0.000000 0.000000 0.000000 -0.032359 0.000000 -0.143960
#
#
# Mechanical properties :
#
#
# Convention : Reuss Voigt Hill
#
# Bulk Modulus (GPa) = 76.39062 89.04115 82.71589
# Shear Modulus (GPa) = -54.59672 9.53260 -22.53206
#
# Velocity S-wave (km/s) = -5.06605 2.11686 -3.25452
# Velocity P-wave (km/s) = 1.29998 6.91602 4.97601
#
# Compressibility (1/GPa) = 0.01309061
#
# Stress axis : x y z
#
# Youngs Moduli (GPa) = 98.32683 98.18912 117.91220
#
# Poissons Ratio (x) = 0.32417 0.25631
# Poissons Ratio (y) = 0.32462 0.28266
# Poissons Ratio (z) = 0.21374 0.23538
#
# Static dielectric constant tensor:
#      x y z
#    x 4.074680 0.000000 -0.136570 
#    y 0.000000 4.044250 0.000000 
#    z -0.136570 0.000000 3.835540 
# 
# 
# High freq. dielectric constant tensor:
#      x y z
#    x 1.843670 0.000000 -0.017840 
#    y 0.000000 1.851530 0.000000 
#    z -0.017840 0.000000 1.843910 
# 
# From -- ./inp_files/130014.got.cif
#   From: 2010.06.25/outbox.cif.g09.slc.cpg/sg15_66_cif.got.tgz:130014.got - 2010.06.28 07:06:18.
