data_PCOD8144658
_publ_section_title
;
Structure prediction by ZEFSAII (Michael W. Deem and Ramdas Pophale) SiO2 
 PCOD8144658
Probable space group: C 2/C
;
_chemical_formula_sum "Si O2"
_cell_formula_units_Z 32
_cell_length_a 13.617579
_cell_length_b 7.204075
_cell_length_c 17.463287
_cell_angle_alpha 90.000000
_cell_angle_beta 132.832884
_cell_angle_gamma 90.000000
_cell_volume 1256.346314
_symmetry_space_group_name_H-M "C 2/C"
_symmetry_group_IT_number 15
_symmetry_cell_setting 'monoclinic'
loop_
_space_group_symop_operation_xyz
x,y,z
-x,y,1/2-z
-x,-y,-z
x,-y,1/2+z
1/2+x,1/2+y,z
1/2-x,1/2+y,1/2-z
1/2-x,1/2-y,-z
1/2+x,1/2-y,1/2+z
loop_
_atom_site_type_symbol
_atom_site_label
_atom_site_fract_x
_atom_site_fract_y
_atom_site_fract_z
Si Si1 0.748673 0.695927 0.200837
Si Si2 0.150361 0.307493 0.300103
Si Si3 0.464558 0.219330 0.144059
Si Si4 0.764022 0.475243 0.441329
O O1 0.768882 0.498811 0.169770
O O2 0.643374 0.695801 0.215005
O O3 0.702335 0.848369 0.114631
O O4 0.890877 0.754863 0.317215
O O5 0.000000 0.333281 0.250000
O O6 0.238805 0.188366 0.406814
O O7 0.500000 0.165546 0.250000
O O8 0.370632 0.399231 0.088804
O O9 0.389115 0.041333 0.066142
#
# Coordination Sequence:
#
# PCOD8144658 Si02
#       4
#     8   8   8   8
#     4  11  23  44  69 102 141 181 230 286 341 413
#     4  12  24  42  72 103 141 183 229 282 345 411
#     4   9  20  43  73  96 141 183 224 291 346 397
#     4  10  21  43  72 100 138 187 225 284 350 405
#
# _framework density 25.470683000000001
#
# number of rings (size 3 to 8) (size 9 to 14) (size 15 to 20)
#    0.000    1.500    2.500    4.500    0.000    1.000 
#    0.000   26.250    0.000    0.000    0.000    0.000 
#    0.000    0.000    0.000    0.000    0.000    0.000 
#
# Total GULP energy -198272.867978 kJ/mol
# GULP energy per Si atom -12392.054249 kJ/mol
# Density = 2.541271 g / cm^3
# Si number density = 25.470683 Si / 1000 Ang^3
#
#
#
# Elastic Constant Matrix: (Units=GPa)
#
#
# Indices 1 2 3 4 5 6 
#
# 1 127.0162 26.7819 23.4665 0.0000 2.2248 0.0000
# 2 26.7819 105.0263 13.3936 0.0000 2.8376 0.0000
# 3 23.4665 13.3936 132.6074 0.0000 17.8685 0.0000
# 4 0.0000 0.0000 0.0000 37.7707 0.0000 -2.2694
# 5 2.2248 2.8376 17.8685 0.0000 9.4179 0.0000
# 6 0.0000 0.0000 0.0000 -2.2694 0.0000 29.5434
#
#
#
# Elastic Compliance Matrix: (Units=1/GPa)
#
#
# Indices 1 2 3 4 5 6 
#
# 1 0.008553 -0.002028 -0.001503 0.000000 0.001442 0.000000
# 2 -0.002028 0.010141 -0.000427 0.000000 -0.001765 0.000000
# 3 -0.001503 -0.000427 0.010459 0.000000 -0.019360 0.000000
# 4 0.000000 0.000000 0.000000 0.026598 0.000000 0.002043
# 5 0.001442 -0.001765 -0.019360 0.000000 0.143102 0.000000
# 6 0.000000 0.000000 0.000000 0.002043 0.000000 0.034005
#
#
# Mechanical properties :
#
#
# Convention : Reuss Voigt Hill
#
# Bulk Modulus (GPa) = 47.09176 54.65933 50.87554
# Shear Modulus (GPa) = 20.17309 35.41360 27.79334
#
# Velocity S-wave (km/s) = 2.81732 3.73281 3.30690
# Velocity P-wave (km/s) = 5.39554 6.33125 5.88203
#
# Compressibility (1/GPa) = 0.02123514
#
# Stress axis : x y z
#
# Youngs Moduli (GPa) = 116.91625 98.61089 95.61256
#
# Poissons Ratio (x) = 0.20002 0.14371
# Poissons Ratio (y) = 0.23715 0.04087
# Poissons Ratio (z) = 0.17573 0.04215
#
# Static dielectric constant tensor:
#      x y z
#    x 5.851570 0.000000 0.327090 
#    y 0.000000 4.567480 0.000000 
#    z 0.327090 0.000000 4.644960 
# 
# 
# High freq. dielectric constant tensor:
#      x y z
#    x 2.019450 0.000000 -0.007660 
#    y 0.000000 2.021560 0.000000 
#    z -0.007660 0.000000 2.000340 
# 
# From -- ./inp_files/202407.got.cif
#   From: 2010.06.25/outbox.cif.g09.slc.cpg/sg15_102_cif.got.tgz:202407.got - 2010.06.28 07:06:18.
