data_PCOD8144361
_publ_section_title
;
Structure prediction by ZEFSAII (Michael W. Deem and Ramdas Pophale) SiO2 
 PCOD8144361
Probable space group: C 2/C
;
_chemical_formula_sum "Si O2"
_cell_formula_units_Z 64
_cell_length_a 8.647997
_cell_length_b 25.028683
_cell_length_c 13.671473
_cell_angle_alpha 90.000000
_cell_angle_beta 74.174365
_cell_angle_gamma 90.000000
_cell_volume 2846.998773
_symmetry_space_group_name_H-M "C 2/C"
_symmetry_group_IT_number 15
_symmetry_cell_setting 'monoclinic'
loop_
_space_group_symop_operation_xyz
x,y,z
-x,y,1/2-z
-x,-y,-z
x,-y,1/2+z
1/2+x,1/2+y,z
1/2-x,1/2+y,1/2-z
1/2-x,1/2-y,-z
1/2+x,1/2-y,1/2+z
loop_
_atom_site_type_symbol
_atom_site_label
_atom_site_fract_x
_atom_site_fract_y
_atom_site_fract_z
Si Si1 0.740559 0.346706 0.969835
Si Si2 0.167804 0.820968 0.773604
Si Si3 0.658431 0.465928 0.466193
Si Si4 0.922371 0.449144 0.869262
Si Si5 0.053545 0.879783 0.346411
Si Si6 0.545635 0.203811 0.515601
Si Si7 0.261300 0.277222 0.145437
Si Si8 0.291032 0.897055 0.601086
O O1 0.658932 0.315263 0.892875
O O2 0.826929 0.393652 0.894846
O O3 0.604947 0.368582 0.063465
O O4 0.863339 0.310444 0.013893
O O5 0.265718 0.768482 0.726483
O O6 0.243621 0.876629 0.718418
O O7 0.000000 0.816867 0.750000
O O8 0.500000 0.500000 0.500000
O O9 0.816067 0.501828 0.425263
O O10 0.653794 0.428572 0.372539
O O11 0.654542 0.428415 0.563997
O O12 0.000000 0.459696 0.750000
O O13 0.070317 0.441530 0.917701
O O14 0.173947 0.830298 0.314871
O O15 0.000000 0.898991 0.250000
O O16 0.603917 0.258955 0.456488
O O17 0.583774 0.212815 0.625429
O O18 0.662584 0.155120 0.468072
#
# Coordination Sequence:
#
# PCOD8144361 Si02
#       8
#     8   8   8   8   8   8   8   8
#     4  11  24  46  73 103 138 188 242 298 358 423
#     4  11  24  40  74 111 142 182 244 296 367 433
#     4  12  25  46  72  99 143 193 241 295 366 438
#     4  11  23  44  73 108 137 179 245 303 360 422
#     4  12  28  49  68 101 147 193 241 295 364 442
#     4   9  21  40  72  95 137 180 232 283 351 424
#     4  10  23  44  67 103 144 186 230 291 359 426
#     4  10  21  42  69 101 138 179 226 306 355 423
#
# _framework density 22.479813
#
# number of rings (size 3 to 8) (size 9 to 14) (size 15 to 20)
#    0.000    1.250    3.750    1.125    5.250    2.500 
#    4.500    0.625    0.000    0.000    0.000    0.000 
#    0.000    0.000    0.000    0.000    0.000    0.000 
#
# Total GULP energy -396588.990972 kJ/mol
# GULP energy per Si atom -12393.405968 kJ/mol
# Density = 2.242865 g / cm^3
# Si number density = 22.479813 Si / 1000 Ang^3
#
#
#
# Elastic Constant Matrix: (Units=GPa)
#
#
# Indices 1 2 3 4 5 6 
#
# 1 87.3148 32.2020 23.1384 0.0000 14.2843 0.0000
# 2 32.2020 106.7566 25.8331 0.0000 11.8328 0.0000
# 3 23.1384 25.8331 108.1095 0.0000 13.4799 0.0000
# 4 0.0000 0.0000 0.0000 17.6237 0.0000 1.3125
# 5 14.2843 11.8328 13.4799 0.0000 35.2019 0.0000
# 6 0.0000 0.0000 0.0000 1.3125 0.0000 42.6799
#
#
#
# Elastic Compliance Matrix: (Units=1/GPa)
#
#
# Indices 1 2 3 4 5 6 
#
# 1 0.013745 -0.003318 -0.001672 0.000000 -0.003822 0.000000
# 2 -0.003318 0.010966 -0.001700 0.000000 -0.001689 0.000000
# 3 -0.001672 -0.001700 0.010352 0.000000 -0.002714 0.000000
# 4 0.000000 0.000000 0.000000 0.056872 0.000000 -0.001749
# 5 -0.003822 -0.001689 -0.002714 0.000000 0.031565 0.000000
# 6 0.000000 0.000000 0.000000 -0.001749 0.000000 0.023484
#
#
# Mechanical properties :
#
#
# Convention : Reuss Voigt Hill
#
# Bulk Modulus (GPa) = 46.11737 51.61422 48.86580
# Shear Modulus (GPa) = 29.83421 33.83493 31.83457
#
# Velocity S-wave (km/s) = 3.64697 3.88380 3.76725
# Velocity P-wave (km/s) = 6.18816 6.56673 6.38026
#
# Compressibility (1/GPa) = 0.02168380
#
# Stress axis : x y z
#
# Youngs Moduli (GPa) = 72.75474 91.18786 96.59560
#
# Poissons Ratio (x) = 0.30253 0.16155
# Poissons Ratio (y) = 0.24138 0.16419
# Poissons Ratio (z) = 0.12168 0.15500
#
# Static dielectric constant tensor:
#      x y z
#    x 4.124600 0.000000 0.158960 
#    y 0.000000 4.325840 0.000000 
#    z 0.158960 0.000000 3.931000 
# 
# 
# High freq. dielectric constant tensor:
#      x y z
#    x 1.892920 0.000000 0.015110 
#    y 0.000000 1.891310 0.000000 
#    z 0.015110 0.000000 1.876750 
# 
# From -- ./inp_files/138600.got.cif
#   From: 2010.06.25/outbox.cif.g09.slc.cpg/sg15_70_cif.got.tgz:138600.got - 2010.06.28 07:06:18.
