data_PCOD8144938
_publ_section_title
;
Structure prediction by ZEFSAII (Michael W. Deem and Ramdas Pophale) SiO2 
 PCOD8144938
Probable space group: C 2/C
;
_chemical_formula_sum "Si O2"
_cell_formula_units_Z 44
_cell_length_a 16.718056
_cell_length_b 14.071212
_cell_length_c 12.826538
_cell_angle_alpha 90.000000
_cell_angle_beta 128.452748
_cell_angle_gamma 90.000000
_cell_volume 2362.956679
_symmetry_space_group_name_H-M "C 2/C"
_symmetry_group_IT_number 15
_symmetry_cell_setting 'monoclinic'
loop_
_space_group_symop_operation_xyz
x,y,z
-x,y,1/2-z
-x,-y,-z
x,-y,1/2+z
1/2+x,1/2+y,z
1/2-x,1/2+y,1/2-z
1/2-x,1/2-y,-z
1/2+x,1/2-y,1/2+z
loop_
_atom_site_type_symbol
_atom_site_label
_atom_site_fract_x
_atom_site_fract_y
_atom_site_fract_z
Si Si1 0.500000 0.711268 0.250000
Si Si2 0.280828 0.352682 0.562718
Si Si3 0.054171 0.360111 0.690544
Si Si4 0.311588 0.969137 0.190173
Si Si5 0.763354 0.148087 0.285090
Si Si6 0.418446 0.805919 0.387032
O O1 0.596102 0.641378 0.343281
O O2 0.485799 0.778765 0.340139
O O3 0.250000 0.250000 0.500000
O O4 0.226995 0.434396 0.452903
O O5 0.239305 0.364236 0.644468
O O6 0.081924 0.471694 0.732435
O O7 0.161756 0.305281 0.756588
O O8 0.000000 0.318317 0.750000
O O9 0.983924 0.350760 0.532170
O O10 0.330456 0.879995 0.281725
O O11 0.222654 0.039904 0.161114
O O12 0.862265 0.212142 0.386976
#
# Coordination Sequence:
#
# PCOD8144938 Si02
#       6
#     4   8   8   8   8   8
#     4  10  22  34  72  92 114 162 214 258 314 354
#     4  11  19  40  62  92 126 162 207 264 310 357
#     4  10  24  37  59  91 123 163 208 249 314 375
#     4  10  23  35  63  91 125 158 201 269 301 367
#     4   9  23  38  59  92 121 160 205 257 314 358
#     4  11  21  39  62  92 124 161 204 261 309 364
#
# _framework density 18.620737999999999
#
# number of rings (size 3 to 8) (size 9 to 14) (size 15 to 20)
#    1.091    0.727    3.636    1.636    3.818    0.727 
#    0.000    3.636    2.000    0.000    0.000    0.000 
#    0.000    0.000    0.000    0.000    0.000    0.000 
#
# Total GULP energy -272597.515482 kJ/mol
# GULP energy per Si atom -12390.796158 kJ/mol
# Density = 1.857836 g / cm^3
# Si number density = 18.620738 Si / 1000 Ang^3
#
#
#
# Elastic Constant Matrix: (Units=GPa)
#
#
# Indices 1 2 3 4 5 6 
#
# 1 124.1465 37.8659 45.8197 0.0000 -12.5793 0.0000
# 2 37.8659 77.6543 38.9920 0.0000 -7.6631 0.0000
# 3 45.8197 38.9920 123.1450 0.0000 -7.9515 0.0000
# 4 0.0000 0.0000 0.0000 44.8283 0.0000 1.9285
# 5 -12.5793 -7.6631 -7.9515 0.0000 27.7397 0.0000
# 6 0.0000 0.0000 0.0000 1.9285 0.0000 29.0597
#
#
#
# Elastic Compliance Matrix: (Units=1/GPa)
#
#
# Indices 1 2 3 4 5 6 
#
# 1 0.010364 -0.003470 -0.002563 0.000000 0.003007 0.000000
# 2 -0.003470 0.016705 -0.003874 0.000000 0.001931 0.000000
# 3 -0.002563 -0.003874 0.010348 0.000000 0.000734 0.000000
# 4 0.000000 0.000000 0.000000 0.022371 0.000000 -0.001485
# 5 0.003007 0.001931 0.000734 0.000000 0.038157 0.000000
# 6 0.000000 0.000000 0.000000 -0.001485 0.000000 0.034510
#
#
# Mechanical properties :
#
#
# Convention : Reuss Voigt Hill
#
# Bulk Modulus (GPa) = 56.80699 63.36676 60.08688
# Shear Modulus (GPa) = 31.61803 33.81009 32.71406
#
# Velocity S-wave (km/s) = 4.12515 4.26575 4.19604
# Velocity P-wave (km/s) = 7.29813 7.63978 7.47091
#
# Compressibility (1/GPa) = 0.01760347
#
# Stress axis : x y z
#
# Youngs Moduli (GPa) = 96.48683 59.86162 96.63488
#
# Poissons Ratio (x) = 0.20771 0.24772
# Poissons Ratio (y) = 0.33480 0.37433
# Poissons Ratio (z) = 0.24734 0.23188
#
# Static dielectric constant tensor:
#      x y z
#    x 3.446650 0.000000 0.147100 
#    y 0.000000 2.973710 0.000000 
#    z 0.147100 0.000000 3.632080 
# 
# 
# High freq. dielectric constant tensor:
#      x y z
#    x 1.723300 0.000000 -0.005520 
#    y 0.000000 1.701540 0.000000 
#    z -0.005520 0.000000 1.723090 
# 
# From -- ./inp_files/106205.got.cif
#   From: 2010.06.25/outbox.cif.g09.slc.cpg/sg15_54_cif.got.tgz:106205.got - 2010.06.28 07:06:18.
