data_PCOD8144054
_publ_section_title
;
Structure prediction by ZEFSAII (Michael W. Deem and Ramdas Pophale) SiO2 
 PCOD8144054
Probable space group: C 2/C
;
_chemical_formula_sum "Si O2"
_cell_formula_units_Z 40
_cell_length_a 7.101517
_cell_length_b 23.743597
_cell_length_c 10.729415
_cell_angle_alpha 90.000000
_cell_angle_beta 81.377562
_cell_angle_gamma 90.000000
_cell_volume 1788.698861
_symmetry_space_group_name_H-M "C 2/C"
_symmetry_group_IT_number 15
_symmetry_cell_setting 'monoclinic'
loop_
_space_group_symop_operation_xyz
x,y,z
-x,y,1/2-z
-x,-y,-z
x,-y,1/2+z
1/2+x,1/2+y,z
1/2-x,1/2+y,1/2-z
1/2-x,1/2-y,-z
1/2+x,1/2-y,1/2+z
loop_
_atom_site_type_symbol
_atom_site_label
_atom_site_fract_x
_atom_site_fract_y
_atom_site_fract_z
Si Si1 0.113900 0.071229 0.366711
Si Si2 0.150820 0.333408 0.560289
Si Si3 0.006363 0.783477 0.385630
Si Si4 0.376546 0.556101 0.638936
Si Si5 0.123043 0.656024 0.628630
O O1 0.288331 0.116264 0.351743
O O2 0.000000 0.082173 0.250000
O O3 0.984375 0.077588 0.503315
O O4 0.197115 0.007984 0.363375
O O5 0.027188 0.283109 0.632715
O O6 0.346509 0.308309 0.489543
O O7 0.015131 0.359742 0.470221
O O8 0.000000 0.812811 0.250000
O O9 0.211550 0.799260 0.425024
O O10 0.500000 0.562872 0.750000
O O11 0.197233 0.596471 0.672154
O O12 0.000000 0.685588 0.750000
#
# Coordination Sequence:
#
# PCOD8144054 Si02
#       5
#     8   8   8   8   8
#     4  10  22  43  68  99 137 179 214 279 348 393
#     4  11  24  41  66  94 131 176 222 277 335 403
#     4  11  23  44  61  94 133 172 227 279 334 394
#     4  10  21  41  70  99 136 174 222 276 335 400
#     4  12  22  39  70  98 127 176 230 280 329 402
#
# _framework density 22.362624
#
# number of rings (size 3 to 8) (size 9 to 14) (size 15 to 20)
#    0.000    1.200    4.000    2.400    0.000    2.400 
#    7.200    1.000    0.000    0.000    0.000    0.000 
#    0.000    0.000    0.000    0.000    0.000    0.000 
#
# Total GULP energy -247886.192705 kJ/mol
# GULP energy per Si atom -12394.309635 kJ/mol
# Density = 2.231173 g / cm^3
# Si number density = 22.362624 Si / 1000 Ang^3
#
#
#
# Elastic Constant Matrix: (Units=GPa)
#
#
# Indices 1 2 3 4 5 6 
#
# 1 134.3072 72.4600 35.6273 0.0000 12.6620 0.0000
# 2 72.4600 161.5284 18.0039 0.0000 10.5575 0.0000
# 3 35.6273 18.0039 105.1157 0.0000 18.7962 0.0000
# 4 0.0000 0.0000 0.0000 11.3564 0.0000 8.1233
# 5 12.6620 10.5575 18.7962 0.0000 34.5752 0.0000
# 6 0.0000 0.0000 0.0000 8.1233 0.0000 36.5375
#
#
#
# Elastic Compliance Matrix: (Units=1/GPa)
#
#
# Indices 1 2 3 4 5 6 
#
# 1 0.010626 -0.004399 -0.002650 0.000000 -0.001108 0.000000
# 2 -0.004399 0.008202 0.000272 0.000000 -0.001042 0.000000
# 3 -0.002650 0.000272 0.011305 0.000000 -0.005259 0.000000
# 4 0.000000 0.000000 0.000000 0.104708 0.000000 -0.023279
# 5 -0.001108 -0.001042 -0.005259 0.000000 0.032505 0.000000
# 6 0.000000 0.000000 0.000000 -0.023279 0.000000 0.032545
#
#
# Mechanical properties :
#
#
# Convention : Reuss Voigt Hill
#
# Bulk Modulus (GPa) = 60.31378 72.57041 66.44210
# Shear Modulus (GPa) = 22.83406 34.81783 28.82595
#
# Velocity S-wave (km/s) = 3.19890 3.95012 3.59419
# Velocity P-wave (km/s) = 6.37756 7.30251 6.85566
#
# Compressibility (1/GPa) = 0.01657996
#
# Stress axis : x y z
#
# Youngs Moduli (GPa) = 94.10526 121.92191 88.45490
#
# Poissons Ratio (x) = 0.53635 0.23442
# Poissons Ratio (y) = 0.41398 -0.02410
# Poissons Ratio (z) = 0.24939 -0.03322
#
# Static dielectric constant tensor:
#      x y z
#    x 4.009940 0.000000 0.026130 
#    y 0.000000 4.362560 0.000000 
#    z 0.026130 0.000000 3.988440 
# 
# 
# High freq. dielectric constant tensor:
#      x y z
#    x 1.874020 0.000000 0.008340 
#    y 0.000000 1.892900 0.000000 
#    z 0.008340 0.000000 1.880030 
# 
# From -- ./inp_files/73092.got.cif
#   From: 2010.06.25/outbox.cif.g09.slc.cpg/sg15_37_cif.got.tgz:73092.got - 2010.06.28 07:06:18.
