data_PCOD8144625
_publ_section_title
;
Structure prediction by ZEFSAII (Michael W. Deem and Ramdas Pophale) SiO2 
 PCOD8144625
Probable space group: C 2/C
;
_chemical_formula_sum "Si O2"
_cell_formula_units_Z 44
_cell_length_a 8.671742
_cell_length_b 11.154993
_cell_length_c 26.072493
_cell_angle_alpha 90.000000
_cell_angle_beta 50.014817
_cell_angle_gamma 90.000000
_cell_volume 1932.441661
_symmetry_space_group_name_H-M "C 2/C"
_symmetry_group_IT_number 15
_symmetry_cell_setting 'monoclinic'
loop_
_space_group_symop_operation_xyz
x,y,z
-x,y,1/2-z
-x,-y,-z
x,-y,1/2+z
1/2+x,1/2+y,z
1/2-x,1/2+y,1/2-z
1/2-x,1/2-y,-z
1/2+x,1/2-y,1/2+z
loop_
_atom_site_type_symbol
_atom_site_label
_atom_site_fract_x
_atom_site_fract_y
_atom_site_fract_z
Si Si1 0.445687 0.155987 0.657390
Si Si2 0.482628 0.594352 0.457830
Si Si3 0.500000 0.265979 0.750000
Si Si4 0.853868 0.673831 0.326313
Si Si5 0.328322 0.811096 0.544144
Si Si6 0.896905 0.613656 0.137795
O O1 0.413284 0.179640 0.724607
O O2 0.247954 0.203738 0.670783
O O3 0.651944 0.218698 0.596920
O O4 0.461719 0.016606 0.642676
O O5 0.500000 0.500000 0.500000
O O6 0.673988 0.579044 0.378641
O O7 0.490261 0.731222 0.478469
O O8 0.273463 0.584089 0.469607
O O9 0.336658 0.358736 0.806165
O O10 0.000000 0.621898 0.250000
O O11 0.976810 0.702496 0.352266
O O12 0.445878 0.868314 0.567165
#
# Coordination Sequence:
#
# PCOD8144625 Si02
#       6
#     8   8   4   8   8   8
#     4  10  22  40  62  91 129 168 207 268 319 378
#     4  10  21  43  70  91 132 177 215 271 329 381
#     4  10  22  36  58  90 126 166 212 252 318 390
#     4  11  23  41  63 100 132 160 221 272 317 397
#     4   9  22  43  64  96 125 166 226 260 313 403
#     4  11  23  39  65  93 129 172 210 266 328 379
#
# _framework density 22.769123
#
# number of rings (size 3 to 8) (size 9 to 14) (size 15 to 20)
#    0.000    1.818    1.818    1.091    2.545    2.182 
#    0.000   16.364    0.000    0.000    0.000    0.000 
#    0.000    0.000    0.000    0.000    0.000    0.000 
#
# Total GULP energy -272657.456305 kJ/mol
# GULP energy per Si atom -12393.520741 kJ/mol
# Density = 2.271730 g / cm^3
# Si number density = 22.769123 Si / 1000 Ang^3
#
#
#
# Elastic Constant Matrix: (Units=GPa)
#
#
# Indices 1 2 3 4 5 6 
#
# 1 156.3124 44.0001 32.1989 0.0000 37.2491 0.0000
# 2 44.0001 80.0574 25.4631 0.0000 9.2761 0.0000
# 3 32.1989 25.4631 105.6761 -0.0001 10.0277 0.0000
# 4 0.0000 0.0000 -0.0001 27.9083 0.0000 10.0256
# 5 37.2491 9.2761 10.0277 0.0000 47.8472 0.0000
# 6 0.0000 0.0000 0.0000 10.0256 0.0000 32.6221
#
#
#
# Elastic Compliance Matrix: (Units=1/GPa)
#
#
# Indices 1 2 3 4 5 6 
#
# 1 0.009243 -0.003960 -0.001278 0.000000 -0.006160 0.000000
# 2 -0.003960 0.015411 -0.002567 0.000000 0.000633 0.000000
# 3 -0.001278 -0.002567 0.010539 0.000000 -0.000716 0.000000
# 4 0.000000 0.000000 0.000000 0.040278 0.000000 -0.012379
# 5 -0.006160 0.000633 -0.000716 0.000000 0.025723 0.000000
# 6 0.000000 0.000000 0.000000 -0.012379 0.000000 0.034458
#
#
# Mechanical properties :
#
#
# Convention : Reuss Voigt Hill
#
# Bulk Modulus (GPa) = 51.06288 60.59667 55.82978
# Shear Modulus (GPa) = 31.68783 37.70109 34.69446
#
# Velocity S-wave (km/s) = 3.73460 4.07357 3.90776
# Velocity P-wave (km/s) = 6.40869 6.98545 6.70328
#
# Compressibility (1/GPa) = 0.01958370
#
# Stress axis : x y z
#
# Youngs Moduli (GPa) = 108.18555 64.89078 94.88919
#
# Poissons Ratio (x) = 0.25697 0.12123
# Poissons Ratio (y) = 0.42842 0.24355
# Poissons Ratio (z) = 0.13822 0.16656
#
# Static dielectric constant tensor:
#      x y z
#    x 4.463890 0.000000 0.280570 
#    y 0.000000 3.598090 0.000000 
#    z 0.280570 0.000000 4.455670 
# 
# 
# High freq. dielectric constant tensor:
#      x y z
#    x 1.913610 0.000000 0.011970 
#    y 0.000000 1.853980 0.000000 
#    z 0.011970 0.000000 1.913220 
# 
# From -- ./inp_files/262799.got.cif
#   From: 2010.06.25/outbox.cif.g09.slc.cpg/sg15_132_cif.got.tgz:262799.got - 2010.06.28 07:06:18.
