data_PCOD8144055
_publ_section_title
;
Structure prediction by ZEFSAII (Michael W. Deem and Ramdas Pophale) SiO2 
 PCOD8144055
Probable space group: C 2/C
;
_chemical_formula_sum "Si O2"
_cell_formula_units_Z 48
_cell_length_a 26.789880
_cell_length_b 8.135594
_cell_length_c 10.177457
_cell_angle_alpha 90.000000
_cell_angle_beta 102.940333
_cell_angle_gamma 90.000000
_cell_volume 2161.859228
_symmetry_space_group_name_H-M "C 2/C"
_symmetry_group_IT_number 15
_symmetry_cell_setting 'monoclinic'
loop_
_space_group_symop_operation_xyz
x,y,z
-x,y,1/2-z
-x,-y,-z
x,-y,1/2+z
1/2+x,1/2+y,z
1/2-x,1/2+y,1/2-z
1/2-x,1/2-y,-z
1/2+x,1/2-y,1/2+z
loop_
_atom_site_type_symbol
_atom_site_label
_atom_site_fract_x
_atom_site_fract_y
_atom_site_fract_z
Si Si1 0.387479 0.276828 0.056297
Si Si2 0.002071 0.843023 0.404137
Si Si3 0.668785 0.581225 0.557147
Si Si4 0.602717 0.812873 0.655564
Si Si5 0.278543 0.606443 0.186633
Si Si6 0.322859 0.069237 0.840397
O O1 0.445642 0.237867 0.043937
O O2 0.376157 0.451054 0.986531
O O3 0.384851 0.297108 0.210572
O O4 0.344107 0.146103 0.988315
O O5 0.957457 0.709390 0.410984
O O6 0.000000 0.903454 0.250000
O O7 0.000000 0.000000 0.500000
O O8 0.637516 0.749962 0.554933
O O9 0.706571 0.582370 0.455991
O O10 0.699249 0.534909 0.707139
O O11 0.624698 0.997352 0.696322
O O12 0.295520 0.788916 0.239055
O O13 0.216992 0.580428 0.155128
#
# Coordination Sequence:
#
# PCOD8144055 Si02
#       6
#     8   8   8   8   8   8
#     4  10  23  43  67 100 133 172 221 278 331 389
#     4  10  21  41  71 100 131 172 219 268 330 397
#     4  11  22  42  69  98 131 172 226 268 331 396
#     4  11  23  41  67  99 136 171 217 279 331 390
#     4  11  26  42  68  98 129 180 226 273 330 393
#     4  11  27  43  67  95 137 175 227 273 333 392
#
# _framework density 22.203112000000001
#
# number of rings (size 3 to 8) (size 9 to 14) (size 15 to 20)
#    0.000    1.333    3.333    1.000    4.667    3.333 
#    0.000    0.000    0.000    0.000    0.000    0.000 
#    0.000    0.000    0.000    0.000    0.000    0.000 
#
# Total GULP energy -297327.713603 kJ/mol
# GULP energy per Si atom -12388.654733 kJ/mol
# Density = 2.215258 g / cm^3
# Si number density = 22.203112 Si / 1000 Ang^3
#
#
#
# Elastic Constant Matrix: (Units=GPa)
#
#
# Indices 1 2 3 4 5 6 
#
# 1 159.7586 66.2803 36.6190 0.0000 8.8322 0.0000
# 2 66.2803 79.9493 15.5190 0.0000 10.9458 0.0000
# 3 36.6190 15.5190 67.8446 0.0000 -7.1206 0.0000
# 4 0.0000 0.0000 0.0000 12.5715 0.0000 5.4322
# 5 8.8322 10.9458 -7.1206 0.0000 34.3426 0.0000
# 6 0.0000 0.0000 0.0000 5.4322 0.0000 44.9863
#
#
#
# Elastic Compliance Matrix: (Units=1/GPa)
#
#
# Indices 1 2 3 4 5 6 
#
# 1 0.010439 -0.007741 -0.003973 0.000000 -0.001041 0.000000
# 2 -0.007741 0.019688 -0.000792 0.000000 -0.004449 0.000000
# 3 -0.003973 -0.000792 0.017582 0.000000 0.004920 0.000000
# 4 0.000000 0.000000 0.000000 0.083924 0.000000 -0.010134
# 5 -0.001041 -0.004449 0.004920 0.000000 0.031824 0.000000
# 6 0.000000 0.000000 0.000000 -0.010134 0.000000 0.023453
#
#
# Mechanical properties :
#
#
# Convention : Reuss Voigt Hill
#
# Bulk Modulus (GPa) = 44.05981 60.48768 52.27375
# Shear Modulus (GPa) = 22.78032 30.98900 26.88466
#
# Velocity S-wave (km/s) = 3.20659 3.73997 3.48350
# Velocity P-wave (km/s) = 5.79627 6.77878 6.30668
#
# Compressibility (1/GPa) = 0.02269642
#
# Stress axis : x y z
#
# Youngs Moduli (GPa) = 95.79366 50.79257 56.87723
#
# Poissons Ratio (x) = 0.39316 0.22599
# Poissons Ratio (y) = 0.74149 0.04507
# Poissons Ratio (z) = 0.38061 0.04025
#
# Static dielectric constant tensor:
#      x y z
#    x 4.244960 0.000000 0.216460 
#    y 0.000000 3.889230 0.000000 
#    z 0.216460 0.000000 3.986380 
# 
# 
# High freq. dielectric constant tensor:
#      x y z
#    x 1.891730 0.000000 0.014200 
#    y 0.000000 1.859430 0.000000 
#    z 0.014200 0.000000 1.870560 
# 
# From -- ./inp_files/116446.got.cif
#   From: 2010.06.25/outbox.cif.g09.slc.cpg/sg15_59_cif.got.tgz:116446.got - 2010.06.28 07:06:18.
