data_PCOD8144363
_publ_section_title
;
Structure prediction by ZEFSAII (Michael W. Deem and Ramdas Pophale) SiO2 
 PCOD8144363
Probable space group: C 2/C
;
_chemical_formula_sum "Si O2"
_cell_formula_units_Z 48
_cell_length_a 9.407063
_cell_length_b 11.559269
_cell_length_c 24.011468
_cell_angle_alpha 90.000000
_cell_angle_beta 62.857287
_cell_angle_gamma 90.000000
_cell_volume 2323.438301
_symmetry_space_group_name_H-M "C 2/C"
_symmetry_group_IT_number 15
_symmetry_cell_setting 'monoclinic'
loop_
_space_group_symop_operation_xyz
x,y,z
-x,y,1/2-z
-x,-y,-z
x,-y,1/2+z
1/2+x,1/2+y,z
1/2-x,1/2+y,1/2-z
1/2-x,1/2-y,-z
1/2+x,1/2-y,1/2+z
loop_
_atom_site_type_symbol
_atom_site_label
_atom_site_fract_x
_atom_site_fract_y
_atom_site_fract_z
Si Si1 0.000000 0.063717 0.750000
Si Si2 0.009691 0.280259 0.576376
Si Si3 0.956242 0.846641 0.647352
Si Si4 0.328737 0.598110 0.674249
Si Si5 0.748820 0.962855 0.875869
Si Si6 0.500000 0.789350 0.250000
Si Si7 0.334646 0.789973 0.065850
O O1 0.082428 0.139601 0.784074
O O2 0.142582 0.986341 0.698200
O O3 0.915351 0.163517 0.608212
O O4 0.910229 0.393622 0.613173
O O5 0.179855 0.284975 0.576895
O O6 0.032966 0.281024 0.505813
O O7 0.906304 0.756208 0.609965
O O8 0.141555 0.881812 0.604052
O O9 0.935413 0.788186 0.711172
O O10 0.845682 0.960571 0.664638
O O11 0.143255 0.628053 0.705297
O O12 0.708845 0.076748 0.917515
#
# Coordination Sequence:
#
# PCOD8144363 Si02
#       7
#     4   8   8   8   8   4   8
#     4  10  21  42  69  88 138 167 208 271 334 380
#     4  11  24  44  67  96 135 171 225 271 319 395
#     4  11  24  43  68  94 131 173 213 271 330 386
#     4  11  24  43  65 100 129 174 216 274 329 391
#     4  11  22  45  65  98 131 175 213 274 329 385
#     4  12  25  44  67  96 136 169 220 269 334 396
#     4  11  25  45  67  96 131 179 220 268 329 385
#
# _framework density 20.659037000000001
#
# number of rings (size 3 to 8) (size 9 to 14) (size 15 to 20)
#    0.000    1.000    5.000    3.500    0.000    4.000 
#    0.000    0.000    0.000    0.000    0.000    0.000 
#    0.000    0.000    0.000    0.000    0.000    0.000 
#
# Total GULP energy -297584.728208 kJ/mol
# GULP energy per Si atom -12399.363675 kJ/mol
# Density = 2.061202 g / cm^3
# Si number density = 20.659037 Si / 1000 Ang^3
#
#
#
# Elastic Constant Matrix: (Units=GPa)
#
#
# Indices 1 2 3 4 5 6 
#
# 1 88.7391 47.7719 53.3739 0.0000 -12.4404 0.0000
# 2 47.7719 88.8570 40.1843 0.0000 -7.8798 0.0000
# 3 53.3739 40.1843 130.8868 0.0000 -8.4808 0.0000
# 4 0.0000 0.0000 0.0000 24.3954 0.0000 1.4456
# 5 -12.4404 -7.8798 -8.4808 0.0000 40.4438 0.0000
# 6 0.0000 0.0000 0.0000 1.4456 0.0000 28.1551
#
#
#
# Elastic Compliance Matrix: (Units=1/GPa)
#
#
# Indices 1 2 3 4 5 6 
#
# 1 0.018895 -0.007525 -0.005184 0.000000 0.003259 0.000000
# 2 -0.007525 0.016186 -0.001872 0.000000 0.000446 0.000000
# 3 -0.005184 -0.001872 0.010342 0.000000 0.000210 0.000000
# 4 0.000000 0.000000 0.000000 0.041116 0.000000 -0.002111
# 5 0.003259 0.000446 0.000210 0.000000 0.025859 0.000000
# 6 0.000000 0.000000 0.000000 -0.002111 0.000000 0.035626
#
#
# Mechanical properties :
#
#
# Convention : Reuss Voigt Hill
#
# Bulk Modulus (GPa) = 61.49330 65.68256 63.58793
# Shear Modulus (GPa) = 27.38148 29.74238 28.56193
#
# Velocity S-wave (km/s) = 3.64455 3.79843 3.72229
# Velocity P-wave (km/s) = 6.89498 7.14843 7.02285
#
# Compressibility (1/GPa) = 0.01626193
#
# Stress axis : x y z
#
# Youngs Moduli (GPa) = 52.92506 61.78267 96.69134
#
# Poissons Ratio (x) = 0.46492 0.50120
# Poissons Ratio (y) = 0.39827 0.18098
# Poissons Ratio (z) = 0.27434 0.11564
#
# Static dielectric constant tensor:
#      x y z
#    x 3.922110 0.000000 -0.088280 
#    y 0.000000 3.668900 0.000000 
#    z -0.088280 0.000000 3.791960 
# 
# 
# High freq. dielectric constant tensor:
#      x y z
#    x 1.811290 0.000000 -0.010070 
#    y 0.000000 1.804530 0.000000 
#    z -0.010070 0.000000 1.810080 
# 
# From -- ./inp_files/263522.got.cif
#   From: 2010.06.25/outbox.cif.g09.slc.cpg/sg15_132_cif.got.tgz:263522.got - 2010.06.28 07:06:18.
