data_PCOD8144442
_publ_section_title
;
Structure prediction by ZEFSAII (Michael W. Deem and Ramdas Pophale) SiO2 
 PCOD8144442
Probable space group: C 2/C
;
_chemical_formula_sum "Si O2"
_cell_formula_units_Z 64
_cell_length_a 33.307789
_cell_length_b 8.817241
_cell_length_c 15.851338
_cell_angle_alpha 90.000000
_cell_angle_beta 38.309823
_cell_angle_gamma 90.000000
_cell_volume 2885.862165
_symmetry_space_group_name_H-M "C 2/C"
_symmetry_group_IT_number 15
_symmetry_cell_setting 'monoclinic'
loop_
_space_group_symop_operation_xyz
x,y,z
-x,y,1/2-z
-x,-y,-z
x,-y,1/2+z
1/2+x,1/2+y,z
1/2-x,1/2+y,1/2-z
1/2-x,1/2-y,-z
1/2+x,1/2-y,1/2+z
loop_
_atom_site_type_symbol
_atom_site_label
_atom_site_fract_x
_atom_site_fract_y
_atom_site_fract_z
Si Si1 0.184206 0.512062 0.981387
Si Si2 0.611005 0.182834 0.708127
Si Si3 0.429414 0.928655 0.612851
Si Si4 0.685274 0.545934 0.151565
Si Si5 0.137357 0.947817 0.411267
Si Si6 0.315991 0.359006 0.510225
Si Si7 0.516590 0.639139 0.030936
Si Si8 0.684707 0.124454 0.311839
O O1 0.238663 0.476507 0.960955
O O2 0.160344 0.684735 0.029801
O O3 0.211661 0.483657 0.841864
O O4 0.128483 0.380104 0.085573
O O5 0.669063 0.282752 0.650502
O O6 0.544655 0.275656 0.826144
O O7 0.611381 0.015350 0.749885
O O8 0.442143 0.748945 0.600321
O O9 0.384795 0.944154 0.602321
O O10 0.500000 0.000000 0.500000
O O11 0.648646 0.516991 0.299539
O O12 0.662394 0.434262 0.113568
O O13 0.060479 0.910341 0.537911
O O14 0.179698 0.796766 0.353315
O O15 0.149130 0.062389 0.468055
O O16 0.238091 0.372748 0.649269
O O17 0.500000 0.500000 0.000000
#
# Coordination Sequence:
#
# PCOD8144442 Si02
#       8
#     8   8   8   8   8   8   8   8
#     4  12  26  40  68 103 139 179 223 292 354 415
#     4  11  24  41  67  98 136 177 234 280 348 415
#     4   9  22  40  64  96 129 177 227 281 337 409
#     4  12  24  42  69 101 140 181 230 284 351 424
#     4  11  24  44  69 100 134 182 233 279 354 423
#     4  12  25  42  66 102 139 179 229 291 355 427
#     4  10  21  42  73  94 131 182 230 284 347 414
#     4  11  22  42  65  94 140 179 223 283 356 423
#
# _framework density 22.17708
#
# number of rings (size 3 to 8) (size 9 to 14) (size 15 to 20)
#    0.000    1.000    3.750    2.250    5.250    1.000 
#    0.000   10.000    0.000    4.500    0.000    0.000 
#    0.000    0.000    0.000    0.000    0.000    0.000 
#
# Total GULP energy -396437.899837 kJ/mol
# GULP energy per Si atom -12388.684370 kJ/mol
# Density = 2.212660 g / cm^3
# Si number density = 22.177080 Si / 1000 Ang^3
#
#
#
# Elastic Constant Matrix: (Units=GPa)
#
#
# Indices 1 2 3 4 5 6 
#
# 1 116.1773 61.2726 38.2437 -0.0026 -0.7205 0.0004
# 2 61.2726 121.7336 39.4996 -0.0066 -3.8759 0.0010
# 3 38.2437 39.4996 71.6168 -0.0033 8.5377 0.0003
# 4 -0.0026 -0.0066 -0.0033 44.4292 0.0003 1.4816
# 5 -0.7205 -3.8759 8.5377 0.0003 33.3889 0.0002
# 6 0.0004 0.0010 0.0003 1.4816 0.0002 38.6571
#
#
#
# Elastic Compliance Matrix: (Units=1/GPa)
#
#
# Indices 1 2 3 4 5 6 
#
# 1 0.012579 -0.004994 -0.004049 0.000000 0.000727 0.000000
# 2 -0.004994 0.012221 -0.004363 0.000001 0.002427 0.000000
# 3 -0.004049 -0.004363 0.019188 0.000001 -0.005500 0.000000
# 4 0.000000 0.000001 0.000001 0.022537 0.000000 -0.000864
# 5 0.000727 0.002427 -0.005500 0.000000 0.031654 0.000000
# 6 0.000000 0.000000 0.000000 -0.000864 0.000000 0.025902
#
#
# Mechanical properties :
#
#
# Convention : Reuss Voigt Hill
#
# Bulk Modulus (GPa) = 58.22468 65.28440 61.75454
# Shear Modulus (GPa) = 31.92476 34.66251 33.29363
#
# Velocity S-wave (km/s) = 3.79824 3.95775 3.87882
# Velocity P-wave (km/s) = 6.74885 7.09836 6.92581
#
# Compressibility (1/GPa) = 0.01717485
#
# Stress axis : x y z
#
# Youngs Moduli (GPa) = 79.49684 81.82357 52.11704
#
# Poissons Ratio (x) = 0.40866 0.21104
# Poissons Ratio (y) = 0.39704 0.22738
# Poissons Ratio (z) = 0.32191 0.35698
#
# Static dielectric constant tensor:
#      x y z
#    x 3.977150 0.000000 -0.184530 
#    y 0.000000 4.314140 0.000000 
#    z -0.184530 0.000000 4.112870 
# 
# 
# High freq. dielectric constant tensor:
#      x y z
#    x 1.865830 0.000000 -0.009870 
#    y 0.000000 1.890290 0.000000 
#    z -0.009870 0.000000 1.867210 
# 
# From -- ./inp_files/181131.got.cif
#   From: 2010.06.25/outbox.cif.g09.slc.cpg/sg15_91_cif.got.tgz:181131.got - 2010.06.28 07:06:18.
