data_PCOD8144770
_publ_section_title
;
Structure prediction by ZEFSAII (Michael W. Deem and Ramdas Pophale) SiO2 
 PCOD8144770
Probable space group: C 2/C
;
_chemical_formula_sum "Si O2"
_cell_formula_units_Z 64
_cell_length_a 16.276423
_cell_length_b 9.108236
_cell_length_c 29.526640
_cell_angle_alpha 90.000000
_cell_angle_beta 139.096643
_cell_angle_gamma 90.000000
_cell_volume 2866.197146
_symmetry_space_group_name_H-M "C 2/C"
_symmetry_group_IT_number 15
_symmetry_cell_setting 'monoclinic'
loop_
_space_group_symop_operation_xyz
x,y,z
-x,y,1/2-z
-x,-y,-z
x,-y,1/2+z
1/2+x,1/2+y,z
1/2-x,1/2+y,1/2-z
1/2-x,1/2-y,-z
1/2+x,1/2-y,1/2+z
loop_
_atom_site_type_symbol
_atom_site_label
_atom_site_fract_x
_atom_site_fract_y
_atom_site_fract_z
Si Si1 0.803309 0.740095 0.655879
Si Si2 0.876154 0.549458 0.606158
Si Si3 0.029085 0.614914 0.943676
Si Si4 0.240169 0.757928 0.549839
Si Si5 0.458448 0.818740 0.950083
Si Si6 0.360785 0.418871 0.176394
Si Si7 0.293272 0.748017 0.314392
Si Si8 0.157075 0.444442 0.245710
O O1 0.834997 0.687930 0.618574
O O2 0.657905 0.714565 0.611509
O O3 0.878620 0.640945 0.722990
O O4 0.842455 0.908856 0.675423
O O5 0.792182 0.414186 0.587553
O O6 0.857145 0.589265 0.544828
O O7 0.022859 0.504696 0.670638
O O8 0.950075 0.463195 0.915501
O O9 0.941708 0.746731 0.888380
O O10 0.083469 0.645428 0.015697
O O11 0.250000 0.750000 0.500000
O O12 0.322954 0.631351 0.609274
O O13 0.094599 0.754602 0.503987
O O14 0.500000 0.375125 0.250000
O O15 0.271564 0.327245 0.171174
O O16 0.247258 0.582340 0.290947
O O17 0.270482 0.834824 0.258137
#
# Coordination Sequence:
#
# PCOD8144770 Si02
#       8
#     8   8   8   8   8   8   8   8
#     4  12  26  44  70 105 147 186 235 299 364 425
#     4  11  25  44  68 101 145 184 228 297 358 416
#     4  10  21  44  70  97 135 188 226 286 355 413
#     4  12  25  45  74 108 140 192 246 295 352 433
#     4  11  22  44  73  96 139 186 237 285 354 422
#     4  12  24  42  72 104 143 190 242 295 358 429
#     4  11  22  42  70 100 135 185 237 281 357 423
#     4  11  25  43  70 102 141 182 234 299 354 429
#
# _framework density 22.329238
#
# number of rings (size 3 to 8) (size 9 to 14) (size 15 to 20)
#    0.000    0.750    3.750    4.125    1.750    3.000 
#    0.000    0.000    0.000    0.000    0.000    0.000 
#    0.000    0.000    0.000    0.000    0.000    0.000 
#
# Total GULP energy -396722.715970 kJ/mol
# GULP energy per Si atom -12397.584874 kJ/mol
# Density = 2.227842 g / cm^3
# Si number density = 22.329238 Si / 1000 Ang^3
#
#
#
# Elastic Constant Matrix: (Units=GPa)
#
#
# Indices 1 2 3 4 5 6 
#
# 1 97.7180 30.6652 38.6566 0.0000 -19.8120 0.0000
# 2 30.6652 103.9166 20.8664 0.0000 -13.7604 0.0000
# 3 38.6566 20.8664 78.5189 0.0000 -4.6569 0.0000
# 4 0.0000 0.0000 0.0000 23.7800 0.0000 1.6267
# 5 -19.8120 -13.7604 -4.6569 0.0000 49.1224 0.0000
# 6 0.0000 0.0000 0.0000 1.6267 0.0000 30.7349
#
#
#
# Elastic Compliance Matrix: (Units=1/GPa)
#
#
# Indices 1 2 3 4 5 6 
#
# 1 0.014338 -0.002396 -0.006154 0.000000 0.004528 0.000000
# 2 -0.002396 0.010909 -0.001605 0.000000 0.001937 0.000000
# 3 -0.006154 -0.001605 0.016108 0.000000 -0.001404 0.000000
# 4 0.000000 0.000000 0.000000 0.042205 0.000000 -0.002234
# 5 0.004528 0.001937 -0.001404 0.000000 0.022593 0.000000
# 6 0.000000 0.000000 0.000000 -0.002234 0.000000 0.032654
#
#
# Mechanical properties :
#
#
# Convention : Reuss Voigt Hill
#
# Bulk Modulus (GPa) = 47.51231 51.16998 49.34115
# Shear Modulus (GPa) = 30.09667 33.39181 31.74424
#
# Velocity S-wave (km/s) = 3.67530 3.87127 3.77456
# Velocity P-wave (km/s) = 6.27174 6.55349 6.41416
#
# Compressibility (1/GPa) = 0.02104718
#
# Stress axis : x y z
#
# Youngs Moduli (GPa) = 69.74609 91.66885 62.07916
#
# Poissons Ratio (x) = 0.21961 0.38201
# Poissons Ratio (y) = 0.16709 0.09961
# Poissons Ratio (z) = 0.42919 0.14710
#
# Static dielectric constant tensor:
#      x y z
#    x 4.190620 0.000000 -0.080190 
#    y 0.000000 3.944640 0.000000 
#    z -0.080190 0.000000 4.225680 
# 
# 
# High freq. dielectric constant tensor:
#      x y z
#    x 1.891690 0.000000 -0.010720 
#    y 0.000000 1.866740 0.000000 
#    z -0.010720 0.000000 1.886960 
# 
# From -- ./inp_files/313183.got.cif
#   From: 2010.06.25/outbox.cif.g09.slc.cpg/sg15_157_cif.got.tgz:313183.got - 2010.06.28 07:06:18.
