data_PCOD8144520
_publ_section_title
;
Structure prediction by ZEFSAII (Michael W. Deem and Ramdas Pophale) SiO2 
 PCOD8144520
Probable space group: C 2/C
;
_chemical_formula_sum "Si O2"
_cell_formula_units_Z 56
_cell_length_a 15.356181
_cell_length_b 11.851567
_cell_length_c 14.349245
_cell_angle_alpha 90.000000
_cell_angle_beta 109.777772
_cell_angle_gamma 90.000000
_cell_volume 2457.441922
_symmetry_space_group_name_H-M "C 2/C"
_symmetry_group_IT_number 15
_symmetry_cell_setting 'monoclinic'
loop_
_space_group_symop_operation_xyz
x,y,z
-x,y,1/2-z
-x,-y,-z
x,-y,1/2+z
1/2+x,1/2+y,z
1/2-x,1/2+y,1/2-z
1/2-x,1/2-y,-z
1/2+x,1/2-y,1/2+z
loop_
_atom_site_type_symbol
_atom_site_label
_atom_site_fract_x
_atom_site_fract_y
_atom_site_fract_z
Si Si1 0.326233 0.237828 0.789083
Si Si2 0.676400 0.375983 0.534128
Si Si3 0.095061 0.528486 0.609029
Si Si4 0.000000 0.545523 0.250000
Si Si5 0.500000 0.320717 0.750000
Si Si6 0.117624 0.349909 0.938898
Si Si7 0.364057 0.611812 0.047702
Si Si8 0.689460 0.191425 0.089680
O O1 0.310898 0.343234 0.853049
O O2 0.321781 0.119095 0.842772
O O3 0.427065 0.244606 0.778760
O O4 0.245945 0.234427 0.684050
O O5 0.774914 0.384481 0.518302
O O6 0.610195 0.282774 0.460600
O O7 0.627561 0.497578 0.509297
O O8 0.058037 0.572272 0.493192
O O9 0.127695 0.399914 0.619311
O O10 0.030202 0.536438 0.676560
O O11 0.079196 0.627163 0.321413
O O12 0.558433 0.396849 0.843931
O O13 0.259619 0.623945 0.048427
O O14 0.379393 0.723478 0.989852
#
# Coordination Sequence:
#
# PCOD8144520 Si02
#       8
#     8   8   8   4   4   8   8   8
#     4  10  23  39  64  93 130 169 214 267 324 382
#     4  10  21  43  66  90 129 175 212 263 323 380
#     4  11  23  42  63  97 133 166 215 272 320 386
#     4  12  25  37  66  98 132 171 209 266 334 378
#     4  10  23  43  58  98 130 169 217 268 320 382
#     4  10  23  41  64  95 132 167 216 268 318 386
#     4  10  22  41  68  89 128 169 216 264 320 384
#     4  10  22  39  65  95 122 169 221 258 312 394
#
# _framework density 22.787922999999999
#
# number of rings (size 3 to 8) (size 9 to 14) (size 15 to 20)
#    0.000    1.714    1.429    1.714    4.000    5.714 
#    0.000    0.000    0.000    0.000    0.000    0.000 
#    0.000    0.000    0.000    0.000    0.000    0.000 
#
# Total GULP energy -347119.516230 kJ/mol
# GULP energy per Si atom -12397.125580 kJ/mol
# Density = 2.273606 g / cm^3
# Si number density = 22.787923 Si / 1000 Ang^3
#
#
#
# Elastic Constant Matrix: (Units=GPa)
#
#
# Indices 1 2 3 4 5 6 
#
# 1 70.6085 29.5018 35.9271 0.0000 -10.8745 0.0000
# 2 29.5018 141.1459 61.7158 0.0000 0.0221 0.0000
# 3 35.9271 61.7158 146.3447 0.0000 -5.7434 0.0000
# 4 0.0000 0.0000 0.0000 24.8888 0.0000 -10.1383
# 5 -10.8745 0.0221 -5.7434 0.0000 32.9227 0.0000
# 6 0.0000 0.0000 0.0000 -10.1383 0.0000 14.7277
#
#
#
# Elastic Compliance Matrix: (Units=1/GPa)
#
#
# Indices 1 2 3 4 5 6 
#
# 1 0.017520 -0.002295 -0.003127 0.000000 0.005243 0.000000
# 2 -0.002295 0.009001 -0.003285 0.000000 -0.001337 0.000000
# 3 -0.003127 -0.003285 0.009007 0.000000 0.000541 0.000000
# 4 0.000000 0.000000 0.000000 0.055835 0.000000 0.038436
# 5 0.005243 -0.001337 0.000541 0.000000 0.032201 0.000000
# 6 0.000000 0.000000 0.000000 0.038436 0.000000 0.094358
#
#
# Mechanical properties :
#
#
# Convention : Reuss Voigt Hill
#
# Bulk Modulus (GPa) = 55.20711 68.04316 61.62514
# Shear Modulus (GPa) = 20.71446 29.90479 25.30962
#
# Velocity S-wave (km/s) = 3.01825 3.62651 3.33627
# Velocity P-wave (km/s) = 6.03536 6.88909 6.47631
#
# Compressibility (1/GPa) = 0.01811361
#
# Stress axis : x y z
#
# Youngs Moduli (GPa) = 57.07605 111.09655 111.01904
#
# Poissons Ratio (x) = 0.25501 0.34720
# Poissons Ratio (y) = 0.13101 0.36469
# Poissons Ratio (z) = 0.17850 0.36494
#
# Static dielectric constant tensor:
#      x y z
#    x 3.868070 0.000000 -0.155020 
#    y 0.000000 3.963820 0.000000 
#    z -0.155020 0.000000 4.211020 
# 
# 
# High freq. dielectric constant tensor:
#      x y z
#    x 1.883080 0.000000 -0.009350 
#    y 0.000000 1.895700 0.000000 
#    z -0.009350 0.000000 1.911670 
# 
# From -- ./inp_files/161037.got.cif
#   From: 2010.06.25/outbox.cif.g09.slc.cpg/sg15_81_cif.got.tgz:161037.got - 2010.06.28 07:06:18.
