data_PCOD8144734
_publ_section_title
;
Structure prediction by ZEFSAII (Michael W. Deem and Ramdas Pophale) SiO2 
 PCOD8144734
Probable space group: C 2/C
;
_chemical_formula_sum "Si O2"
_cell_formula_units_Z 56
_cell_length_a 28.126755
_cell_length_b 17.616799
_cell_length_c 5.299606
_cell_angle_alpha 90.000000
_cell_angle_beta 80.511372
_cell_angle_gamma 90.000000
_cell_volume 2590.045071
_symmetry_space_group_name_H-M "C 2/C"
_symmetry_group_IT_number 15
_symmetry_cell_setting 'monoclinic'
loop_
_space_group_symop_operation_xyz
x,y,z
-x,y,1/2-z
-x,-y,-z
x,-y,1/2+z
1/2+x,1/2+y,z
1/2-x,1/2+y,1/2-z
1/2-x,1/2-y,-z
1/2+x,1/2-y,1/2+z
loop_
_atom_site_type_symbol
_atom_site_label
_atom_site_fract_x
_atom_site_fract_y
_atom_site_fract_z
Si Si1 0.500000 0.275408 0.750000
Si Si2 0.554451 0.969437 0.497482
Si Si3 0.081988 0.698114 0.969334
Si Si4 0.500000 0.548134 0.750000
Si Si5 0.930351 0.839763 0.178929
Si Si6 0.186997 0.261412 0.297506
Si Si7 0.147093 0.951653 0.411050
Si Si8 0.287829 0.325745 0.231882
O O1 0.545895 0.224539 0.783276
O O2 0.519728 0.329313 0.517002
O O3 0.560256 0.882190 0.578773
O O4 0.500000 0.000000 0.500000
O O5 0.579805 0.983164 0.203396
O O6 0.136872 0.691879 0.824275
O O7 0.083447 0.759290 0.191607
O O8 0.500000 0.500000 0.500000
O O9 0.550244 0.594450 0.654930
O O10 0.886336 0.875619 0.060096
O O11 0.230160 0.320525 0.313011
O O12 0.186521 0.200525 0.528131
O O13 0.194150 0.223241 0.020649
O O14 0.200137 0.914522 0.330656
O O15 0.138730 0.991134 0.686694
#
# Coordination Sequence:
#
# PCOD8144734 Si02
#       8
#     4   8   8   4   8   8   8   8
#     4  12  25  40  68  95 140 176 244 294 325 394
#     4  10  24  42  63  90 131 170 214 267 347 411
#     4  12  25  42  71 100 133 182 234 291 334 415
#     4  12  25  42  56  81 130 180 222 280 333 370
#     4  12  26  41  63  97 131 184 248 278 332 402
#     4  10  22  41  74  99 133 167 228 296 338 404
#     4  12  26  43  68  98 144 189 228 288 351 418
#     4  10  21  44  68 103 132 171 225 287 354 410
#
# _framework density 21.621247
#
# number of rings (size 3 to 8) (size 9 to 14) (size 15 to 20)
#    0.000    0.857    2.857    3.857    8.000    0.000 
#    0.000    1.429    0.000    0.000    0.000    0.000 
#    0.000    0.000    0.000    0.000    0.000    0.000 
#
# Total GULP energy -346930.999651 kJ/mol
# GULP energy per Si atom -12390.392845 kJ/mol
# Density = 2.157204 g / cm^3
# Si number density = 21.621247 Si / 1000 Ang^3
#
#
#
# Elastic Constant Matrix: (Units=GPa)
#
#
# Indices 1 2 3 4 5 6 
#
# 1 124.0841 40.8542 17.9376 0.0000 -3.3954 0.0000
# 2 40.8542 118.6836 24.5518 0.0000 -1.0171 0.0000
# 3 17.9376 24.5518 117.9543 0.0000 1.4598 0.0000
# 4 0.0000 0.0000 0.0000 23.2666 0.0000 4.2977
# 5 -3.3954 -1.0171 1.4598 0.0000 27.2038 0.0000
# 6 0.0000 0.0000 0.0000 4.2977 0.0000 36.8662
#
#
#
# Elastic Compliance Matrix: (Units=1/GPa)
#
#
# Indices 1 2 3 4 5 6 
#
# 1 0.009187 -0.002990 -0.000788 0.000000 0.001077 0.000000
# 2 -0.002990 0.009783 -0.001583 0.000000 0.000077 0.000000
# 3 -0.000788 -0.001583 0.008935 0.000000 -0.000637 0.000000
# 4 0.000000 0.000000 0.000000 0.043926 0.000000 -0.005121
# 5 0.001077 0.000077 -0.000637 0.000000 0.036931 0.000000
# 6 0.000000 0.000000 0.000000 -0.005121 0.000000 0.027722
#
#
# Mechanical properties :
#
#
# Convention : Reuss Voigt Hill
#
# Bulk Modulus (GPa) = 58.19516 58.60102 58.39809
# Shear Modulus (GPa) = 32.69395 35.95922 34.32659
#
# Velocity S-wave (km/s) = 3.89282 4.08259 3.98883
# Velocity P-wave (km/s) = 6.86874 7.02749 6.94857
#
# Compressibility (1/GPa) = 0.01718356
#
# Stress axis : x y z
#
# Youngs Moduli (GPa) = 108.85017 102.21707 111.91966
#
# Poissons Ratio (x) = 0.30564 0.08819
# Poissons Ratio (y) = 0.32548 0.17712
# Poissons Ratio (z) = 0.08578 0.16176
#
# Static dielectric constant tensor:
#      x y z
#    x 4.158820 0.000000 0.503490 
#    y 0.000000 3.911910 0.000000 
#    z 0.503490 0.000000 5.779630 
# 
# 
# High freq. dielectric constant tensor:
#      x y z
#    x 1.844390 0.000000 0.005950 
#    y 0.000000 1.839390 0.000000 
#    z 0.005950 0.000000 1.862750 
# 
# From -- ./inp_files/18226.got.cif
#   From: 2010.06.25/outbox.cif.g09.slc.cpg/sg15_10_cif.got.tgz:18226.got - 2010.06.28 07:06:18.
