data_PCOD8144803
_publ_section_title
;
Structure prediction by ZEFSAII (Michael W. Deem and Ramdas Pophale) SiO2 
 PCOD8144803
Probable space group: C 2/C
;
_chemical_formula_sum "Si O2"
_cell_formula_units_Z 60
_cell_length_a 8.423545
_cell_length_b 11.062849
_cell_length_c 30.624192
_cell_angle_alpha 90.000000
_cell_angle_beta 90.848564
_cell_angle_gamma 90.000000
_cell_volume 2853.506672
_symmetry_space_group_name_H-M "C 2/C"
_symmetry_group_IT_number 15
_symmetry_cell_setting 'monoclinic'
loop_
_space_group_symop_operation_xyz
x,y,z
-x,y,1/2-z
-x,-y,-z
x,-y,1/2+z
1/2+x,1/2+y,z
1/2-x,1/2+y,1/2-z
1/2-x,1/2-y,-z
1/2+x,1/2-y,1/2+z
loop_
_atom_site_type_symbol
_atom_site_label
_atom_site_fract_x
_atom_site_fract_y
_atom_site_fract_z
Si Si1 0.011989 0.335629 0.801432
Si Si2 0.243878 0.113035 0.809708
Si Si3 0.000000 0.307489 0.250000
Si Si4 0.153506 0.856813 0.820676
Si Si5 0.985709 0.473168 0.131587
Si Si6 0.625181 0.091891 0.051018
Si Si7 0.878459 0.332368 0.478262
Si Si8 0.894991 0.242848 0.090650
O O1 0.836429 0.311442 0.819871
O O2 0.081023 0.455731 0.826033
O O3 0.000000 0.359794 0.750000
O O4 0.129098 0.226886 0.813201
O O5 0.350239 0.115232 0.765905
O O6 0.354119 0.099372 0.853225
O O7 0.136246 0.993879 0.804090
O O8 0.957169 0.226444 0.208573
O O9 0.086672 0.852181 0.869820
O O10 0.023694 0.572263 0.094656
O O11 0.858696 0.375327 0.112609
O O12 0.757149 0.194461 0.058635
O O13 0.696659 0.960923 0.037099
O O14 0.519633 0.144141 0.012166
O O15 0.750000 0.250000 0.500000
O O16 0.945098 0.259049 0.436786
#
# Coordination Sequence:
#
# PCOD8144803 Si02
#       8
#     8   8   4   8   8   8   8   8
#     4  11  23  43  63  91 130 173 223 266 319 380
#     4  11  24  41  62  90 129 170 217 272 313 385
#     4  12  24  40  66  88 130 178 214 262 332 364
#     4  11  25  42  61  97 128 168 217 273 322 383
#     4  10  23  40  66  91 133 169 211 269 329 378
#     4  10  21  45  65  95 135 164 213 271 323 398
#     4  10  24  43  71  96 130 171 213 265 335 398
#     4  11  21  44  67  96 132 168 216 270 330 389
#
# _framework density 21.026759999999999
#
# number of rings (size 3 to 8) (size 9 to 14) (size 15 to 20)
#    0.000    1.333    5.333    0.400    4.667    2.667 
#    2.400    4.000    0.000    0.000    0.000    0.000 
#    0.000    0.000    0.000    0.000    0.000    0.000 
#
# Total GULP energy -371870.139667 kJ/mol
# GULP energy per Si atom -12395.671322 kJ/mol
# Density = 2.097890 g / cm^3
# Si number density = 21.026760 Si / 1000 Ang^3
#
#
#
# Elastic Constant Matrix: (Units=GPa)
#
#
# Indices 1 2 3 4 5 6 
#
# 1 62.6750 58.8116 37.5947 0.0000 -14.7428 0.0000
# 2 58.8116 134.3020 55.4657 0.0000 -18.1310 0.0000
# 3 37.5947 55.4657 134.2027 0.0000 -14.7232 0.0000
# 4 0.0000 0.0000 0.0000 38.6143 0.0000 2.5512
# 5 -14.7428 -18.1310 -14.7232 0.0000 24.4318 0.0000
# 6 0.0000 0.0000 0.0000 2.5512 0.0000 35.5475
#
#
#
# Elastic Compliance Matrix: (Units=1/GPa)
#
#
# Indices 1 2 3 4 5 6 
#
# 1 0.029681 -0.010646 -0.003016 0.000000 0.008193 0.000000
# 2 -0.010646 0.013341 -0.002302 0.000000 0.002089 0.000000
# 3 -0.003016 -0.002302 0.009488 0.000000 0.002189 0.000000
# 4 0.000000 0.000000 0.000000 0.026021 0.000000 -0.001867
# 5 0.008193 0.002089 0.002189 0.000000 0.048743 0.000000
# 6 0.000000 0.000000 0.000000 -0.001867 0.000000 0.028265
#
#
# Mechanical properties :
#
#
# Convention : Reuss Voigt Hill
#
# Bulk Modulus (GPa) = 48.58730 70.54706 59.56718
# Shear Modulus (GPa) = 25.72972 31.67258 28.70115
#
# Velocity S-wave (km/s) = 3.50189 3.88532 3.69857
# Velocity P-wave (km/s) = 6.28558 7.33154 6.82862
#
# Compressibility (1/GPa) = 0.02058151
#
# Stress axis : x y z
#
# Youngs Moduli (GPa) = 33.69126 74.95897 105.39678
#
# Poissons Ratio (x) = 0.79802 0.31787
# Poissons Ratio (y) = 0.35868 0.24264
# Poissons Ratio (z) = 0.10161 0.17257
#
# Static dielectric constant tensor:
#      x y z
#    x 3.550500 0.000000 0.025020 
#    y 0.000000 4.023080 0.000000 
#    z 0.025020 0.000000 4.163320 
# 
# 
# High freq. dielectric constant tensor:
#      x y z
#    x 1.786270 0.000000 0.002400 
#    y 0.000000 1.830620 0.000000 
#    z 0.002400 0.000000 1.848060 
# 
# From -- ./inp_files/307146.got.cif
#   From: 2010.06.25/outbox.cif.g09.slc.cpg/sg15_154_cif.got.tgz:307146.got - 2010.06.28 07:06:18.
