data_PCOD8144835
_publ_section_title
;
Structure prediction by ZEFSAII (Michael W. Deem and Ramdas Pophale) SiO2 
 PCOD8144835
Probable space group: C 2/C
;
_chemical_formula_sum "Si O2"
_cell_formula_units_Z 40
_cell_length_a 17.897283
_cell_length_b 21.839274
_cell_length_c 8.235770
_cell_angle_alpha 90.000000
_cell_angle_beta 145.740464
_cell_angle_gamma 90.000000
_cell_volume 1812.147500
_symmetry_space_group_name_H-M "C 2/C"
_symmetry_group_IT_number 15
_symmetry_cell_setting 'monoclinic'
loop_
_space_group_symop_operation_xyz
x,y,z
-x,y,1/2-z
-x,-y,-z
x,-y,1/2+z
1/2+x,1/2+y,z
1/2-x,1/2+y,1/2-z
1/2-x,1/2-y,-z
1/2+x,1/2-y,1/2+z
loop_
_atom_site_type_symbol
_atom_site_label
_atom_site_fract_x
_atom_site_fract_y
_atom_site_fract_z
Si Si1 0.269948 0.803011 0.160922
Si Si2 0.500000 0.262300 0.250000
Si Si3 0.669104 0.945409 0.895506
Si Si4 0.931689 0.881235 0.286992
Si Si5 0.126101 0.572242 0.695486
Si Si6 0.500000 0.357850 0.750000
O O1 0.381094 0.783023 0.488957
O O2 0.317502 0.862664 0.144208
O O3 0.250000 0.750000 0.000000
O O4 0.131641 0.816473 0.002746
O O5 0.446932 0.306952 0.299121
O O6 0.531667 0.929652 0.557956
O O7 0.697890 0.017738 0.922426
O O8 0.780174 0.903229 0.013055
O O9 0.663424 0.932212 0.074237
O O10 0.000000 0.912277 0.250000
O O11 0.001790 0.898779 0.586534
#
# Coordination Sequence:
#
# PCOD8144835 Si02
#       6
#     8   4   8   8   8   4
#     4  12  24  44  67 105 142 184 239 293 352 444
#     4  10  24  42  71 100 143 186 240 282 364 428
#     4  10  21  45  70  99 139 174 245 295 346 431
#     4  10  23  45  70 106 141 186 241 289 362 424
#     4  10  23  41  73 100 132 190 230 292 363 411
#     4  12  24  44  69 104 149 184 236 296 360 422
#
# _framework density 22.073257999999999
#
# number of rings (size 3 to 8) (size 9 to 14) (size 15 to 20)
#    0.600    0.800    4.000    1.200    0.000    5.600 
#    1.800    4.000    0.000    0.000    0.000    0.000 
#    0.000    0.000    0.000    0.000    0.000    0.000 
#
# Total GULP energy -247904.482432 kJ/mol
# GULP energy per Si atom -12395.224122 kJ/mol
# Density = 2.202302 g / cm^3
# Si number density = 22.073258 Si / 1000 Ang^3
#
#
#
# Elastic Constant Matrix: (Units=GPa)
#
#
# Indices 1 2 3 4 5 6 
#
# 1 123.2926 31.9553 58.6739 0.0000 10.4377 0.0000
# 2 31.9553 130.6962 45.3101 0.0000 15.2353 0.0000
# 3 58.6739 45.3101 125.4471 0.0000 18.0252 0.0000
# 4 0.0000 0.0000 0.0000 42.6856 0.0000 7.5432
# 5 10.4377 15.2353 18.0252 0.0000 44.7258 0.0000
# 6 0.0000 0.0000 0.0000 7.5432 0.0000 26.3580
#
#
#
# Elastic Compliance Matrix: (Units=1/GPa)
#
#
# Indices 1 2 3 4 5 6 
#
# 1 0.010548 -0.000970 -0.004540 0.000000 -0.000302 0.000000
# 2 -0.000970 0.008976 -0.002528 0.000000 -0.001812 0.000000
# 3 -0.004540 -0.002528 0.011392 0.000000 -0.002670 0.000000
# 4 0.000000 0.000000 0.000000 0.024675 0.000000 -0.007062
# 5 -0.000302 -0.001812 -0.002670 0.000000 0.024122 0.000000
# 6 0.000000 0.000000 0.000000 -0.007062 0.000000 0.039960
#
#
# Mechanical properties :
#
#
# Convention : Reuss Voigt Hill
#
# Bulk Modulus (GPa) = 67.38407 72.36828 69.87618
# Shear Modulus (GPa) = 35.53759 38.98698 37.26228
#
# Velocity S-wave (km/s) = 4.01681 4.20724 4.11313
# Velocity P-wave (km/s) = 7.21850 7.51384 7.36765
#
# Compressibility (1/GPa) = 0.01484030
#
# Stress axis : x y z
#
# Youngs Moduli (GPa) = 94.80262 111.40592 87.78325
#
# Poissons Ratio (x) = 0.10806 0.39853
# Poissons Ratio (y) = 0.09196 0.22192
# Poissons Ratio (z) = 0.43040 0.28163
#
# Static dielectric constant tensor:
#      x y z
#    x 4.124690 0.000000 0.095970 
#    y 0.000000 4.051770 0.000000 
#    z 0.095970 0.000000 4.526480 
# 
# 
# High freq. dielectric constant tensor:
#      x y z
#    x 1.864810 0.000000 0.009350 
#    y 0.000000 1.857680 0.000000 
#    z 0.009350 0.000000 1.872970 
# 
# From -- ./inp_files/51709.got.cif
#   From: 2010.06.25/outbox.cif.g09.slc.cpg/sg15_26_cif.got.tgz:51709.got - 2010.06.28 07:06:18.
