data_PCOD8144506
_publ_section_title
;
Structure prediction by ZEFSAII (Michael W. Deem and Ramdas Pophale) SiO2 
 PCOD8144506
Probable space group: C 2/C
;
_chemical_formula_sum "Si O2"
_cell_formula_units_Z 48
_cell_length_a 21.861228
_cell_length_b 6.188375
_cell_length_c 14.867859
_cell_angle_alpha 90.000000
_cell_angle_beta 88.682229
_cell_angle_gamma 90.000000
_cell_volume 2010.873427
_symmetry_space_group_name_H-M "C 2/C"
_symmetry_group_IT_number 15
_symmetry_cell_setting 'monoclinic'
loop_
_space_group_symop_operation_xyz
x,y,z
-x,y,1/2-z
-x,-y,-z
x,-y,1/2+z
1/2+x,1/2+y,z
1/2-x,1/2+y,1/2-z
1/2-x,1/2-y,-z
1/2+x,1/2-y,1/2+z
loop_
_atom_site_type_symbol
_atom_site_label
_atom_site_fract_x
_atom_site_fract_y
_atom_site_fract_z
Si Si1 0.558428 0.564027 0.053107
Si Si2 0.228260 0.089209 0.132660
Si Si3 0.324160 0.676352 0.016613
Si Si4 0.628810 0.945118 0.089403
Si Si5 0.178133 0.918698 0.315765
Si Si6 0.933844 0.220264 0.780458
O O1 0.616780 0.466723 0.002992
O O2 0.567992 0.823398 0.055042
O O3 0.552355 0.479418 0.154688
O O4 0.500000 0.500000 0.000000
O O5 0.175294 0.267046 0.125255
O O6 0.214124 0.951456 0.221756
O O7 0.293293 0.208948 0.135206
O O8 0.230057 0.917554 0.048055
O O9 0.189548 0.867953 0.877544
O O10 0.339655 0.923827 0.993063
O O11 0.608328 0.101151 0.170486
O O12 0.106041 0.870529 0.302008
O O13 0.000000 0.316629 0.750000
#
# Coordination Sequence:
#
# PCOD8144506 Si02
#       6
#     8   8   8   8   8   8
#     4  10  21  43  65  94 144 183 226 293 342 413
#     4  11  24  46  67  99 142 173 231 300 347 426
#     4  10  23  43  66 101 134 182 233 284 356 423
#     4  10  21  46  65  97 143 176 234 290 340 422
#     4  12  23  45  70  98 137 184 227 293 359 416
#     4  11  23  42  66 100 137 177 232 284 349 426
#
# _framework density 23.870222999999999
#
# number of rings (size 3 to 8) (size 9 to 14) (size 15 to 20)
#    0.000    1.333    5.000    2.500    0.000    4.000 
#   18.000    0.000    0.000    0.000    0.000    0.000 
#    0.000    0.000    0.000    0.000    0.000    0.000 
#
# Total GULP energy -297623.948988 kJ/mol
# GULP energy per Si atom -12400.997874 kJ/mol
# Density = 2.381589 g / cm^3
# Si number density = 23.870223 Si / 1000 Ang^3
#
#
#
# Elastic Constant Matrix: (Units=GPa)
#
#
# Indices 1 2 3 4 5 6 
#
# 1 79.9185 13.7093 35.6242 0.0000 25.4828 0.0000
# 2 13.7093 118.8054 49.5916 0.0000 13.4396 0.0000
# 3 35.6242 49.5916 139.0940 0.0000 21.6387 0.0000
# 4 0.0000 0.0000 0.0000 36.9270 0.0000 9.3567
# 5 25.4828 13.4396 21.6387 0.0000 49.9155 0.0000
# 6 0.0000 0.0000 0.0000 9.3567 0.0000 27.6396
#
#
#
# Elastic Compliance Matrix: (Units=1/GPa)
#
#
# Indices 1 2 3 4 5 6 
#
# 1 0.016069 0.000231 -0.003123 0.000000 -0.006912 0.000000
# 2 0.000231 0.009961 -0.003405 0.000000 -0.001324 0.000000
# 3 -0.003123 -0.003405 0.009450 0.000000 -0.001586 0.000000
# 4 0.000000 0.000000 0.000000 0.029621 0.000000 -0.010027
# 5 -0.006912 -0.001324 -0.001586 0.000000 0.024607 0.000000
# 6 0.000000 0.000000 0.000000 -0.010027 0.000000 0.039574
#
#
# Mechanical properties :
#
#
# Convention : Reuss Voigt Hill
#
# Bulk Modulus (GPa) = 43.69178 59.51867 51.60523
# Shear Modulus (GPa) = 33.44386 38.82260 36.13323
#
# Velocity S-wave (km/s) = 3.74715 4.03724 3.89490
# Velocity P-wave (km/s) = 6.08811 6.83527 6.47248
#
# Compressibility (1/GPa) = 0.02288760
#
# Stress axis : x y z
#
# Youngs Moduli (GPa) = 62.23150 100.38682 105.82302
#
# Poissons Ratio (x) = -0.02320 0.33045
# Poissons Ratio (y) = -0.01438 0.36031
# Poissons Ratio (z) = 0.19433 0.34180
#
# Static dielectric constant tensor:
#      x y z
#    x 4.579460 0.000000 0.247170 
#    y 0.000000 3.573500 0.000000 
#    z 0.247170 0.000000 4.543240 
# 
# 
# High freq. dielectric constant tensor:
#      x y z
#    x 1.954420 0.000000 0.004330 
#    y 0.000000 1.950090 0.000000 
#    z 0.004330 0.000000 1.948830 
# 
# From -- ./inp_files/278520.got.cif
#   From: 2010.06.25/outbox.cif.g09.slc.cpg/sg15_140_cif.got.tgz:278520.got - 2010.06.28 07:06:18.
