data_PCOD8144327
_publ_section_title
;
Structure prediction by ZEFSAII (Michael W. Deem and Ramdas Pophale) SiO2 
 PCOD8144327
Probable space group: C 2/C
;
_chemical_formula_sum "Si O2"
_cell_formula_units_Z 56
_cell_length_a 8.548816
_cell_length_b 25.060611
_cell_length_c 13.576630
_cell_angle_alpha 90.000000
_cell_angle_beta 113.829979
_cell_angle_gamma 90.000000
_cell_volume 2660.671535
_symmetry_space_group_name_H-M "C 2/C"
_symmetry_group_IT_number 15
_symmetry_cell_setting 'monoclinic'
loop_
_space_group_symop_operation_xyz
x,y,z
-x,y,1/2-z
-x,-y,-z
x,-y,1/2+z
1/2+x,1/2+y,z
1/2-x,1/2+y,1/2-z
1/2-x,1/2-y,-z
1/2+x,1/2-y,1/2+z
loop_
_atom_site_type_symbol
_atom_site_label
_atom_site_fract_x
_atom_site_fract_y
_atom_site_fract_z
Si Si1 0.643328 0.073191 0.584373
Si Si2 0.000000 0.940207 0.250000
Si Si3 0.567582 0.338622 0.060570
Si Si4 0.376310 0.462480 0.412288
Si Si5 0.000000 0.780945 0.250000
Si Si6 0.958403 0.518939 0.131044
Si Si7 0.325063 0.261294 0.913648
Si Si8 0.048267 0.672064 0.875754
O O1 0.840375 0.092298 0.656459
O O2 0.605999 0.066782 0.457105
O O3 0.513537 0.115558 0.597235
O O4 0.616270 0.013942 0.624406
O O5 0.094641 0.976942 0.194600
O O6 0.569285 0.401815 0.059102
O O7 0.529788 0.318372 0.162303
O O8 0.749435 0.319297 0.065432
O O9 0.423144 0.318002 0.946560
O O10 0.500000 0.500000 0.500000
O O11 0.183674 0.472785 0.393988
O O12 0.164269 0.741477 0.298574
O O13 0.000000 0.543245 0.250000
O O14 0.463791 0.217478 0.919858
O O15 0.250000 0.250000 0.000000
O O16 0.000000 0.676167 0.750000
#
# Coordination Sequence:
#
# PCOD8144327 Si02
#       8
#     8   4   8   8   4   8   8   8
#     4  11  24  37  66 100 129 178 231 288 335 404
#     4  12  23  36  66  94 134 168 238 274 337 394
#     4  11  23  42  69  98 135 177 227 281 340 413
#     4  12  24  40  66  98 134 180 228 281 338 406
#     4  10  21  42  68 106 128 172 230 286 339 410
#     4  11  22  41  61  94 138 177 229 281 343 404
#     4  10  24  39  69 101 135 168 218 286 350 401
#     4  12  22  41  72 101 133 174 231 286 343 411
#
# _framework density 21.047318000000001
#
# number of rings (size 3 to 8) (size 9 to 14) (size 15 to 20)
#    0.000    0.857    5.714    2.143    4.000    0.000 
#    0.000    0.000   15.714    0.000    0.000    0.000 
#    0.000    0.000    0.000    0.000    0.000    0.000 
#
# Total GULP energy -346918.365520 kJ/mol
# GULP energy per Si atom -12389.941626 kJ/mol
# Density = 2.099941 g / cm^3
# Si number density = 21.047318 Si / 1000 Ang^3
#
#
#
# Elastic Constant Matrix: (Units=GPa)
#
#
# Indices 1 2 3 4 5 6 
#
# 1 127.5839 43.5289 41.8408 0.0000 11.1045 0.0000
# 2 43.5289 76.1826 59.2558 0.0000 5.2564 0.0000
# 3 41.8408 59.2558 117.8948 0.0000 8.4728 0.0000
# 4 0.0000 0.0000 0.0000 16.9634 0.0000 0.9035
# 5 11.1045 5.2564 8.4728 0.0000 48.9602 0.0000
# 6 0.0000 0.0000 0.0000 0.9035 0.0000 31.5838
#
#
#
# Elastic Compliance Matrix: (Units=1/GPa)
#
#
# Indices 1 2 3 4 5 6 
#
# 1 0.009938 -0.004785 -0.001009 0.000000 -0.001566 0.000000
# 2 -0.004785 0.023866 -0.010319 0.000000 0.000309 0.000000
# 3 -0.001009 -0.010319 0.014106 0.000000 -0.001104 0.000000
# 4 0.000000 0.000000 0.000000 0.059041 0.000000 -0.001689
# 5 -0.001566 0.000309 -0.001104 0.000000 0.020938 0.000000
# 6 0.000000 0.000000 0.000000 -0.001689 0.000000 0.031710
#
#
# Mechanical properties :
#
#
# Convention : Reuss Voigt Hill
#
# Bulk Modulus (GPa) = 63.76575 67.87914 65.82244
# Shear Modulus (GPa) = 25.37392 31.30387 28.33889
#
# Velocity S-wave (km/s) = 3.47589 3.86075 3.67336
# Velocity P-wave (km/s) = 6.81698 7.22458 7.02374
#
# Compressibility (1/GPa) = 0.01568240
#
# Stress axis : x y z
#
# Youngs Moduli (GPa) = 100.62541 41.90148 70.89045
#
# Poissons Ratio (x) = 0.20051 0.07155
# Poissons Ratio (y) = 0.48151 0.73153
# Poissons Ratio (z) = 0.10156 0.43239
#
# Static dielectric constant tensor:
#      x y z
#    x 4.626940 0.000000 0.191500 
#    y 0.000000 3.354390 0.000000 
#    z 0.191500 0.000000 4.229060 
# 
# 
# High freq. dielectric constant tensor:
#      x y z
#    x 1.859920 0.000000 0.003260 
#    y 0.000000 1.789280 0.000000 
#    z 0.003260 0.000000 1.821740 
# 
# From -- ./inp_files/138008.got.cif
#   From: 2010.06.25/outbox.cif.g09.slc.cpg/sg15_70_cif.got.tgz:138008.got - 2010.06.28 07:06:18.
