data_PCOD8144822
_publ_section_title
;
Structure prediction by ZEFSAII (Michael W. Deem and Ramdas Pophale) SiO2 
 PCOD8144822
Probable space group: C 2/C
;
_chemical_formula_sum "Si O2"
_cell_formula_units_Z 60
_cell_length_a 11.186098
_cell_length_b 8.885065
_cell_length_c 28.926590
_cell_angle_alpha 90.000000
_cell_angle_beta 81.512581
_cell_angle_gamma 90.000000
_cell_volume 2843.504815
_symmetry_space_group_name_H-M "C 2/C"
_symmetry_group_IT_number 15
_symmetry_cell_setting 'monoclinic'
loop_
_space_group_symop_operation_xyz
x,y,z
-x,y,1/2-z
-x,-y,-z
x,-y,1/2+z
1/2+x,1/2+y,z
1/2-x,1/2+y,1/2-z
1/2-x,1/2-y,-z
1/2+x,1/2-y,1/2+z
loop_
_atom_site_type_symbol
_atom_site_label
_atom_site_fract_x
_atom_site_fract_y
_atom_site_fract_z
Si Si1 0.786440 0.139989 0.924121
Si Si2 0.892004 0.146767 0.821887
Si Si3 0.471940 0.611811 0.542293
Si Si4 0.196866 0.924901 0.887055
Si Si5 0.530749 0.041999 0.142651
Si Si6 0.923233 0.568753 0.045154
Si Si7 0.639859 0.780077 0.307643
Si Si8 0.000000 0.089493 0.250000
O O1 0.829409 0.083941 0.871489
O O2 0.715519 0.297574 0.925159
O O3 0.899426 0.173962 0.949454
O O4 0.705872 0.010017 0.950062
O O5 0.971689 0.296449 0.829755
O O6 0.779987 0.174374 0.793072
O O7 0.970511 0.015832 0.795218
O O8 0.500000 0.500000 0.500000
O O9 0.398986 0.542985 0.589087
O O10 0.398104 0.759136 0.531591
O O11 0.326305 0.002958 0.867338
O O12 0.132580 0.846172 0.847591
O O13 0.481274 0.055081 0.093118
O O14 0.451031 0.919354 0.174958
O O15 0.000000 0.500000 0.000000
O O16 0.604829 0.702094 0.261197
#
# Coordination Sequence:
#
# PCOD8144822 Si02
#       8
#     8   8   8   8   8   8   8   4
#     4  10  22  46  66  87 138 172 210 272 324 377
#     4  10  23  45  66  96 129 175 212 261 334 389
#     4  12  26  38  61  97 131 171 220 269 321 376
#     4  10  22  42  67  91 126 176 216 257 329 390
#     4  10  21  45  69  89 134 177 208 262 330 380
#     4  12  24  41  69  96 129 176 221 266 316 381
#     4  10  23  43  66  98 126 166 211 270 326 383
#     4  12  26  40  70 100 130 156 222 274 312 398
#
# _framework density 21.100719999999999
#
# number of rings (size 3 to 8) (size 9 to 14) (size 15 to 20)
#    0.000    1.600    5.333    1.600    1.867    7.467 
#    0.000    0.000    0.000    0.000    0.000    0.000 
#    0.000    0.000    0.000    0.000    0.000    0.000 
#
# Total GULP energy -371742.507865 kJ/mol
# GULP energy per Si atom -12391.416929 kJ/mol
# Density = 2.105269 g / cm^3
# Si number density = 21.100720 Si / 1000 Ang^3
#
#
#
# Elastic Constant Matrix: (Units=GPa)
#
#
# Indices 1 2 3 4 5 6 
#
# 1 68.3826 25.6535 -1.1480 0.0000 3.0019 0.0000
# 2 25.6535 101.9734 23.7700 0.0000 -11.0337 0.0000
# 3 -1.1480 23.7700 39.5970 0.0000 -2.0965 0.0000
# 4 0.0000 0.0000 0.0000 40.9607 0.0000 1.9933
# 5 3.0019 -11.0337 -2.0965 0.0000 32.7339 0.0000
# 6 0.0000 0.0000 0.0000 1.9933 0.0000 20.2724
#
#
#
# Elastic Compliance Matrix: (Units=1/GPa)
#
#
# Indices 1 2 3 4 5 6 
#
# 1 0.016852 -0.005412 0.003571 0.000000 -0.003141 0.000000
# 2 -0.005412 0.013534 -0.008041 0.000000 0.004543 0.000000
# 3 0.003571 -0.008041 0.030126 0.000000 -0.001108 0.000000
# 4 0.000000 0.000000 0.000000 0.024531 0.000000 -0.002412
# 5 -0.003141 0.004543 -0.001108 0.000000 0.032298 0.000000
# 6 0.000000 0.000000 0.000000 -0.002412 0.000000 0.049565
#
#
# Mechanical properties :
#
#
# Convention : Reuss Voigt Hill
#
# Bulk Modulus (GPa) = 24.54071 34.05601 29.29836
# Shear Modulus (GPa) = 24.96867 29.57192 27.27029
#
# Velocity S-wave (km/s) = 3.44366 3.74768 3.59888
# Velocity P-wave (km/s) = 5.24092 5.90775 5.58430
#
# Compressibility (1/GPa) = 0.04074862
#
# Stress axis : x y z
#
# Youngs Moduli (GPa) = 59.34168 73.88954 33.19389
#
# Poissons Ratio (x) = 0.39986 -0.11853
# Poissons Ratio (y) = 0.32113 0.26690
# Poissons Ratio (z) = -0.21190 0.59412
#
# Static dielectric constant tensor:
#      x y z
#    x 4.234240 0.000000 0.457850 
#    y 0.000000 4.156050 0.000000 
#    z 0.457850 0.000000 3.958320 
# 
# 
# High freq. dielectric constant tensor:
#      x y z
#    x 1.833520 0.000000 0.007200 
#    y 0.000000 1.829680 0.000000 
#    z 0.007200 0.000000 1.818270 
# 
# From -- ./inp_files/309964.got.cif
#   From: 2010.06.25/outbox.cif.g09.slc.cpg/sg15_155_cif.got.tgz:309964.got - 2010.06.28 07:06:18.
