data_PCOD8144999
_publ_section_title
;
Structure prediction by ZEFSAII (Michael W. Deem and Ramdas Pophale) SiO2 
 PCOD8144999
Probable space group: C 2/C
;
_chemical_formula_sum "Si O2"
_cell_formula_units_Z 64
_cell_length_a 26.651059
_cell_length_b 8.701896
_cell_length_c 14.066535
_cell_angle_alpha 90.000000
_cell_angle_beta 67.206864
_cell_angle_gamma 90.000000
_cell_volume 3007.487377
_symmetry_space_group_name_H-M "C 2/C"
_symmetry_group_IT_number 15
_symmetry_cell_setting 'monoclinic'
loop_
_space_group_symop_operation_xyz
x,y,z
-x,y,1/2-z
-x,-y,-z
x,-y,1/2+z
1/2+x,1/2+y,z
1/2-x,1/2+y,1/2-z
1/2-x,1/2-y,-z
1/2+x,1/2-y,1/2+z
loop_
_atom_site_type_symbol
_atom_site_label
_atom_site_fract_x
_atom_site_fract_y
_atom_site_fract_z
Si Si1 0.945512 0.001786 0.652095
Si Si2 0.712358 0.617593 0.489475
Si Si3 0.138088 0.626116 0.019131
Si Si4 0.556963 0.363809 0.547650
Si Si5 0.938398 0.545857 0.053607
Si Si6 0.709674 0.120239 0.566787
Si Si7 0.641709 0.392617 0.652244
Si Si8 0.443638 0.828095 0.748830
O O1 0.937208 0.022952 0.546022
O O2 0.956853 0.158272 0.700934
O O3 0.889323 0.929179 0.728384
O O4 0.996039 0.886193 0.634201
O O5 0.750000 0.750000 0.500000
O O6 0.666304 0.712137 0.466241
O O7 0.751304 0.498126 0.400815
O O8 0.688417 0.518176 0.595762
O O9 0.180302 0.485944 0.007879
O O10 0.103858 0.664168 0.139210
O O11 0.099721 0.587998 0.958763
O O12 0.570196 0.192356 0.506499
O O13 0.600821 0.406312 0.593822
O O14 0.923197 0.571206 0.174697
O O15 0.000000 0.500000 0.000000
O O16 0.750000 0.250000 0.500000
O O17 0.663742 0.218515 0.654733
O O18 0.500000 0.895556 0.750000
#
# Coordination Sequence:
#
# PCOD8144999 Si02
#       8
#     8   8   8   8   8   8   8   8
#     4  10  22  36  59  92 129 168 210 246 309 392
#     4   9  20  36  63  92 118 162 218 259 320 376
#     4  11  20  39  64  89 128 172 201 258 325 367
#     4  10  22  37  57  91 131 167 207 253 306 381
#     4  11  23  38  57  91 133 167 204 251 307 379
#     4   9  20  37  62  94 119 160 217 268 317 374
#     4  11  18  37  65  87 124 164 208 260 321 367
#     4  11  21  36  60  90 129 167 215 247 301 395
#
# _framework density 21.280221999999998
#
# number of rings (size 3 to 8) (size 9 to 14) (size 15 to 20)
#    0.000    1.750    3.750    1.125    0.000    2.000 
#    2.250    0.000    0.000   22.500    0.000    0.000 
#    0.000    0.000    0.000    0.000    0.000    0.000 
#
# Total GULP energy -396449.495749 kJ/mol
# GULP energy per Si atom -12389.046742 kJ/mol
# Density = 2.123179 g / cm^3
# Si number density = 21.280222 Si / 1000 Ang^3
#
#
#
# Elastic Constant Matrix: (Units=GPa)
#
#
# Indices 1 2 3 4 5 6 
#
# 1 107.3660 50.3978 32.5270 0.0000 -15.1694 0.0000
# 2 50.3978 106.7479 20.5455 0.0000 -9.3602 0.0000
# 3 32.5270 20.5455 65.9917 0.0000 -3.8641 0.0000
# 4 0.0000 0.0000 0.0000 24.6511 0.0000 -13.8078
# 5 -15.1694 -9.3602 -3.8641 0.0000 25.0823 0.0000
# 6 0.0000 0.0000 0.0000 -13.8078 0.0000 57.5984
#
#
#
# Elastic Compliance Matrix: (Units=1/GPa)
#
#
# Indices 1 2 3 4 5 6 
#
# 1 0.014075 -0.005176 -0.004986 0.000000 0.005813 0.000000
# 2 -0.005176 0.012141 -0.001157 0.000000 0.001222 0.000000
# 3 -0.004986 -0.001157 0.017931 0.000000 -0.000685 0.000000
# 4 0.000000 0.000000 0.000000 0.046858 0.000000 0.011233
# 5 0.005813 0.001222 -0.000685 0.000000 0.043735 0.000000
# 6 0.000000 0.000000 0.000000 0.011233 0.000000 0.020054
#
#
# Mechanical properties :
#
#
# Convention : Reuss Voigt Hill
#
# Bulk Modulus (GPa) = 46.49051 54.11625 50.30338
# Shear Modulus (GPa) = 27.08512 33.24207 30.16360
#
# Velocity S-wave (km/s) = 3.57148 3.95664 3.76898
# Velocity P-wave (km/s) = 6.23711 6.80874 6.52918
#
# Compressibility (1/GPa) = 0.02150977
#
# Stress axis : x y z
#
# Youngs Moduli (GPa) = 71.04649 82.36259 55.76897
#
# Poissons Ratio (x) = 0.42630 0.27806
# Poissons Ratio (y) = 0.36773 0.06454
# Poissons Ratio (z) = 0.35423 0.09532
#
# Static dielectric constant tensor:
#      x y z
#    x 4.150890 0.000000 -0.777000 
#    y 0.000000 4.395780 0.000000 
#    z -0.777000 0.000000 2.431780 
# 
# 
# High freq. dielectric constant tensor:
#      x y z
#    x 1.845190 0.000000 -0.023840 
#    y 0.000000 1.854080 0.000000 
#    z -0.023840 0.000000 1.796350 
# 
# From -- ./inp_files/176566.got.cif
#   From: 2010.06.25/outbox.cif.g09.slc.cpg/sg15_89_cif.got.tgz:176566.got - 2010.06.28 07:06:18.
