data_PCOD8144184
_publ_section_title
;
Structure prediction by ZEFSAII (Michael W. Deem and Ramdas Pophale) SiO2 
 PCOD8144184
Probable space group: C 2/C
;
_chemical_formula_sum "Si O2"
_cell_formula_units_Z 56
_cell_length_a 13.954945
_cell_length_b 8.338513
_cell_length_c 23.050669
_cell_angle_alpha 90.000000
_cell_angle_beta 93.582310
_cell_angle_gamma 90.000000
_cell_volume 2677.015350
_symmetry_space_group_name_H-M "C 2/C"
_symmetry_group_IT_number 15
_symmetry_cell_setting 'monoclinic'
loop_
_space_group_symop_operation_xyz
x,y,z
-x,y,1/2-z
-x,-y,-z
x,-y,1/2+z
1/2+x,1/2+y,z
1/2-x,1/2+y,1/2-z
1/2-x,1/2-y,-z
1/2+x,1/2-y,1/2+z
loop_
_atom_site_type_symbol
_atom_site_label
_atom_site_fract_x
_atom_site_fract_y
_atom_site_fract_z
Si Si1 0.148541 0.370118 0.373945
Si Si2 0.709701 0.489249 0.702197
Si Si3 0.795608 0.101186 0.969813
Si Si4 0.354695 0.502822 0.090220
Si Si5 0.058066 0.141220 0.624330
Si Si6 0.232699 0.372558 0.182786
Si Si7 0.532959 0.028271 0.185311
O O1 0.214317 0.377987 0.318816
O O2 0.210264 0.467819 0.425481
O O3 0.130515 0.187929 0.392200
O O4 0.048214 0.456300 0.359510
O O5 0.607039 0.505493 0.666678
O O6 0.701021 0.525674 0.770149
O O7 0.753520 0.314529 0.692604
O O8 0.886157 0.155980 0.934450
O O9 0.750000 0.250000 0.000000
O O10 0.832356 0.979302 0.020745
O O11 0.448842 0.403397 0.109197
O O12 0.264681 0.426049 0.120112
O O13 0.067260 0.305648 0.659648
O O14 0.120646 0.404641 0.188326
O O15 0.500000 0.054499 0.250000
#
# Coordination Sequence:
#
# PCOD8144184 Si02
#       7
#     8   8   8   8   8   8   8
#     4  10  21  42  64  94 128 164 212 262 314 379
#     4  11  23  41  61  93 125 172 205 269 318 383
#     4   9  20  43  68  92 129 170 214 266 318 374
#     4  11  23  41  67  96 127 173 211 263 319 379
#     4  11  24  41  65  95 132 167 218 259 322 378
#     4  12  24  40  64  90 132 163 218 259 327 379
#     4  12  24  40  62  94 128 169 212 264 321 384
#
# _framework density 20.91882
#
# number of rings (size 3 to 8) (size 9 to 14) (size 15 to 20)
#    0.000    1.143    1.429    6.429    2.000    0.000 
#    0.000   14.286    0.000    0.000    0.000    0.000 
#    0.000    0.000    0.000    0.000    0.000    0.000 
#
# Total GULP energy -347223.670090 kJ/mol
# GULP energy per Si atom -12400.845360 kJ/mol
# Density = 2.087121 g / cm^3
# Si number density = 20.918820 Si / 1000 Ang^3
#
#
#
# Elastic Constant Matrix: (Units=GPa)
#
#
# Indices 1 2 3 4 5 6 
#
# 1 93.4522 6.3173 47.4832 0.0000 2.9117 0.0000
# 2 6.3173 75.8626 29.5261 0.0000 1.0219 0.0000
# 3 47.4832 29.5261 120.8938 0.0000 -5.2471 0.0000
# 4 0.0000 0.0000 0.0000 28.7103 0.0000 -0.0915
# 5 2.9117 1.0219 -5.2471 0.0000 40.0597 0.0000
# 6 0.0000 0.0000 0.0000 -0.0915 0.0000 30.6530
#
#
#
# Elastic Compliance Matrix: (Units=1/GPa)
#
#
# Indices 1 2 3 4 5 6 
#
# 1 0.013563 0.001102 -0.005673 0.000000 -0.001757 0.000000
# 2 0.001102 0.014684 -0.004062 0.000000 -0.000987 0.000000
# 3 -0.005673 -0.004062 0.011580 0.000000 0.002033 0.000000
# 4 0.000000 0.000000 0.000000 0.034831 0.000000 0.000104
# 5 -0.001757 -0.000987 0.002033 0.000000 0.025382 0.000000
# 6 0.000000 0.000000 0.000000 0.000104 0.000000 0.032624
#
#
# Mechanical properties :
#
#
# Convention : Reuss Voigt Hill
#
# Bulk Modulus (GPa) = 44.32185 50.76242 47.54214
# Shear Modulus (GPa) = 31.75616 33.67672 32.71644
#
# Velocity S-wave (km/s) = 3.90046 4.01668 3.95900
# Velocity P-wave (km/s) = 6.44348 6.76984 6.60867
#
# Compressibility (1/GPa) = 0.02256223
#
# Stress axis : x y z
#
# Youngs Moduli (GPa) = 73.72918 68.10040 86.35560
#
# Poissons Ratio (x) = -0.07505 0.48986
# Poissons Ratio (y) = -0.08125 0.35078
# Poissons Ratio (z) = 0.41823 0.27662
#
# Static dielectric constant tensor:
#      x y z
#    x 3.830330 0.000000 0.244720 
#    y 0.000000 3.611030 0.000000 
#    z 0.244720 0.000000 4.551800 
# 
# 
# High freq. dielectric constant tensor:
#      x y z
#    x 1.825720 0.000000 0.006440 
#    y 0.000000 1.805390 0.000000 
#    z 0.006440 0.000000 1.834490 
# 
# From -- ./inp_files/242805.got.cif
#   From: 2010.06.25/outbox.cif.g09.slc.cpg/sg15_122_cif.got.tgz:242805.got - 2010.06.28 07:06:18.
