data_PCOD8144748
_publ_section_title
;
Structure prediction by ZEFSAII (Michael W. Deem and Ramdas Pophale) SiO2 
 PCOD8144748
Probable space group: C 2/C
;
_chemical_formula_sum "Si O2"
_cell_formula_units_Z 44
_cell_length_a 7.944505
_cell_length_b 11.838837
_cell_length_c 26.092222
_cell_angle_alpha 90.000000
_cell_angle_beta 50.782409
_cell_angle_gamma 90.000000
_cell_volume 1901.291739
_symmetry_space_group_name_H-M "C 2/C"
_symmetry_group_IT_number 15
_symmetry_cell_setting 'monoclinic'
loop_
_space_group_symop_operation_xyz
x,y,z
-x,y,1/2-z
-x,-y,-z
x,-y,1/2+z
1/2+x,1/2+y,z
1/2-x,1/2+y,1/2-z
1/2-x,1/2-y,-z
1/2+x,1/2-y,1/2+z
loop_
_atom_site_type_symbol
_atom_site_label
_atom_site_fract_x
_atom_site_fract_y
_atom_site_fract_z
Si Si1 0.251833 0.877356 0.709729
Si Si2 0.000000 0.518913 0.250000
Si Si3 0.080132 0.242195 0.078267
Si Si4 0.639864 0.496660 0.554119
Si Si5 0.775018 0.164004 0.642814
Si Si6 0.047622 0.524508 0.913997
O O1 0.295934 0.745701 0.688191
O O2 0.000000 0.908490 0.750000
O O3 0.324974 0.901609 0.754207
O O4 0.400308 0.956362 0.646562
O O5 0.880701 0.439820 0.314212
O O6 0.188354 0.259651 0.113172
O O7 0.903752 0.341547 0.104415
O O8 0.984108 0.114701 0.090818
O O9 0.250000 0.250000 0.000000
O O10 0.507923 0.612625 0.581933
O O11 0.808636 0.480778 0.567647
O O12 0.787586 0.494459 0.474157
#
# Coordination Sequence:
#
# PCOD8144748 Si02
#       6
#     8   4   8   8   8   8
#     4  12  26  50  71  99 146 188 243 305 346 430
#     4  12  28  48  70 104 136 204 248 278 376 428
#     4  10  22  43  69 103 142 178 227 290 356 432
#     4  10  23  42  71 103 141 180 226 298 360 426
#     4  12  25  47  70 102 144 186 239 299 358 433
#     4  10  21  44  69 104 138 181 233 287 365 420
#
# _framework density 23.142160000000001
#
# number of rings (size 3 to 8) (size 9 to 14) (size 15 to 20)
#    0.000    1.091    4.545    1.091    0.000    5.091 
#    4.909    0.000    0.000    0.000    0.000    0.000 
#    0.000    0.000    0.000    0.000    0.000    0.000 
#
# Total GULP energy -272706.747293 kJ/mol
# GULP energy per Si atom -12395.761241 kJ/mol
# Density = 2.308949 g / cm^3
# Si number density = 23.142160 Si / 1000 Ang^3
#
#
#
# Elastic Constant Matrix: (Units=GPa)
#
#
# Indices 1 2 3 4 5 6 
#
# 1 81.5074 37.8885 38.6291 -0.0001 6.1971 0.0001
# 2 37.8885 138.0379 35.0756 0.0000 -4.4330 0.0000
# 3 38.6291 35.0756 86.7248 0.0000 -0.0985 0.0000
# 4 -0.0001 0.0000 0.0000 31.0797 0.0000 6.7954
# 5 6.1971 -4.4330 -0.0985 0.0000 32.4682 0.0000
# 6 0.0001 0.0000 0.0000 6.7954 0.0000 34.3293
#
#
#
# Elastic Compliance Matrix: (Units=1/GPa)
#
#
# Indices 1 2 3 4 5 6 
#
# 1 0.017016 -0.003190 -0.006293 0.000000 -0.003702 0.000000
# 2 -0.003190 0.008711 -0.002100 0.000000 0.001792 0.000000
# 3 -0.006293 -0.002100 0.015184 0.000000 0.000960 0.000000
# 4 0.000000 0.000000 0.000000 0.033631 0.000000 -0.006657
# 5 -0.003702 0.001792 0.000960 0.000000 0.031754 0.000000
# 6 0.000000 0.000000 0.000000 -0.006657 0.000000 0.030447
#
#
# Mechanical properties :
#
#
# Convention : Reuss Voigt Hill
#
# Bulk Modulus (GPa) = 56.35635 58.82848 57.59242
# Shear Modulus (GPa) = 30.15222 32.55391 31.35306
#
# Velocity S-wave (km/s) = 3.61350 3.75466 3.68476
# Velocity P-wave (km/s) = 6.46645 6.65374 6.56077
#
# Compressibility (1/GPa) = 0.01774423
#
# Stress axis : x y z
#
# Youngs Moduli (GPa) = 58.76879 114.79388 65.85739
#
# Poissons Ratio (x) = 0.36623 0.41445
# Poissons Ratio (y) = 0.18749 0.13831
# Poissons Ratio (z) = 0.36984 0.24109
#
# Static dielectric constant tensor:
#      x y z
#    x 3.881420 0.000000 0.002220 
#    y 0.000000 4.750590 0.000000 
#    z 0.002220 0.000000 4.562480 
# 
# 
# High freq. dielectric constant tensor:
#      x y z
#    x 1.887630 0.000000 0.015670 
#    y 0.000000 1.931050 0.000000 
#    z 0.015670 0.000000 1.922210 
# 
# From -- ./inp_files/230246.got.cif
#   From: 2010.06.25/outbox.cif.g09.slc.cpg/sg15_116_cif.got.tgz:230246.got - 2010.06.28 07:06:18.
