data_PCOD8144404
_publ_section_title
;
Structure prediction by ZEFSAII (Michael W. Deem and Ramdas Pophale) SiO2 
 PCOD8144404
Probable space group: C 2/C
;
_chemical_formula_sum "Si O2"
_cell_formula_units_Z 60
_cell_length_a 26.326203
_cell_length_b 8.116029
_cell_length_c 21.943209
_cell_angle_alpha 90.000000
_cell_angle_beta 147.463423
_cell_angle_gamma 90.000000
_cell_volume 2521.641636
_symmetry_space_group_name_H-M "C 2/C"
_symmetry_group_IT_number 15
_symmetry_cell_setting 'monoclinic'
loop_
_space_group_symop_operation_xyz
x,y,z
-x,y,1/2-z
-x,-y,-z
x,-y,1/2+z
1/2+x,1/2+y,z
1/2-x,1/2+y,1/2-z
1/2-x,1/2-y,-z
1/2+x,1/2-y,1/2+z
loop_
_atom_site_type_symbol
_atom_site_label
_atom_site_fract_x
_atom_site_fract_y
_atom_site_fract_z
Si Si1 0.314189 0.907094 0.578262
Si Si2 0.868631 0.345843 0.384748
Si Si3 0.824298 0.861322 0.499321
Si Si4 0.546313 0.330387 0.064631
Si Si5 0.000000 0.049076 0.250000
Si Si6 0.808962 0.501096 0.946912
Si Si7 0.201169 0.012192 0.652801
Si Si8 0.107513 0.165731 0.759918
O O1 0.250000 0.750000 0.500000
O O2 0.382066 0.851590 0.701938
O O3 0.254821 0.072160 0.533923
O O4 0.365764 0.945946 0.566090
O O5 0.866867 0.445624 0.446400
O O6 0.812713 0.450483 0.276728
O O7 0.978064 0.320407 0.473988
O O8 0.822567 0.165342 0.344248
O O9 0.924331 0.841786 0.635698
O O10 0.794179 0.694800 0.435115
O O11 0.827631 0.993949 0.447429
O O12 0.647863 0.336015 0.134436
O O13 0.547123 0.317985 0.138280
O O14 0.500000 0.500000 0.000000
O O15 0.055328 0.939853 0.257817
O O16 0.706274 0.583748 0.841184
#
# Coordination Sequence:
#
# PCOD8144404 Si02
#       8
#     8   8   8   8   4   8   8   8
#     4  10  21  42  70  96 127 181 233 282 350 426
#     4  11  23  44  73 103 134 190 235 292 356 426
#     4  12  25  43  69 102 139 188 231 289 358 428
#     4  10  23  42  69 104 139 182 233 289 351 425
#     4  12  24  40  66 100 142 176 230 292 358 414
#     4  11  23  45  69  95 141 183 238 289 355 428
#     4  11  23  42  71  99 142 182 234 287 357 423
#     4  11  23  41  73  97 136 183 233 292 355 420
#
# _framework density 23.794022999999999
#
# number of rings (size 3 to 8) (size 9 to 14) (size 15 to 20)
#    0.000    1.067    4.000    4.400    3.733    0.000 
#    2.400    2.667    0.000    0.000    0.000    0.000 
#    0.000    0.000    0.000    0.000    0.000    0.000 
#
# Total GULP energy -371820.563598 kJ/mol
# GULP energy per Si atom -12394.018787 kJ/mol
# Density = 2.373987 g / cm^3
# Si number density = 23.794023 Si / 1000 Ang^3
#
#
#
# Elastic Constant Matrix: (Units=GPa)
#
#
# Indices 1 2 3 4 5 6 
#
# 1 68.5968 -3.9605 21.6669 0.0000 -14.2227 0.0000
# 2 -3.9605 82.5636 17.0935 0.0000 -1.6476 0.0000
# 3 21.6669 17.0935 111.2956 0.0000 -30.5652 0.0000
# 4 0.0000 0.0000 0.0000 32.3780 0.0000 -7.5774
# 5 -14.2227 -1.6476 -30.5652 0.0000 36.4991 0.0000
# 6 0.0000 0.0000 0.0000 -7.5774 0.0000 32.9721
#
#
#
# Elastic Compliance Matrix: (Units=1/GPa)
#
#
# Indices 1 2 3 4 5 6 
#
# 1 0.016278 0.001307 -0.002093 0.000000 0.004650 0.000000
# 2 0.001307 0.012666 -0.002471 0.000000 -0.000988 0.000000
# 3 -0.002093 -0.002471 0.012360 0.000000 0.009424 0.000000
# 4 0.000000 0.000000 0.000000 0.032641 0.000000 0.007501
# 5 0.004650 -0.000988 0.009424 0.000000 0.037057 0.000000
# 6 0.000000 0.000000 0.000000 0.007501 0.000000 0.032053
#
#
# Mechanical properties :
#
#
# Convention : Reuss Voigt Hill
#
# Bulk Modulus (GPa) = 28.74343 36.89511 32.81927
# Shear Modulus (GPa) = 31.02388 35.54691 33.28539
#
# Velocity S-wave (km/s) = 3.61481 3.86935 3.74424
# Velocity P-wave (km/s) = 5.43404 5.95837 5.70223
#
# Compressibility (1/GPa) = 0.03479056
#
# Stress axis : x y z
#
# Youngs Moduli (GPa) = 61.43075 78.94844 80.90574
#
# Poissons Ratio (x) = -0.10318 0.16933
# Poissons Ratio (y) = -0.08029 0.19994
# Poissons Ratio (z) = 0.12857 0.19511
#
# Static dielectric constant tensor:
#      x y z
#    x 4.424220 0.000000 -0.100110 
#    y 0.000000 4.408800 0.000000 
#    z -0.100110 0.000000 4.780870 
# 
# 
# High freq. dielectric constant tensor:
#      x y z
#    x 1.939810 0.000000 -0.017670 
#    y 0.000000 1.940080 0.000000 
#    z -0.017670 0.000000 1.943250 
# 
# From -- ./inp_files/255189.got.cif
#   From: 2010.06.25/outbox.cif.g09.slc.cpg/sg15_128_cif.got.tgz:255189.got - 2010.06.28 07:06:18.
