data_PCOD8144724
_publ_section_title
;
Structure prediction by ZEFSAII (Michael W. Deem and Ramdas Pophale) SiO2 
 PCOD8144724
Probable space group: C 2/C
;
_chemical_formula_sum "Si O2"
_cell_formula_units_Z 40
_cell_length_a 7.676538
_cell_length_b 26.980670
_cell_length_c 15.265825
_cell_angle_alpha 90.000000
_cell_angle_beta 34.747572
_cell_angle_gamma 90.000000
_cell_volume 1802.122348
_symmetry_space_group_name_H-M "C 2/C"
_symmetry_group_IT_number 15
_symmetry_cell_setting 'monoclinic'
loop_
_space_group_symop_operation_xyz
x,y,z
-x,y,1/2-z
-x,-y,-z
x,-y,1/2+z
1/2+x,1/2+y,z
1/2-x,1/2+y,1/2-z
1/2-x,1/2-y,-z
1/2+x,1/2-y,1/2+z
loop_
_atom_site_type_symbol
_atom_site_label
_atom_site_fract_x
_atom_site_fract_y
_atom_site_fract_z
Si Si1 0.241558 0.554085 0.225920
Si Si2 0.500000 0.523251 0.750000
Si Si3 0.778060 0.607085 0.521958
Si Si4 0.717539 0.392538 0.418293
Si Si5 0.000000 0.185301 0.750000
Si Si6 0.967873 0.286847 0.360802
O O1 0.291193 0.508665 0.270850
O O2 0.000000 0.538430 0.250000
O O3 0.103071 0.600236 0.339010
O O4 0.568824 0.570327 0.050630
O O5 0.716048 0.556381 0.599736
O O6 0.529399 0.621284 0.552140
O O7 0.767091 0.652318 0.594121
O O8 0.838654 0.342987 0.415541
O O9 0.000000 0.418811 0.250000
O O10 0.807817 0.217895 0.761569
O O11 0.750000 0.250000 0.500000
O O12 0.000000 0.266678 0.250000
#
# Coordination Sequence:
#
# PCOD8144724 Si02
#       6
#     8   4   8   8   4   8
#     4  10  24  40  60  98 130 174 230 275 333 393
#     4  11  24  38  64  96 132 174 230 280 328 391
#     4  10  22  42  66  93 132 177 222 272 333 404
#     4  10  21  44  67  90 134 174 214 278 342 393
#     4  11  22  44  72  96 134 180 220 268 354 405
#     4  11  25  46  69 104 135 175 226 283 346 414
#
# _framework density 22.196051000000001
#
# number of rings (size 3 to 8) (size 9 to 14) (size 15 to 20)
#    0.000    1.600    4.000    0.600    2.800    8.000 
#    5.400    0.000    0.000    0.000    0.000    0.000 
#    0.000    0.000    0.000    0.000    0.000    0.000 
#
# Total GULP energy -247944.837476 kJ/mol
# GULP energy per Si atom -12397.241874 kJ/mol
# Density = 2.214553 g / cm^3
# Si number density = 22.196051 Si / 1000 Ang^3
#
#
#
# Elastic Constant Matrix: (Units=GPa)
#
#
# Indices 1 2 3 4 5 6 
#
# 1 146.0904 50.5267 53.3566 0.0000 8.7992 0.0000
# 2 50.5267 59.0639 40.3518 0.0000 -4.1962 0.0000
# 3 53.3566 40.3518 150.5571 0.0000 -3.8659 0.0000
# 4 0.0000 0.0000 0.0000 15.0770 0.0000 7.6151
# 5 8.7992 -4.1962 -3.8659 0.0000 26.0038 0.0000
# 6 0.0000 0.0000 0.0000 7.6151 0.0000 -2.6646
#
#
#
# Elastic Compliance Matrix: (Units=1/GPa)
#
#
# Indices 1 2 3 4 5 6 
#
# 1 0.010654 -0.008340 -0.001674 0.000000 -0.005200 0.000000
# 2 -0.008340 0.027421 -0.004224 0.000000 0.006619 0.000000
# 3 -0.001674 -0.004224 0.008396 0.000000 0.001133 0.000000
# 4 0.000000 0.000000 0.000000 0.027144 0.000000 0.077576
# 5 -0.005200 0.006619 0.001133 0.000000 0.041452 0.000000
# 6 0.000000 0.000000 0.000000 0.077576 0.000000 -0.153591
#
#
# Mechanical properties :
#
#
# Convention : Reuss Voigt Hill
#
# Bulk Modulus (GPa) = 55.56709 71.57575 63.57142
# Shear Modulus (GPa) = -1234.91959 21.78166 -606.56896
#
# Velocity S-wave (km/s) = -23.61307 3.13602 -16.54905
# Velocity P-wave (km/s) = 26.80199 6.74017 18.34280
#
# Compressibility (1/GPa) = 0.01799626
#
# Stress axis : x y z
#
# Youngs Moduli (GPa) = 93.86051 36.46831 119.09871
#
# Poissons Ratio (x) = 0.30414 0.19938
# Poissons Ratio (y) = 0.78278 0.50304
# Poissons Ratio (z) = 0.15713 0.15403
#
# Static dielectric constant tensor:
#      x y z
#    x 4.232460 0.000000 0.223650 
#    y 0.000000 3.631240 0.000000 
#    z 0.223650 0.000000 4.240580 
# 
# 
# High freq. dielectric constant tensor:
#      x y z
#    x 1.895570 0.000000 0.012520 
#    y 0.000000 1.839300 0.000000 
#    z 0.012520 0.000000 1.879560 
# 
# From -- ./inp_files/193660.got.cif
#   From: 2010.06.25/outbox.cif.g09.slc.cpg/sg15_97_cif.got.tgz:193660.got - 2010.06.28 07:06:18.
