data_PCOD8144379
_publ_section_title
;
Structure prediction by ZEFSAII (Michael W. Deem and Ramdas Pophale) SiO2 
 PCOD8144379
Probable space group: C 2/C
;
_chemical_formula_sum "Si O2"
_cell_formula_units_Z 64
_cell_length_a 14.653141
_cell_length_b 14.586632
_cell_length_c 16.893414
_cell_angle_alpha 90.000000
_cell_angle_beta 50.999118
_cell_angle_gamma 90.000000
_cell_volume 2806.082020
_symmetry_space_group_name_H-M "C 2/C"
_symmetry_group_IT_number 15
_symmetry_cell_setting 'monoclinic'
loop_
_space_group_symop_operation_xyz
x,y,z
-x,y,1/2-z
-x,-y,-z
x,-y,1/2+z
1/2+x,1/2+y,z
1/2-x,1/2+y,1/2-z
1/2-x,1/2-y,-z
1/2+x,1/2-y,1/2+z
loop_
_atom_site_type_symbol
_atom_site_label
_atom_site_fract_x
_atom_site_fract_y
_atom_site_fract_z
Si Si1 0.764294 0.419427 0.721589
Si Si2 0.685630 0.783941 0.246387
Si Si3 0.748040 0.100813 0.862666
Si Si4 0.493352 0.149075 0.431632
Si Si5 0.370830 0.697496 0.925671
Si Si6 0.737044 0.373602 0.455961
Si Si7 0.930597 0.287205 0.441323
Si Si8 0.876536 0.043101 0.043729
O O1 0.727011 0.320152 0.709635
O O2 0.725030 0.498439 0.681999
O O3 0.907089 0.421847 0.653240
O O4 0.704378 0.438352 0.837231
O O5 0.740114 0.826528 0.296019
O O6 0.726059 0.845717 0.152177
O O7 0.545957 0.787771 0.325326
O O8 0.861096 0.134746 0.852426
O O9 0.627598 0.097687 0.979678
O O10 0.471955 0.224164 0.372991
O O11 0.543177 0.201504 0.480984
O O12 0.250000 0.750000 0.000000
O O13 0.398052 0.638347 0.988632
O O14 0.845390 0.368820 0.457853
O O15 0.631341 0.309357 0.543096
O O16 0.692181 0.477529 0.479669
O O17 0.000000 0.000000 0.000000
#
# Coordination Sequence:
#
# PCOD8144379 Si02
#       8
#     8   8   8   8   8   8   8   8
#     4  12  23  41  71  99 133 189 231 284 357 427
#     4  11  22  43  66  96 144 178 235 289 357 411
#     4  10  23  43  69 102 139 184 235 296 350 434
#     4  10  21  42  69  95 141 184 228 290 358 414
#     4  10  23  47  71 101 140 188 233 293 356 423
#     4  11  22  41  66  98 133 178 238 286 343 422
#     4  10  22  40  68  93 132 184 223 289 351 406
#     4  12  26  45  70  98 139 184 233 288 356 417
#
# _framework density 22.807600999999998
#
# number of rings (size 3 to 8) (size 9 to 14) (size 15 to 20)
#    0.000    1.250    2.500    4.500    1.750    0.000 
#    2.250   10.000    0.000    0.000    0.000    0.000 
#    0.000    0.000    0.000    0.000    0.000    0.000 
#
# Total GULP energy -396812.799143 kJ/mol
# GULP energy per Si atom -12400.399973 kJ/mol
# Density = 2.275569 g / cm^3
# Si number density = 22.807601 Si / 1000 Ang^3
#
#
#
# Elastic Constant Matrix: (Units=GPa)
#
#
# Indices 1 2 3 4 5 6 
#
# 1 103.2974 22.7908 20.6418 0.0000 6.4055 0.0000
# 2 22.7908 91.1010 20.3398 0.0000 5.0631 0.0000
# 3 20.6418 20.3398 52.5432 0.0000 1.0071 0.0000
# 4 0.0000 0.0000 0.0000 24.8044 0.0000 1.6337
# 5 6.4055 5.0631 1.0071 0.0000 23.4865 0.0000
# 6 0.0000 0.0000 0.0000 1.6337 0.0000 46.1729
#
#
#
# Elastic Compliance Matrix: (Units=1/GPa)
#
#
# Indices 1 2 3 4 5 6 
#
# 1 0.010941 -0.001808 -0.003551 0.000000 -0.002442 0.000000
# 2 -0.001808 0.012450 -0.004070 0.000000 -0.002016 0.000000
# 3 -0.003551 -0.004070 0.021985 0.000000 0.000903 0.000000
# 4 0.000000 0.000000 0.000000 0.040410 0.000000 -0.001430
# 5 -0.002442 -0.002016 0.000903 0.000000 0.043640 0.000000
# 6 0.000000 0.000000 0.000000 -0.001430 0.000000 0.021708
#
#
# Mechanical properties :
#
#
# Convention : Reuss Voigt Hill
#
# Bulk Modulus (GPa) = 37.71295 41.60959 39.66127
# Shear Modulus (GPa) = 27.95906 31.10403 29.53155
#
# Velocity S-wave (km/s) = 3.50504 3.69691 3.60225
# Velocity P-wave (km/s) = 5.74034 6.04204 5.89312
#
# Compressibility (1/GPa) = 0.02651609
#
# Stress axis : x y z
#
# Youngs Moduli (GPa) = 91.40054 80.32071 45.48465
#
# Poissons Ratio (x) = 0.14526 0.16153
# Poissons Ratio (y) = 0.16530 0.18514
# Poissons Ratio (z) = 0.32459 0.32694
#
# Static dielectric constant tensor:
#      x y z
#    x 4.436480 0.000000 -0.137660 
#    y 0.000000 4.313030 0.000000 
#    z -0.137660 0.000000 4.154370 
# 
# 
# High freq. dielectric constant tensor:
#      x y z
#    x 1.905560 0.000000 -0.005070 
#    y 0.000000 1.903240 0.000000 
#    z -0.005070 0.000000 1.895950 
# 
# From -- ./inp_files/205694.got.cif
#   From: 2010.06.25/outbox.cif.g09.slc.cpg/sg15_103_cif.got.tgz:205694.got - 2010.06.28 07:06:18.
