data_PCOD8144787
_publ_section_title
;
Structure prediction by ZEFSAII (Michael W. Deem and Ramdas Pophale) SiO2 
 PCOD8144787
Probable space group: C 2/C
;
_chemical_formula_sum "Si O2"
_cell_formula_units_Z 40
_cell_length_a 10.811761
_cell_length_b 27.447525
_cell_length_c 8.688190
_cell_angle_alpha 90.000000
_cell_angle_beta 46.947513
_cell_angle_gamma 90.000000
_cell_volume 1884.018066
_symmetry_space_group_name_H-M "C 2/C"
_symmetry_group_IT_number 15
_symmetry_cell_setting 'monoclinic'
loop_
_space_group_symop_operation_xyz
x,y,z
-x,y,1/2-z
-x,-y,-z
x,-y,1/2+z
1/2+x,1/2+y,z
1/2-x,1/2+y,1/2-z
1/2-x,1/2-y,-z
1/2+x,1/2-y,1/2+z
loop_
_atom_site_type_symbol
_atom_site_label
_atom_site_fract_x
_atom_site_fract_y
_atom_site_fract_z
Si Si1 0.641321 0.389111 0.740098
Si Si2 0.600186 0.346255 0.308026
Si Si3 0.170804 0.477565 0.788218
Si Si4 0.310729 0.446264 0.359265
Si Si5 0.299768 0.803532 0.408541
O O1 0.500000 0.413347 0.750000
O O2 0.785242 0.428458 0.654849
O O3 0.719546 0.342397 0.590500
O O4 0.553329 0.371262 0.969888
O O5 0.500000 0.320130 0.250000
O O6 0.726395 0.389485 0.144823
O O7 0.718476 0.310028 0.306314
O O8 0.176136 0.465750 0.601670
O O9 0.302030 0.521028 0.712852
O O10 0.000000 0.500000 0.000000
O O11 0.500000 0.452144 0.250000
O O12 0.500000 0.810116 0.250000
O O13 0.250000 0.750000 0.500000
#
# Coordination Sequence:
#
# PCOD8144787 Si02
#       5
#     8   8   8   8   8
#     4  10  22  42  68  93 135 181 233 284 353 415
#     4  10  21  44  72  98 136 179 237 285 342 408
#     4  12  25  38  60  96 140 179 237 285 343 403
#     4  11  23  40  62  89 131 185 233 274 338 408
#     4  11  25  46  75 104 137 176 227 286 361 430
#
# _framework density 21.231221000000001
#
# number of rings (size 3 to 8) (size 9 to 14) (size 15 to 20)
#    0.000    1.200    4.000    3.600    8.400    0.000 
#    0.000    5.000    0.000    0.000    0.000    0.000 
#    0.000    0.000    0.000    0.000    0.000    0.000 
#
# Total GULP energy -247847.944326 kJ/mol
# GULP energy per Si atom -12392.397216 kJ/mol
# Density = 2.118290 g / cm^3
# Si number density = 21.231221 Si / 1000 Ang^3
#
#
#
# Elastic Constant Matrix: (Units=GPa)
#
#
# Indices 1 2 3 4 5 6 
#
# 1 135.4158 64.2937 47.4982 0.0000 11.6766 0.0000
# 2 64.2937 117.0477 32.1584 0.0000 3.6077 0.0000
# 3 47.4982 32.1584 109.7990 0.0000 1.6030 0.0000
# 4 0.0000 0.0000 0.0000 31.7556 0.0000 4.2035
# 5 11.6766 3.6077 1.6030 0.0000 37.9210 0.0000
# 6 0.0000 0.0000 0.0000 4.2035 0.0000 42.9764
#
#
#
# Elastic Compliance Matrix: (Units=1/GPa)
#
#
# Indices 1 2 3 4 5 6 
#
# 1 0.011250 -0.005184 -0.003307 0.000000 -0.002831 0.000000
# 2 -0.005184 0.011702 -0.001193 0.000000 0.000533 0.000000
# 3 -0.003307 -0.001193 0.010878 0.000000 0.000672 0.000000
# 4 0.000000 0.000000 0.000000 0.031904 0.000000 -0.003120
# 5 -0.002831 0.000533 0.000672 0.000000 0.027163 0.000000
# 6 0.000000 0.000000 0.000000 -0.003120 0.000000 0.023574
#
#
# Mechanical properties :
#
#
# Convention : Reuss Voigt Hill
#
# Bulk Modulus (GPa) = 69.14300 72.24036 70.69168
# Shear Modulus (GPa) = 35.54716 37.08474 36.31595
#
# Velocity S-wave (km/s) = 4.09624 4.18390 4.14030
# Velocity P-wave (km/s) = 7.41685 7.57888 7.49830
#
# Compressibility (1/GPa) = 0.01446278
#
# Stress axis : x y z
#
# Youngs Moduli (GPa) = 88.88965 85.45443 91.93115
#
# Poissons Ratio (x) = 0.44297 0.30402
# Poissons Ratio (y) = 0.46077 0.10965
# Poissons Ratio (z) = 0.29397 0.10193
#
# Static dielectric constant tensor:
#      x y z
#    x 4.125910 0.000000 0.203760 
#    y 0.000000 4.170350 0.000000 
#    z 0.203760 0.000000 4.128270 
# 
# 
# High freq. dielectric constant tensor:
#      x y z
#    x 1.851450 0.000000 0.007310 
#    y 0.000000 1.821530 0.000000 
#    z 0.007310 0.000000 1.831280 
# 
# From -- ./inp_files/34987.got.cif
#   From: 2010.06.25/outbox.cif.g09.slc.cpg/sg15_18_cif.got.tgz:34987.got - 2010.06.28 07:06:18.
