data_PCOD8144931
_publ_section_title
;
Structure prediction by ZEFSAII (Michael W. Deem and Ramdas Pophale) SiO2 
 PCOD8144931
Probable space group: C 2/C
;
_chemical_formula_sum "Si O2"
_cell_formula_units_Z 52
_cell_length_a 21.877147
_cell_length_b 5.577765
_cell_length_c 26.591325
_cell_angle_alpha 90.000000
_cell_angle_beta 52.941014
_cell_angle_gamma 90.000000
_cell_volume 2589.418298
_symmetry_space_group_name_H-M "C 2/C"
_symmetry_group_IT_number 15
_symmetry_cell_setting 'monoclinic'
loop_
_space_group_symop_operation_xyz
x,y,z
-x,y,1/2-z
-x,-y,-z
x,-y,1/2+z
1/2+x,1/2+y,z
1/2-x,1/2+y,1/2-z
1/2-x,1/2-y,-z
1/2+x,1/2-y,1/2+z
loop_
_atom_site_type_symbol
_atom_site_label
_atom_site_fract_x
_atom_site_fract_y
_atom_site_fract_z
Si Si1 0.996603 0.473353 0.153713
Si Si2 0.000000 0.765613 0.250000
Si Si3 0.759895 0.590681 0.824574
Si Si4 0.841459 0.285379 0.703893
Si Si5 0.156234 0.494715 0.026167
Si Si6 0.102186 0.904994 0.754740
Si Si7 0.216749 0.994166 0.955350
O O1 0.022231 0.620904 0.189662
O O2 0.921364 0.571676 0.162351
O O3 0.975832 0.212108 0.185245
O O4 0.066057 0.468588 0.080658
O O5 0.922779 0.913209 0.276494
O O6 0.778721 0.401192 0.771804
O O7 0.694142 0.766045 0.834430
O O8 0.838817 0.723036 0.800329
O O9 0.730127 0.464234 0.889385
O O10 0.856739 0.022042 0.717916
O O11 0.203320 0.500577 0.054598
O O12 0.169282 0.752451 0.992514
O O13 0.176401 0.253308 0.984716
#
# Coordination Sequence:
#
# PCOD8144931 Si02
#       7
#     8   4   8   8   8   8   8
#     4  10  23  39  61  91 131 162 213 271 328 379
#     4  10  22  34  60 100 118 164 208 258 350 386
#     4  11  22  40  65  93 130 166 217 264 321 397
#     4  10  22  39  62  96 124 167 208 269 327 377
#     4  10  24  45  62  95 128 171 221 272 312 399
#     4  10  22  36  61  93 128 162 200 270 327 384
#     4  10  25  41  68  91 127 178 217 262 331 379
#
# _framework density 20.08173
#
# number of rings (size 3 to 8) (size 9 to 14) (size 15 to 20)
#    0.000    1.846    1.538    0.462   15.077    1.231 
#    0.000    1.538    0.000    0.000    0.000    0.000 
#    0.000    0.000    0.000    0.000    0.000    0.000 
#
# Total GULP energy -322256.434549 kJ/mol
# GULP energy per Si atom -12394.478252 kJ/mol
# Density = 2.003602 g / cm^3
# Si number density = 20.081730 Si / 1000 Ang^3
#
#
#
# Elastic Constant Matrix: (Units=GPa)
#
#
# Indices 1 2 3 4 5 6 
#
# 1 86.0775 24.4385 52.9189 0.1319 -4.2714 -0.0087
# 2 24.4385 112.3806 33.2820 -0.1087 -5.2126 0.3257
# 3 52.9189 33.2820 102.6036 0.0481 -9.1168 -0.0277
# 4 0.1319 -0.1087 0.0481 17.1406 0.0332 11.6447
# 5 -4.2714 -5.2126 -9.1168 0.0332 32.4466 -0.0467
# 6 -0.0087 0.3257 -0.0277 11.6447 -0.0467 1.1403
#
#
#
# Elastic Compliance Matrix: (Units=1/GPa)
#
#
# Indices 1 2 3 4 5 6 
#
# 1 0.017167 -0.001235 -0.008482 0.000050 -0.000322 -0.000243
# 2 -0.001235 0.009946 -0.002524 -0.000343 0.000727 0.000620
# 3 -0.008482 -0.002524 0.015183 0.000130 0.002744 -0.000189
# 4 0.000050 -0.000343 0.000130 -0.009813 0.000142 0.100316
# 5 -0.000322 0.000727 0.002744 0.000142 0.031665 -0.000301
# 6 -0.000243 0.000620 -0.000189 0.100316 -0.000301 -0.147651
#
#
# Mechanical properties :
#
#
# Convention : Reuss Voigt Hill
#
# Bulk Modulus (GPa) = 56.13794 58.03784 57.08789
# Shear Modulus (GPa) = -94.19271 22.84033 -35.67619
#
# Velocity S-wave (km/s) = -6.85613 3.37615 -4.21949
# Velocity P-wave (km/s) = 5.88727 6.64540 2.17962
#
# Compressibility (1/GPa) = 0.01781326
#
# Stress axis : x y z
#
# Youngs Moduli (GPa) = 58.25274 100.54173 65.86179
#
# Poissons Ratio (x) = 0.12420 0.55863
# Poissons Ratio (y) = 0.07196 0.16625
# Poissons Ratio (z) = 0.49409 0.25379
#
# Static dielectric constant tensor:
#      x y z
#    x 3.772930 -0.000530 -0.077190 
#    y -0.000530 3.927680 -0.000170 
#    z -0.077190 -0.000170 3.303510 
# 
# 
# High freq. dielectric constant tensor:
#      x y z
#    x 1.789910 -0.000040 -0.004890 
#    y -0.000040 1.799610 -0.000060 
#    z -0.004890 -0.000060 1.753580 
# 
# From -- ./inp_files/251101.got.cif
#   From: 2010.06.25/outbox.cif.g09.slc.cpg/sg15_126_cif.got.tgz:251101.got - 2010.06.28 07:06:18.
