data_PCOD8144839
_publ_section_title
;
Structure prediction by ZEFSAII (Michael W. Deem and Ramdas Pophale) SiO2 
 PCOD8144839
Probable space group: C 2/C
;
_chemical_formula_sum "Si O2"
_cell_formula_units_Z 52
_cell_length_a 23.282047
_cell_length_b 11.878546
_cell_length_c 13.706434
_cell_angle_alpha 90.000000
_cell_angle_beta 35.901869
_cell_angle_gamma 90.000000
_cell_volume 2222.808162
_symmetry_space_group_name_H-M "C 2/C"
_symmetry_group_IT_number 15
_symmetry_cell_setting 'monoclinic'
loop_
_space_group_symop_operation_xyz
x,y,z
-x,y,1/2-z
-x,-y,-z
x,-y,1/2+z
1/2+x,1/2+y,z
1/2-x,1/2+y,1/2-z
1/2-x,1/2-y,-z
1/2+x,1/2-y,1/2+z
loop_
_atom_site_type_symbol
_atom_site_label
_atom_site_fract_x
_atom_site_fract_y
_atom_site_fract_z
Si Si1 0.687620 0.228304 0.703426
Si Si2 0.000000 0.963582 0.250000
Si Si3 0.677974 0.425693 0.585739
Si Si4 0.833359 0.193895 0.058213
Si Si5 0.553395 0.928131 0.310950
Si Si6 0.319215 0.921813 0.986555
Si Si7 0.654945 0.039189 0.356336
O O1 0.710602 0.354880 0.636484
O O2 0.779606 0.139691 0.568832
O O3 0.648602 0.236994 0.866936
O O4 0.608089 0.192096 0.728478
O O5 0.924768 0.889306 0.416723
O O6 0.936449 0.045287 0.267397
O O7 0.733237 0.545521 0.527875
O O8 0.730685 0.127159 0.205621
O O9 0.829780 0.286254 0.976018
O O10 0.438753 0.898626 0.465862
O O11 0.580412 0.020552 0.191805
O O12 0.601802 0.962206 0.349143
O O13 0.293578 0.964975 0.130921
#
# Coordination Sequence:
#
# PCOD8144839 Si02
#       7
#     8   4   8   8   8   8   8
#     4  10  21  45  71  99 136 186 232 282 347 425
#     4  12  30  44  66 108 146 182 232 298 352 416
#     4  10  24  46  70 101 142 183 233 292 352 415
#     4  12  26  43  71 101 141 185 231 282 356 416
#     4  10  23  40  70 101 134 175 238 288 338 415
#     4  11  23  44  72  98 140 181 228 292 348 413
#     4  11  23  43  67 100 134 180 230 286 343 417
#
# _framework density 23.393833000000001
#
# number of rings (size 3 to 8) (size 9 to 14) (size 15 to 20)
#    0.000    1.231    3.077    2.308    2.154    5.538 
#    0.000    0.000    0.000    0.000    0.000    0.000 
#    0.000    0.000    0.000    0.000    0.000    0.000 
#
# Total GULP energy -322099.470281 kJ/mol
# GULP energy per Si atom -12388.441165 kJ/mol
# Density = 2.334059 g / cm^3
# Si number density = 23.393833 Si / 1000 Ang^3
#
#
#
# Elastic Constant Matrix: (Units=GPa)
#
#
# Indices 1 2 3 4 5 6 
#
# 1 83.8684 37.9885 39.0337 0.0000 -16.6682 0.0000
# 2 37.9885 112.7217 47.5088 0.0000 -15.3297 0.0000
# 3 39.0337 47.5088 143.0244 0.0000 -26.7421 0.0000
# 4 0.0000 0.0000 0.0000 31.9381 0.0000 4.8953
# 5 -16.6682 -15.3297 -26.7421 0.0000 48.0626 0.0000
# 6 0.0000 0.0000 0.0000 4.8953 0.0000 28.7749
#
#
#
# Elastic Compliance Matrix: (Units=1/GPa)
#
#
# Indices 1 2 3 4 5 6 
#
# 1 0.015299 -0.003765 -0.002408 0.000000 0.002765 0.000000
# 2 -0.003765 0.011346 -0.002577 0.000000 0.000879 0.000000
# 3 -0.002408 -0.002577 0.009147 0.000000 0.003432 0.000000
# 4 0.000000 0.000000 0.000000 0.032149 0.000000 -0.005469
# 5 0.002765 0.000879 0.003432 0.000000 0.023955 0.000000
# 6 0.000000 0.000000 0.000000 -0.005469 0.000000 0.035683
#
#
# Mechanical properties :
#
#
# Convention : Reuss Voigt Hill
#
# Bulk Modulus (GPa) = 54.66771 65.40849 60.03810
# Shear Modulus (GPa) = 33.07417 36.09403 34.58410
#
# Velocity S-wave (km/s) = 3.76413 3.93222 3.84909
# Velocity P-wave (km/s) = 6.50467 6.97402 6.74343
#
# Compressibility (1/GPa) = 0.01829234
#
# Stress axis : x y z
#
# Youngs Moduli (GPa) = 65.36379 88.13728 109.33008
#
# Poissons Ratio (x) = 0.33185 0.26323
# Poissons Ratio (y) = 0.24610 0.28173
# Poissons Ratio (z) = 0.15737 0.22712
#
# Static dielectric constant tensor:
#      x y z
#    x 4.080380 0.000000 -0.060750 
#    y 0.000000 4.468970 0.000000 
#    z -0.060750 0.000000 4.537870 
# 
# 
# High freq. dielectric constant tensor:
#      x y z
#    x 1.917580 0.000000 0.007960 
#    y 0.000000 1.932480 0.000000 
#    z 0.007960 0.000000 1.924350 
# 
# From -- ./inp_files/173122.got.cif
#   From: 2010.06.25/outbox.cif.g09.slc.cpg/sg15_87_cif.got.tgz:173122.got - 2010.06.28 07:06:18.
