data_PCOD8144845
_publ_section_title
;
Structure prediction by ZEFSAII (Michael W. Deem and Ramdas Pophale) SiO2 
 PCOD8144845
Probable space group: C 2/C
;
_chemical_formula_sum "Si O2"
_cell_formula_units_Z 52
_cell_length_a 15.163756
_cell_length_b 27.531759
_cell_length_c 9.436043
_cell_angle_alpha 90.000000
_cell_angle_beta 138.534162
_cell_angle_gamma 90.000000
_cell_volume 2608.569257
_symmetry_space_group_name_H-M "C 2/C"
_symmetry_group_IT_number 15
_symmetry_cell_setting 'monoclinic'
loop_
_space_group_symop_operation_xyz
x,y,z
-x,y,1/2-z
-x,-y,-z
x,-y,1/2+z
1/2+x,1/2+y,z
1/2-x,1/2+y,1/2-z
1/2-x,1/2-y,-z
1/2+x,1/2-y,1/2+z
loop_
_atom_site_type_symbol
_atom_site_label
_atom_site_fract_x
_atom_site_fract_y
_atom_site_fract_z
Si Si1 0.119188 0.035674 0.116607
Si Si2 0.624685 0.815784 0.304897
Si Si3 0.728113 0.014762 0.923775
Si Si4 0.200050 0.603258 0.684519
Si Si5 0.000000 0.455271 0.750000
Si Si6 0.978756 0.868534 0.390874
Si Si7 0.904170 0.204576 0.264435
O O1 0.234723 0.025339 0.369199
O O2 0.173243 0.025404 0.023948
O O3 0.071332 0.090553 0.072396
O O4 0.000000 0.000000 0.000000
O O5 0.500000 0.832367 0.250000
O O6 0.632866 0.851079 0.180579
O O7 0.758417 0.817746 0.560212
O O8 0.603238 0.761942 0.218106
O O9 0.741902 0.064067 0.852220
O O10 0.581896 0.991088 0.745007
O O11 0.325799 0.621361 0.745462
O O12 0.095540 0.579565 0.453021
O O13 0.000000 0.866509 0.250000
O O14 0.030265 0.817824 0.516364
O O15 0.000000 0.191164 0.250000
#
# Coordination Sequence:
#
# PCOD8144845 Si02
#       7
#     8   8   8   8   4   8   8
#     4  12  23  39  64  96 129 168 222 272 322 393
#     4  10  23  41  72 105 130 174 223 274 337 401
#     4  12  25  42  63  91 133 179 214 269 331 391
#     4  12  25  43  67  94 135 181 220 277 334 400
#     4  12  26  44  58  94 140 176 222 268 332 408
#     4  12  25  43  68 100 132 175 227 277 338 390
#     4  10  21  45  72  99 138 169 224 282 328 401
#
# _framework density 19.934298999999999
#
# number of rings (size 3 to 8) (size 9 to 14) (size 15 to 20)
#    0.000    0.615    4.615    3.692    1.077    2.462 
#    1.385    0.769    0.000    0.000    0.000    0.000 
#    0.000    0.000    0.000    0.000    0.000    0.000 
#
# Total GULP energy -322526.214798 kJ/mol
# GULP energy per Si atom -12404.854415 kJ/mol
# Density = 1.988893 g / cm^3
# Si number density = 19.934299 Si / 1000 Ang^3
#
#
#
# Elastic Constant Matrix: (Units=GPa)
#
#
# Indices 1 2 3 4 5 6 
#
# 1 162.4975 57.2916 51.4883 0.0000 15.5219 0.0000
# 2 57.2916 98.8210 47.6736 0.0000 -1.4318 0.0000
# 3 51.4883 47.6736 110.9769 0.0000 2.8038 0.0000
# 4 0.0000 0.0000 0.0000 37.2247 0.0000 -0.8782
# 5 15.5219 -1.4318 2.8038 0.0000 36.0502 0.0000
# 6 0.0000 0.0000 0.0000 -0.8782 0.0000 31.6647
#
#
#
# Elastic Compliance Matrix: (Units=1/GPa)
#
#
# Indices 1 2 3 4 5 6 
#
# 1 0.008605 -0.003988 -0.002186 0.000000 -0.003694 0.000000
# 2 -0.003988 0.014644 -0.004508 0.000000 0.002649 0.000000
# 3 -0.002186 -0.004508 0.011966 0.000000 -0.000168 0.000000
# 4 0.000000 0.000000 0.000000 0.026881 0.000000 0.000746
# 5 -0.003694 0.002649 -0.000168 0.000000 0.029448 0.000000
# 6 0.000000 0.000000 0.000000 0.000746 0.000000 0.031602
#
#
# Mechanical properties :
#
#
# Convention : Reuss Voigt Hill
#
# Bulk Modulus (GPa) = 72.19051 76.13362 74.16207
# Shear Modulus (GPa) = 33.52848 35.37738 34.45293
#
# Velocity S-wave (km/s) = 4.10561 4.21729 4.16182
# Velocity P-wave (km/s) = 7.66600 7.87332 7.77035
#
# Compressibility (1/GPa) = 0.01385224
#
# Stress axis : x y z
#
# Youngs Moduli (GPa) = 116.20552 68.28602 83.57159
#
# Poissons Ratio (x) = 0.27232 0.18270
# Poissons Ratio (y) = 0.46342 0.37671
# Poissons Ratio (z) = 0.25404 0.30781
#
# Static dielectric constant tensor:
#      x y z
#    x 3.800980 0.000000 0.010140 
#    y 0.000000 3.850690 0.000000 
#    z 0.010140 0.000000 3.699380 
# 
# 
# High freq. dielectric constant tensor:
#      x y z
#    x 1.792340 0.000000 0.010860 
#    y 0.000000 1.783410 0.000000 
#    z 0.010860 0.000000 1.775400 
# 
# From -- ./inp_files/34459.got.cif
#   From: 2010.06.25/outbox.cif.g09.slc.cpg/sg15_18_cif.got.tgz:34459.got - 2010.06.28 07:06:18.
