data_PCOD8144321
_publ_section_title
;
Structure prediction by ZEFSAII (Michael W. Deem and Ramdas Pophale) SiO2 
 PCOD8144321
Probable space group: C 2/C
;
_chemical_formula_sum "Si O2"
_cell_formula_units_Z 44
_cell_length_a 10.631037
_cell_length_b 16.522726
_cell_length_c 14.314528
_cell_angle_alpha 90.000000
_cell_angle_beta 125.444981
_cell_angle_gamma 90.000000
_cell_volume 2048.413190
_symmetry_space_group_name_H-M "C 2/C"
_symmetry_group_IT_number 15
_symmetry_cell_setting 'monoclinic'
loop_
_space_group_symop_operation_xyz
x,y,z
-x,y,1/2-z
-x,-y,-z
x,-y,1/2+z
1/2+x,1/2+y,z
1/2-x,1/2+y,1/2-z
1/2-x,1/2-y,-z
1/2+x,1/2-y,1/2+z
loop_
_atom_site_type_symbol
_atom_site_label
_atom_site_fract_x
_atom_site_fract_y
_atom_site_fract_z
Si Si1 0.954607 0.057514 0.398730
Si Si2 0.241935 0.821408 0.289959
Si Si3 0.868681 0.361028 0.767562
Si Si4 0.580576 0.167545 0.004770
Si Si5 0.500000 0.556240 0.750000
Si Si6 0.717042 0.663322 0.569415
O O1 0.776930 0.083240 0.318983
O O2 0.052676 0.138390 0.455772
O O3 0.000000 0.000000 0.500000
O O4 0.013513 0.006320 0.338397
O O5 0.158163 0.734931 0.252659
O O6 0.406302 0.807253 0.408636
O O7 0.148913 0.885286 0.313072
O O8 0.250983 0.863120 0.190974
O O9 0.916113 0.382034 0.895958
O O10 0.000000 0.386132 0.750000
O O11 0.705212 0.239731 0.069560
O O12 0.648556 0.125176 0.939818
#
# Coordination Sequence:
#
# PCOD8144321 Si02
#       6
#     8   8   8   8   4   8
#     4  12  25  46  65  95 139 180 220 280 354 408
#     4  11  22  42  70 103 131 178 229 284 334 404
#     4  11  25  43  69 100 136 180 233 279 337 403
#     4  10  22  39  71  99 132 168 229 285 323 402
#     4  12  26  42  68 102 134 182 226 278 356 402
#     4  10  21  42  67  99 130 179 219 272 344 405
#
# _framework density 21.480042000000001
#
# number of rings (size 3 to 8) (size 9 to 14) (size 15 to 20)
#    0.000    1.091    4.545    1.636    2.545    0.727 
#    3.273    1.818    0.000    0.000    0.000    0.000 
#    0.000    0.000    0.000    0.000    0.000    0.000 
#
# Total GULP energy -272589.921467 kJ/mol
# GULP energy per Si atom -12390.450976 kJ/mol
# Density = 2.143115 g / cm^3
# Si number density = 21.480042 Si / 1000 Ang^3
#
#
#
# Elastic Constant Matrix: (Units=GPa)
#
#
# Indices 1 2 3 4 5 6 
#
# 1 152.7539 28.4494 68.9044 0.0000 -22.6879 0.0000
# 2 28.4494 60.8256 29.1931 0.0000 -12.9529 0.0000
# 3 68.9044 29.1931 128.6752 0.0000 -10.3921 0.0000
# 4 0.0000 0.0000 0.0000 33.5821 0.0000 4.7327
# 5 -22.6879 -12.9529 -10.3921 0.0000 37.6467 0.0000
# 6 0.0000 0.0000 0.0000 4.7327 0.0000 30.7357
#
#
#
# Elastic Compliance Matrix: (Units=1/GPa)
#
#
# Indices 1 2 3 4 5 6 
#
# 1 0.009374 -0.001446 -0.004373 0.000000 0.003945 0.000000
# 2 -0.001446 0.019772 -0.003306 0.000000 0.005019 0.000000
# 3 -0.004373 -0.003306 0.010800 0.000000 -0.000792 0.000000
# 4 0.000000 0.000000 0.000000 0.030438 0.000000 -0.004687
# 5 0.003945 0.005019 -0.000792 0.000000 0.030448 0.000000
# 6 0.000000 0.000000 0.000000 -0.004687 0.000000 0.033257
#
#
# Mechanical properties :
#
#
# Convention : Reuss Voigt Hill
#
# Bulk Modulus (GPa) = 46.09218 66.14985 56.12101
# Shear Modulus (GPa) = 31.33372 34.77340 33.05356
#
# Velocity S-wave (km/s) = 3.82348 4.02788 3.92701
# Velocity P-wave (km/s) = 6.40287 7.24532 6.83708
#
# Compressibility (1/GPa) = 0.02169566
#
# Stress axis : x y z
#
# Youngs Moduli (GPa) = 106.67412 50.57587 92.59650
#
# Poissons Ratio (x) = 0.07311 0.40495
# Poissons Ratio (y) = 0.15420 0.30616
# Poissons Ratio (z) = 0.46652 0.16722
#
# Static dielectric constant tensor:
#      x y z
#    x 4.057400 0.000000 -0.387800 
#    y 0.000000 3.698360 0.000000 
#    z -0.387800 0.000000 3.739330 
# 
# 
# High freq. dielectric constant tensor:
#      x y z
#    x 1.855760 0.000000 -0.013050 
#    y 0.000000 1.822560 0.000000 
#    z -0.013050 0.000000 1.851510 
# 
# From -- ./inp_files/87165.got.cif
#   From: 2010.06.25/outbox.cif.g09.slc.cpg/sg15_44_cif.got.tgz:87165.got - 2010.06.28 07:06:18.
