data_PCOD8144632
_publ_section_title
;
Structure prediction by ZEFSAII (Michael W. Deem and Ramdas Pophale) SiO2 
 PCOD8144632
Probable space group: C 2/C
;
_chemical_formula_sum "Si O2"
_cell_formula_units_Z 64
_cell_length_a 10.617664
_cell_length_b 16.204505
_cell_length_c 24.818176
_cell_angle_alpha 90.000000
_cell_angle_beta 44.092045
_cell_angle_gamma 90.000000
_cell_volume 2971.167927
_symmetry_space_group_name_H-M "C 2/C"
_symmetry_group_IT_number 15
_symmetry_cell_setting 'monoclinic'
loop_
_space_group_symop_operation_xyz
x,y,z
-x,y,1/2-z
-x,-y,-z
x,-y,1/2+z
1/2+x,1/2+y,z
1/2-x,1/2+y,1/2-z
1/2-x,1/2-y,-z
1/2+x,1/2-y,1/2+z
loop_
_atom_site_type_symbol
_atom_site_label
_atom_site_fract_x
_atom_site_fract_y
_atom_site_fract_z
Si Si1 0.356656 0.408775 0.923783
Si Si2 0.507758 0.552136 0.550729
Si Si3 0.444422 0.885889 0.055103
Si Si4 0.318808 0.526989 0.324069
Si Si5 0.839738 0.663527 0.466870
Si Si6 0.294032 0.182559 0.196217
Si Si7 0.945162 0.252400 0.138927
Si Si8 0.837543 0.328985 0.335184
O O1 0.468875 0.489504 0.906967
O O2 0.363699 0.407897 0.857301
O O3 0.450347 0.326242 0.917425
O O4 0.149341 0.408971 0.007184
O O5 0.500000 0.500000 0.500000
O O6 0.688707 0.604326 0.489942
O O7 0.329530 0.607874 0.612533
O O8 0.377460 0.805719 0.108778
O O9 0.331925 0.964308 0.109745
O O10 0.420759 0.870618 0.998573
O O11 0.500000 0.477698 0.250000
O O12 0.267059 0.587136 0.290610
O O13 0.750000 0.750000 0.500000
O O14 0.990041 0.676470 0.374665
O O15 0.221292 0.241309 0.171096
O O16 0.227892 0.221434 0.273162
O O17 0.084695 0.309774 0.129547
O O18 0.000000 0.369005 0.250000
#
# Coordination Sequence:
#
# PCOD8144632 Si02
#       8
#     8   8   8   8   8   8   8   8
#     4  12  23  44  70 103 138 180 237 284 338 417
#     4  12  27  44  66 102 138 181 232 285 350 411
#     4  12  26  42  72 106 139 181 238 292 347 412
#     4  12  22  41  69 100 136 180 230 287 340 403
#     4  12  25  43  71  96 142 185 228 290 352 416
#     4  11  21  44  71 100 136 182 229 275 359 413
#     4  11  24  43  74 103 136 182 234 283 341 424
#     4  10  21  43  70  94 135 184 225 277 348 416
#
# _framework density 21.540351000000001
#
# number of rings (size 3 to 8) (size 9 to 14) (size 15 to 20)
#    0.000    0.500    6.250    2.625    1.750    3.000 
#    2.250    0.000    0.000    0.000    0.000    0.000 
#    0.000    0.000    0.000    0.000    0.000    0.000 
#
# Total GULP energy -396718.410181 kJ/mol
# GULP energy per Si atom -12397.450318 kJ/mol
# Density = 2.149132 g / cm^3
# Si number density = 21.540351 Si / 1000 Ang^3
#
#
#
# Elastic Constant Matrix: (Units=GPa)
#
#
# Indices 1 2 3 4 5 6 
#
# 1 70.1651 42.8394 47.7372 -0.0008 -19.7977 0.0007
# 2 42.8394 119.3700 50.5514 -0.0007 -16.1802 0.0005
# 3 47.7372 50.5514 144.3817 0.0013 -31.6622 -0.0010
# 4 -0.0008 -0.0007 0.0013 38.4465 0.0008 6.2299
# 5 -19.7977 -16.1802 -31.6622 0.0008 29.1494 -0.0009
# 6 0.0007 0.0005 -0.0010 6.2299 -0.0009 26.0743
#
#
#
# Elastic Compliance Matrix: (Units=1/GPa)
#
#
# Indices 1 2 3 4 5 6 
#
# 1 0.022352 -0.005334 -0.003732 0.000000 0.008167 0.000000
# 2 -0.005334 0.011223 -0.002093 0.000000 0.000334 0.000000
# 3 -0.003732 -0.002093 0.010609 -0.000001 0.007828 0.000001
# 4 0.000000 0.000000 -0.000001 0.027058 -0.000001 -0.006465
# 5 0.008167 0.000334 0.007828 -0.000001 0.048540 0.000002
# 6 0.000000 0.000000 0.000001 -0.006465 0.000002 0.039897
#
#
# Mechanical properties :
#
#
# Convention : Reuss Voigt Hill
#
# Bulk Modulus (GPa) = 45.73082 68.46363 57.09722
# Shear Modulus (GPa) = 26.41507 31.58662 29.00085
#
# Velocity S-wave (km/s) = 3.50566 3.83351 3.67324
# Velocity P-wave (km/s) = 6.13699 7.17267 6.67495
#
# Compressibility (1/GPa) = 0.02186709
#
# Stress axis : x y z
#
# Youngs Moduli (GPa) = 44.73812 89.10162 94.25836
#
# Poissons Ratio (x) = 0.47531 0.35175
# Poissons Ratio (y) = 0.23865 0.19724
# Poissons Ratio (z) = 0.16695 0.18645
#
# Static dielectric constant tensor:
#      x y z
#    x 3.634880 -0.000110 -0.173340 
#    y -0.000110 1.217720 -0.000140 
#    z -0.173340 -0.000140 4.173370 
# 
# 
# High freq. dielectric constant tensor:
#      x y z
#    x 1.826920 0.000000 -0.011640 
#    y 0.000000 1.855570 0.000000 
#    z -0.011640 0.000000 1.859980 
# 
# From -- ./inp_files/293046.got.cif
#   From: 2010.06.25/outbox.cif.g09.slc.cpg/sg15_147_cif.got.tgz:293046.got - 2010.06.28 07:06:18.
