data_PCOD8144105
_publ_section_title
;
Structure prediction by ZEFSAII (Michael W. Deem and Ramdas Pophale) SiO2 
 PCOD8144105
Probable space group: C 2/C
;
_chemical_formula_sum "Si O2"
_cell_formula_units_Z 52
_cell_length_a 10.037098
_cell_length_b 16.597566
_cell_length_c 15.888070
_cell_angle_alpha 90.000000
_cell_angle_beta 71.479674
_cell_angle_gamma 90.000000
_cell_volume 2509.739906
_symmetry_space_group_name_H-M "C 2/C"
_symmetry_group_IT_number 15
_symmetry_cell_setting 'monoclinic'
loop_
_space_group_symop_operation_xyz
x,y,z
-x,y,1/2-z
-x,-y,-z
x,-y,1/2+z
1/2+x,1/2+y,z
1/2-x,1/2+y,1/2-z
1/2-x,1/2-y,-z
1/2+x,1/2-y,1/2+z
loop_
_atom_site_type_symbol
_atom_site_label
_atom_site_fract_x
_atom_site_fract_y
_atom_site_fract_z
Si Si1 0.000000 0.977273 0.250000
Si Si2 0.905296 0.771487 0.944782
Si Si3 0.281609 0.154003 0.389810
Si Si4 0.662292 0.182577 0.935987
Si Si5 0.990254 0.060365 0.079935
Si Si6 0.194387 0.423475 0.281539
Si Si7 0.500000 0.940128 0.750000
Si Si8 0.000000 0.703590 0.750000
O O1 0.135704 0.926685 0.254749
O O2 0.953620 0.026879 0.341918
O O3 0.959548 0.758041 0.838008
O O4 0.008063 0.720062 0.984759
O O5 0.911407 0.865452 0.964661
O O6 0.750000 0.750000 0.000000
O O7 0.264775 0.154076 0.493680
O O8 0.253849 0.247503 0.368753
O O9 0.167967 0.092297 0.374650
O O10 0.431834 0.120392 0.331511
O O11 0.647755 0.101813 0.884448
O O12 0.000000 0.000000 0.000000
O O13 0.119187 0.507286 0.272625
O O14 0.137992 0.352685 0.232326
#
# Coordination Sequence:
#
# PCOD8144105 Si02
#       8
#     4   8   8   8   8   8   4   4
#     4  12  23  39  63  97 128 172 212 264 350 386
#     4  10  22  40  65  93 126 177 220 266 335 392
#     4  10  21  42  61  89 129 165 209 270 321 387
#     4   9  21  42  61  89 127 167 216 263 323 402
#     4  11  24  39  63  93 135 165 213 276 326 400
#     4  10  22  39  64  93 126 168 215 270 329 391
#     4  11  22  39  65  94 127 166 210 269 326 375
#     4   9  21  44  64  89 135 166 222 275 312 411
#
# _framework density 20.719277000000002
#
# number of rings (size 3 to 8) (size 9 to 14) (size 15 to 20)
#    0.000    1.846    1.538    1.385    2.154    3.692 
#    8.308    0.000    0.000    0.000    0.000    0.000 
#    0.000    0.000    0.000    0.000    0.000    0.000 
#
# Total GULP energy -322206.274376 kJ/mol
# GULP energy per Si atom -12392.549014 kJ/mol
# Density = 2.067212 g / cm^3
# Si number density = 20.719277 Si / 1000 Ang^3
#
#
#
# Elastic Constant Matrix: (Units=GPa)
#
#
# Indices 1 2 3 4 5 6 
#
# 1 128.1544 52.1039 31.8330 0.0000 -6.0578 0.0000
# 2 52.1039 104.1483 48.0317 0.0000 -13.6380 0.0000
# 3 31.8330 48.0317 81.6769 0.0000 0.1034 0.0000
# 4 0.0000 0.0000 0.0000 19.8122 0.0000 7.6017
# 5 -6.0578 -13.6380 0.1034 0.0000 35.3936 0.0000
# 6 0.0000 0.0000 0.0000 7.6017 0.0000 24.7180
#
#
#
# Elastic Compliance Matrix: (Units=1/GPa)
#
#
# Indices 1 2 3 4 5 6 
#
# 1 0.009895 -0.004348 -0.001299 0.000000 0.000022 0.000000
# 2 -0.004348 0.016075 -0.007765 0.000000 0.005473 0.000000
# 3 -0.001299 -0.007765 0.017321 0.000000 -0.003265 0.000000
# 4 0.000000 0.000000 0.000000 0.057226 0.000000 -0.017599
# 5 0.000022 0.005473 -0.003265 0.000000 0.030376 0.000000
# 6 0.000000 0.000000 0.000000 -0.017599 0.000000 0.045869
#
#
# Mechanical properties :
#
#
# Convention : Reuss Voigt Hill
#
# Bulk Modulus (GPa) = 60.73763 64.21295 62.47529
# Shear Modulus (GPa) = 23.91486 28.11883 26.01684
#
# Velocity S-wave (km/s) = 3.40109 3.68793 3.54741
# Velocity P-wave (km/s) = 6.69338 7.01381 6.85547
#
# Compressibility (1/GPa) = 0.01646426
#
# Stress axis : x y z
#
# Youngs Moduli (GPa) = 101.06443 62.20895 57.73474
#
# Poissons Ratio (x) = 0.27048 0.07503
# Poissons Ratio (y) = 0.43943 0.44834
# Poissons Ratio (z) = 0.13133 0.48308
#
# Static dielectric constant tensor:
#      x y z
#    x 4.041600 0.000000 0.229960 
#    y 0.000000 3.908840 0.000000 
#    z 0.229960 0.000000 3.470960 
# 
# 
# High freq. dielectric constant tensor:
#      x y z
#    x 1.823740 0.000000 0.014600 
#    y 0.000000 1.815340 0.000000 
#    z 0.014600 0.000000 1.790450 
# 
# From -- ./inp_files/145533.got.cif
#   From: 2010.06.25/outbox.cif.g09.slc.cpg/sg15_73_cif.got.tgz:145533.got - 2010.06.28 07:06:18.
