data_PCOD8144504
_publ_section_title
;
Structure prediction by ZEFSAII (Michael W. Deem and Ramdas Pophale) SiO2 
 PCOD8144504
Probable space group: C 2/C
;
_chemical_formula_sum "Si O2"
_cell_formula_units_Z 40
_cell_length_a 14.092503
_cell_length_b 9.616328
_cell_length_c 25.729660
_cell_angle_alpha 90.000000
_cell_angle_beta 147.785749
_cell_angle_gamma 90.000000
_cell_volume 1858.785704
_symmetry_space_group_name_H-M "C 2/C"
_symmetry_group_IT_number 15
_symmetry_cell_setting 'monoclinic'
loop_
_space_group_symop_operation_xyz
x,y,z
-x,y,1/2-z
-x,-y,-z
x,-y,1/2+z
1/2+x,1/2+y,z
1/2-x,1/2+y,1/2-z
1/2-x,1/2-y,-z
1/2+x,1/2-y,1/2+z
loop_
_atom_site_type_symbol
_atom_site_label
_atom_site_fract_x
_atom_site_fract_y
_atom_site_fract_z
Si Si1 0.108290 0.689691 0.394763
Si Si2 0.870055 0.553502 0.365374
Si Si3 0.020639 0.981275 0.344269
Si Si4 0.381738 0.476276 0.495248
Si Si5 0.638770 0.158760 0.028209
O O1 0.250000 0.750000 0.500000
O O2 0.202792 0.568990 0.404668
O O3 0.938515 0.626979 0.345335
O O4 0.043779 0.823985 0.332315
O O5 0.659903 0.537274 0.263446
O O6 0.909567 0.652272 0.433143
O O7 0.973347 0.406826 0.419723
O O8 0.013114 0.980543 0.403732
O O9 0.183598 0.072903 0.400319
O O10 0.500000 0.500000 0.500000
O O11 0.327684 0.315197 0.474698
#
# Coordination Sequence:
#
# PCOD8144504 Si02
#       5
#     8   8   8   8   8
#     4  10  21  43  65  93 133 171 213 273 328 380
#     4  11  24  40  70  96 134 171 221 269 327 393
#     4  11  24  42  69  98 131 176 224 264 330 396
#     4  11  24  43  68  95 133 176 219 275 331 379
#     4  11  23  43  67  97 133 174 215 272 332 389
#
# _framework density 21.519424999999998
#
# number of rings (size 3 to 8) (size 9 to 14) (size 15 to 20)
#    0.000    1.200    4.000    3.600    5.600    0.000 
#    0.000    3.000    0.000    0.000    0.000    0.000 
#    0.000    0.000    0.000    0.000    0.000    0.000 
#
# Total GULP energy -247993.570498 kJ/mol
# GULP energy per Si atom -12399.678525 kJ/mol
# Density = 2.147045 g / cm^3
# Si number density = 21.519425 Si / 1000 Ang^3
#
#
#
# Elastic Constant Matrix: (Units=GPa)
#
#
# Indices 1 2 3 4 5 6 
#
# 1 100.8604 37.5038 18.8715 0.0004 18.4657 0.0001
# 2 37.5038 155.5398 19.9967 0.0004 2.0092 0.0001
# 3 18.8715 19.9967 82.4719 0.0013 12.4757 0.0003
# 4 0.0004 0.0004 0.0013 23.7989 0.0005 8.6646
# 5 18.4657 2.0092 12.4757 0.0005 22.9176 0.0001
# 6 0.0001 0.0001 0.0003 8.6646 0.0001 34.6080
#
#
#
# Elastic Compliance Matrix: (Units=1/GPa)
#
#
# Indices 1 2 3 4 5 6 
#
# 1 0.012916 -0.002888 -0.000784 0.000000 -0.009727 0.000000
# 2 -0.002888 0.007284 -0.001483 0.000000 0.002496 0.000000
# 3 -0.000784 -0.001483 0.013675 -0.000001 -0.006683 0.000000
# 4 0.000000 0.000000 -0.000001 0.046233 -0.000001 -0.011575
# 5 -0.009727 0.002496 -0.006683 -0.000001 0.054891 0.000000
# 6 0.000000 0.000000 0.000000 -0.011575 0.000000 0.031793
#
#
# Mechanical properties :
#
#
# Convention : Reuss Voigt Hill
#
# Bulk Modulus (GPa) = 42.43387 54.62402 48.52894
# Shear Modulus (GPa) = 27.03332 33.76490 30.39911
#
# Velocity S-wave (km/s) = 3.54818 3.96541 3.76258
# Velocity P-wave (km/s) = 6.04547 6.81210 6.44020
#
# Compressibility (1/GPa) = 0.02356608
#
# Stress axis : x y z
#
# Youngs Moduli (GPa) = 77.42300 137.28804 73.12541
#
# Poissons Ratio (x) = 0.39647 0.05732
# Poissons Ratio (y) = 0.22359 0.10843
# Poissons Ratio (z) = 0.06069 0.20357
#
# Static dielectric constant tensor:
#      x y z
#    x 4.090440 0.000000 -0.060630 
#    y 0.000000 2.769460 0.000010 
#    z -0.060630 0.000010 3.908400 
# 
# 
# High freq. dielectric constant tensor:
#      x y z
#    x 1.851790 0.000000 0.017600 
#    y 0.000000 1.858990 0.000000 
#    z 0.017600 0.000000 1.824100 
# 
# From -- ./inp_files/150600.got.cif
#   From: 2010.06.25/outbox.cif.g09.slc.cpg/sg15_76_cif.got.tgz:150600.got - 2010.06.28 07:06:18.
