data_PCOD8144834
_publ_section_title
;
Structure prediction by ZEFSAII (Michael W. Deem and Ramdas Pophale) SiO2 
 PCOD8144834
Probable space group: C 2/C
;
_chemical_formula_sum "Si O2"
_cell_formula_units_Z 44
_cell_length_a 7.947108
_cell_length_b 17.623053
_cell_length_c 14.001891
_cell_angle_alpha 90.000000
_cell_angle_beta 109.853042
_cell_angle_gamma 90.000000
_cell_volume 1844.448736
_symmetry_space_group_name_H-M "C 2/C"
_symmetry_group_IT_number 15
_symmetry_cell_setting 'monoclinic'
loop_
_space_group_symop_operation_xyz
x,y,z
-x,y,1/2-z
-x,-y,-z
x,-y,1/2+z
1/2+x,1/2+y,z
1/2-x,1/2+y,1/2-z
1/2-x,1/2-y,-z
1/2+x,1/2-y,1/2+z
loop_
_atom_site_type_symbol
_atom_site_label
_atom_site_fract_x
_atom_site_fract_y
_atom_site_fract_z
Si Si1 0.041075 0.391056 0.863151
Si Si2 0.252233 0.207427 0.399727
Si Si3 0.500000 0.601451 0.250000
Si Si4 0.640418 0.658708 0.694965
Si Si5 0.889995 0.067703 0.523254
Si Si6 0.784749 0.483041 0.316557
O O1 0.000000 0.356986 0.750000
O O2 0.933871 0.342073 0.922114
O O3 0.981348 0.480177 0.855647
O O4 0.251634 0.390742 0.925231
O O5 0.250000 0.250000 0.500000
O O6 0.244274 0.268848 0.312798
O O7 0.079609 0.152865 0.351877
O O8 0.656721 0.546358 0.240500
O O9 0.500000 0.680031 0.750000
O O10 0.528925 0.632088 0.581391
O O11 0.779010 0.593757 0.754556
O O12 0.780596 0.032733 0.589881
O O13 0.000000 0.000000 0.500000
#
# Coordination Sequence:
#
# PCOD8144834 Si02
#       6
#     8   8   4   8   8   8
#     4  11  25  43  66 104 141 186 235 292 356 429
#     4  11  27  43  67 103 142 186 232 290 365 421
#     4  10  22  46  68  94 142 178 230 284 352 420
#     4  10  22  42  66 100 133 180 232 286 350 418
#     4  11  23  39  71 102 137 177 235 293 347 424
#     4  10  21  45  70  99 135 186 235 287 350 421
#
# _framework density 23.855366
#
# number of rings (size 3 to 8) (size 9 to 14) (size 15 to 20)
#    0.000    1.455    2.727    2.182    7.636    3.636 
#    8.182    0.000    0.000    0.000    0.000    0.000 
#    0.000    0.000    0.000    0.000    0.000    0.000 
#
# Total GULP energy -272782.942342 kJ/mol
# GULP energy per Si atom -12399.224652 kJ/mol
# Density = 2.380107 g / cm^3
# Si number density = 23.855366 Si / 1000 Ang^3
#
#
#
# Elastic Constant Matrix: (Units=GPa)
#
#
# Indices 1 2 3 4 5 6 
#
# 1 43.3572 15.5763 19.5987 0.0000 9.1109 0.0000
# 2 15.5763 111.8793 23.7523 0.0000 -3.9216 0.0000
# 3 19.5987 23.7523 103.5335 0.0000 5.7052 0.0000
# 4 0.0000 0.0000 0.0000 24.1533 0.0000 1.1261
# 5 9.1109 -3.9216 5.7052 0.0000 32.8906 0.0000
# 6 0.0000 0.0000 0.0000 1.1261 0.0000 37.3347
#
#
#
# Elastic Compliance Matrix: (Units=1/GPa)
#
#
# Indices 1 2 3 4 5 6 
#
# 1 0.027610 -0.003234 -0.004081 0.000000 -0.007326 0.000000
# 2 -0.003234 0.009849 -0.001778 0.000000 0.002379 0.000000
# 3 -0.004081 -0.001778 0.010893 0.000000 -0.000971 0.000000
# 4 0.000000 0.000000 0.000000 0.041461 0.000000 -0.001251
# 5 -0.007326 0.002379 -0.000971 0.000000 0.032885 0.000000
# 6 0.000000 0.000000 0.000000 -0.001251 0.000000 0.026822
#
#
# Mechanical properties :
#
#
# Convention : Reuss Voigt Hill
#
# Bulk Modulus (GPa) = 33.15096 41.84719 37.49908
# Shear Modulus (GPa) = 28.12731 32.19858 30.16294
#
# Velocity S-wave (km/s) = 3.43749 3.67787 3.55971
# Velocity P-wave (km/s) = 5.44812 5.96789 5.71392
#
# Compressibility (1/GPa) = 0.03016504
#
# Stress axis : x y z
#
# Youngs Moduli (GPa) = 36.21833 101.52838 91.80440
#
# Poissons Ratio (x) = 0.32839 0.37464
# Poissons Ratio (y) = 0.11715 0.16327
# Poissons Ratio (z) = 0.14780 0.18056
#
# Static dielectric constant tensor:
#      x y z
#    x 4.325990 0.000000 0.044270 
#    y 0.000000 4.411280 0.000000 
#    z 0.044270 0.000000 4.277110 
# 
# 
# High freq. dielectric constant tensor:
#      x y z
#    x 1.937930 0.000000 -0.004340 
#    y 0.000000 1.948820 0.000000 
#    z -0.004340 0.000000 1.942280 
# 
# From -- ./inp_files/134571.got.cif
#   From: 2010.06.25/outbox.cif.g09.slc.cpg/sg15_68_cif.got.tgz:134571.got - 2010.06.28 07:06:18.
