data_PCOD8144664
_publ_section_title
;
Structure prediction by ZEFSAII (Michael W. Deem and Ramdas Pophale) SiO2 
 PCOD8144664
Probable space group: C 2/C
;
_chemical_formula_sum "Si O2"
_cell_formula_units_Z 60
_cell_length_a 30.160609
_cell_length_b 8.416937
_cell_length_c 24.454127
_cell_angle_alpha 90.000000
_cell_angle_beta 27.749581
_cell_angle_gamma 90.000000
_cell_volume 2890.459079
_symmetry_space_group_name_H-M "C 2/C"
_symmetry_group_IT_number 15
_symmetry_cell_setting 'monoclinic'
loop_
_space_group_symop_operation_xyz
x,y,z
-x,y,1/2-z
-x,-y,-z
x,-y,1/2+z
1/2+x,1/2+y,z
1/2-x,1/2+y,1/2-z
1/2-x,1/2-y,-z
1/2+x,1/2-y,1/2+z
loop_
_atom_site_type_symbol
_atom_site_label
_atom_site_fract_x
_atom_site_fract_y
_atom_site_fract_z
Si Si1 0.221965 0.221620 0.316068
Si Si2 0.383336 0.130297 0.211130
Si Si3 0.391690 0.414243 0.755475
Si Si4 0.720462 0.912795 0.858417
Si Si5 0.000000 0.598328 0.250000
Si Si6 0.491103 0.107787 0.867037
Si Si7 0.654674 0.707088 0.632852
Si Si8 0.011301 0.897537 0.041272
O O1 0.288050 0.103307 0.280027
O O2 0.253900 0.208281 0.218280
O O3 0.228054 0.403886 0.330257
O O4 0.117546 0.154026 0.438139
O O5 0.352597 0.212549 0.300492
O O6 0.448554 0.240957 0.101707
O O7 0.444375 0.973411 0.156326
O O8 0.297747 0.380641 0.821627
O O9 0.446612 0.260186 0.717651
O O10 0.359626 0.517675 0.843282
O O11 0.473638 0.505379 0.633572
O O12 0.614945 0.864144 0.993960
O O13 0.978551 0.494834 0.326534
O O14 0.915763 0.719826 0.333736
O O15 0.750000 0.750000 0.500000
O O16 0.000000 0.000000 0.000000
#
# Coordination Sequence:
#
# PCOD8144664 Si02
#       8
#     8   8   8   8   4   8   8   8
#     4  12  24  40  66  96 141 184 234 269 337 405
#     4  10  23  40  63  99 133 182 232 273 347 409
#     4  11  25  43  67 103 138 172 236 281 345 413
#     4  12  26  42  67  99 141 185 229 274 341 406
#     4  10  24  46  70  96 130 176 230 276 372 412
#     4  11  26  45  68  99 142 174 223 300 348 410
#     4  10  21  43  72  95 126 173 228 294 338 412
#     4  11  21  40  63  94 140 184 231 281 319 410
#
# _framework density 20.757947999999999
#
# number of rings (size 3 to 8) (size 9 to 14) (size 15 to 20)
#    0.000    1.067    5.333    0.800    5.600    1.067 
#    0.000    7.333    0.000    0.000    0.000    0.000 
#    0.000    0.000    0.000    0.000    0.000    0.000 
#
# Total GULP energy -371887.031767 kJ/mol
# GULP energy per Si atom -12396.234392 kJ/mol
# Density = 2.071070 g / cm^3
# Si number density = 20.757948 Si / 1000 Ang^3
#
#
#
# Elastic Constant Matrix: (Units=GPa)
#
#
# Indices 1 2 3 4 5 6 
#
# 1 115.6260 51.5103 58.5734 0.0029 -24.5988 0.0007
# 2 51.5103 100.2914 51.2907 -0.0389 -5.0847 0.0289
# 3 58.5734 51.2907 153.7625 -0.0459 -25.5699 0.0365
# 4 0.0029 -0.0389 -0.0459 31.5092 0.0249 5.5751
# 5 -24.5988 -5.0847 -25.5699 0.0249 34.1683 -0.0145
# 6 0.0007 0.0289 0.0365 5.5751 -0.0145 34.9910
#
#
#
# Elastic Compliance Matrix: (Units=1/GPa)
#
#
# Indices 1 2 3 4 5 6 
#
# 1 0.013845 -0.005633 -0.002144 -0.000020 0.007525 0.000013
# 2 -0.005633 0.014371 -0.003388 0.000019 -0.004453 -0.000013
# 3 -0.002144 -0.003388 0.009263 0.000007 0.004884 -0.000006
# 4 -0.000020 0.000019 0.000007 0.032657 -0.000032 -0.005203
# 5 0.007525 -0.004453 0.004884 -0.000032 0.037677 0.000019
# 6 0.000013 -0.000013 -0.000006 -0.005203 0.000019 0.029408
#
#
# Mechanical properties :
#
#
# Convention : Reuss Voigt Hill
#
# Bulk Modulus (GPa) = 66.01286 76.93649 71.47468
# Shear Modulus (GPa) = 30.37656 34.02073 32.19865
#
# Velocity S-wave (km/s) = 3.82955 4.05276 3.94273
# Velocity P-wave (km/s) = 7.17107 7.68400 7.43196
#
# Compressibility (1/GPa) = 0.01514856
#
# Stress axis : x y z
#
# Youngs Moduli (GPa) = 72.22919 69.58318 107.96075
#
# Poissons Ratio (x) = 0.39196 0.23143
# Poissons Ratio (y) = 0.40687 0.36582
# Poissons Ratio (z) = 0.15483 0.23578
#
# Static dielectric constant tensor:
#      x y z
#    x 3.801430 0.000130 -0.031870 
#    y 0.000130 3.999010 -0.000080 
#    z -0.031870 -0.000080 3.747110 
# 
# 
# High freq. dielectric constant tensor:
#      x y z
#    x 1.817750 0.000000 -0.013850 
#    y 0.000000 1.809640 0.000010 
#    z -0.013850 0.000010 1.826560 
# 
# From -- ./inp_files/284307.got.cif
#   From: 2010.06.25/outbox.cif.g09.slc.cpg/sg15_143_cif.got.tgz:284307.got - 2010.06.28 07:06:18.
