data_PCOD8144795
_publ_section_title
;
Structure prediction by ZEFSAII (Michael W. Deem and Ramdas Pophale) SiO2 
 PCOD8144795
Probable space group: C 2/C
;
_chemical_formula_sum "Si O2"
_cell_formula_units_Z 56
_cell_length_a 16.622624
_cell_length_b 12.232489
_cell_length_c 14.454188
_cell_angle_alpha 90.000000
_cell_angle_beta 120.419179
_cell_angle_gamma 90.000000
_cell_volume 2534.479470
_symmetry_space_group_name_H-M "C 2/C"
_symmetry_group_IT_number 15
_symmetry_cell_setting 'monoclinic'
loop_
_space_group_symop_operation_xyz
x,y,z
-x,y,1/2-z
-x,-y,-z
x,-y,1/2+z
1/2+x,1/2+y,z
1/2-x,1/2+y,1/2-z
1/2-x,1/2-y,-z
1/2+x,1/2-y,1/2+z
loop_
_atom_site_type_symbol
_atom_site_label
_atom_site_fract_x
_atom_site_fract_y
_atom_site_fract_z
Si Si1 0.929588 0.983919 0.107929
Si Si2 0.216401 0.002392 0.123912
Si Si3 0.000000 0.203978 0.750000
Si Si4 0.221740 0.930507 0.322829
Si Si5 0.667012 0.193001 0.264720
Si Si6 0.899952 0.442143 0.952804
Si Si7 0.166389 0.679158 0.908505
Si Si8 0.000000 0.178409 0.250000
O O1 0.994866 0.876359 0.156052
O O2 0.847729 0.963771 0.135801
O O3 0.989251 0.094791 0.157147
O O4 0.884211 0.997284 0.982106
O O5 0.193840 0.002729 0.218895
O O6 0.286237 0.907883 0.131334
O O7 0.267425 0.116367 0.135907
O O8 0.085049 0.284481 0.788939
O O9 0.220744 0.807070 0.282758
O O10 0.325932 0.959493 0.416075
O O11 0.626558 0.140005 0.146745
O O12 0.895192 0.374126 0.045461
O O13 0.000000 0.500000 0.000000
O O14 0.094639 0.749351 0.803113
O O15 0.250000 0.750000 0.000000
#
# Coordination Sequence:
#
# PCOD8144795 Si02
#       8
#     8   8   4   8   8   8   8   4
#     4  10  21  45  63  96 130 170 224 277 319 402
#     4  11  23  40  70  91 125 181 218 262 342 390
#     4   9  22  39  64  92 132 165 214 275 324 398
#     4  10  22  45  64  92 135 171 222 275 329 403
#     4  10  24  40  65  93 129 173 220 266 336 402
#     4  11  25  42  62  98 133 166 222 287 328 405
#     4  12  24  44  70  94 134 178 221 280 350 397
#     4  11  24  39  70  98 126 171 224 275 330 404
#
# _framework density 22.095265999999999
#
# number of rings (size 3 to 8) (size 9 to 14) (size 15 to 20)
#    0.000    1.429    2.857    0.857    6.000    4.571 
#    2.571    2.143    0.000    0.000    0.000    0.000 
#    0.000    0.000    0.000    0.000    0.000    0.000 
#
# Total GULP energy -346974.243815 kJ/mol
# GULP energy per Si atom -12391.937279 kJ/mol
# Density = 2.204498 g / cm^3
# Si number density = 22.095266 Si / 1000 Ang^3
#
#
#
# Elastic Constant Matrix: (Units=GPa)
#
#
# Indices 1 2 3 4 5 6 
#
# 1 49.9133 23.0701 13.6699 0.0000 14.9752 0.0000
# 2 23.0701 113.1349 26.2906 0.0000 20.5515 0.0000
# 3 13.6699 26.2906 106.9419 0.0000 27.4786 0.0000
# 4 0.0000 0.0000 0.0000 32.2610 0.0000 15.9730
# 5 14.9752 20.5515 27.4786 0.0000 39.3047 0.0000
# 6 0.0000 0.0000 0.0000 15.9730 0.0000 37.4803
#
#
#
# Elastic Compliance Matrix: (Units=1/GPa)
#
#
# Indices 1 2 3 4 5 6 
#
# 1 0.023857 -0.003505 -0.000394 0.000000 -0.006982 0.000000
# 2 -0.003505 0.010439 -0.001291 0.000000 -0.003220 0.000000
# 3 -0.000394 -0.001291 0.011588 0.000000 -0.007277 0.000000
# 4 0.000000 0.000000 0.000000 0.039287 0.000000 -0.016743
# 5 -0.006982 -0.003220 -0.007277 0.000000 0.034873 0.000000
# 6 0.000000 0.000000 0.000000 -0.016743 0.000000 0.033816
#
#
# Mechanical properties :
#
#
# Convention : Reuss Voigt Hill
#
# Bulk Modulus (GPa) = 28.16537 44.00569 36.08553
# Shear Modulus (GPa) = 28.39701 35.60650 32.00176
#
# Velocity S-wave (km/s) = 3.58887 4.01870 3.80985
# Velocity P-wave (km/s) = 5.47250 6.44150 5.97667
#
# Compressibility (1/GPa) = 0.03550460
#
# Stress axis : x y z
#
# Youngs Moduli (GPa) = 41.91582 95.79748 86.29424
#
# Poissons Ratio (x) = 0.33578 0.03400
# Poissons Ratio (y) = 0.14692 0.11138
# Poissons Ratio (z) = 0.01651 0.12365
#
# Static dielectric constant tensor:
#      x y z
#    x 3.985000 0.000000 0.273510 
#    y 0.000000 4.314000 0.000000 
#    z 0.273510 0.000000 4.097300 
# 
# 
# High freq. dielectric constant tensor:
#      x y z
#    x 1.864430 0.000000 0.016220 
#    y 0.000000 1.882300 0.000000 
#    z 0.016220 0.000000 1.871260 
# 
# From -- ./inp_files/161458.got.cif
#   From: 2010.06.25/outbox.cif.g09.slc.cpg/sg15_81_cif.got.tgz:161458.got - 2010.06.28 07:06:18.
