data_PCOD8144426
_publ_section_title
;
Structure prediction by ZEFSAII (Michael W. Deem and Ramdas Pophale) SiO2 
 PCOD8144426
Probable space group: C 2/C
;
_chemical_formula_sum "Si O2"
_cell_formula_units_Z 44
_cell_length_a 9.013481
_cell_length_b 14.945930
_cell_length_c 17.480050
_cell_angle_alpha 90.000000
_cell_angle_beta 116.799273
_cell_angle_gamma 90.000000
_cell_volume 2101.894569
_symmetry_space_group_name_H-M "C 2/C"
_symmetry_group_IT_number 15
_symmetry_cell_setting 'monoclinic'
loop_
_space_group_symop_operation_xyz
x,y,z
-x,y,1/2-z
-x,-y,-z
x,-y,1/2+z
1/2+x,1/2+y,z
1/2-x,1/2+y,1/2-z
1/2-x,1/2-y,-z
1/2+x,1/2-y,1/2+z
loop_
_atom_site_type_symbol
_atom_site_label
_atom_site_fract_x
_atom_site_fract_y
_atom_site_fract_z
Si Si1 0.591831 0.083961 0.927478
Si Si2 0.700839 0.024131 0.113578
Si Si3 0.592866 0.267829 0.620650
Si Si4 0.000000 0.865904 0.750000
Si Si5 0.387506 0.346439 0.149819
Si Si6 0.556089 0.400711 0.036319
O O1 0.497709 0.175044 0.895482
O O2 0.746638 0.088309 0.906144
O O3 0.473336 0.997249 0.881838
O O4 0.662482 0.081442 0.029985
O O5 0.843122 0.072531 0.193611
O O6 0.760056 0.925943 0.103903
O O7 0.580511 0.306923 0.702550
O O8 0.783501 0.246644 0.637198
O O9 0.500253 0.336335 0.544393
O O10 0.500000 0.363694 0.250000
O O11 0.499301 0.350281 0.100025
O O12 0.500000 0.500000 0.000000
#
# Coordination Sequence:
#
# PCOD8144426 Si02
#       6
#     8   8   8   4   8   8
#     4  10  22  43  68  98 124 183 228 272 335 416
#     4  10  21  42  71  93 135 174 227 280 338 409
#     4  11  26  41  66 101 134 180 226 279 341 409
#     4  12  22  42  68 100 140 184 226 290 348 394
#     4  11  24  43  66  97 139 173 223 290 342 395
#     4  12  23  44  69  97 131 181 225 274 343 411
#
# _framework density 20.933494
#
# number of rings (size 3 to 8) (size 9 to 14) (size 15 to 20)
#    0.000    1.091    4.545    1.091    2.545    0.000 
#    3.273    0.000    0.000    0.000    0.000    0.000 
#    0.000    0.000    0.000    0.000    0.000    0.000 
#
# Total GULP energy -272561.458210 kJ/mol
# GULP energy per Si atom -12389.157191 kJ/mol
# Density = 2.088585 g / cm^3
# Si number density = 20.933494 Si / 1000 Ang^3
#
#
#
# Elastic Constant Matrix: (Units=GPa)
#
#
# Indices 1 2 3 4 5 6 
#
# 1 183.3162 54.4773 59.2489 0.0000 -1.8607 0.0000
# 2 54.4773 85.1256 31.9135 0.0000 1.0426 0.0000
# 3 59.2489 31.9135 94.7708 0.0000 3.0432 0.0000
# 4 0.0000 0.0000 0.0000 14.4794 0.0000 13.6086
# 5 -1.8607 1.0426 3.0432 0.0000 38.5794 0.0000
# 6 0.0000 0.0000 0.0000 13.6086 0.0000 3.5622
#
#
#
# Elastic Compliance Matrix: (Units=1/GPa)
#
#
# Indices 1 2 3 4 5 6 
#
# 1 0.007699 -0.003574 -0.003634 0.000000 0.000755 0.000000
# 2 -0.003574 0.015104 -0.002840 0.000000 -0.000357 0.000000
# 3 -0.003634 -0.002840 0.013818 0.000000 -0.001189 0.000000
# 4 0.000000 0.000000 0.000000 -0.026660 0.000000 0.101848
# 5 0.000755 -0.000357 -0.001189 0.000000 0.026060 0.000000
# 6 0.000000 0.000000 0.000000 0.101848 0.000000 -0.108365
#
#
# Mechanical properties :
#
#
# Convention : Reuss Voigt Hill
#
# Bulk Modulus (GPa) = 60.51589 72.72133 66.61861
# Shear Modulus (GPa) = -106.98095 25.82906 -40.57594
#
# Velocity S-wave (km/s) = -7.15654 3.51645 -4.40742
# Velocity P-wave (km/s) = 6.27031 7.16253 2.44797
#
# Compressibility (1/GPa) = 0.01652458
#
# Stress axis : x y z
#
# Youngs Moduli (GPa) = 129.87909 66.20840 72.36730
#
# Poissons Ratio (x) = 0.23664 0.26300
# Poissons Ratio (y) = 0.46421 0.20554
# Poissons Ratio (z) = 0.47201 0.18804
#
# Static dielectric constant tensor:
#      x y z
#    x 4.697650 0.000000 0.240040 
#    y 0.000000 4.098060 0.000000 
#    z 0.240040 0.000000 3.740500 
# 
# 
# High freq. dielectric constant tensor:
#      x y z
#    x 1.836890 0.000000 0.015110 
#    y 0.000000 1.824920 0.000000 
#    z 0.015110 0.000000 1.813980 
# 
# From -- ./inp_files/182259.got.cif
#   From: 2010.06.25/outbox.cif.g09.slc.cpg/sg15_92_cif.got.tgz:182259.got - 2010.06.28 07:06:18.
