data_PCOD8144130
_publ_section_title
;
Structure prediction by ZEFSAII (Michael W. Deem and Ramdas Pophale) SiO2 
 PCOD8144130
Probable space group: C 2/C
;
_chemical_formula_sum "Si O2"
_cell_formula_units_Z 40
_cell_length_a 5.132869
_cell_length_b 27.402524
_cell_length_c 12.258367
_cell_angle_alpha 90.000000
_cell_angle_beta 92.932269
_cell_angle_gamma 90.000000
_cell_volume 1721.925567
_symmetry_space_group_name_H-M "C 2/C"
_symmetry_group_IT_number 15
_symmetry_cell_setting 'monoclinic'
loop_
_space_group_symop_operation_xyz
x,y,z
-x,y,1/2-z
-x,-y,-z
x,-y,1/2+z
1/2+x,1/2+y,z
1/2-x,1/2+y,1/2-z
1/2-x,1/2-y,-z
1/2+x,1/2-y,1/2+z
loop_
_atom_site_type_symbol
_atom_site_label
_atom_site_fract_x
_atom_site_fract_y
_atom_site_fract_z
Si Si1 0.421192 0.604185 0.915788
Si Si2 0.500000 0.522375 0.750000
Si Si3 0.000000 0.539610 0.250000
Si Si4 0.725211 0.798419 0.343488
Si Si5 0.434460 0.887914 0.558571
Si Si6 0.532993 0.218466 0.436821
O O1 0.395485 0.554501 0.848031
O O2 0.370904 0.649925 0.832208
O O3 0.718029 0.606806 0.961078
O O4 0.218273 0.603395 0.011432
O O5 0.246611 0.490973 0.710563
O O6 0.887726 0.572673 0.150717
O O7 0.500000 0.792615 0.250000
O O8 0.655967 0.797464 0.469325
O O9 0.912879 0.751181 0.336128
O O10 0.387529 0.833978 0.611478
O O11 0.750000 0.250000 0.500000
#
# Coordination Sequence:
#
# PCOD8144130 Si02
#       6
#     8   4   4   8   8   8
#     4  11  25  44  73 104 137 180 235 298 344 399
#     4  12  28  46  73 104 131 180 246 292 348 420
#     4  12  28  48  69 102 137 186 236 282 360 422
#     4  10  23  39  66 102 136 180 225 279 339 410
#     4  11  25  46  71 102 146 183 225 289 348 418
#     4  10  21  42  63 102 141 177 224 271 341 419
#
# _framework density 23.229808999999999
#
# number of rings (size 3 to 8) (size 9 to 14) (size 15 to 20)
#    0.000    1.200    2.000    2.400    7.000    7.200 
#    1.800    0.000    0.000    0.000    0.000    0.000 
#    0.000    0.000    0.000    0.000    0.000    0.000 
#
# Total GULP energy -247892.761189 kJ/mol
# GULP energy per Si atom -12394.638059 kJ/mol
# Density = 2.317694 g / cm^3
# Si number density = 23.229809 Si / 1000 Ang^3
#
#
#
# Elastic Constant Matrix: (Units=GPa)
#
#
# Indices 1 2 3 4 5 6 
#
# 1 105.3874 48.1272 24.3709 0.0000 17.6708 0.0000
# 2 48.1272 182.3032 55.6016 0.0000 20.1525 0.0000
# 3 24.3709 55.6016 85.9897 0.0000 26.6042 0.0000
# 4 0.0000 0.0000 0.0000 54.0312 0.0000 -14.7532
# 5 17.6708 20.1525 26.6042 0.0000 50.2078 0.0000
# 6 0.0000 0.0000 0.0000 -14.7532 0.0000 61.9683
#
#
#
# Elastic Compliance Matrix: (Units=1/GPa)
#
#
# Indices 1 2 3 4 5 6 
#
# 1 0.011214 -0.002429 -0.000823 0.000000 -0.002536 0.000000
# 2 -0.002429 0.007369 -0.004097 0.000000 0.000068 0.000000
# 3 -0.000823 -0.004097 0.016642 0.000000 -0.006884 0.000000
# 4 0.000000 0.000000 0.000000 0.019795 0.000000 0.004713
# 5 -0.002536 0.000068 -0.006884 0.000000 0.024430 0.000000
# 6 0.000000 0.000000 0.000000 0.004713 0.000000 0.017259
#
#
# Mechanical properties :
#
#
# Convention : Reuss Voigt Hill
#
# Bulk Modulus (GPa) = 48.72060 69.98662 59.35361
# Shear Modulus (GPa) = 42.28387 49.61348 45.94867
#
# Velocity S-wave (km/s) = 4.27106 4.62645 4.45230
# Velocity P-wave (km/s) = 6.73360 7.66368 7.21365
#
# Compressibility (1/GPa) = 0.02052520
#
# Stress axis : x y z
#
# Youngs Moduli (GPa) = 89.17794 135.70817 60.08975
#
# Poissons Ratio (x) = 0.32964 0.04945
# Poissons Ratio (y) = 0.21662 0.24621
# Poissons Ratio (z) = 0.07339 0.55605
#
# Static dielectric constant tensor:
#      x y z
#    x 4.049880 0.000000 0.084540 
#    y 0.000000 6.448180 0.000000 
#    z 0.084540 0.000000 3.464790 
# 
# 
# High freq. dielectric constant tensor:
#      x y z
#    x 1.922160 0.000000 0.003310 
#    y 0.000000 1.941800 0.000000 
#    z 0.003310 0.000000 1.908310 
# 
# From -- ./inp_files/73358.got.cif
#   From: 2010.06.25/outbox.cif.g09.slc.cpg/sg15_37_cif.got.tgz:73358.got - 2010.06.28 07:06:18.
