data_PCOD8144011
_publ_section_title
;
Structure prediction by ZEFSAII (Michael W. Deem and Ramdas Pophale) SiO2 
 PCOD8144011
Probable space group: C 2/C
;
_chemical_formula_sum "Si O2"
_cell_formula_units_Z 40
_cell_length_a 16.180821
_cell_length_b 23.437987
_cell_length_c 7.848811
_cell_angle_alpha 90.000000
_cell_angle_beta 34.548670
_cell_angle_gamma 90.000000
_cell_volume 1688.064526
_symmetry_space_group_name_H-M "C 2/C"
_symmetry_group_IT_number 15
_symmetry_cell_setting 'monoclinic'
loop_
_space_group_symop_operation_xyz
x,y,z
-x,y,1/2-z
-x,-y,-z
x,-y,1/2+z
1/2+x,1/2+y,z
1/2-x,1/2+y,1/2-z
1/2-x,1/2-y,-z
1/2+x,1/2-y,1/2+z
loop_
_atom_site_type_symbol
_atom_site_label
_atom_site_fract_x
_atom_site_fract_y
_atom_site_fract_z
Si Si1 0.815165 0.936526 0.894155
Si Si2 0.198355 0.660323 0.141606
Si Si3 0.336456 0.756461 0.087966
Si Si4 0.152038 0.940116 0.268319
Si Si5 0.899118 0.663662 0.767071
O O1 0.801759 0.926117 0.118329
O O2 0.707916 0.888577 0.996432
O O3 0.978872 0.933555 0.544975
O O4 0.772045 0.000415 0.914567
O O5 0.247398 0.695780 0.232728
O O6 0.027744 0.643008 0.418795
O O7 0.242453 0.700390 0.908090
O O8 0.289700 0.603179 0.971617
O O9 0.321339 0.783273 0.303153
O O10 0.500000 0.743173 0.750000
O O11 0.000000 0.685379 0.750000
#
# Coordination Sequence:
#
# PCOD8144011 Si02
#       5
#     8   8   8   8   8
#     4  10  23  43  66 101 136 175 226 281 336 408
#     4  10  21  41  69  93 128 181 224 278 337 403
#     4   9  20  42  66  92 128 180 231 272 336 405
#     4  10  22  43  70  97 133 178 228 278 338 410
#     4  11  24  41  64 102 141 173 226 287 340 400
#
# _framework density 23.695777
#
# number of rings (size 3 to 8) (size 9 to 14) (size 15 to 20)
#    0.000    2.000    2.000    0.000    2.800    3.200 
#    3.600    4.000    0.000    0.000    0.000    0.000 
#    0.000    0.000    0.000    0.000    0.000    0.000 
#
# Total GULP energy -247836.161703 kJ/mol
# GULP energy per Si atom -12391.808085 kJ/mol
# Density = 2.364184 g / cm^3
# Si number density = 23.695777 Si / 1000 Ang^3
#
#
#
# Elastic Constant Matrix: (Units=GPa)
#
#
# Indices 1 2 3 4 5 6 
#
# 1 107.1899 54.9536 17.1882 0.0001 2.0474 -0.0001
# 2 54.9536 149.3768 79.6753 -0.0001 -1.9230 0.0001
# 3 17.1882 79.6753 85.1354 0.0004 -10.9723 -0.0003
# 4 0.0001 -0.0001 0.0004 51.4418 -0.0001 0.0026
# 5 2.0474 -1.9230 -10.9723 -0.0001 25.7568 0.0001
# 6 -0.0001 0.0001 -0.0003 0.0026 0.0001 36.6619
#
#
#
# Elastic Compliance Matrix: (Units=1/GPa)
#
#
# Indices 1 2 3 4 5 6 
#
# 1 0.011972 -0.006224 0.003413 0.000000 0.000037 0.000000
# 2 -0.006224 0.017134 -0.015396 0.000000 -0.004784 0.000000
# 3 0.003413 -0.015396 0.026751 0.000000 0.009975 0.000000
# 4 0.000000 0.000000 0.000000 0.019439 0.000000 -0.000001
# 5 0.000037 -0.004784 0.009975 0.000000 0.042714 0.000000
# 6 0.000000 0.000000 0.000000 -0.000001 0.000000 0.027276
#
#
# Mechanical properties :
#
#
# Convention : Reuss Voigt Hill
#
# Bulk Modulus (GPa) = 51.43123 71.70404 61.56763
# Shear Modulus (GPa) = 26.57002 35.43111 31.00056
#
# Velocity S-wave (km/s) = 3.35221 3.87104 3.62093
# Velocity P-wave (km/s) = 6.06094 7.09267 6.59700
#
# Compressibility (1/GPa) = 0.01944344
#
# Stress axis : x y z
#
# Youngs Moduli (GPa) = 83.52607 58.36193 37.38221
#
# Poissons Ratio (x) = 0.36326 -0.12758
# Poissons Ratio (y) = 0.51989 0.57552
# Poissons Ratio (z) = -0.28506 0.89851
#
# Static dielectric constant tensor:
#      x y z
#    x 4.272360 0.000000 0.117480 
#    y 0.000000 4.224530 0.000000 
#    z 0.117480 0.000000 4.559590 
# 
# 
# High freq. dielectric constant tensor:
#      x y z
#    x 1.941380 0.000000 0.012380 
#    y 0.000000 1.933660 0.000000 
#    z 0.012380 0.000000 1.951250 
# 
# From -- ./inp_files/52104.got.cif
#   From: 2010.06.25/outbox.cif.g09.slc.cpg/sg15_27_cif.got.tgz:52104.got - 2010.06.28 07:06:18.
