data_PCOD8144811
_publ_section_title
;
Structure prediction by ZEFSAII (Michael W. Deem and Ramdas Pophale) SiO2 
 PCOD8144811
Probable space group: C 2/C
;
_chemical_formula_sum "Si O2"
_cell_formula_units_Z 44
_cell_length_a 20.905638
_cell_length_b 16.605243
_cell_length_c 15.325137
_cell_angle_alpha 90.000000
_cell_angle_beta 157.744699
_cell_angle_gamma 90.000000
_cell_volume 2014.872663
_symmetry_space_group_name_H-M "C 2/C"
_symmetry_group_IT_number 15
_symmetry_cell_setting 'monoclinic'
loop_
_space_group_symop_operation_xyz
x,y,z
-x,y,1/2-z
-x,-y,-z
x,-y,1/2+z
1/2+x,1/2+y,z
1/2-x,1/2+y,1/2-z
1/2-x,1/2-y,-z
1/2+x,1/2-y,1/2+z
loop_
_atom_site_type_symbol
_atom_site_label
_atom_site_fract_x
_atom_site_fract_y
_atom_site_fract_z
Si Si1 0.000000 0.775503 0.250000
Si Si2 0.058660 0.368831 0.488797
Si Si3 0.139395 0.514828 0.858155
Si Si4 0.068447 0.787421 0.748085
Si Si5 0.624657 0.563691 0.204036
Si Si6 0.139559 0.657746 0.283975
O O1 0.952978 0.725269 0.276299
O O2 0.160521 0.829711 0.476754
O O3 0.226287 0.419968 0.677135
O O4 0.049692 0.345235 0.578110
O O5 0.889304 0.423396 0.258550
O O6 0.055896 0.286624 0.430736
O O7 0.106192 0.424471 0.790712
O O8 0.000000 0.545674 0.750000
O O9 0.317726 0.522352 0.132161
O O10 0.053530 0.849962 0.647568
O O11 0.000000 0.829563 0.750000
O O12 0.250000 0.750000 0.000000
O O13 0.500000 0.500000 0.000000
#
# Coordination Sequence:
#
# PCOD8144811 Si02
#       6
#     4   8   8   8   8   8
#     4  10  26  44  64  98 138 192 234 308 354 454
#     4  11  24  43  73 105 141 190 246 297 371 444
#     4  10  21  45  67  96 143 180 232 304 364 427
#     4  12  23  47  75 103 148 192 242 305 364 433
#     4  11  26  44  72 112 145 185 243 306 365 437
#     4  11  24  43  69  95 141 183 244 290 373 428
#
# _framework density 21.837607999999999
#
# number of rings (size 3 to 8) (size 9 to 14) (size 15 to 20)
#    0.000    1.091    4.545    1.091    5.091    2.909 
#    6.545    0.000    0.000    0.000    0.000    0.000 
#    0.000    0.000    0.000    0.000    0.000    0.000 
#
# Total GULP energy -272688.008866 kJ/mol
# GULP energy per Si atom -12394.909494 kJ/mol
# Density = 2.178791 g / cm^3
# Si number density = 21.837608 Si / 1000 Ang^3
#
#
#
# Elastic Constant Matrix: (Units=GPa)
#
#
# Indices 1 2 3 4 5 6 
#
# 1 89.6164 17.9680 52.7216 0.0000 -15.8271 0.0000
# 2 17.9680 107.9655 47.3934 0.0000 -15.1091 0.0000
# 3 52.7216 47.3934 119.7723 0.0001 -24.7821 0.0001
# 4 0.0000 0.0000 0.0001 88.5765 0.0000 119.7902
# 5 -15.8271 -15.1091 -24.7821 0.0000 34.8827 0.0000
# 6 0.0000 0.0000 0.0001 119.7902 0.0000 466.3651
#
#
#
# Elastic Compliance Matrix: (Units=1/GPa)
#
#
# Indices 1 2 3 4 5 6 
#
# 1 0.015282 0.000653 -0.006439 0.000000 0.002642 0.000000
# 2 0.000653 0.011357 -0.004340 0.000000 0.002132 0.000000
# 3 -0.006439 -0.004340 0.013959 0.000000 0.005116 0.000000
# 4 0.000000 0.000000 0.000000 0.017299 0.000000 -0.004443
# 5 0.002642 0.002132 0.005116 0.000000 0.034425 0.000000
# 6 0.000000 0.000000 0.000000 -0.004443 0.000000 0.003286
#
#
# Mechanical properties :
#
#
# Convention : Reuss Voigt Hill
#
# Bulk Modulus (GPa) = 49.14779 61.50224 55.32502
# Shear Modulus (GPa) = 40.76913 131.24960 86.00937
#
# Velocity S-wave (km/s) = 4.32548 7.76099 6.28263
# Velocity P-wave (km/s) = 6.89211 10.41803 8.83279
#
# Compressibility (1/GPa) = 0.02034679
#
# Stress axis : x y z
#
# Youngs Moduli (GPa) = 65.43518 88.05040 71.63704
#
# Poissons Ratio (x) = -0.05748 0.46124
# Poissons Ratio (y) = -0.04271 0.31092
# Poissons Ratio (z) = 0.42131 0.38215
#
# Static dielectric constant tensor:
#      x y z
#    x 3.946460 0.000000 -0.156420 
#    y 0.000000 3.952860 0.000000 
#    z -0.156420 0.000000 4.017350 
# 
# 
# High freq. dielectric constant tensor:
#      x y z
#    x 1.859990 0.000000 -0.011690 
#    y 0.000000 1.866700 0.000000 
#    z -0.011690 0.000000 1.852730 
# 
# From -- ./inp_files/219759.got.cif
#   From: 2010.06.25/outbox.cif.g09.slc.cpg/sg15_110_cif.got.tgz:219759.got - 2010.06.28 07:06:18.
