data_PCOD8144127
_publ_section_title
;
Structure prediction by ZEFSAII (Michael W. Deem and Ramdas Pophale) SiO2 
 PCOD8144127
Probable space group: C 2/C
;
_chemical_formula_sum "Si O2"
_cell_formula_units_Z 56
_cell_length_a 6.765586
_cell_length_b 25.376335
_cell_length_c 17.360364
_cell_angle_alpha 90.000000
_cell_angle_beta 65.995136
_cell_angle_gamma 90.000000
_cell_volume 2722.744507
_symmetry_space_group_name_H-M "C 2/C"
_symmetry_group_IT_number 15
_symmetry_cell_setting 'monoclinic'
loop_
_space_group_symop_operation_xyz
x,y,z
-x,y,1/2-z
-x,-y,-z
x,-y,1/2+z
1/2+x,1/2+y,z
1/2-x,1/2+y,1/2-z
1/2-x,1/2-y,-z
1/2+x,1/2-y,1/2+z
loop_
_atom_site_type_symbol
_atom_site_label
_atom_site_fract_x
_atom_site_fract_y
_atom_site_fract_z
Si Si1 0.855291 0.790248 0.386695
Si Si2 0.559382 0.600549 0.825351
Si Si3 0.000000 0.546166 0.750000
Si Si4 0.500000 0.213484 0.250000
Si Si5 0.733640 0.645761 0.178746
Si Si6 0.410921 0.782057 0.527738
Si Si7 0.175707 0.026891 0.526018
Si Si8 0.102220 0.467653 0.872684
O O1 0.614217 0.808223 0.449871
O O2 0.010434 0.837751 0.335749
O O3 0.822966 0.750872 0.319441
O O4 0.989266 0.760468 0.430672
O O5 0.500000 0.578073 0.750000
O O6 0.806575 0.585118 0.805368
O O7 0.415537 0.577214 0.916218
O O8 0.919967 0.510430 0.691623
O O9 0.403021 0.175652 0.203016
O O10 0.500000 0.657595 0.250000
O O11 0.770873 0.670246 0.087666
O O12 0.779407 0.583845 0.177634
O O13 0.250000 0.750000 0.500000
O O14 0.365461 0.047293 0.440711
O O15 0.254979 0.986543 0.578290
O O16 0.000000 0.000000 0.500000
#
# Coordination Sequence:
#
# PCOD8144127 Si02
#       8
#     8   8   4   4   8   8   8   8
#     4  10  22  41  67  93 130 171 211 269 330 389
#     4  12  24  42  66  98 131 175 223 277 337 397
#     4  12  25  42  66 100 130 172 227 276 326 396
#     4  10  21  42  62  96 126 164 213 266 322 388
#     4  11  24  39  65  95 126 168 214 263 325 386
#     4  10  22  42  65  95 131 167 215 267 323 394
#     4  11  24  43  65  90 133 173 217 273 331 390
#     4  11  25  42  64  96 130 173 223 271 326 399
#
# _framework density 20.567481000000001
#
# number of rings (size 3 to 8) (size 9 to 14) (size 15 to 20)
#    0.000    1.143    3.571    2.143    2.000    3.429 
#    5.143    0.000    0.000    0.000    0.000    0.000 
#    0.000    0.000    0.000    0.000    0.000    0.000 
#
# Total GULP energy -347143.815046 kJ/mol
# GULP energy per Si atom -12397.993395 kJ/mol
# Density = 2.052067 g / cm^3
# Si number density = 20.567481 Si / 1000 Ang^3
#
#
#
# Elastic Constant Matrix: (Units=GPa)
#
#
# Indices 1 2 3 4 5 6 
#
# 1 91.3951 29.8898 30.2862 0.0000 -5.8677 0.0000
# 2 29.8898 89.8441 25.0760 0.0000 -7.6423 0.0000
# 3 30.2862 25.0760 94.4490 0.0000 -11.1644 0.0000
# 4 0.0000 0.0000 0.0000 50.1148 0.0000 -10.1968
# 5 -5.8677 -7.6423 -11.1644 0.0000 43.8880 0.0000
# 6 0.0000 0.0000 0.0000 -10.1968 0.0000 26.7095
#
#
#
# Elastic Compliance Matrix: (Units=1/GPa)
#
#
# Indices 1 2 3 4 5 6 
#
# 1 0.013172 -0.003441 -0.003271 0.000000 0.000330 0.000000
# 2 -0.003441 0.012995 -0.002200 0.000000 0.001243 0.000000
# 3 -0.003271 -0.002200 0.012500 0.000000 0.002359 0.000000
# 4 0.000000 0.000000 0.000000 0.021635 0.000000 0.008259
# 5 0.000330 0.001243 0.002359 0.000000 0.023646 0.000000
# 6 0.000000 0.000000 0.000000 0.008259 0.000000 0.040593
#
#
# Mechanical properties :
#
#
# Convention : Reuss Voigt Hill
#
# Bulk Modulus (GPa) = 47.97895 49.57691 48.77793
# Shear Modulus (GPa) = 33.48695 36.83819 35.16257
#
# Velocity S-wave (km/s) = 4.03941 4.23672 4.13924
# Velocity P-wave (km/s) = 6.71819 6.93469 6.82729
#
# Compressibility (1/GPa) = 0.02084247
#
# Stress axis : x y z
#
# Youngs Moduli (GPa) = 75.91839 76.95326 80.00264
#
# Poissons Ratio (x) = 0.26480 0.26170
# Poissons Ratio (y) = 0.26124 0.17599
# Poissons Ratio (z) = 0.24834 0.16928
#
# Static dielectric constant tensor:
#      x y z
#    x 3.703380 0.000000 -0.318980 
#    y 0.000000 3.624970 0.000000 
#    z -0.318980 0.000000 3.410280 
# 
# 
# High freq. dielectric constant tensor:
#      x y z
#    x 1.803680 0.000000 -0.003030 
#    y 0.000000 1.803310 0.000000 
#    z -0.003030 0.000000 1.825660 
# 
# From -- ./inp_files/186139.got.cif
#   From: 2010.06.25/outbox.cif.g09.slc.cpg/sg15_94_cif.got.tgz:186139.got - 2010.06.28 07:06:18.
