data_PCOD8144304
_publ_section_title
;
Structure prediction by ZEFSAII (Michael W. Deem and Ramdas Pophale) SiO2 
 PCOD8144304
Probable space group: C 2/C
;
_chemical_formula_sum "Si O2"
_cell_formula_units_Z 40
_cell_length_a 15.014083
_cell_length_b 26.820467
_cell_length_c 9.054296
_cell_angle_alpha 90.000000
_cell_angle_beta 32.631017
_cell_angle_gamma 90.000000
_cell_volume 1966.035150
_symmetry_space_group_name_H-M "C 2/C"
_symmetry_group_IT_number 15
_symmetry_cell_setting 'monoclinic'
loop_
_space_group_symop_operation_xyz
x,y,z
-x,y,1/2-z
-x,-y,-z
x,-y,1/2+z
1/2+x,1/2+y,z
1/2-x,1/2+y,1/2-z
1/2-x,1/2-y,-z
1/2+x,1/2-y,1/2+z
loop_
_atom_site_type_symbol
_atom_site_label
_atom_site_fract_x
_atom_site_fract_y
_atom_site_fract_z
Si Si1 0.595372 0.709661 0.468205
Si Si2 0.346460 0.123163 0.064829
Si Si3 0.143493 0.208509 0.956480
Si Si4 0.682236 0.599189 0.014061
Si Si5 0.023083 0.446991 0.542435
O O1 0.734473 0.667370 0.285829
O O2 0.689755 0.759975 0.289353
O O3 0.443764 0.694367 0.574946
O O4 0.500000 0.720709 0.750000
O O5 0.400991 0.091990 0.132225
O O6 0.500000 0.142851 0.750000
O O7 0.240590 0.088439 0.100816
O O8 0.193965 0.158625 0.972845
O O9 0.000000 0.237149 0.250000
O O10 0.790136 0.570363 0.743588
O O11 0.500000 0.577765 0.250000
O O12 0.000000 0.448963 0.750000
O O13 0.000000 0.500000 0.500000
#
# Coordination Sequence:
#
# PCOD8144304 Si02
#       5
#     8   8   8   8   8
#     4  12  25  38  59  95 135 171 224 269 322 374
#     4  10  22  41  65  91 129 172 215 265 323 385
#     4  11  23  40  62  90 131 180 222 262 318 384
#     4  10  21  42  67  95 131 169 220 264 318 385
#     4  11  25  45  72  99 129 165 213 266 335 391
#
# _framework density 20.345517000000001
#
# number of rings (size 3 to 8) (size 9 to 14) (size 15 to 20)
#    0.000    1.200    4.000    3.600    8.400    0.800 
#    0.000    5.000    0.000    0.000    0.000    0.000 
#    0.000    0.000    0.000    0.000    0.000    0.000 
#
# Total GULP energy -247908.168771 kJ/mol
# GULP energy per Si atom -12395.408439 kJ/mol
# Density = 2.029921 g / cm^3
# Si number density = 20.345517 Si / 1000 Ang^3
#
#
#
# Elastic Constant Matrix: (Units=GPa)
#
#
# Indices 1 2 3 4 5 6 
#
# 1 139.2124 28.0953 51.5504 0.0000 6.6702 0.0000
# 2 28.0953 72.7942 38.2812 0.0000 1.4765 0.0000
# 3 51.5504 38.2812 140.2344 0.0000 8.0253 0.0000
# 4 0.0000 0.0000 0.0000 20.4385 0.0000 6.3812
# 5 6.6702 1.4765 8.0253 0.0000 44.5803 0.0000
# 6 0.0000 0.0000 0.0000 6.3812 0.0000 24.9296
#
#
#
# Elastic Compliance Matrix: (Units=1/GPa)
#
#
# Indices 1 2 3 4 5 6 
#
# 1 0.008564 -0.001935 -0.002577 0.000000 -0.000753 0.000000
# 2 -0.001935 0.016480 -0.003812 0.000000 0.000430 0.000000
# 3 -0.002577 -0.003812 0.009184 0.000000 -0.001142 0.000000
# 4 0.000000 0.000000 0.000000 0.053177 0.000000 -0.013612
# 5 -0.000753 0.000430 -0.001142 0.000000 0.022735 0.000000
# 6 0.000000 0.000000 0.000000 -0.013612 0.000000 0.043597
#
#
# Mechanical properties :
#
#
# Convention : Reuss Voigt Hill
#
# Bulk Modulus (GPa) = 56.88084 65.34385 61.11234
# Shear Modulus (GPa) = 28.36945 33.61062 30.99003
#
# Velocity S-wave (km/s) = 3.73820 4.06888 3.90704
# Velocity P-wave (km/s) = 6.83010 7.36622 7.10322
#
# Compressibility (1/GPa) = 0.01758061
#
# Stress axis : x y z
#
# Youngs Moduli (GPa) = 116.76675 60.67907 108.88360
#
# Poissons Ratio (x) = 0.11741 0.28058
# Poissons Ratio (y) = 0.22594 0.41507
# Poissons Ratio (z) = 0.30089 0.23131
#
# Static dielectric constant tensor:
#      x y z
#    x 4.204940 0.000000 -0.156280 
#    y 0.000000 3.458010 0.000000 
#    z -0.156280 0.000000 3.957190 
# 
# 
# High freq. dielectric constant tensor:
#      x y z
#    x 1.816240 0.000000 -0.006820 
#    y 0.000000 1.770980 0.000000 
#    z -0.006820 0.000000 1.801310 
# 
# From -- ./inp_files/25379.got.cif
#   From: 2010.06.25/outbox.cif.g09.slc.cpg/sg15_13_cif.got.tgz:25379.got - 2010.06.28 07:06:18.
