data_PCOD8144440
_publ_section_title
;
Structure prediction by ZEFSAII (Michael W. Deem and Ramdas Pophale) SiO2 
 PCOD8144440
Probable space group: C 2/C
;
_chemical_formula_sum "Si O2"
_cell_formula_units_Z 40
_cell_length_a 20.088965
_cell_length_b 13.779215
_cell_length_c 15.593579
_cell_angle_alpha 90.000000
_cell_angle_beta 154.294684
_cell_angle_gamma 90.000000
_cell_volume 1872.233485
_symmetry_space_group_name_H-M "C 2/C"
_symmetry_group_IT_number 15
_symmetry_cell_setting 'monoclinic'
loop_
_space_group_symop_operation_xyz
x,y,z
-x,y,1/2-z
-x,-y,-z
x,-y,1/2+z
1/2+x,1/2+y,z
1/2-x,1/2+y,1/2-z
1/2-x,1/2-y,-z
1/2+x,1/2-y,1/2+z
loop_
_atom_site_type_symbol
_atom_site_label
_atom_site_fract_x
_atom_site_fract_y
_atom_site_fract_z
Si Si1 0.654933 0.970463 0.383973
Si Si2 0.387738 0.716168 0.434142
Si Si3 0.112356 0.861429 0.742049
Si Si4 0.771025 0.823972 0.388849
Si Si5 0.683604 0.817918 0.850696
O O1 0.500000 0.934427 0.250000
O O2 0.801025 0.954730 0.617535
O O3 0.678720 0.914118 0.322052
O O4 0.635922 0.082844 0.339954
O O5 0.415454 0.632697 0.393493
O O6 0.283293 0.803148 0.272177
O O7 0.542746 0.765674 0.642788
O O8 0.309671 0.663287 0.423677
O O9 0.226182 0.770653 0.893434
O O10 0.951385 0.845658 0.603244
O O11 0.750000 0.750000 0.000000
#
# Coordination Sequence:
#
# PCOD8144440 Si02
#       5
#     8   8   8   8   8
#     4  12  26  42  69 107 141 179 225 290 350 414
#     4  10  22  46  70  97 134 186 228 281 339 412
#     4  10  21  43  70 107 137 177 232 287 347 405
#     4  10  21  42  73 102 143 175 232 284 350 405
#     4  12  26  48  69  96 142 188 233 279 352 417
#
# _framework density 21.364854999999999
#
# number of rings (size 3 to 8) (size 9 to 14) (size 15 to 20)
#    1.200    0.000    2.000    4.200    2.800    4.000 
#    3.600    2.000    0.000    0.000    0.000    0.000 
#    0.000    0.000    0.000    0.000    0.000    0.000 
#
# Total GULP energy -247871.496002 kJ/mol
# GULP energy per Si atom -12393.574800 kJ/mol
# Density = 2.131623 g / cm^3
# Si number density = 21.364855 Si / 1000 Ang^3
#
#
#
# Elastic Constant Matrix: (Units=GPa)
#
#
# Indices 1 2 3 4 5 6 
#
# 1 119.3832 30.0144 37.9717 0.0000 6.7874 0.0000
# 2 30.0144 45.8378 16.7227 -0.0002 -5.4308 -0.0002
# 3 37.9717 16.7227 37.0370 0.0005 -1.8325 0.0006
# 4 0.0000 -0.0002 0.0005 11.4534 -0.0001 15.6142
# 5 6.7874 -5.4308 -1.8325 -0.0001 55.8771 -0.0001
# 6 0.0000 -0.0002 0.0006 15.6142 -0.0001 17.2747
#
#
#
# Elastic Compliance Matrix: (Units=1/GPa)
#
#
# Indices 1 2 3 4 5 6 
#
# 1 0.013470 -0.004827 -0.011754 0.000000 -0.002491 0.000000
# 2 -0.004827 0.028110 -0.007591 0.000001 0.003069 0.000000
# 3 -0.011754 -0.007591 0.042581 0.000000 0.002086 -0.000001
# 4 0.000000 0.000001 0.000000 -0.375948 0.000000 0.339811
# 5 -0.002491 0.003069 0.002086 0.000000 0.018566 0.000000
# 6 0.000000 0.000000 -0.000001 0.339811 0.000000 -0.249259
#
#
# Mechanical properties :
#
#
# Convention : Reuss Voigt Hill
#
# Bulk Modulus (GPa) = 27.91966 41.29729 34.60847
# Shear Modulus (GPa) = -10.81790 24.75763 6.96987
#
# Velocity S-wave (km/s) = -2.25264 3.40781 1.80814
# Velocity P-wave (km/s) = 2.51605 5.90388 4.53797
#
# Compressibility (1/GPa) = 0.03581706
#
# Stress axis : x y z
#
# Youngs Moduli (GPa) = 74.23868 35.57451 23.48467
#
# Poissons Ratio (x) = 0.17173 0.27603
# Poissons Ratio (y) = 0.35837 0.17827
# Poissons Ratio (z) = 0.87258 0.27005
#
# Static dielectric constant tensor:
#      x y z
#    x 3.935770 0.000000 0.045350 
#    y 0.000000 3.504410 0.000000 
#    z 0.045350 0.000000 3.853990 
# 
# 
# High freq. dielectric constant tensor:
#      x y z
#    x 1.858100 0.000000 0.004070 
#    y 0.000000 1.805330 0.000000 
#    z 0.004070 0.000000 1.847130 
# 
# From -- ./inp_files/215825.got.cif
#   From: 2010.06.25/outbox.cif.g09.slc.cpg/sg15_108_cif.got.tgz:215825.got - 2010.06.28 07:06:18.
