data_PCOD8144716
_publ_section_title
;
Structure prediction by ZEFSAII (Michael W. Deem and Ramdas Pophale) SiO2 
 PCOD8144716
Probable space group: C 2/C
;
_chemical_formula_sum "Si O2"
_cell_formula_units_Z 56
_cell_length_a 14.520437
_cell_length_b 10.936480
_cell_length_c 17.974099
_cell_angle_alpha 90.000000
_cell_angle_beta 72.005643
_cell_angle_gamma 90.000000
_cell_volume 2714.717237
_symmetry_space_group_name_H-M "C 2/C"
_symmetry_group_IT_number 15
_symmetry_cell_setting 'monoclinic'
loop_
_space_group_symop_operation_xyz
x,y,z
-x,y,1/2-z
-x,-y,-z
x,-y,1/2+z
1/2+x,1/2+y,z
1/2-x,1/2+y,1/2-z
1/2-x,1/2-y,-z
1/2+x,1/2-y,1/2+z
loop_
_atom_site_type_symbol
_atom_site_label
_atom_site_fract_x
_atom_site_fract_y
_atom_site_fract_z
Si Si1 0.209468 0.501574 0.345611
Si Si2 0.629933 0.217732 0.455367
Si Si3 0.725970 0.613700 0.523862
Si Si4 0.700471 0.895025 0.076529
Si Si5 0.591716 0.562885 0.278935
Si Si6 0.895795 0.343838 0.245369
Si Si7 0.996888 0.085332 0.931551
O O1 0.173671 0.635887 0.378055
O O2 0.215979 0.419484 0.416813
O O3 0.313061 0.507197 0.280932
O O4 0.131381 0.440859 0.310800
O O5 0.616583 0.141220 0.536386
O O6 0.701197 0.323630 0.464642
O O7 0.532724 0.278925 0.446872
O O8 0.750000 0.750000 0.500000
O O9 0.768068 0.535610 0.443837
O O10 0.612499 0.595318 0.569982
O O11 0.673751 0.862093 0.166936
O O12 0.500000 0.546960 0.250000
O O13 0.608610 0.707758 0.289047
O O14 0.569701 0.480897 0.356224
O O15 0.000000 0.378688 0.250000
O O16 0.000000 0.000000 0.000000
#
# Coordination Sequence:
#
# PCOD8144716 Si02
#       7
#     8   8   8   8   8   8   8
#     4  11  24  45  65 100 136 178 218 281 340 386
#     4  10  22  40  70  95 137 173 224 270 337 400
#     4  11  26  44  68  99 137 176 221 281 339 400
#     4  10  21  44  66  96 131 182 221 270 334 409
#     4  11  24  43  67  98 134 173 230 276 329 410
#     4  11  26  41  70  97 133 179 229 275 337 404
#     4  12  25  41  69 103 128 177 231 276 331 404
#
# _framework density 20.628298999999998
#
# number of rings (size 3 to 8) (size 9 to 14) (size 15 to 20)
#    0.000    1.143    4.286    0.857    6.000    1.143 
#    0.000    3.571    0.000    0.000    0.000    0.000 
#    0.000    0.000    0.000    0.000    0.000    0.000 
#
# Total GULP energy -347095.075741 kJ/mol
# GULP energy per Si atom -12396.252705 kJ/mol
# Density = 2.058135 g / cm^3
# Si number density = 20.628299 Si / 1000 Ang^3
#
#
#
# Elastic Constant Matrix: (Units=GPa)
#
#
# Indices 1 2 3 4 5 6 
#
# 1 74.9411 42.4726 14.9724 0.0000 7.5675 0.0000
# 2 42.4726 143.0630 46.0715 0.0000 3.4902 0.0000
# 3 14.9724 46.0715 81.9833 0.0000 4.1506 0.0000
# 4 0.0000 0.0000 0.0000 33.3141 0.0000 1.6964
# 5 7.5675 3.4902 4.1506 0.0000 29.0595 0.0000
# 6 0.0000 0.0000 0.0000 1.6964 0.0000 40.1676
#
#
#
# Elastic Compliance Matrix: (Units=1/GPa)
#
#
# Indices 1 2 3 4 5 6 
#
# 1 0.016433 -0.004740 -0.000151 0.000000 -0.003688 0.000000
# 2 -0.004740 0.009905 -0.004737 0.000000 0.000721 0.000000
# 3 -0.000151 -0.004737 0.014965 0.000000 -0.001529 0.000000
# 4 0.000000 0.000000 0.000000 0.030082 0.000000 -0.001270
# 5 -0.003688 0.000721 -0.001529 0.000000 0.035504 0.000000
# 6 0.000000 0.000000 0.000000 -0.001270 0.000000 0.024949
#
#
# Mechanical properties :
#
#
# Convention : Reuss Voigt Hill
#
# Bulk Modulus (GPa) = 45.35791 56.33560 50.84675
# Shear Modulus (GPa) = 31.55711 33.60630 32.58170
#
# Velocity S-wave (km/s) = 3.91550 4.04063 3.97856
# Velocity P-wave (km/s) = 6.51748 7.00986 6.76815
#
# Compressibility (1/GPa) = 0.02204687
#
# Stress axis : x y z
#
# Youngs Moduli (GPa) = 60.85400 100.95806 66.82424
#
# Poissons Ratio (x) = 0.47855 0.01006
# Poissons Ratio (y) = 0.28845 0.31656
# Poissons Ratio (z) = 0.00916 0.47825
#
# Static dielectric constant tensor:
#      x y z
#    x 3.500630 0.000000 0.216970 
#    y 0.000000 3.623740 0.000000 
#    z 0.216970 0.000000 3.448590 
# 
# 
# High freq. dielectric constant tensor:
#      x y z
#    x 1.807570 0.000000 0.004820 
#    y 0.000000 1.810250 0.000000 
#    z 0.004820 0.000000 1.809950 
# 
# From -- ./inp_files/209518.got.cif
#   From: 2010.06.25/outbox.cif.g09.slc.cpg/sg15_105_cif.got.tgz:209518.got - 2010.06.28 07:06:18.
