data_PCOD8144393
_publ_section_title
;
Structure prediction by ZEFSAII (Michael W. Deem and Ramdas Pophale) SiO2 
 PCOD8144393
Probable space group: C 2/C
;
_chemical_formula_sum "Si O2"
_cell_formula_units_Z 56
_cell_length_a 18.868762
_cell_length_b 11.881229
_cell_length_c 13.991727
_cell_angle_alpha 90.000000
_cell_angle_beta 53.511472
_cell_angle_gamma 90.000000
_cell_volume 2521.849409
_symmetry_space_group_name_H-M "C 2/C"
_symmetry_group_IT_number 15
_symmetry_cell_setting 'monoclinic'
loop_
_space_group_symop_operation_xyz
x,y,z
-x,y,1/2-z
-x,-y,-z
x,-y,1/2+z
1/2+x,1/2+y,z
1/2-x,1/2+y,1/2-z
1/2-x,1/2-y,-z
1/2+x,1/2-y,1/2+z
loop_
_atom_site_type_symbol
_atom_site_label
_atom_site_fract_x
_atom_site_fract_y
_atom_site_fract_z
Si Si1 0.895654 0.659238 0.066591
Si Si2 0.274887 0.046410 0.020276
Si Si3 0.083699 0.925947 0.749137
Si Si4 0.280393 0.199202 0.574641
Si Si5 0.853253 0.879981 0.186151
Si Si6 0.915351 0.281176 0.112204
Si Si7 0.693395 0.980419 0.225245
O O1 0.900708 0.795701 0.075286
O O2 0.859108 0.584152 0.184195
O O3 0.840785 0.638720 0.012871
O O4 0.999454 0.637983 0.968234
O O5 0.301445 0.008672 0.892911
O O6 0.173803 0.087356 0.114555
O O7 0.292368 0.935392 0.068015
O O8 0.072551 0.831188 0.837841
O O9 0.000000 0.915029 0.750000
O O10 0.079359 0.049249 0.802259
O O11 0.250000 0.250000 0.500000
O O12 0.199659 0.216287 0.711667
O O13 0.371119 0.251709 0.544155
O O14 0.793553 0.976092 0.183536
O O15 0.846544 0.358503 0.223335
#
# Coordination Sequence:
#
# PCOD8144393 Si02
#       7
#     8   8   8   8   8   8   8
#     4  12  24  46  69 106 141 188 241 294 366 423
#     4  11  24  42  73 100 137 186 239 289 359 437
#     4  11  26  47  67 105 142 184 240 291 360 440
#     4  10  21  42  69  99 134 188 236 284 355 425
#     4  10  24  43  68  95 140 183 232 291 352 431
#     4  11  26  43  70 104 148 180 238 305 349 429
#     4  11  24  44  72  99 142 186 234 299 356 427
#
# _framework density 22.205926000000002
#
# number of rings (size 3 to 8) (size 9 to 14) (size 15 to 20)
#    0.000    1.143    4.286    3.000    6.000    4.000 
#    0.000    1.429    0.000    0.000    0.000    0.000 
#    0.000    0.000    0.000    0.000    0.000    0.000 
#
# Total GULP energy -346982.162033 kJ/mol
# GULP energy per Si atom -12392.220073 kJ/mol
# Density = 2.215538 g / cm^3
# Si number density = 22.205926 Si / 1000 Ang^3
#
#
#
# Elastic Constant Matrix: (Units=GPa)
#
#
# Indices 1 2 3 4 5 6 
#
# 1 187.6239 43.8195 52.3007 0.0000 7.4375 0.0000
# 2 43.8195 88.0215 20.5004 0.0000 1.9119 0.0000
# 3 52.3007 20.5004 90.4461 0.0000 9.6814 0.0000
# 4 0.0000 0.0000 0.0000 33.2244 0.0000 1.8856
# 5 7.4375 1.9119 9.6814 0.0000 27.3557 0.0000
# 6 0.0000 0.0000 0.0000 1.8856 0.0000 29.3212
#
#
#
# Elastic Compliance Matrix: (Units=1/GPa)
#
#
# Indices 1 2 3 4 5 6 
#
# 1 0.006897 -0.002646 -0.003334 0.000000 -0.000510 0.000000
# 2 -0.002646 0.013010 -0.001453 0.000000 0.000325 0.000000
# 3 -0.003334 -0.001453 0.013726 0.000000 -0.003850 0.000000
# 4 0.000000 0.000000 0.000000 0.030209 0.000000 -0.001943
# 5 -0.000510 0.000325 -0.003850 0.000000 0.038034 0.000000
# 6 0.000000 0.000000 0.000000 -0.001943 0.000000 0.034230
#
#
# Mechanical properties :
#
#
# Convention : Reuss Voigt Hill
#
# Bulk Modulus (GPa) = 53.28878 66.59253 59.94066
# Shear Modulus (GPa) = 31.80107 34.61167 33.20637
#
# Velocity S-wave (km/s) = 3.78841 3.95228 3.87121
# Velocity P-wave (km/s) = 6.57159 7.13310 6.85809
#
# Compressibility (1/GPa) = 0.01876568
#
# Stress axis : x y z
#
# Youngs Moduli (GPa) = 144.98163 76.86625 72.85598
#
# Poissons Ratio (x) = 0.20340 0.24291
# Poissons Ratio (y) = 0.38364 0.10588
# Poissons Ratio (z) = 0.48338 0.11171
#
# Static dielectric constant tensor:
#      x y z
#    x 4.080240 0.000000 0.012100 
#    y 0.000000 3.925830 0.000000 
#    z 0.012100 0.000000 4.152180 
# 
# 
# High freq. dielectric constant tensor:
#      x y z
#    x 1.876370 0.000000 0.005050 
#    y 0.000000 1.880950 0.000000 
#    z 0.005050 0.000000 1.870200 
# 
# From -- ./inp_files/161241.got.cif
#   From: 2010.06.25/outbox.cif.g09.slc.cpg/sg15_81_cif.got.tgz:161241.got - 2010.06.28 07:06:18.
