data_PCOD8144901
_publ_section_title
;
Structure prediction by ZEFSAII (Michael W. Deem and Ramdas Pophale) SiO2 
 PCOD8144901
Probable space group: C 2/C
;
_chemical_formula_sum "Si O2"
_cell_formula_units_Z 60
_cell_length_a 20.026375
_cell_length_b 14.151601
_cell_length_c 14.504834
_cell_angle_alpha 90.000000
_cell_angle_beta 44.149524
_cell_angle_gamma 90.000000
_cell_volume 2863.271548
_symmetry_space_group_name_H-M "C 2/C"
_symmetry_group_IT_number 15
_symmetry_cell_setting 'monoclinic'
loop_
_space_group_symop_operation_xyz
x,y,z
-x,y,1/2-z
-x,-y,-z
x,-y,1/2+z
1/2+x,1/2+y,z
1/2-x,1/2+y,1/2-z
1/2-x,1/2-y,-z
1/2+x,1/2-y,1/2+z
loop_
_atom_site_type_symbol
_atom_site_label
_atom_site_fract_x
_atom_site_fract_y
_atom_site_fract_z
Si Si1 0.373265 0.315553 0.122334
Si Si2 0.248070 0.015060 0.827560
Si Si3 0.705674 0.008822 0.018461
Si Si4 0.000000 0.540246 0.750000
Si Si5 0.918464 0.776112 0.569079
Si Si6 0.955682 0.584250 0.601757
Si Si7 0.732512 0.208175 0.918558
Si Si8 0.240938 0.353248 0.833684
O O1 0.336466 0.416840 0.122720
O O2 0.326898 0.280811 0.263893
O O3 0.341537 0.228493 0.085540
O O4 0.486071 0.340420 0.027772
O O5 0.342854 0.077212 0.727630
O O6 0.260932 0.921248 0.754066
O O7 0.228966 0.986226 0.953868
O O8 0.728354 0.912322 0.940413
O O9 0.718348 0.095505 0.936548
O O10 0.596403 0.020838 0.162402
O O11 0.990874 0.599283 0.853437
O O12 0.973549 0.677805 0.527840
O O13 0.857358 0.765496 0.535689
O O14 0.847318 0.805435 0.723519
O O15 0.000000 0.500000 0.500000
O O16 0.750000 0.250000 0.000000
#
# Coordination Sequence:
#
# PCOD8144901 Si02
#       8
#     8   8   8   4   8   8   8   8
#     4  11  23  42  65  93 132 176 217 275 331 406
#     4  11  22  41  63  93 132 173 215 270 342 391
#     4  11  22  39  64  93 132 170 213 281 332 388
#     4  10  22  32  62 100 116 160 218 262 324 390
#     4  11  23  40  66  94 127 177 216 269 341 398
#     4  11  20  39  63  92 128 163 218 274 329 382
#     4  11  23  42  64  97 130 168 225 279 333 393
#     4  11  22  43  65  93 130 170 219 275 330 397
#
# _framework density 20.95505
#
# number of rings (size 3 to 8) (size 9 to 14) (size 15 to 20)
#    0.000    1.067    4.000    4.800    0.000    4.800 
#    2.400    0.000    0.000    0.000    0.000    0.000 
#    0.000    0.000    0.000    0.000    0.000    0.000 
#
# Total GULP energy -371720.022595 kJ/mol
# GULP energy per Si atom -12390.667420 kJ/mol
# Density = 2.090736 g / cm^3
# Si number density = 20.955050 Si / 1000 Ang^3
#
#
#
# Elastic Constant Matrix: (Units=GPa)
#
#
# Indices 1 2 3 4 5 6 
#
# 1 107.9527 11.2775 45.4389 0.0000 -7.0916 0.0000
# 2 11.2775 67.0605 5.9622 0.0000 -3.6743 0.0000
# 3 45.4389 5.9622 78.7400 0.0000 -8.4694 0.0000
# 4 0.0000 0.0000 0.0000 32.8482 0.0000 4.6501
# 5 -7.0916 -3.6743 -8.4694 0.0000 47.4149 0.0000
# 6 0.0000 0.0000 0.0000 4.6501 0.0000 35.5358
#
#
#
# Elastic Compliance Matrix: (Units=1/GPa)
#
#
# Indices 1 2 3 4 5 6 
#
# 1 0.012386 -0.001435 -0.006986 0.000000 0.000493 0.000000
# 2 -0.001435 0.015224 -0.000225 0.000000 0.000925 0.000000
# 3 -0.006986 -0.000225 0.016960 0.000000 0.001967 0.000000
# 4 0.000000 0.000000 0.000000 0.031018 0.000000 -0.004059
# 5 0.000493 0.000925 0.001967 0.000000 0.021587 0.000000
# 6 0.000000 0.000000 0.000000 -0.004059 0.000000 0.028672
#
#
# Mechanical properties :
#
#
# Convention : Reuss Voigt Hill
#
# Bulk Modulus (GPa) = 36.65960 42.12338 39.39149
# Shear Modulus (GPa) = 32.84466 35.89809 34.37138
#
# Velocity S-wave (km/s) = 3.96332 4.14345 4.05439
# Velocity P-wave (km/s) = 6.20292 6.56021 6.38406
#
# Compressibility (1/GPa) = 0.02727798
#
# Stress axis : x y z
#
# Youngs Moduli (GPa) = 80.73536 65.68615 58.96178
#
# Poissons Ratio (x) = 0.09425 0.41191
# Poissons Ratio (y) = 0.11584 0.01328
# Poissons Ratio (z) = 0.56402 0.01480
#
# Static dielectric constant tensor:
#      x y z
#    x 4.074330 0.000000 -0.158120 
#    y 0.000000 3.910690 0.000000 
#    z -0.158120 0.000000 3.999760 
# 
# 
# High freq. dielectric constant tensor:
#      x y z
#    x 1.821720 0.000000 -0.000030 
#    y 0.000000 1.819590 0.000000 
#    z -0.000030 0.000000 1.815570 
# 
# From -- ./inp_files/168605.got.cif
#   From: 2010.06.25/outbox.cif.g09.slc.cpg/sg15_85_cif.got.tgz:168605.got - 2010.06.28 07:06:18.
