data_PCOD8144656
_publ_section_title
;
Structure prediction by ZEFSAII (Michael W. Deem and Ramdas Pophale) SiO2 
 PCOD8144656
Probable space group: C 2/C
;
_chemical_formula_sum "Si O2"
_cell_formula_units_Z 36
_cell_length_a 10.534320
_cell_length_b 27.420536
_cell_length_c 7.670631
_cell_angle_alpha 90.000000
_cell_angle_beta 135.055964
_cell_angle_gamma 90.000000
_cell_volume 1565.214728
_symmetry_space_group_name_H-M "C 2/C"
_symmetry_group_IT_number 15
_symmetry_cell_setting 'monoclinic'
loop_
_space_group_symop_operation_xyz
x,y,z
-x,y,1/2-z
-x,-y,-z
x,-y,1/2+z
1/2+x,1/2+y,z
1/2-x,1/2+y,1/2-z
1/2-x,1/2-y,-z
1/2+x,1/2-y,1/2+z
loop_
_atom_site_type_symbol
_atom_site_label
_atom_site_fract_x
_atom_site_fract_y
_atom_site_fract_z
Si Si1 0.448683 0.054171 0.897188
Si Si2 0.098469 0.894002 0.009605
Si Si3 0.000000 0.620873 0.250000
Si Si4 0.652331 0.336171 0.510145
Si Si5 0.793576 0.694407 0.511286
O O1 0.500000 0.066953 0.750000
O O2 0.238396 0.065841 0.716190
O O3 0.553645 0.089600 0.131282
O O4 0.500000 0.000000 0.000000
O O5 0.180091 0.842244 0.021137
O O6 0.000000 0.919248 0.750000
O O7 0.958227 0.883515 0.028222
O O8 0.183249 0.651121 0.463178
O O9 0.743293 0.308994 0.758889
O O10 0.500000 0.305880 0.250000
O O11 0.750000 0.750000 0.500000
O O12 0.000000 0.682006 0.750000
#
# Coordination Sequence:
#
# PCOD8144656 Si02
#       5
#     8   8   4   8   8
#     4  12  24  43  69 102 142 187 240 301 360 435
#     4  10  21  43  71  99 138 189 240 294 373 437
#     4  12  24  46  74 106 144 186 244 308 372 432
#     4  11  23  42  75 104 140 187 243 300 366 440
#     4  11  23  44  73 106 145 193 242 298 370 448
#
# _framework density 23.000039999999998
#
# number of rings (size 3 to 8) (size 9 to 14) (size 15 to 20)
#    0.000    0.889    3.333    6.667    0.000    0.000 
#    0.000   10.000    2.444    0.000    0.000    0.000 
#    0.000    0.000    0.000    0.000    0.000    0.000 
#
# Total GULP energy -223081.253879 kJ/mol
# GULP energy per Si atom -12393.402993 kJ/mol
# Density = 2.294769 g / cm^3
# Si number density = 23.000040 Si / 1000 Ang^3
#
#
#
# Elastic Constant Matrix: (Units=GPa)
#
#
# Indices 1 2 3 4 5 6 
#
# 1 121.2776 28.1349 45.2122 0.0000 5.7248 0.0000
# 2 28.1349 98.4481 46.0115 0.0000 8.3575 0.0000
# 3 45.2122 46.0115 188.6178 0.0000 6.1351 0.0000
# 4 0.0000 0.0000 0.0000 36.8602 0.0000 0.5784
# 5 5.7248 8.3575 6.1351 0.0000 55.8832 0.0000
# 6 0.0000 0.0000 0.0000 0.5784 0.0000 20.2119
#
#
#
# Elastic Compliance Matrix: (Units=1/GPa)
#
#
# Indices 1 2 3 4 5 6 
#
# 1 0.009352 -0.001795 -0.001788 0.000000 -0.000493 0.000000
# 2 -0.001795 0.011922 -0.002435 0.000000 -0.001332 0.000000
# 3 -0.001788 -0.002435 0.006329 0.000000 -0.000148 0.000000
# 4 0.000000 0.000000 0.000000 0.027142 0.000000 -0.000777
# 5 -0.000493 -0.001332 -0.000148 0.000000 0.018160 0.000000
# 6 0.000000 0.000000 0.000000 -0.000777 0.000000 0.049498
#
#
# Mechanical properties :
#
#
# Convention : Reuss Voigt Hill
#
# Bulk Modulus (GPa) = 64.23671 71.89562 68.06616
# Shear Modulus (GPa) = 35.80989 41.85672 38.83330
#
# Velocity S-wave (km/s) = 3.95010 4.27060 4.11347
# Velocity P-wave (km/s) = 6.98527 7.45950 7.22628
#
# Compressibility (1/GPa) = 0.01556742
#
# Stress axis : x y z
#
# Youngs Moduli (GPa) = 106.93208 83.88174 158.00504
#
# Poissons Ratio (x) = 0.15058 0.28246
# Poissons Ratio (y) = 0.19196 0.38467
# Poissons Ratio (z) = 0.19116 0.20421
#
# Static dielectric constant tensor:
#      x y z
#    x 4.379850 0.000000 0.304670 
#    y 0.000000 3.673330 0.000000 
#    z 0.304670 0.000000 5.757350 
# 
# 
# High freq. dielectric constant tensor:
#      x y z
#    x 1.915560 0.000000 -0.002970 
#    y 0.000000 1.859740 0.000000 
#    z -0.002970 0.000000 1.951300 
# 
# From -- ./inp_files/34917.got.cif
#   From: 2010.06.25/outbox.cif.g09.slc.cpg/sg15_18_cif.got.tgz:34917.got - 2010.06.28 07:06:18.
