data_PCOD8144735
_publ_section_title
;
Structure prediction by ZEFSAII (Michael W. Deem and Ramdas Pophale) SiO2 
 PCOD8144735
Probable space group: C 2/C
;
_chemical_formula_sum "Si O2"
_cell_formula_units_Z 52
_cell_length_a 18.879281
_cell_length_b 11.508631
_cell_length_c 12.628794
_cell_angle_alpha 90.000000
_cell_angle_beta 122.272415
_cell_angle_gamma 90.000000
_cell_volume 2320.034087
_symmetry_space_group_name_H-M "C 2/C"
_symmetry_group_IT_number 15
_symmetry_cell_setting 'monoclinic'
loop_
_space_group_symop_operation_xyz
x,y,z
-x,y,1/2-z
-x,-y,-z
x,-y,1/2+z
1/2+x,1/2+y,z
1/2-x,1/2+y,1/2-z
1/2-x,1/2-y,-z
1/2+x,1/2-y,1/2+z
loop_
_atom_site_type_symbol
_atom_site_label
_atom_site_fract_x
_atom_site_fract_y
_atom_site_fract_z
Si Si1 0.000000 0.419349 0.750000
Si Si2 0.080234 0.936056 0.673277
Si Si3 0.193268 0.006501 0.456016
Si Si4 0.410515 0.364333 0.476426
Si Si5 0.638663 0.968527 0.017288
Si Si6 0.311079 0.703641 0.403773
Si Si7 0.372944 0.848807 0.819490
O O1 0.944086 0.492029 0.620638
O O2 0.935624 0.344409 0.769556
O O3 0.123382 0.957396 0.818058
O O4 0.132066 0.846840 0.643311
O O5 0.988152 0.882158 0.618757
O O6 0.071077 0.062450 0.614134
O O7 0.177358 0.092182 0.542951
O O8 0.285292 0.029567 0.484340
O O9 0.180893 0.873017 0.482970
O O10 0.405861 0.230683 0.440992
O O11 0.657706 0.832513 0.045743
O O12 0.631472 0.023587 0.129416
O O13 0.215135 0.700351 0.290454
#
# Coordination Sequence:
#
# PCOD8144735 Si02
#       7
#     4   8   8   8   8   8   8
#     4  12  28  46  70 100 138 198 232 286 350 426
#     4  10  21  44  68 104 144 178 235 296 350 408
#     4  11  22  43  72 105 136 187 230 292 358 408
#     4  10  24  42  68 108 142 181 234 292 351 418
#     4  12  26  47  72 106 143 187 240 286 355 431
#     4  11  24  43  75 103 137 186 240 291 346 426
#     4  12  26  48  71 103 145 186 240 292 352 424
#
# _framework density 22.413464000000001
#
# number of rings (size 3 to 8) (size 9 to 14) (size 15 to 20)
#    0.000    0.923    3.077    3.231    4.308    0.615 
#    5.538    0.000    0.000    0.000    0.000    0.000 
#    0.000    0.000    0.000    0.000    0.000    0.000 
#
# Total GULP energy -322374.991701 kJ/mol
# GULP energy per Si atom -12399.038142 kJ/mol
# Density = 2.236245 g / cm^3
# Si number density = 22.413464 Si / 1000 Ang^3
#
#
#
# Elastic Constant Matrix: (Units=GPa)
#
#
# Indices 1 2 3 4 5 6 
#
# 1 129.0984 39.3474 31.0191 0.0000 5.7488 0.0000
# 2 39.3474 73.7997 20.7857 0.0000 -8.9928 0.0000
# 3 31.0191 20.7857 85.7758 0.0000 3.0142 0.0000
# 4 0.0000 0.0000 0.0000 23.5923 0.0000 -1.6910
# 5 5.7488 -8.9928 3.0142 0.0000 31.3922 0.0000
# 6 0.0000 0.0000 0.0000 -1.6910 0.0000 9.5668
#
#
#
# Elastic Compliance Matrix: (Units=1/GPa)
#
#
# Indices 1 2 3 4 5 6 
#
# 1 0.009966 -0.005045 -0.002274 0.000000 -0.003052 0.000000
# 2 -0.005045 0.017765 -0.002701 0.000000 0.006272 0.000000
# 3 -0.002274 -0.002701 0.013192 0.000000 -0.001624 0.000000
# 4 0.000000 0.000000 0.000000 0.042931 0.000000 0.007588
# 5 -0.003052 0.006272 -0.001624 0.000000 0.034367 0.000000
# 6 0.000000 0.000000 0.000000 0.007588 0.000000 0.105869
#
#
# Mechanical properties :
#
#
# Convention : Reuss Voigt Hill
#
# Bulk Modulus (GPa) = 47.88554 52.33093 50.10824
# Shear Modulus (GPa) = 19.91311 26.07838 22.99574
#
# Velocity S-wave (km/s) = 2.98391 3.41473 3.20657
# Velocity P-wave (km/s) = 5.76911 6.24066 6.00951
#
# Compressibility (1/GPa) = 0.02088313
#
# Stress axis : x y z
#
# Youngs Moduli (GPa) = 100.34148 56.29062 75.80167
#
# Poissons Ratio (x) = 0.28398 0.17239
# Poissons Ratio (y) = 0.50621 0.20474
# Poissons Ratio (z) = 0.22820 0.15204
#
# Static dielectric constant tensor:
#      x y z
#    x 4.343310 0.000000 0.095900 
#    y 0.000000 3.828940 0.000000 
#    z 0.095900 0.000000 4.125500 
# 
# 
# High freq. dielectric constant tensor:
#      x y z
#    x 1.902700 0.000000 0.001440 
#    y 0.000000 1.861740 0.000000 
#    z 0.001440 0.000000 1.891110 
# 
# From -- ./inp_files/111757.got.cif
#   From: 2010.06.25/outbox.cif.g09.slc.cpg/sg15_56_cif.got.tgz:111757.got - 2010.06.28 07:06:18.
