data_PCOD8144783
_publ_section_title
;
Structure prediction by ZEFSAII (Michael W. Deem and Ramdas Pophale) SiO2 
 PCOD8144783
Probable space group: C 2/C
;
_chemical_formula_sum "Si O2"
_cell_formula_units_Z 64
_cell_length_a 9.472513
_cell_length_b 15.953194
_cell_length_c 29.971104
_cell_angle_alpha 90.000000
_cell_angle_beta 40.447744
_cell_angle_gamma 90.000000
_cell_volume 2938.297858
_symmetry_space_group_name_H-M "C 2/C"
_symmetry_group_IT_number 15
_symmetry_cell_setting 'monoclinic'
loop_
_space_group_symop_operation_xyz
x,y,z
-x,y,1/2-z
-x,-y,-z
x,-y,1/2+z
1/2+x,1/2+y,z
1/2-x,1/2+y,1/2-z
1/2-x,1/2-y,-z
1/2+x,1/2-y,1/2+z
loop_
_atom_site_type_symbol
_atom_site_label
_atom_site_fract_x
_atom_site_fract_y
_atom_site_fract_z
Si Si1 0.445946 0.062154 0.215138
Si Si2 0.868854 0.119295 0.495410
Si Si3 0.632437 0.692818 0.156453
Si Si4 0.147995 0.037052 0.904958
Si Si5 0.828813 0.274535 0.699916
Si Si6 0.609711 0.628076 0.608731
Si Si7 0.434691 0.802478 0.499493
Si Si8 0.019112 0.992084 0.695377
O O1 0.500000 0.102797 0.250000
O O2 0.455536 0.137433 0.176831
O O3 0.213082 0.017585 0.272435
O O4 0.608390 0.985835 0.166911
O O5 0.822604 0.083703 0.555361
O O6 0.649118 0.135355 0.519552
O O7 0.989087 0.209428 0.468185
O O8 0.016315 0.050304 0.435667
O O9 0.382390 0.726642 0.216440
O O10 0.763500 0.737986 0.164050
O O11 0.642311 0.595814 0.167699
O O12 0.745835 0.707828 0.081942
O O13 0.034417 0.101538 0.898774
O O14 0.989501 0.196853 0.669024
O O15 0.660400 0.552441 0.630225
O O16 0.841525 0.660912 0.534425
O O17 0.000000 0.028122 0.750000
#
# Coordination Sequence:
#
# PCOD8144783 Si02
#       8
#     8   8   8   8   8   8   8   8
#     4  11  22  41  69  94 131 173 216 279 330 395
#     4  10  25  45  64  96 131 177 219 273 331 397
#     4  10  21  44  72  92 127 183 222 271 330 404
#     4  11  24  43  68  94 133 175 225 270 332 395
#     4  10  23  42  68  98 130 171 226 270 335 397
#     4  12  26  42  66 105 133 173 225 279 332 402
#     4  11  25  44  68  96 137 173 224 278 337 394
#     4  11  23  43  64 100 134 174 222 277 336 398
#
# _framework density 21.781316
#
# number of rings (size 3 to 8) (size 9 to 14) (size 15 to 20)
#    0.000    1.250    3.750    2.250    3.500    9.500 
#    2.250    0.000    0.000    0.000    0.000    0.000 
#    0.000    0.000    0.000    0.000    0.000    0.000 
#
# Total GULP energy -396770.968028 kJ/mol
# GULP energy per Si atom -12399.092751 kJ/mol
# Density = 2.173174 g / cm^3
# Si number density = 21.781316 Si / 1000 Ang^3
#
#
#
# Elastic Constant Matrix: (Units=GPa)
#
#
# Indices 1 2 3 4 5 6 
#
# 1 98.3633 32.5208 35.0560 -0.0003 -3.0207 0.0011
# 2 32.5208 93.4992 46.1001 0.0015 -10.1701 0.0006
# 3 35.0560 46.1001 99.9641 0.0025 -1.9513 -0.0023
# 4 -0.0003 0.0015 0.0025 25.7518 -0.0028 -1.3626
# 5 -3.0207 -10.1701 -1.9513 -0.0028 28.6604 -0.0008
# 6 0.0011 0.0006 -0.0023 -1.3626 -0.0008 34.8385
#
#
#
# Elastic Compliance Matrix: (Units=1/GPa)
#
#
# Indices 1 2 3 4 5 6 
#
# 1 0.012141 -0.002735 -0.002994 0.000001 0.000105 0.000000
# 2 -0.002735 0.015059 -0.005895 0.000000 0.004654 0.000000
# 3 -0.002994 -0.005895 0.013743 -0.000001 -0.001472 0.000001
# 4 0.000001 0.000000 -0.000001 0.038913 0.000004 0.001522
# 5 0.000105 0.004654 -0.001472 0.000004 0.036454 0.000001
# 6 0.000000 0.000000 0.000001 0.001522 0.000001 0.028763
#
#
# Mechanical properties :
#
#
# Convention : Reuss Voigt Hill
#
# Bulk Modulus (GPa) = 56.51217 57.68672 57.09945
# Shear Modulus (GPa) = 28.69925 29.72680 29.21303
#
# Velocity S-wave (km/s) = 3.63383 3.69831 3.66621
# Velocity P-wave (km/s) = 6.60362 6.69168 6.64780
#
# Compressibility (1/GPa) = 0.01769530
#
# Stress axis : x y z
#
# Youngs Moduli (GPa) = 82.36522 66.40414 72.76211
#
# Poissons Ratio (x) = 0.18162 0.21787
# Poissons Ratio (y) = 0.22528 0.42892
# Poissons Ratio (z) = 0.24663 0.39144
#
# Static dielectric constant tensor:
#      x y z
#    x 3.914100 -0.000010 -0.012040 
#    y -0.000010 3.983810 0.000000 
#    z -0.012040 0.000000 3.756010 
# 
# 
# High freq. dielectric constant tensor:
#      x y z
#    x 1.860670 0.000000 0.001890 
#    y 0.000000 1.863190 0.000000 
#    z 0.001890 0.000000 1.843900 
# 
# From -- ./inp_files/308747.got.cif
#   From: 2010.06.25/outbox.cif.g09.slc.cpg/sg15_155_cif.got.tgz:308747.got - 2010.06.28 07:06:18.
