data_PCOD8144947
_publ_section_title
;
Structure prediction by ZEFSAII (Michael W. Deem and Ramdas Pophale) SiO2 
 PCOD8144947
Probable space group: C 2/C
;
_chemical_formula_sum "Si O2"
_cell_formula_units_Z 52
_cell_length_a 11.101451
_cell_length_b 25.596133
_cell_length_c 9.095375
_cell_angle_alpha 90.000000
_cell_angle_beta 86.697972
_cell_angle_gamma 90.000000
_cell_volume 2580.198331
_symmetry_space_group_name_H-M "C 2/C"
_symmetry_group_IT_number 15
_symmetry_cell_setting 'monoclinic'
loop_
_space_group_symop_operation_xyz
x,y,z
-x,y,1/2-z
-x,-y,-z
x,-y,1/2+z
1/2+x,1/2+y,z
1/2-x,1/2+y,1/2-z
1/2-x,1/2-y,-z
1/2+x,1/2-y,1/2+z
loop_
_atom_site_type_symbol
_atom_site_label
_atom_site_fract_x
_atom_site_fract_y
_atom_site_fract_z
Si Si1 0.169780 0.175414 0.606556
Si Si2 0.866516 0.014969 0.052368
Si Si3 0.639867 0.782739 0.205980
Si Si4 0.500000 0.243856 0.250000
Si Si5 0.641534 0.565997 0.733246
Si Si6 0.631193 0.378030 0.798626
Si Si7 0.788191 0.686493 0.101927
O O1 0.294568 0.203595 0.644156
O O2 0.063872 0.217770 0.628891
O O3 0.158924 0.127960 0.725084
O O4 0.166989 0.155129 0.441132
O O5 0.869412 0.060343 0.174822
O O6 0.801991 0.963165 0.126879
O O7 0.798818 0.037838 0.913961
O O8 0.000000 0.000000 0.000000
O O9 0.500000 0.785590 0.250000
O O10 0.677654 0.726394 0.140308
O O11 0.681554 0.822292 0.072387
O O12 0.408266 0.206534 0.172662
O O13 0.500000 0.553930 0.750000
O O14 0.500000 0.360167 0.750000
O O15 0.736793 0.367572 0.671553
#
# Coordination Sequence:
#
# PCOD8144947 Si02
#       7
#     8   8   8   4   8   8   8
#     4  10  22  35  58  81 114 155 194 240 294 339
#     4   9  18  31  51  82 119 149 180 232 294 352
#     4  10  23  40  57  82 113 153 204 246 285 347
#     4  10  22  38  56  82 114 158 202 238 284 350
#     4   9  16  30  50  80 112 147 180 231 287 351
#     4  11  23  35  56  89 122 153 193 238 296 357
#     4  10  24  37  59  82 114 157 198 242 295 338
#
# _framework density 20.153490000000001
#
# number of rings (size 3 to 8) (size 9 to 14) (size 15 to 20)
#    0.000    2.154    0.769    1.846   10.769    2.462 
#    0.000    0.000    0.000    0.000    2.000    3.231 
#    0.000    0.000    0.000    0.000    0.000    0.000 
#
# Total GULP energy -322144.153839 kJ/mol
# GULP energy per Si atom -12390.159763 kJ/mol
# Density = 2.010762 g / cm^3
# Si number density = 20.153490 Si / 1000 Ang^3
#
#
#
# Elastic Constant Matrix: (Units=GPa)
#
#
# Indices 1 2 3 4 5 6 
#
# 1 93.4202 24.7324 35.3481 0.0000 -10.5030 0.0000
# 2 24.7324 62.0666 17.8237 0.0000 -11.5611 0.0000
# 3 35.3481 17.8237 79.4268 0.0000 -8.7362 0.0000
# 4 0.0000 0.0000 0.0000 39.7214 0.0000 0.1602
# 5 -10.5030 -11.5611 -8.7362 0.0000 25.1679 0.0000
# 6 0.0000 0.0000 0.0000 0.1602 0.0000 12.3412
#
#
#
# Elastic Compliance Matrix: (Units=1/GPa)
#
#
# Indices 1 2 3 4 5 6 
#
# 1 0.013855 -0.003620 -0.005095 0.000000 0.002350 0.000000
# 2 -0.003620 0.019376 -0.002001 0.000000 0.006695 0.000000
# 3 -0.005095 -0.002001 0.015566 0.000000 0.002358 0.000000
# 4 0.000000 0.000000 0.000000 0.025177 0.000000 -0.000327
# 5 0.002350 0.006695 0.002358 0.000000 0.044608 0.000000
# 6 0.000000 0.000000 0.000000 -0.000327 0.000000 0.081033
#
#
# Mechanical properties :
#
#
# Convention : Reuss Voigt Hill
#
# Bulk Modulus (GPa) = 36.54239 43.41357 39.97798
# Shear Modulus (GPa) = 21.72328 25.91339 23.81834
#
# Velocity S-wave (km/s) = 3.28669 3.58970 3.44153
# Velocity P-wave (km/s) = 5.70741 6.22651 5.97260
#
# Compressibility (1/GPa) = 0.02736548
#
# Stress axis : x y z
#
# Youngs Moduli (GPa) = 72.17713 51.61062 64.24252
#
# Poissons Ratio (x) = 0.18683 0.32732
# Poissons Ratio (y) = 0.26128 0.12852
# Poissons Ratio (z) = 0.36775 0.10325
#
# Static dielectric constant tensor:
#      x y z
#    x 3.235470 0.000000 0.093360 
#    y 0.000000 3.792470 0.000000 
#    z 0.093360 0.000000 4.169880 
# 
# 
# High freq. dielectric constant tensor:
#      x y z
#    x 1.736700 0.000000 0.010080 
#    y 0.000000 1.783130 0.000000 
#    z 0.010080 0.000000 1.804240 
# 
# From -- ./inp_files/33488.got.cif
#   From: 2010.06.25/outbox.cif.g09.slc.cpg/sg15_17_cif.got.tgz:33488.got - 2010.06.28 07:06:18.
