data_PCOD8144756
_publ_section_title
;
Structure prediction by ZEFSAII (Michael W. Deem and Ramdas Pophale) SiO2 
 PCOD8144756
Probable space group: C 2/C
;
_chemical_formula_sum "Si O2"
_cell_formula_units_Z 48
_cell_length_a 26.438430
_cell_length_b 8.250009
_cell_length_c 21.885827
_cell_angle_alpha 90.000000
_cell_angle_beta 26.433743
_cell_angle_gamma 90.000000
_cell_volume 2125.062592
_symmetry_space_group_name_H-M "C 2/C"
_symmetry_group_IT_number 15
_symmetry_cell_setting 'monoclinic'
loop_
_space_group_symop_operation_xyz
x,y,z
-x,y,1/2-z
-x,-y,-z
x,-y,1/2+z
1/2+x,1/2+y,z
1/2-x,1/2+y,1/2-z
1/2-x,1/2-y,-z
1/2+x,1/2-y,1/2+z
loop_
_atom_site_type_symbol
_atom_site_label
_atom_site_fract_x
_atom_site_fract_y
_atom_site_fract_z
Si Si1 0.250727 0.574560 0.795272
Si Si2 0.355870 0.787651 0.453300
Si Si3 0.006740 0.460566 0.101578
Si Si4 0.667031 0.230111 0.181013
Si Si5 0.686907 0.236537 0.744654
Si Si6 0.802321 0.013305 0.946385
O O1 0.283326 0.713249 0.807972
O O2 0.336408 0.422082 0.709437
O O3 0.260210 0.646469 0.717430
O O4 0.124352 0.506896 0.942892
O O5 0.468760 0.850178 0.365049
O O6 0.256876 0.730370 0.606482
O O7 0.384781 0.630343 0.380868
O O8 0.311020 0.935244 0.460388
O O9 0.944858 0.624886 0.187780
O O10 0.932744 0.354020 0.134782
O O11 0.766481 0.128479 0.041008
O O12 0.632341 0.383071 0.176055
#
# Coordination Sequence:
#
# PCOD8144756 Si02
#       6
#     8   8   8   8   8   8
#     4  11  25  46  68  98 135 173 226 280 338 394
#     4  10  22  45  67  99 132 180 217 281 331 398
#     4  11  23  44  68  99 135 177 226 269 348 390
#     4  11  22  43  69 102 133 178 219 282 329 402
#     4  11  22  44  69  95 133 176 220 284 332 399
#     4  10  21  44  69  94 141 170 223 273 336 392
#
# _framework density 22.587571000000001
#
# number of rings (size 3 to 8) (size 9 to 14) (size 15 to 20)
#    0.000    1.333    5.000    1.500    0.000    2.000 
#    3.000    5.833    0.000    0.000    0.000    0.000 
#    0.000    0.000    0.000    0.000    0.000    0.000 
#
# Total GULP energy -297657.990421 kJ/mol
# GULP energy per Si atom -12402.416268 kJ/mol
# Density = 2.253616 g / cm^3
# Si number density = 22.587571 Si / 1000 Ang^3
#
#
#
# Elastic Constant Matrix: (Units=GPa)
#
#
# Indices 1 2 3 4 5 6 
#
# 1 129.9027 68.8863 10.7654 0.0000 -12.0092 0.0001
# 2 68.8863 150.4052 27.4640 -0.0048 -8.7003 0.0024
# 3 10.7654 27.4640 51.7388 -0.0020 -9.6177 0.0015
# 4 0.0000 -0.0048 -0.0020 36.5350 0.0009 -5.8862
# 5 -12.0092 -8.7003 -9.6177 0.0009 16.1818 -0.0003
# 6 0.0001 0.0024 0.0015 -5.8862 -0.0003 58.2052
#
#
#
# Elastic Compliance Matrix: (Units=1/GPa)
#
#
# Indices 1 2 3 4 5 6 
#
# 1 0.010704 -0.004813 0.001488 -0.000001 0.006240 0.000000
# 2 -0.004813 0.009576 -0.004259 0.000001 -0.000955 0.000000
# 3 0.001488 -0.004259 0.023674 0.000000 0.012885 0.000000
# 4 -0.000001 0.000001 0.000000 0.027824 -0.000001 0.002814
# 5 0.006240 -0.000955 0.012885 -0.000001 0.073574 0.000000
# 6 0.000000 0.000000 0.000000 0.002814 0.000000 0.017465
#
#
# Mechanical properties :
#
#
# Convention : Reuss Voigt Hill
#
# Bulk Modulus (GPa) = 34.74022 60.69755 47.71888
# Shear Modulus (GPa) = 26.65515 37.17982 31.91748
#
# Velocity S-wave (km/s) = 3.43896 4.06153 3.76314
# Velocity P-wave (km/s) = 5.58410 6.99465 6.32880
#
# Compressibility (1/GPa) = 0.02878508
#
# Stress axis : x y z
#
# Youngs Moduli (GPa) = 93.42237 104.43196 42.24004
#
# Poissons Ratio (x) = 0.50265 -0.06284
# Poissons Ratio (y) = 0.44966 0.17990
# Poissons Ratio (z) = -0.13899 0.44477
#
# Static dielectric constant tensor:
#      x y z
#    x 4.324810 0.000000 0.047320 
#    y 0.000000 4.492730 0.000010 
#    z 0.047320 0.000010 3.533410 
# 
# 
# High freq. dielectric constant tensor:
#      x y z
#    x 1.908660 0.000000 0.006130 
#    y 0.000000 1.913560 0.000000 
#    z 0.006130 0.000000 1.851480 
# 
# From -- ./inp_files/281617.got.cif
#   From: 2010.06.25/outbox.cif.g09.slc.cpg/sg15_141_cif.got.tgz:281617.got - 2010.06.28 07:06:18.
