data_PCOD8144049
_publ_section_title
;
Structure prediction by ZEFSAII (Michael W. Deem and Ramdas Pophale) SiO2 
 PCOD8144049
Probable space group: C 2/C
;
_chemical_formula_sum "Si O2"
_cell_formula_units_Z 64
_cell_length_a 15.123453
_cell_length_b 23.072696
_cell_length_c 17.347828
_cell_angle_alpha 90.000000
_cell_angle_beta 28.566192
_cell_angle_gamma 90.000000
_cell_volume 2894.543686
_symmetry_space_group_name_H-M "C 2/C"
_symmetry_group_IT_number 15
_symmetry_cell_setting 'monoclinic'
loop_
_space_group_symop_operation_xyz
x,y,z
-x,y,1/2-z
-x,-y,-z
x,-y,1/2+z
1/2+x,1/2+y,z
1/2-x,1/2+y,1/2-z
1/2-x,1/2-y,-z
1/2+x,1/2-y,1/2+z
loop_
_atom_site_type_symbol
_atom_site_label
_atom_site_fract_x
_atom_site_fract_y
_atom_site_fract_z
Si Si1 0.196077 0.475354 0.375050
Si Si2 0.841317 0.122947 0.655288
Si Si3 0.511371 0.069832 0.154620
Si Si4 0.351594 0.674513 0.305919
Si Si5 0.515732 0.199438 0.153611
Si Si6 0.966114 0.710532 0.638172
Si Si7 0.383871 0.276574 0.550061
Si Si8 0.344463 0.420908 0.683324
O O1 0.248760 0.414818 0.293654
O O2 0.348090 0.524028 0.238504
O O3 0.000000 0.500000 0.500000
O O4 0.171183 0.464718 0.485628
O O5 0.681564 0.159245 0.735022
O O6 0.986905 0.170191 0.575498
O O7 0.952769 0.081391 0.511095
O O8 0.500000 0.043089 0.250000
O O9 0.591773 0.134490 0.100422
O O10 0.314909 0.070178 0.259632
O O11 0.500000 0.644809 0.250000
O O12 0.429434 0.737913 0.225222
O O13 0.316946 0.637042 0.255184
O O14 0.164923 0.681218 0.498358
O O15 0.500000 0.226891 0.250000
O O16 0.651726 0.238067 0.998469
O O17 0.311507 0.199177 0.270531
O O18 0.971914 0.735575 0.547023
#
# Coordination Sequence:
#
# PCOD8144049 Si02
#       8
#     8   8   8   8   8   8   8   8
#     4  10  23  43  68  95 127 176 236 287 344 404
#     4  12  22  38  70  97 130 185 224 275 347 407
#     4  10  21  41  70  97 131 177 225 281 340 402
#     4  12  24  41  66  97 135 175 226 282 345 410
#     4  11  22  35  56  91 142 173 221 267 325 402
#     4  12  21  39  65  95 135 168 222 281 342 419
#     4  12  20  36  59  93 129 182 214 264 334 405
#     4  11  22  45  65  97 136 176 230 284 335 406
#
# _framework density 22.110568000000001
#
# number of rings (size 3 to 8) (size 9 to 14) (size 15 to 20)
#    0.000    0.750    5.000    4.125    0.000    0.000 
#    0.000    4.375    0.000    3.750    0.000    0.000 
#    0.000    0.000    0.000    0.000    0.000    0.000 
#
# Total GULP energy -396680.053778 kJ/mol
# GULP energy per Si atom -12396.251681 kJ/mol
# Density = 2.206024 g / cm^3
# Si number density = 22.110568 Si / 1000 Ang^3
#
#
#
# Elastic Constant Matrix: (Units=GPa)
#
#
# Indices 1 2 3 4 5 6 
#
# 1 99.7380 31.5076 43.0441 -0.0163 13.5592 0.0700
# 2 31.5076 88.7841 47.0495 -0.0113 13.9720 0.0246
# 3 43.0441 47.0495 121.6339 -0.1202 14.6642 0.1461
# 4 -0.0163 -0.0113 -0.1202 55.3226 0.1078 11.1917
# 5 13.5592 13.9720 14.6642 0.1078 38.7751 -0.1007
# 6 0.0700 0.0246 0.1461 11.1917 -0.1007 20.7447
#
#
#
# Elastic Compliance Matrix: (Units=1/GPa)
#
#
# Indices 1 2 3 4 5 6 
#
# 1 0.012475 -0.002356 -0.003227 0.000007 -0.002293 -0.000032
# 2 -0.002356 0.014996 -0.004626 -0.000004 -0.002830 0.000011
# 3 -0.003227 -0.004626 0.011332 0.000045 -0.001491 -0.000095
# 4 0.000007 -0.000004 0.000045 0.020291 -0.000103 -0.010948
# 5 -0.002293 -0.002830 -0.001491 -0.000103 0.028176 0.000214
# 6 -0.000032 0.000011 -0.000095 -0.010948 0.000214 0.054113
#
#
# Mechanical properties :
#
#
# Convention : Reuss Voigt Hill
#
# Bulk Modulus (GPa) = 54.38851 61.48426 57.93638
# Shear Modulus (GPa) = 29.77439 35.53881 32.65660
#
# Velocity S-wave (km/s) = 3.67360 4.01349 3.84730
# Velocity P-wave (km/s) = 6.53036 7.02463 6.78200
#
# Compressibility (1/GPa) = 0.01838624
#
# Stress axis : x y z
#
# Youngs Moduli (GPa) = 80.16068 66.68378 88.24219
#
# Poissons Ratio (x) = 0.15713 0.28473
# Poissons Ratio (y) = 0.18888 0.40818
# Poissons Ratio (z) = 0.25866 0.30846
#
# Static dielectric constant tensor:
#      x y z
#    x 3.798720 -0.000170 0.173500 
#    y -0.000170 4.160540 0.000710 
#    z 0.173500 0.000710 4.284430 
# 
# 
# High freq. dielectric constant tensor:
#      x y z
#    x 1.845590 -0.000020 0.010890 
#    y -0.000020 1.865120 0.000050 
#    z 0.010890 0.000050 1.882480 
# 
# From -- ./inp_files/207321.got.cif
#   From: 2010.06.25/outbox.cif.g09.slc.cpg/sg15_104_cif.got.tgz:207321.got - 2010.06.28 07:06:18.
