data_PCOD8144517
_publ_section_title
;
Structure prediction by ZEFSAII (Michael W. Deem and Ramdas Pophale) SiO2 
 PCOD8144517
Probable space group: C 2/C
;
_chemical_formula_sum "Si O2"
_cell_formula_units_Z 56
_cell_length_a 15.995974
_cell_length_b 24.713748
_cell_length_c 8.281094
_cell_angle_alpha 90.000000
_cell_angle_beta 51.910529
_cell_angle_gamma 90.000000
_cell_volume 2576.549305
_symmetry_space_group_name_H-M "C 2/C"
_symmetry_group_IT_number 15
_symmetry_cell_setting 'monoclinic'
loop_
_space_group_symop_operation_xyz
x,y,z
-x,y,1/2-z
-x,-y,-z
x,-y,1/2+z
1/2+x,1/2+y,z
1/2-x,1/2+y,1/2-z
1/2-x,1/2-y,-z
1/2+x,1/2-y,1/2+z
loop_
_atom_site_type_symbol
_atom_site_label
_atom_site_fract_x
_atom_site_fract_y
_atom_site_fract_z
Si Si1 0.173120 0.430510 0.901965
Si Si2 0.473678 0.296221 0.467638
Si Si3 0.571443 0.804820 0.300839
Si Si4 0.728596 0.321722 0.617530
Si Si5 0.909260 0.116209 0.469454
Si Si6 0.539086 0.907587 0.526275
Si Si7 0.228822 0.466216 0.192260
O O1 0.216772 0.370051 0.847892
O O2 0.052679 0.429826 0.981881
O O3 0.245822 0.469468 0.700136
O O4 0.184773 0.453108 0.068512
O O5 0.500000 0.286947 0.250000
O O6 0.503079 0.242484 0.534308
O O7 0.345703 0.295443 0.655238
O O8 0.536412 0.350050 0.449029
O O9 0.500000 0.833078 0.250000
O O10 0.595655 0.852349 0.397842
O O11 0.681091 0.784845 0.080800
O O12 0.653780 0.341121 0.562281
O O13 0.834764 0.066972 0.616644
O O14 0.000000 0.089174 0.250000
O O15 0.500000 0.894708 0.750000
O O16 0.632987 0.951281 0.428285
#
# Coordination Sequence:
#
# PCOD8144517 Si02
#       7
#     8   8   8   8   8   8   8
#     4  11  22  40  62  94 125 170 211 257 317 380
#     4  11  25  41  63  97 128 161 214 267 316 366
#     4  12  21  43  67  91 126 171 208 255 321 389
#     4  10  21  43  66  87 127 169 217 253 316 382
#     4   9  20  43  65  87 125 171 214 258 307 381
#     4  12  23  38  60  95 131 160 206 267 312 381
#     4  11  22  40  64  89 128 167 214 256 320 375
#
# _framework density 21.734494999999999
#
# number of rings (size 3 to 8) (size 9 to 14) (size 15 to 20)
#    0.000    1.143    4.286    3.857    0.000    2.286 
#    0.000    8.571    0.000    0.000    0.000    0.000 
#    0.000    0.000    0.000    0.000    0.000    0.000 
#
# Total GULP energy -346952.072394 kJ/mol
# GULP energy per Si atom -12391.145443 kJ/mol
# Density = 2.168503 g / cm^3
# Si number density = 21.734495 Si / 1000 Ang^3
#
#
#
# Elastic Constant Matrix: (Units=GPa)
#
#
# Indices 1 2 3 4 5 6 
#
# 1 77.5669 16.7222 48.0234 0.0000 -8.8838 0.0000
# 2 16.7222 58.1707 35.4545 0.0000 8.4231 0.0000
# 3 48.0234 35.4545 148.8242 0.0000 -1.7414 0.0000
# 4 0.0000 0.0000 0.0000 45.2166 0.0000 -6.4366
# 5 -8.8838 8.4231 -1.7414 0.0000 25.1322 0.0000
# 6 0.0000 0.0000 0.0000 -6.4366 0.0000 22.6449
#
#
#
# Elastic Compliance Matrix: (Units=1/GPa)
#
#
# Indices 1 2 3 4 5 6 
#
# 1 0.017281 -0.003044 -0.004772 0.000000 0.006798 0.000000
# 2 -0.003044 0.021989 -0.004359 0.000000 -0.008748 0.000000
# 3 -0.004772 -0.004359 0.009302 0.000000 0.000419 0.000000
# 4 0.000000 0.000000 0.000000 0.023048 0.000000 0.006551
# 5 0.006798 -0.008748 0.000419 0.000000 0.045153 0.000000
# 6 0.000000 0.000000 0.000000 0.006551 0.000000 0.046022
#
#
# Mechanical properties :
#
#
# Convention : Reuss Voigt Hill
#
# Bulk Modulus (GPa) = 41.28103 53.88468 47.58285
# Shear Modulus (GPa) = 25.61222 30.88952 28.25087
#
# Velocity S-wave (km/s) = 3.43653 3.77400 3.60921
# Velocity P-wave (km/s) = 5.89753 6.62094 6.26968
#
# Compressibility (1/GPa) = 0.02422420
#
# Stress axis : x y z
#
# Youngs Moduli (GPa) = 57.86651 45.47734 107.49977
#
# Poissons Ratio (x) = 0.13843 0.51296
# Poissons Ratio (y) = 0.17614 0.46855
# Poissons Ratio (z) = 0.27612 0.19822
#
# Static dielectric constant tensor:
#      x y z
#    x 3.887850 0.000000 -0.267100 
#    y 0.000000 4.009570 0.000000 
#    z -0.267100 0.000000 4.072180 
# 
# 
# High freq. dielectric constant tensor:
#      x y z
#    x 1.842950 0.000000 -0.010230 
#    y 0.000000 1.858270 0.000000 
#    z -0.010230 0.000000 1.851950 
# 
# From -- ./inp_files/51993.got.cif
#   From: 2010.06.25/outbox.cif.g09.slc.cpg/sg15_26_cif.got.tgz:51993.got - 2010.06.28 07:06:18.
