data_PCOD8144217
_publ_section_title
;
Structure prediction by ZEFSAII (Michael W. Deem and Ramdas Pophale) SiO2 
 PCOD8144217
Probable space group: C 2/C
;
_chemical_formula_sum "Si O2"
_cell_formula_units_Z 52
_cell_length_a 16.941061
_cell_length_b 21.778921
_cell_length_c 7.554044
_cell_angle_alpha 90.000000
_cell_angle_beta 122.581925
_cell_angle_gamma 90.000000
_cell_volume 2348.493891
_symmetry_space_group_name_H-M "C 2/C"
_symmetry_group_IT_number 15
_symmetry_cell_setting 'monoclinic'
loop_
_space_group_symop_operation_xyz
x,y,z
-x,y,1/2-z
-x,-y,-z
x,-y,1/2+z
1/2+x,1/2+y,z
1/2-x,1/2+y,1/2-z
1/2-x,1/2-y,-z
1/2+x,1/2-y,1/2+z
loop_
_atom_site_type_symbol
_atom_site_label
_atom_site_fract_x
_atom_site_fract_y
_atom_site_fract_z
Si Si1 0.000000 0.593605 0.750000
Si Si2 0.475861 0.568727 0.921717
Si Si3 0.232922 0.656094 0.292632
Si Si4 0.060485 0.811953 0.501429
Si Si5 0.199166 0.437895 0.454415
Si Si6 0.971842 0.309540 0.919182
Si Si7 0.263224 0.566882 0.648607
O O1 0.909754 0.549566 0.631754
O O2 0.006360 0.634454 0.580905
O O3 0.500000 0.574520 0.750000
O O4 0.538176 0.624288 0.084231
O O5 0.368628 0.583133 0.830049
O O6 0.500000 0.500000 0.000000
O O7 0.329102 0.694947 0.411318
O O8 0.141233 0.699298 0.196589
O O9 0.225861 0.609529 0.447968
O O10 0.234600 0.619837 0.109472
O O11 0.000000 0.812049 0.250000
O O12 0.024773 0.751126 0.559997
O O13 0.260322 0.497012 0.576717
O O14 0.203551 0.422396 0.252279
O O15 0.000000 0.322887 0.750000
#
# Coordination Sequence:
#
# PCOD8144217 Si02
#       7
#     4   8   8   8   8   8   8
#     4  10  24  48  60  96 136 162 224 278 308 386
#     4  11  21  38  60  91 131 161 205 264 317 385
#     4  11  22  44  65  92 137 167 216 273 318 388
#     4  10  21  42  65  94 128 170 216 262 325 380
#     4  11  24  40  67  96 131 173 216 264 328 387
#     4  10  23  44  68  92 126 173 219 268 325 375
#     4  12  21  40  65  97 129 171 212 262 327 389
#
# _framework density 22.141850999999999
#
# number of rings (size 3 to 8) (size 9 to 14) (size 15 to 20)
#    0.000    1.231    4.615    2.769    0.000    3.077 
#    8.308    1.538    0.000    0.000    0.000    0.000 
#    0.000    0.000    0.000    0.000    0.000    0.000 
#
# Total GULP energy -322267.478344 kJ/mol
# GULP energy per Si atom -12394.903013 kJ/mol
# Density = 2.209146 g / cm^3
# Si number density = 22.141851 Si / 1000 Ang^3
#
#
#
# Elastic Constant Matrix: (Units=GPa)
#
#
# Indices 1 2 3 4 5 6 
#
# 1 126.2262 49.5955 38.8454 0.0000 21.4621 0.0000
# 2 49.5955 76.9680 8.2091 0.0000 -2.9843 0.0000
# 3 38.8454 8.2091 65.0292 0.0000 6.5594 0.0000
# 4 0.0000 0.0000 0.0000 19.9113 0.0000 2.8653
# 5 21.4621 -2.9843 6.5594 0.0000 47.0039 0.0000
# 6 0.0000 0.0000 0.0000 2.8653 0.0000 37.7327
#
#
#
# Elastic Compliance Matrix: (Units=1/GPa)
#
#
# Indices 1 2 3 4 5 6 
#
# 1 0.014656 -0.008941 -0.006992 0.000000 -0.006284 0.000000
# 2 -0.008941 0.018680 0.002487 0.000000 0.004922 0.000000
# 3 -0.006992 0.002487 0.019172 0.000000 0.000675 0.000000
# 4 0.000000 0.000000 0.000000 0.050778 0.000000 -0.003856
# 5 -0.006284 0.004922 0.000675 0.000000 0.024362 0.000000
# 6 0.000000 0.000000 0.000000 -0.003856 0.000000 0.026795
#
#
# Mechanical properties :
#
#
# Convention : Reuss Voigt Hill
#
# Bulk Modulus (GPa) = 39.04098 51.28039 45.16068
# Shear Modulus (GPa) = 26.33321 32.36780 29.35051
#
# Velocity S-wave (km/s) = 3.45236 3.82755 3.64478
# Velocity P-wave (km/s) = 5.79329 6.53787 6.17681
#
# Compressibility (1/GPa) = 0.02561411
#
# Stress axis : x y z
#
# Youngs Moduli (GPa) = 68.23297 53.53436 52.15823
#
# Poissons Ratio (x) = 0.47868 0.36469
# Poissons Ratio (y) = 0.61010 -0.12970
# Poissons Ratio (z) = 0.47709 -0.13313
#
# Static dielectric constant tensor:
#      x y z
#    x 4.213390 0.000000 0.135840 
#    y 0.000000 3.904150 0.000000 
#    z 0.135840 0.000000 4.009630 
# 
# 
# High freq. dielectric constant tensor:
#      x y z
#    x 1.882870 0.000000 0.009600 
#    y 0.000000 1.863670 0.000000 
#    z 0.009600 0.000000 1.865760 
# 
# From -- ./inp_files/42320.got.cif
#   From: 2010.06.25/outbox.cif.g09.slc.cpg/sg15_22_cif.got.tgz:42320.got - 2010.06.28 07:06:18.
