data_PCOD8144636
_publ_section_title
;
Structure prediction by ZEFSAII (Michael W. Deem and Ramdas Pophale) SiO2 
 PCOD8144636
Probable space group: C 2/C
;
_chemical_formula_sum "Si O2"
_cell_formula_units_Z 40
_cell_length_a 10.417476
_cell_length_b 9.681263
_cell_length_c 17.435788
_cell_angle_alpha 90.000000
_cell_angle_beta 82.926079
_cell_angle_gamma 90.000000
_cell_volume 1745.089285
_symmetry_space_group_name_H-M "C 2/C"
_symmetry_group_IT_number 15
_symmetry_cell_setting 'monoclinic'
loop_
_space_group_symop_operation_xyz
x,y,z
-x,y,1/2-z
-x,-y,-z
x,-y,1/2+z
1/2+x,1/2+y,z
1/2-x,1/2+y,1/2-z
1/2-x,1/2-y,-z
1/2+x,1/2-y,1/2+z
loop_
_atom_site_type_symbol
_atom_site_label
_atom_site_fract_x
_atom_site_fract_y
_atom_site_fract_z
Si Si1 0.645348 0.375868 0.724787
Si Si2 0.150305 0.945026 0.554387
Si Si3 0.109257 0.547765 0.049622
Si Si4 0.041929 0.181590 0.924457
Si Si5 0.721566 0.903446 0.184373
O O1 0.500000 0.429509 0.750000
O O2 0.695140 0.389669 0.633266
O O3 0.650821 0.211193 0.743015
O O4 0.743639 0.460970 0.769980
O O5 0.113210 0.813164 0.502965
O O6 0.256491 0.044943 0.507069
O O7 0.022293 0.032431 0.577862
O O8 0.126320 0.451465 0.122970
O O9 0.065711 0.700405 0.079805
O O10 0.000000 0.500000 0.000000
O O11 0.150826 0.180158 0.851617
#
# Coordination Sequence:
#
# PCOD8144636 Si02
#       5
#     8   8   8   8   8
#     4  12  26  45  66  98 142 181 221 277 342 406
#     4  10  22  41  68  99 131 177 222 283 332 400
#     4  11  23  42  69 103 133 174 230 285 334 398
#     4  10  21  43  70  97 132 174 229 278 337 394
#     4  11  27  44  68 101 137 181 228 276 341 406
#
# _framework density 22.921462999999999
#
# number of rings (size 3 to 8) (size 9 to 14) (size 15 to 20)
#    0.000    1.200    2.000    3.000    2.800    8.000 
#    0.000    0.000    0.000    0.000    0.000    0.000 
#    0.000    0.000    0.000    0.000    0.000    0.000 
#
# Total GULP energy -247930.512339 kJ/mol
# GULP energy per Si atom -12396.525617 kJ/mol
# Density = 2.286929 g / cm^3
# Si number density = 22.921463 Si / 1000 Ang^3
#
#
#
# Elastic Constant Matrix: (Units=GPa)
#
#
# Indices 1 2 3 4 5 6 
#
# 1 89.1587 32.6020 26.3982 0.0000 16.8121 0.0000
# 2 32.6020 112.1434 41.9131 0.0000 16.0700 0.0000
# 3 26.3982 41.9131 96.2298 0.0000 19.8985 0.0000
# 4 0.0000 0.0000 0.0000 31.3992 0.0000 2.7264
# 5 16.8121 16.0700 19.8985 0.0000 37.2019 0.0000
# 6 0.0000 0.0000 0.0000 2.7264 0.0000 49.1071
#
#
#
# Elastic Compliance Matrix: (Units=1/GPa)
#
#
# Indices 1 2 3 4 5 6 
#
# 1 0.013462 -0.002710 -0.001683 0.000000 -0.004013 0.000000
# 2 -0.002710 0.011388 -0.003882 0.000000 -0.001618 0.000000
# 3 -0.001683 -0.003882 0.013538 0.000000 -0.004804 0.000000
# 4 0.000000 0.000000 0.000000 0.032002 0.000000 -0.001777
# 5 -0.004013 -0.001618 -0.004804 0.000000 0.031962 0.000000
# 6 0.000000 0.000000 0.000000 -0.001777 0.000000 0.020462
#
#
# Mechanical properties :
#
#
# Convention : Reuss Voigt Hill
#
# Bulk Modulus (GPa) = 45.79178 55.48429 50.63804
# Shear Modulus (GPa) = 34.09667 36.64953 35.37310
#
# Velocity S-wave (km/s) = 3.86105 4.00298 3.93266
# Velocity P-wave (km/s) = 6.31649 6.75455 6.53919
#
# Compressibility (1/GPa) = 0.02183798
#
# Stress axis : x y z
#
# Youngs Moduli (GPa) = 74.28475 87.81459 73.86861
#
# Poissons Ratio (x) = 0.23793 0.12432
# Poissons Ratio (y) = 0.20128 0.28676
# Poissons Ratio (z) = 0.12502 0.34090
#
# Static dielectric constant tensor:
#      x y z
#    x 4.496690 0.000000 0.033960 
#    y 0.000000 4.232950 0.000000 
#    z 0.033960 0.000000 4.113600 
# 
# 
# High freq. dielectric constant tensor:
#      x y z
#    x 1.913200 0.000000 0.000840 
#    y 0.000000 1.906800 0.000000 
#    z 0.000840 0.000000 1.896350 
# 
# From -- ./inp_files/195062.got.cif
#   From: 2010.06.25/outbox.cif.g09.slc.cpg/sg15_98_cif.got.tgz:195062.got - 2010.06.28 07:06:18.
