data_PCOD8144844
_publ_section_title
;
Structure prediction by ZEFSAII (Michael W. Deem and Ramdas Pophale) SiO2 
 PCOD8144844
Probable space group: C 2/C
;
_chemical_formula_sum "Si O2"
_cell_formula_units_Z 44
_cell_length_a 24.293264
_cell_length_b 9.943251
_cell_length_c 8.945403
_cell_angle_alpha 90.000000
_cell_angle_beta 65.047700
_cell_angle_gamma 90.000000
_cell_volume 1959.107691
_symmetry_space_group_name_H-M "C 2/C"
_symmetry_group_IT_number 15
_symmetry_cell_setting 'monoclinic'
loop_
_space_group_symop_operation_xyz
x,y,z
-x,y,1/2-z
-x,-y,-z
x,-y,1/2+z
1/2+x,1/2+y,z
1/2-x,1/2+y,1/2-z
1/2-x,1/2-y,-z
1/2+x,1/2-y,1/2+z
loop_
_atom_site_type_symbol
_atom_site_label
_atom_site_fract_x
_atom_site_fract_y
_atom_site_fract_z
Si Si1 0.864940 0.081197 0.476902
Si Si2 0.712544 0.335392 0.923449
Si Si3 0.000000 0.293419 0.750000
Si Si4 0.328196 0.139504 0.122064
Si Si5 0.056693 0.949785 0.345672
Si Si6 0.625830 0.119521 0.091662
O O1 0.847527 0.237438 0.491854
O O2 0.881906 0.052646 0.629386
O O3 0.808483 0.983992 0.498215
O O4 0.925794 0.048244 0.311424
O O5 0.755291 0.350566 0.729686
O O6 0.750000 0.250000 0.000000
O O7 0.651196 0.248933 0.969769
O O8 0.962143 0.200462 0.679604
O O9 0.945808 0.389324 0.871908
O O10 0.362618 0.131999 0.242633
O O11 0.340609 0.010546 0.007661
O O12 0.000000 0.000000 0.500000
#
# Coordination Sequence:
#
# PCOD8144844 Si02
#       6
#     8   8   4   8   8   8
#     4  12  23  43  70 103 137 180 239 290 355 430
#     4  10  21  45  72  97 139 181 231 298 353 425
#     4  12  22  44  66  92 148 188 232 306 352 414
#     4  11  25  43  66 104 138 188 240 291 361 424
#     4  12  22  41  69 101 133 181 240 291 352 420
#     4  11  24  45  66  99 144 190 237 295 364 418
#
# _framework density 22.459205999999998
#
# number of rings (size 3 to 8) (size 9 to 14) (size 15 to 20)
#    0.000    0.727    5.455    2.182    0.000    5.091 
#    3.273    5.455    0.000    0.000    0.000    0.000 
#    0.000    0.000    0.000    0.000    0.000    0.000 
#
# Total GULP energy -272595.224199 kJ/mol
# GULP energy per Si atom -12390.692009 kJ/mol
# Density = 2.240809 g / cm^3
# Si number density = 22.459206 Si / 1000 Ang^3
#
#
#
# Elastic Constant Matrix: (Units=GPa)
#
#
# Indices 1 2 3 4 5 6 
#
# 1 88.9707 16.4782 37.8168 0.0000 -24.4554 0.0000
# 2 16.4782 137.2082 56.4759 0.0000 -16.8667 0.0000
# 3 37.8168 56.4759 96.8327 0.0000 -21.8304 0.0000
# 4 0.0000 0.0000 0.0000 29.3175 0.0000 -6.0994
# 5 -24.4554 -16.8667 -21.8304 0.0000 40.2088 0.0000
# 6 0.0000 0.0000 0.0000 -6.0994 0.0000 33.8487
#
#
#
# Elastic Compliance Matrix: (Units=1/GPa)
#
#
# Indices 1 2 3 4 5 6 
#
# 1 0.015043 0.001079 -0.004945 0.000000 0.006917 0.000000
# 2 0.001079 0.009713 -0.005720 0.000000 0.001625 0.000000
# 3 -0.004945 -0.005720 0.016380 0.000000 0.003486 0.000000
# 4 0.000000 0.000000 0.000000 0.035438 0.000000 0.006386
# 5 0.006917 0.001625 0.003486 0.000000 0.031652 0.000000
# 6 0.000000 0.000000 0.000000 0.006386 0.000000 0.030694
#
#
# Mechanical properties :
#
#
# Convention : Reuss Voigt Hill
#
# Bulk Modulus (GPa) = 45.52733 60.50593 53.01663
# Shear Modulus (GPa) = 30.22757 34.82436 32.52597
#
# Velocity S-wave (km/s) = 3.67261 3.94199 3.80968
# Velocity P-wave (km/s) = 6.18864 6.90781 6.55809
#
# Compressibility (1/GPa) = 0.02196483
#
# Stress axis : x y z
#
# Youngs Moduli (GPa) = 66.47666 102.95818 61.04962
#
# Poissons Ratio (x) = -0.11109 0.30187
# Poissons Ratio (y) = -0.07173 0.34919
# Poissons Ratio (z) = 0.32870 0.58890
#
# Static dielectric constant tensor:
#      x y z
#    x 4.267440 0.000000 0.007870 
#    y 0.000000 2.715500 0.000000 
#    z 0.007870 0.000000 3.741140 
# 
# 
# High freq. dielectric constant tensor:
#      x y z
#    x 1.889120 0.000000 -0.024300 
#    y 0.000000 1.884920 0.000000 
#    z -0.024300 0.000000 1.880850 
# 
# From -- ./inp_files/68525.got.cif
#   From: 2010.06.25/outbox.cif.g09.slc.cpg/sg15_35_cif.got.tgz:68525.got - 2010.06.28 07:06:18.
