data_PCOD8144019
_publ_section_title
;
Structure prediction by ZEFSAII (Michael W. Deem and Ramdas Pophale) SiO2 
 PCOD8144019
Probable space group: C 2/C
;
_chemical_formula_sum "Si O2"
_cell_formula_units_Z 44
_cell_length_a 16.302672
_cell_length_b 9.066062
_cell_length_c 16.264294
_cell_angle_alpha 90.000000
_cell_angle_beta 127.001209
_cell_angle_gamma 90.000000
_cell_volume 1919.792994
_symmetry_space_group_name_H-M "C 2/C"
_symmetry_group_IT_number 15
_symmetry_cell_setting 'monoclinic'
loop_
_space_group_symop_operation_xyz
x,y,z
-x,y,1/2-z
-x,-y,-z
x,-y,1/2+z
1/2+x,1/2+y,z
1/2-x,1/2+y,1/2-z
1/2-x,1/2-y,-z
1/2+x,1/2-y,1/2+z
loop_
_atom_site_type_symbol
_atom_site_label
_atom_site_fract_x
_atom_site_fract_y
_atom_site_fract_z
Si Si1 0.526982 0.488827 0.146609
Si Si2 0.094326 0.732451 0.380996
Si Si3 0.716184 0.719725 0.112021
Si Si4 0.500000 0.040229 0.750000
Si Si5 0.835143 0.747891 0.734277
Si Si6 0.146148 0.097922 0.564295
O O1 0.492071 0.357883 0.185723
O O2 0.614574 0.589006 0.242560
O O3 0.568334 0.400879 0.092953
O O4 0.426779 0.591993 0.061067
O O5 0.177688 0.775903 0.362068
O O6 0.127508 0.736136 0.495537
O O7 0.054763 0.566602 0.348151
O O8 0.692473 0.789196 0.187043
O O9 0.720583 0.542889 0.118590
O O10 0.419271 0.136003 0.751587
O O11 0.727625 0.735545 0.617143
#
# Coordination Sequence:
#
# PCOD8144019 Si02
#       6
#     8   8   8   4   8   8
#     4   9  21  39  69  95 128 171 219 261 333 396
#     4  10  21  41  69  95 126 173 219 270 321 399
#     4   9  20  42  68  92 128 175 218 265 334 389
#     4  12  26  40  62  96 138 166 222 282 322 384
#     4  11  23  42  64 100 133 169 213 281 331 387
#     4   9  18  40  67  96 131 169 213 276 325 392
#
# _framework density 22.919139000000001
#
# number of rings (size 3 to 8) (size 9 to 14) (size 15 to 20)
#    0.000    2.182    1.818    1.091    2.545    1.455 
#    3.273    4.545    0.000    0.000    0.000    0.000 
#    0.000    0.000    0.000    0.000    0.000    0.000 
#
# Total GULP energy -272568.092744 kJ/mol
# GULP energy per Si atom -12389.458761 kJ/mol
# Density = 2.286697 g / cm^3
# Si number density = 22.919139 Si / 1000 Ang^3
#
#
#
# Elastic Constant Matrix: (Units=GPa)
#
#
# Indices 1 2 3 4 5 6 
#
# 1 106.9736 35.9671 14.7548 0.0000 6.6011 0.0000
# 2 35.9671 63.0500 -4.0247 0.0000 9.8442 0.0000
# 3 14.7548 -4.0247 53.4250 0.0000 10.1379 0.0000
# 4 0.0000 0.0000 0.0000 35.3109 0.0000 12.9926
# 5 6.6011 9.8442 10.1379 0.0000 32.4088 0.0000
# 6 0.0000 0.0000 0.0000 12.9926 0.0000 38.8178
#
#
#
# Elastic Compliance Matrix: (Units=1/GPa)
#
#
# Indices 1 2 3 4 5 6 
#
# 1 0.012380 -0.007496 -0.004186 0.000000 0.001065 0.000000
# 2 -0.007496 0.021471 0.004928 0.000000 -0.006537 0.000000
# 3 -0.004186 0.004928 0.021653 0.000000 -0.007418 0.000000
# 4 0.000000 0.000000 0.000000 0.032297 0.000000 -0.010810
# 5 0.001065 -0.006537 -0.007418 0.000000 0.034945 0.000000
# 6 0.000000 0.000000 0.000000 -0.010810 0.000000 0.029380
#
#
# Mechanical properties :
#
#
# Convention : Reuss Voigt Hill
#
# Bulk Modulus (GPa) = 23.81088 35.20477 29.50782
# Shear Modulus (GPa) = 27.83471 33.09092 30.46281
#
# Velocity S-wave (km/s) = 3.48871 3.80387 3.64970
# Velocity P-wave (km/s) = 5.16137 5.88951 5.53743
#
# Compressibility (1/GPa) = 0.04199761
#
# Stress axis : x y z
#
# Youngs Moduli (GPa) = 80.77583 46.57339 46.18365
#
# Poissons Ratio (x) = 0.34909 0.19331
# Poissons Ratio (y) = 0.60546 -0.22760
# Poissons Ratio (z) = 0.33811 -0.22952
#
# Static dielectric constant tensor:
#      x y z
#    x 4.336470 0.000000 0.209220 
#    y 0.000000 3.946960 0.000000 
#    z 0.209220 0.000000 4.212370 
# 
# 
# High freq. dielectric constant tensor:
#      x y z
#    x 1.923450 0.000000 0.006880 
#    y 0.000000 1.877170 0.000000 
#    z 0.006880 0.000000 1.908170 
# 
# From -- ./inp_files/209747.got.cif
#   From: 2010.06.25/outbox.cif.g09.slc.cpg/sg15_105_cif.got.tgz:209747.got - 2010.06.28 07:06:18.
