data_PCOD8144063
_publ_section_title
;
Structure prediction by ZEFSAII (Michael W. Deem and Ramdas Pophale) SiO2 
 PCOD8144063
Probable space group: C 2/C
;
_chemical_formula_sum "Si O2"
_cell_formula_units_Z 32
_cell_length_a 12.099201
_cell_length_b 8.136474
_cell_length_c 27.994700
_cell_angle_alpha 90.000000
_cell_angle_beta 28.953351
_cell_angle_gamma 90.000000
_cell_volume 1334.140190
_symmetry_space_group_name_H-M "C 2/C"
_symmetry_group_IT_number 15
_symmetry_cell_setting 'monoclinic'
loop_
_space_group_symop_operation_xyz
x,y,z
-x,y,1/2-z
-x,-y,-z
x,-y,1/2+z
1/2+x,1/2+y,z
1/2-x,1/2+y,1/2-z
1/2-x,1/2-y,-z
1/2+x,1/2-y,1/2+z
loop_
_atom_site_type_symbol
_atom_site_label
_atom_site_fract_x
_atom_site_fract_y
_atom_site_fract_z
Si Si1 0.248916 0.614975 0.041679
Si Si2 0.016446 0.216643 0.030994
Si Si3 0.014060 0.168442 0.190273
Si Si4 0.675284 0.092125 0.807886
O O1 0.328313 0.691963 0.061579
O O2 0.991319 0.555173 0.145010
O O3 0.250000 0.750000 0.000000
O O4 0.410860 0.454550 0.970654
O O5 0.908329 0.336398 0.110296
O O6 0.234550 0.308543 0.925755
O O7 0.000000 0.228578 0.250000
O O8 0.826177 0.274050 0.232973
O O9 0.931644 0.978943 0.216800
#
# Coordination Sequence:
#
# PCOD8144063 Si02
#       4
#     8   8   8   8
#     4  10  21  41  71  96 126 176 223 270 332 391
#     4  10  24  45  68  98 135 176 222 273 332 398
#     4  11  25  43  66 100 135 173 225 276 325 394
#     4  11  26  43  67  98 136 176 221 275 332 397
#
# _framework density 23.985485000000001
#
# number of rings (size 3 to 8) (size 9 to 14) (size 15 to 20)
#    0.000    1.500    0.000    4.500    0.000   20.000 
#    0.000    0.000    0.000    0.000    0.000    0.000 
#    0.000    0.000    0.000    0.000    0.000    0.000 
#
# Total GULP energy -198394.787472 kJ/mol
# GULP energy per Si atom -12399.674217 kJ/mol
# Density = 2.393089 g / cm^3
# Si number density = 23.985485 Si / 1000 Ang^3
#
#
#
# Elastic Constant Matrix: (Units=GPa)
#
#
# Indices 1 2 3 4 5 6 
#
# 1 146.0512 67.5820 54.5049 -0.0503 10.3315 0.0000
# 2 67.5820 104.3218 73.7179 -0.0530 2.4081 -0.0007
# 3 54.5049 73.7179 81.5588 -0.0320 10.4920 0.0029
# 4 -0.0503 -0.0530 -0.0320 22.3679 -0.0170 -0.6529
# 5 10.3315 2.4081 10.4920 -0.0170 29.5729 -0.0001
# 6 0.0000 -0.0007 0.0029 -0.6529 -0.0001 41.0197
#
#
#
# Elastic Compliance Matrix: (Units=1/GPa)
#
#
# Indices 1 2 3 4 5 6 
#
# 1 0.010098 -0.005384 -0.001556 0.000006 -0.002538 0.000000
# 2 -0.005384 0.030712 -0.025234 0.000031 0.008333 0.000003
# 3 -0.001556 -0.025234 0.037485 -0.000018 -0.010701 -0.000003
# 4 0.000006 0.000031 -0.000018 0.044728 0.000027 0.000712
# 5 -0.002538 0.008333 -0.010701 0.000027 0.037819 0.000001
# 6 0.000000 0.000003 -0.000003 0.000712 0.000001 0.024390
#
#
# Mechanical properties :
#
#
# Convention : Reuss Voigt Hill
#
# Bulk Modulus (GPa) = 71.68948 80.39349 76.04148
# Shear Modulus (GPa) = 19.66731 27.66723 23.66727
#
# Velocity S-wave (km/s) = 2.86661 3.40000 3.14464
# Velocity P-wave (km/s) = 6.39611 7.00026 6.70499
#
# Compressibility (1/GPa) = 0.01394905
#
# Stress axis : x y z
#
# Youngs Moduli (GPa) = 99.02616 32.56024 26.67725
#
# Poissons Ratio (x) = 0.17530 0.04151
# Poissons Ratio (y) = 0.53315 0.67316
# Poissons Ratio (z) = 0.15407 0.82161
#
# Static dielectric constant tensor:
#      x y z
#    x 4.622290 0.000070 -0.242490 
#    y 0.000070 4.517520 0.000510 
#    z -0.242490 0.000510 3.916230 
# 
# 
# High freq. dielectric constant tensor:
#      x y z
#    x 1.974520 0.000000 -0.010560 
#    y 0.000000 1.962230 0.000000 
#    z -0.010560 0.000000 1.937020 
# 
# From -- ./inp_files/224491.got.cif
#   From: 2010.06.25/outbox.cif.g09.slc.cpg/sg15_113_cif.got.tgz:224491.got - 2010.06.28 07:06:18.
