data_PCOD8144519
_publ_section_title
;
Structure prediction by ZEFSAII (Michael W. Deem and Ramdas Pophale) SiO2 
 PCOD8144519
Probable space group: C 2/C
;
_chemical_formula_sum "Si O2"
_cell_formula_units_Z 64
_cell_length_a 17.384304
_cell_length_b 7.060744
_cell_length_c 26.333630
_cell_angle_alpha 90.000000
_cell_angle_beta 88.112520
_cell_angle_gamma 90.000000
_cell_volume 3230.597158
_symmetry_space_group_name_H-M "C 2/C"
_symmetry_group_IT_number 15
_symmetry_cell_setting 'monoclinic'
loop_
_space_group_symop_operation_xyz
x,y,z
-x,y,1/2-z
-x,-y,-z
x,-y,1/2+z
1/2+x,1/2+y,z
1/2-x,1/2+y,1/2-z
1/2-x,1/2-y,-z
1/2+x,1/2-y,1/2+z
loop_
_atom_site_type_symbol
_atom_site_label
_atom_site_fract_x
_atom_site_fract_y
_atom_site_fract_z
Si Si1 0.684211 0.724348 0.567091
Si Si2 0.270988 0.550632 0.522411
Si Si3 0.387665 0.980451 0.678923
Si Si4 0.456234 0.397451 0.362782
Si Si5 0.274129 0.711423 0.161780
Si Si6 0.028703 0.727341 0.693376
Si Si7 0.612547 0.872374 0.711912
Si Si8 0.869387 0.122078 0.617624
O O1 0.692189 0.577543 0.521749
O O2 0.601414 0.682953 0.593326
O O3 0.751979 0.703311 0.607115
O O4 0.695126 0.941581 0.546314
O O5 0.250000 0.750000 0.500000
O O6 0.336089 0.589954 0.562656
O O7 0.401610 0.848390 0.727806
O O8 0.361731 0.841513 0.634118
O O9 0.319475 0.127724 0.690942
O O10 0.462725 0.108290 0.664889
O O11 0.436714 0.604187 0.341229
O O12 0.451769 0.253065 0.315538
O O13 0.539954 0.418164 0.385075
O O14 0.198560 0.679271 0.196012
O O15 0.325348 0.520673 0.156897
O O16 0.101764 0.591836 0.698260
O O17 0.000000 0.795109 0.750000
#
# Coordination Sequence:
#
# PCOD8144519 Si02
#       8
#     8   8   8   8   8   8   8   8
#     4   9  22  41  63  89 122 152 207 254 317 371
#     4  10  21  43  66  89 118 160 198 261 323 376
#     4  11  22  38  58  89 123 163 209 256 298 370
#     4  11  22  40  63  89 125 166 202 259 303 369
#     4  10  22  40  58  90 121 161 205 257 304 364
#     4  10  22  38  61  85 123 173 210 240 306 359
#     4  10  24  38  57  88 126 164 212 253 298 365
#     4  11  23  37  65  89 121 161 206 252 317 368
#
# _framework density 19.810579000000001
#
# number of rings (size 3 to 8) (size 9 to 14) (size 15 to 20)
#    0.000    1.750    2.500    0.750    3.500    5.500 
#    2.250    0.625    0.000    0.000    0.000    0.000 
#    0.000    0.000    0.000    0.000    0.000    0.000 
#
# Total GULP energy -396624.437956 kJ/mol
# GULP energy per Si atom -12394.513686 kJ/mol
# Density = 1.976549 g / cm^3
# Si number density = 19.810579 Si / 1000 Ang^3
#
#
#
# Elastic Constant Matrix: (Units=GPa)
#
#
# Indices 1 2 3 4 5 6 
#
# 1 86.7713 32.8269 24.4035 0.0000 -1.2247 0.0000
# 2 32.8269 114.4815 48.5410 0.0000 0.3504 0.0000
# 3 24.4035 48.5410 72.0534 0.0000 -0.7052 0.0000
# 4 0.0000 0.0000 0.0000 37.1672 0.0000 4.0966
# 5 -1.2247 0.3504 -0.7052 0.0000 25.3058 0.0000
# 6 0.0000 0.0000 0.0000 4.0966 0.0000 34.4158
#
#
#
# Elastic Compliance Matrix: (Units=1/GPa)
#
#
# Indices 1 2 3 4 5 6 
#
# 1 0.013303 -0.002672 -0.002700 0.000000 0.000606 0.000000
# 2 -0.002672 0.012768 -0.007702 0.000000 -0.000521 0.000000
# 3 -0.002700 -0.007702 0.019987 0.000000 0.000533 0.000000
# 4 0.000000 0.000000 0.000000 0.027263 0.000000 -0.003245
# 5 0.000606 -0.000521 0.000533 0.000000 0.039568 0.000000
# 6 0.000000 0.000000 0.000000 -0.003245 0.000000 0.029443
#
#
# Mechanical properties :
#
#
# Convention : Reuss Voigt Hill
#
# Bulk Modulus (GPa) = 50.22257 53.87211 52.04734
# Shear Modulus (GPa) = 28.55238 30.54674 29.54956
#
# Velocity S-wave (km/s) = 3.80052 3.93102 3.86632
# Velocity P-wave (km/s) = 6.68319 6.91784 6.80153
#
# Compressibility (1/GPa) = 0.01991136
#
# Stress axis : x y z
#
# Youngs Moduli (GPa) = 75.17033 78.31783 50.03265
#
# Poissons Ratio (x) = 0.20924 0.13508
# Poissons Ratio (y) = 0.20083 0.38536
# Poissons Ratio (z) = 0.20294 0.60321
#
# Static dielectric constant tensor:
#      x y z
#    x 3.456060 0.000000 0.289180 
#    y 0.000000 3.819190 0.000000 
#    z 0.289180 0.000000 3.244470 
# 
# 
# High freq. dielectric constant tensor:
#      x y z
#    x 1.770610 0.000000 0.009480 
#    y 0.000000 1.784910 0.000000 
#    z 0.009480 0.000000 1.763310 
# 
# From -- ./inp_files/315092.got.cif
#   From: 2010.06.25/outbox.cif.g09.slc.cpg/sg15_158_cif.got.tgz:315092.got - 2010.06.28 07:06:18.
