data_PCOD8144583
_publ_section_title
;
Structure prediction by ZEFSAII (Michael W. Deem and Ramdas Pophale) SiO2 
 PCOD8144583
Probable space group: C 2/C
;
_chemical_formula_sum "Si O2"
_cell_formula_units_Z 48
_cell_length_a 17.927806
_cell_length_b 5.151444
_cell_length_c 24.319639
_cell_angle_alpha 90.000000
_cell_angle_beta 96.513396
_cell_angle_gamma 90.000000
_cell_volume 2231.520860
_symmetry_space_group_name_H-M "C 2/C"
_symmetry_group_IT_number 15
_symmetry_cell_setting 'monoclinic'
loop_
_space_group_symop_operation_xyz
x,y,z
-x,y,1/2-z
-x,-y,-z
x,-y,1/2+z
1/2+x,1/2+y,z
1/2-x,1/2+y,1/2-z
1/2-x,1/2-y,-z
1/2+x,1/2-y,1/2+z
loop_
_atom_site_type_symbol
_atom_site_label
_atom_site_fract_x
_atom_site_fract_y
_atom_site_fract_z
Si Si1 0.364208 0.054954 0.154504
Si Si2 0.589313 0.703743 0.159828
Si Si3 0.778906 0.203060 0.410991
Si Si4 0.811130 0.948828 0.523313
Si Si5 0.079877 0.710717 0.230111
Si Si6 0.568127 0.570014 0.387503
O O1 0.280625 0.005934 0.122360
O O2 0.359397 0.140602 0.217821
O O3 0.413347 0.272027 0.126170
O O4 0.404241 0.775089 0.156068
O O5 0.659178 0.783679 0.127721
O O6 0.611091 0.463035 0.201034
O O7 0.521292 0.605101 0.115302
O O8 0.567221 0.962689 0.190335
O O9 0.723860 0.434128 0.423850
O O10 0.822282 0.125336 0.470600
O O11 0.750000 0.750000 0.500000
O O12 0.892951 0.850273 0.550408
O O13 0.000000 0.786680 0.250000
#
# Coordination Sequence:
#
# PCOD8144583 Si02
#       6
#     8   8   8   8   8   8
#     4  11  22  40  65  89 126 172 209 242 321 380
#     4  12  25  40  65  99 128 157 218 268 301 367
#     4  10  25  41  63  97 126 163 212 268 308 372
#     4  10  21  43  68  85 129 172 206 250 331 379
#     4  12  23  41  66  92 129 171 206 255 320 375
#     4  11  21  39  66  93 120 171 208 253 309 383
#
# _framework density 21.509993999999999
#
# number of rings (size 3 to 8) (size 9 to 14) (size 15 to 20)
#    0.000    1.000    5.000    1.500    2.333    2.000 
#    0.000    0.833    0.000    0.000    0.000    0.000 
#    0.000    0.000    0.000    0.000    0.000    0.000 
#
# Total GULP energy -297391.300077 kJ/mol
# GULP energy per Si atom -12391.304170 kJ/mol
# Density = 2.146104 g / cm^3
# Si number density = 21.509994 Si / 1000 Ang^3
#
#
#
# Elastic Constant Matrix: (Units=GPa)
#
#
# Indices 1 2 3 4 5 6 
#
# 1 80.4311 -5.7799 40.6303 0.0000 3.9380 0.0000
# 2 -5.7799 76.7569 12.8402 0.0000 -3.7365 0.0000
# 3 40.6303 12.8402 101.4584 0.0000 8.5492 0.0000
# 4 0.0000 0.0000 0.0000 23.2136 0.0000 12.9168
# 5 3.9380 -3.7365 8.5492 0.0000 37.9541 0.0000
# 6 0.0000 0.0000 0.0000 12.9168 0.0000 18.0007
#
#
#
# Elastic Compliance Matrix: (Units=1/GPa)
#
#
# Indices 1 2 3 4 5 6 
#
# 1 0.015982 0.002328 -0.006702 0.000000 0.000081 0.000000
# 2 0.002328 0.013761 -0.002821 0.000000 0.001749 0.000000
# 3 -0.006702 -0.002821 0.013111 0.000000 -0.002536 0.000000
# 4 0.000000 0.000000 0.000000 0.071711 0.000000 -0.051458
# 5 0.000081 0.001749 -0.002536 0.000000 0.027083 0.000000
# 6 0.000000 0.000000 0.000000 -0.051458 0.000000 0.092478
#
#
# Mechanical properties :
#
#
# Convention : Reuss Voigt Hill
#
# Bulk Modulus (GPa) = 35.13188 39.33639 37.23413
# Shear Modulus (GPa) = 19.37976 29.89742 24.63859
#
# Velocity S-wave (km/s) = 3.00487 3.73222 3.38812
# Velocity P-wave (km/s) = 5.32984 6.07452 5.71433
#
# Compressibility (1/GPa) = 0.02846418
#
# Stress axis : x y z
#
# Youngs Moduli (GPa) = 62.57148 72.67153 76.27368
#
# Poissons Ratio (x) = -0.16921 0.51115
# Poissons Ratio (y) = -0.14569 0.21519
# Poissons Ratio (z) = 0.41933 0.20503
#
# Static dielectric constant tensor:
#      x y z
#    x 3.349930 0.000000 0.083670 
#    y 0.000000 -2.150690 0.000000 
#    z 0.083670 0.000000 5.701110 
# 
# 
# High freq. dielectric constant tensor:
#      x y z
#    x 1.831440 0.000000 0.034730 
#    y 0.000000 1.844590 0.000000 
#    z 0.034730 0.000000 1.844730 
# 
# From -- ./inp_files/275673.got.cif
#   From: 2010.06.25/outbox.cif.g09.slc.cpg/sg15_138_cif.got.tgz:275673.got - 2010.06.28 07:06:18.
