data_PCOD8144389
_publ_section_title
;
Structure prediction by ZEFSAII (Michael W. Deem and Ramdas Pophale) SiO2 
 PCOD8144389
Probable space group: C 2/C
;
_chemical_formula_sum "Si O2"
_cell_formula_units_Z 60
_cell_length_a 16.442412
_cell_length_b 27.441079
_cell_length_c 11.089717
_cell_angle_alpha 90.000000
_cell_angle_beta 143.881750
_cell_angle_gamma 90.000000
_cell_volume 2949.421657
_symmetry_space_group_name_H-M "C 2/C"
_symmetry_group_IT_number 15
_symmetry_cell_setting 'monoclinic'
loop_
_space_group_symop_operation_xyz
x,y,z
-x,y,1/2-z
-x,-y,-z
x,-y,1/2+z
1/2+x,1/2+y,z
1/2-x,1/2+y,1/2-z
1/2-x,1/2-y,-z
1/2+x,1/2-y,1/2+z
loop_
_atom_site_type_symbol
_atom_site_label
_atom_site_fract_x
_atom_site_fract_y
_atom_site_fract_z
Si Si1 0.179227 0.898597 0.715615
Si Si2 0.357720 0.057042 0.641369
Si Si3 0.674077 0.294408 0.069666
Si Si4 0.680374 0.111064 0.677027
Si Si5 0.582107 0.450517 0.133119
Si Si6 0.253734 0.456719 0.943875
Si Si7 0.136038 0.794430 0.743916
Si Si8 0.000000 0.594779 0.250000
O O1 0.234037 0.925448 0.662188
O O2 0.189059 0.840137 0.727606
O O3 0.015962 0.907018 0.526370
O O4 0.254675 0.921795 0.919326
O O5 0.500000 0.040389 0.750000
O O6 0.392415 0.098332 0.782702
O O7 0.278716 0.013534 0.616630
O O8 0.727820 0.341140 0.204623
O O9 0.779418 0.249856 0.212624
O O10 0.669213 0.306335 0.922319
O O11 0.526855 0.281702 0.954401
O O12 0.772199 0.062821 0.754877
O O13 0.561190 0.124892 0.436780
O O14 0.608962 0.451661 0.309342
O O15 0.500000 0.500000 0.000000
O O16 0.122787 0.438903 0.857768
#
# Coordination Sequence:
#
# PCOD8144389 Si02
#       8
#     8   8   8   8   8   8   8   4
#     4  12  23  40  64  96 130 166 217 268 324 388
#     4  12  25  38  62  93 130 173 219 263 325 388
#     4  10  21  42  69  97 135 162 216 271 336 399
#     4  11  23  41  66  90 128 173 212 270 323 394
#     4  11  22  40  64  95 129 175 221 260 321 379
#     4  11  24  40  60  91 131 177 216 266 314 392
#     4  10  22  41  68 103 130 167 207 278 336 393
#     4  10  24  42  60  84 130 174 218 256 320 378
#
# _framework density 20.342970000000001
#
# number of rings (size 3 to 8) (size 9 to 14) (size 15 to 20)
#    0.000    1.067    4.667    2.000    1.867    3.733 
#    0.000    0.000    2.933    2.400    0.000    0.000 
#    0.000    0.000    0.000    0.000    0.000    0.000 
#
# Total GULP energy -371704.372928 kJ/mol
# GULP energy per Si atom -12390.145764 kJ/mol
# Density = 2.029667 g / cm^3
# Si number density = 20.342970 Si / 1000 Ang^3
#
#
#
# Elastic Constant Matrix: (Units=GPa)
#
#
# Indices 1 2 3 4 5 6 
#
# 1 92.1987 49.0480 52.8696 0.0000 -10.3102 0.0000
# 2 49.0480 129.4914 58.3336 0.0000 -3.0085 0.0000
# 3 52.8696 58.3336 147.2132 0.0000 -7.5415 0.0000
# 4 0.0000 0.0000 0.0000 31.6668 0.0000 3.8283
# 5 -10.3102 -3.0085 -7.5415 0.0000 24.6373 0.0000
# 6 0.0000 0.0000 0.0000 3.8283 0.0000 21.3919
#
#
#
# Elastic Compliance Matrix: (Units=1/GPa)
#
#
# Indices 1 2 3 4 5 6 
#
# 1 0.015770 -0.004165 -0.003760 0.000000 0.004940 0.000000
# 2 -0.004165 0.010500 -0.002732 0.000000 -0.001297 0.000000
# 3 -0.003760 -0.002732 0.009273 0.000000 0.000931 0.000000
# 4 0.000000 0.000000 0.000000 0.032277 0.000000 -0.005776
# 5 0.004940 -0.001297 0.000931 0.000000 0.042783 0.000000
# 6 0.000000 0.000000 0.000000 -0.005776 0.000000 0.047780
#
#
# Mechanical properties :
#
#
# Convention : Reuss Voigt Hill
#
# Bulk Modulus (GPa) = 70.26899 76.60062 73.43481
# Shear Modulus (GPa) = 27.10887 29.44935 28.27911
#
# Velocity S-wave (km/s) = 3.65443 3.80892 3.73247
# Velocity P-wave (km/s) = 7.24041 7.55514 7.39945
#
# Compressibility (1/GPa) = 0.01423103
#
# Stress axis : x y z
#
# Youngs Moduli (GPa) = 63.40991 95.23477 107.83454
#
# Poissons Ratio (x) = 0.39662 0.40550
# Poissons Ratio (y) = 0.26408 0.29455
# Poissons Ratio (z) = 0.23845 0.26014
#
# Static dielectric constant tensor:
#      x y z
#    x 3.724500 0.000000 0.107590 
#    y 0.000000 3.579990 0.000000 
#    z 0.107590 0.000000 4.595380 
# 
# 
# High freq. dielectric constant tensor:
#      x y z
#    x 1.792230 0.000000 0.008980 
#    y 0.000000 1.779730 0.000000 
#    z 0.008980 0.000000 1.809500 
# 
# From -- ./inp_files/108450.got.cif
#   From: 2010.06.25/outbox.cif.g09.slc.cpg/sg15_55_cif.got.tgz:108450.got - 2010.06.28 07:06:18.
