data_PCOD8144721
_publ_section_title
;
Structure prediction by ZEFSAII (Michael W. Deem and Ramdas Pophale) SiO2 
 PCOD8144721
Probable space group: C 2/C
;
_chemical_formula_sum "Si O2"
_cell_formula_units_Z 64
_cell_length_a 19.164248
_cell_length_b 17.160845
_cell_length_c 14.523344
_cell_angle_alpha 90.000000
_cell_angle_beta 37.130140
_cell_angle_gamma 90.000000
_cell_volume 2883.142238
_symmetry_space_group_name_H-M "C 2/C"
_symmetry_group_IT_number 15
_symmetry_cell_setting 'monoclinic'
loop_
_space_group_symop_operation_xyz
x,y,z
-x,y,1/2-z
-x,-y,-z
x,-y,1/2+z
1/2+x,1/2+y,z
1/2-x,1/2+y,1/2-z
1/2-x,1/2-y,-z
1/2+x,1/2-y,1/2+z
loop_
_atom_site_type_symbol
_atom_site_label
_atom_site_fract_x
_atom_site_fract_y
_atom_site_fract_z
Si Si1 0.726450 0.462522 0.477018
Si Si2 0.937580 0.136517 0.480376
Si Si3 0.295892 0.370445 0.447809
Si Si4 0.911809 0.277546 0.765574
Si Si5 0.428689 0.937133 0.133644
Si Si6 0.204547 0.904081 0.700656
Si Si7 0.095823 0.305831 0.940278
Si Si8 0.265658 0.425294 0.289047
O O1 0.635931 0.409547 0.517979
O O2 0.665892 0.548705 0.543417
O O3 0.854465 0.472302 0.296616
O O4 0.749160 0.421551 0.550835
O O5 0.921092 0.228348 0.482290
O O6 0.887113 0.114804 0.634019
O O7 0.070687 0.116020 0.335719
O O8 0.211006 0.320582 0.600231
O O9 0.399919 0.314220 0.305090
O O10 0.227925 0.401496 0.430144
O O11 0.944455 0.290899 0.623929
O O12 0.000000 0.312723 0.750000
O O13 0.336631 0.892948 0.166280
O O14 0.517346 0.871040 0.072370
O O15 0.500000 0.000000 0.000000
O O16 0.272167 0.834960 0.682833
O O17 0.222838 0.982252 0.740634
#
# Coordination Sequence:
#
# PCOD8144721 Si02
#       8
#     8   8   8   8   8   8   8   8
#     4  10  25  46  70 103 135 189 238 290 347 423
#     4  11  25  43  70 100 142 186 233 294 353 421
#     4  10  22  42  68  99 138 172 235 287 351 424
#     4  11  24  42  66 104 139 183 219 294 362 423
#     4  11  22  43  70 103 138 185 230 288 350 426
#     4  11  25  45  69  99 140 184 236 290 349 425
#     4  12  26  44  69 105 139 186 234 291 368 424
#     4  10  21  44  67 104 135 180 236 281 353 425
#
# _framework density 22.198003
#
# number of rings (size 3 to 8) (size 9 to 14) (size 15 to 20)
#    0.000    1.250    2.500    2.250    5.250    5.000 
#    2.250    0.000    0.000    0.000    0.000    0.000 
#    0.000    0.000    0.000    0.000    0.000    0.000 
#
# Total GULP energy -396558.126232 kJ/mol
# GULP energy per Si atom -12392.441445 kJ/mol
# Density = 2.214748 g / cm^3
# Si number density = 22.198003 Si / 1000 Ang^3
#
#
#
# Elastic Constant Matrix: (Units=GPa)
#
#
# Indices 1 2 3 4 5 6 
#
# 1 83.6750 29.3305 30.1097 0.0000 -6.5078 0.0000
# 2 29.3305 130.1586 31.2159 0.0000 -4.1455 0.0000
# 3 30.1097 31.2159 113.6009 0.0000 -6.9860 0.0000
# 4 0.0000 0.0000 0.0000 22.6842 0.0000 8.1005
# 5 -6.5078 -4.1455 -6.9860 0.0000 28.0116 0.0000
# 6 0.0000 0.0000 0.0000 8.1005 0.0000 28.7818
#
#
#
# Elastic Compliance Matrix: (Units=1/GPa)
#
#
# Indices 1 2 3 4 5 6 
#
# 1 0.014008 -0.002386 -0.002924 0.000000 0.002172 0.000000
# 2 -0.002386 0.008644 -0.001725 0.000000 0.000295 0.000000
# 3 -0.002924 -0.001725 0.010150 0.000000 0.001597 0.000000
# 4 0.000000 0.000000 0.000000 0.049009 0.000000 -0.013793
# 5 0.002172 0.000295 0.001597 0.000000 0.036646 0.000000
# 6 0.000000 0.000000 0.000000 -0.013793 0.000000 0.038626
#
#
# Mechanical properties :
#
#
# Convention : Reuss Voigt Hill
#
# Bulk Modulus (GPa) = 53.38215 56.52741 54.95478
# Shear Modulus (GPa) = 28.18542 31.68074 29.93308
#
# Velocity S-wave (km/s) = 3.56719 3.78191 3.67612
# Velocity P-wave (km/s) = 6.40834 6.67764 6.54438
#
# Compressibility (1/GPa) = 0.01873285
#
# Stress axis : x y z
#
# Youngs Moduli (GPa) = 71.38539 115.69162 98.52487
#
# Poissons Ratio (x) = 0.27608 0.28805
# Poissons Ratio (y) = 0.17035 0.16991
# Poissons Ratio (z) = 0.20870 0.19951
#
# Static dielectric constant tensor:
#      x y z
#    x 3.875190 0.000000 0.114810 
#    y 0.000000 4.202400 0.000000 
#    z 0.114810 0.000000 4.177930 
# 
# 
# High freq. dielectric constant tensor:
#      x y z
#    x 1.866640 0.000000 0.003050 
#    y 0.000000 1.881400 0.000000 
#    z 0.003050 0.000000 1.872850 
# 
# From -- ./inp_files/163261.got.cif
#   From: 2010.06.25/outbox.cif.g09.slc.cpg/sg15_82_cif.got.tgz:163261.got - 2010.06.28 07:06:18.
