data_PCOD8144012
_publ_section_title
;
Structure prediction by ZEFSAII (Michael W. Deem and Ramdas Pophale) SiO2 
 PCOD8144012
Probable space group: C 2/C
;
_chemical_formula_sum "Si O2"
_cell_formula_units_Z 56
_cell_length_a 18.166470
_cell_length_b 11.820281
_cell_length_c 13.821556
_cell_angle_alpha 90.000000
_cell_angle_beta 68.700954
_cell_angle_gamma 90.000000
_cell_volume 2765.222681
_symmetry_space_group_name_H-M "C 2/C"
_symmetry_group_IT_number 15
_symmetry_cell_setting 'monoclinic'
loop_
_space_group_symop_operation_xyz
x,y,z
-x,y,1/2-z
-x,-y,-z
x,-y,1/2+z
1/2+x,1/2+y,z
1/2-x,1/2+y,1/2-z
1/2-x,1/2-y,-z
1/2+x,1/2-y,1/2+z
loop_
_atom_site_type_symbol
_atom_site_label
_atom_site_fract_x
_atom_site_fract_y
_atom_site_fract_z
Si Si1 0.525249 0.372323 0.975356
Si Si2 0.865061 0.822067 0.971973
Si Si3 0.579380 0.722254 0.652263
Si Si4 0.186682 0.979889 0.127445
Si Si5 0.706042 0.839476 0.146962
Si Si6 0.201215 0.418236 0.595508
Si Si7 0.316988 0.646104 0.201400
O O1 0.450092 0.298070 0.978184
O O2 0.590627 0.372007 0.860588
O O3 0.500000 0.500000 0.000000
O O4 0.560494 0.319035 0.054508
O O5 0.840734 0.715592 0.919630
O O6 0.869621 0.936192 0.906463
O O7 0.800446 0.839383 0.086460
O O8 0.500000 0.740486 0.750000
O O9 0.635480 0.630512 0.678894
O O10 0.624350 0.841177 0.622522
O O11 0.214081 0.047655 0.210702
O O12 0.263979 0.946987 0.027548
O O13 0.691482 0.772587 0.252615
O O14 0.675851 0.968386 0.165386
O O15 0.268931 0.355171 0.624551
#
# Coordination Sequence:
#
# PCOD8144012 Si02
#       7
#     8   8   8   8   8   8   8
#     4  12  22  40  64 100 129 157 216 278 339 382
#     4   9  19  39  65  92 121 163 211 270 324 379
#     4  12  26  40  62  93 134 171 213 273 325 375
#     4  10  21  41  69  93 129 165 212 276 323 384
#     4   9  21  41  62  89 126 169 218 258 315 394
#     4  11  24  44  62  93 135 171 222 263 315 404
#     4  11  24  38  71  99 120 178 215 266 338 381
#
# _framework density 20.251533999999999
#
# number of rings (size 3 to 8) (size 9 to 14) (size 15 to 20)
#    0.000    1.429    2.857    3.000    4.000    1.714 
#    2.571    0.714    0.000    0.000    0.000    0.000 
#    0.000    0.000    0.000    0.000    0.000    0.000 
#
# Total GULP energy -347274.546801 kJ/mol
# GULP energy per Si atom -12402.662386 kJ/mol
# Density = 2.020544 g / cm^3
# Si number density = 20.251534 Si / 1000 Ang^3
#
#
#
# Elastic Constant Matrix: (Units=GPa)
#
#
# Indices 1 2 3 4 5 6 
#
# 1 87.8954 45.6022 39.4348 0.0000 -10.5959 0.0000
# 2 45.6022 130.8531 42.8326 0.0000 -17.4383 0.0000
# 3 39.4348 42.8326 110.0537 0.0000 -15.2296 0.0000
# 4 0.0000 0.0000 0.0000 35.6356 0.0000 -5.9714
# 5 -10.5959 -17.4383 -15.2296 0.0000 28.9325 0.0000
# 6 0.0000 0.0000 0.0000 -5.9714 0.0000 27.7883
#
#
#
# Elastic Compliance Matrix: (Units=1/GPa)
#
#
# Indices 1 2 3 4 5 6 
#
# 1 0.015249 -0.003915 -0.003768 0.000000 0.001241 0.000000
# 2 -0.003915 0.010159 -0.002051 0.000000 0.003609 0.000000
# 3 -0.003768 -0.002051 0.011727 0.000000 0.003557 0.000000
# 4 0.000000 0.000000 0.000000 0.029110 0.000000 0.006255
# 5 0.001241 0.003609 0.003557 0.000000 0.039065 0.000000
# 6 0.000000 0.000000 0.000000 0.006255 0.000000 0.037331
#
#
# Mechanical properties :
#
#
# Convention : Reuss Voigt Hill
#
# Bulk Modulus (GPa) = 56.60931 64.94906 60.77918
# Shear Modulus (GPa) = 29.76189 31.86679 30.81434
#
# Velocity S-wave (km/s) = 3.83771 3.97110 3.90498
# Velocity P-wave (km/s) = 6.90298 7.29157 7.09993
#
# Compressibility (1/GPa) = 0.01766494
#
# Stress axis : x y z
#
# Youngs Moduli (GPa) = 65.57873 98.43329 85.27036
#
# Poissons Ratio (x) = 0.38539 0.32134
# Poissons Ratio (y) = 0.25676 0.17493
# Poissons Ratio (z) = 0.24713 0.20194
#
# Static dielectric constant tensor:
#      x y z
#    x 3.694470 0.000000 -0.009210 
#    y 0.000000 3.886690 0.000000 
#    z -0.009210 0.000000 3.636640 
# 
# 
# High freq. dielectric constant tensor:
#      x y z
#    x 1.780070 0.000000 0.003810 
#    y 0.000000 1.793860 0.000000 
#    z 0.003810 0.000000 1.790450 
# 
# From -- ./inp_files/161250.got.cif
#   From: 2010.06.25/outbox.cif.g09.slc.cpg/sg15_81_cif.got.tgz:161250.got - 2010.06.28 07:06:18.
