data_PCOD8144521
_publ_section_title
;
Structure prediction by ZEFSAII (Michael W. Deem and Ramdas Pophale) SiO2 
 PCOD8144521
Probable space group: C 2/C
;
_chemical_formula_sum "Si O2"
_cell_formula_units_Z 52
_cell_length_a 13.777660
_cell_length_b 14.572403
_cell_length_c 18.638577
_cell_angle_alpha 90.000000
_cell_angle_beta 40.878996
_cell_angle_gamma 90.000000
_cell_volume 2449.091100
_symmetry_space_group_name_H-M "C 2/C"
_symmetry_group_IT_number 15
_symmetry_cell_setting 'monoclinic'
loop_
_space_group_symop_operation_xyz
x,y,z
-x,y,1/2-z
-x,-y,-z
x,-y,1/2+z
1/2+x,1/2+y,z
1/2-x,1/2+y,1/2-z
1/2-x,1/2-y,-z
1/2+x,1/2-y,1/2+z
loop_
_atom_site_type_symbol
_atom_site_label
_atom_site_fract_x
_atom_site_fract_y
_atom_site_fract_z
Si Si1 0.500000 0.607449 0.750000
Si Si2 0.560631 0.601152 0.981414
Si Si3 0.067440 0.369737 0.925447
Si Si4 0.020778 0.264627 0.391558
Si Si5 0.622674 0.896807 0.127458
Si Si6 0.855566 0.793830 0.200507
Si Si7 0.297464 0.013306 0.555624
O O1 0.577024 0.675881 0.762137
O O2 0.625163 0.541149 0.645483
O O3 0.729964 0.605392 0.909543
O O4 0.549827 0.651283 0.911215
O O5 0.500000 0.500000 0.000000
O O6 0.470305 0.654604 0.096253
O O7 0.127051 0.315755 0.822307
O O8 0.173900 0.455305 0.886894
O O9 0.073822 0.301492 0.988922
O O10 0.898053 0.396602 0.004685
O O11 0.180231 0.313721 0.297157
O O12 0.930123 0.294589 0.370322
O O13 0.500000 0.938303 0.250000
O O14 0.644916 0.960739 0.046363
#
# Coordination Sequence:
#
# PCOD8144521 Si02
#       7
#     4   8   8   8   8   8   8
#     4  12  24  42  66 100 138 174 228 276 328 400
#     4  11  24  42  66  99 133 168 223 284 324 392
#     4   9  21  42  64  89 125 174 219 259 332 393
#     4  10  21  43  66  90 133 173 216 269 336 395
#     4  11  22  41  68 101 132 172 223 272 330 399
#     4  11  23  41  66  94 130 177 214 271 335 395
#     4  10  22  41  66  93 130 174 217 272 326 396
#
# _framework density 21.232365999999999
#
# number of rings (size 3 to 8) (size 9 to 14) (size 15 to 20)
#    0.000    1.538    3.077    1.385    0.000    4.308 
#    4.154    0.000    1.692    0.000    0.000    0.000 
#    0.000    0.000    0.000    0.000    0.000    0.000 
#
# Total GULP energy -322219.667537 kJ/mol
# GULP energy per Si atom -12393.064136 kJ/mol
# Density = 2.118404 g / cm^3
# Si number density = 21.232366 Si / 1000 Ang^3
#
#
#
# Elastic Constant Matrix: (Units=GPa)
#
#
# Indices 1 2 3 4 5 6 
#
# 1 117.6060 50.4470 43.9267 -0.0001 -11.8502 0.0000
# 2 50.4470 101.5571 41.4770 0.0000 3.3526 0.0000
# 3 43.9267 41.4770 99.8828 0.0001 -3.2523 0.0000
# 4 -0.0001 0.0000 0.0001 32.8022 0.0000 8.8737
# 5 -11.8502 3.3526 -3.2523 0.0000 33.6281 0.0000
# 6 0.0000 0.0000 0.0000 8.8737 0.0000 15.8296
#
#
#
# Elastic Compliance Matrix: (Units=1/GPa)
#
#
# Indices 1 2 3 4 5 6 
#
# 1 0.012270 -0.004937 -0.003199 0.000000 0.004507 0.000000
# 2 -0.004937 0.013938 -0.003730 0.000000 -0.003490 0.000000
# 3 -0.003199 -0.003730 0.012984 0.000000 0.000500 0.000000
# 4 0.000000 0.000000 0.000000 0.035935 0.000000 -0.020144
# 5 0.004507 -0.003490 0.000500 0.000000 0.031721 0.000000
# 6 0.000000 0.000000 0.000000 -0.020144 0.000000 0.074465
#
#
# Mechanical properties :
#
#
# Convention : Reuss Voigt Hill
#
# Bulk Modulus (GPa) = 64.68838 65.63860 65.16349
# Shear Modulus (GPa) = 23.78700 28.66498 26.22599
#
# Velocity S-wave (km/s) = 3.35075 3.67830 3.51834
# Velocity P-wave (km/s) = 6.74559 7.00153 6.87475
#
# Compressibility (1/GPa) = 0.01545873
#
# Stress axis : x y z
#
# Youngs Moduli (GPa) = 81.50176 71.74772 77.01832
#
# Poissons Ratio (x) = 0.35422 0.24639
# Poissons Ratio (y) = 0.40237 0.28729
# Poissons Ratio (z) = 0.26073 0.26763
#
# Static dielectric constant tensor:
#      x y z
#    x 3.989310 0.000000 0.169640 
#    y 0.000000 3.977840 0.000000 
#    z 0.169640 0.000000 3.959880 
# 
# 
# High freq. dielectric constant tensor:
#      x y z
#    x 1.835130 0.000000 -0.000500 
#    y 0.000000 1.825220 0.000000 
#    z -0.000500 0.000000 1.830780 
# 
# From -- ./inp_files/205655.got.cif
#   From: 2010.06.25/outbox.cif.g09.slc.cpg/sg15_103_cif.got.tgz:205655.got - 2010.06.28 07:06:18.
