data_PCOD8144433
_publ_section_title
;
Structure prediction by ZEFSAII (Michael W. Deem and Ramdas Pophale) SiO2 
 PCOD8144433
Probable space group: C 2/C
;
_chemical_formula_sum "Si O2"
_cell_formula_units_Z 56
_cell_length_a 8.332263
_cell_length_b 23.507272
_cell_length_c 17.435497
_cell_angle_alpha 90.000000
_cell_angle_beta 49.209948
_cell_angle_gamma 90.000000
_cell_volume 2585.578052
_symmetry_space_group_name_H-M "C 2/C"
_symmetry_group_IT_number 15
_symmetry_cell_setting 'monoclinic'
loop_
_space_group_symop_operation_xyz
x,y,z
-x,y,1/2-z
-x,-y,-z
x,-y,1/2+z
1/2+x,1/2+y,z
1/2-x,1/2+y,1/2-z
1/2-x,1/2-y,-z
1/2+x,1/2-y,1/2+z
loop_
_atom_site_type_symbol
_atom_site_label
_atom_site_fract_x
_atom_site_fract_y
_atom_site_fract_z
Si Si1 0.860132 0.395257 0.366065
Si Si2 0.628287 0.588463 0.477815
Si Si3 0.537414 0.214611 0.575116
Si Si4 0.109654 0.695737 0.043157
Si Si5 0.204411 0.415504 0.732423
Si Si6 0.320116 0.296530 0.746724
Si Si7 0.048570 0.495287 0.573177
O O1 0.610893 0.398110 0.422800
O O2 0.922106 0.332697 0.373607
O O3 0.922787 0.440423 0.410217
O O4 0.000000 0.411749 0.250000
O O5 0.777718 0.642691 0.450979
O O6 0.636783 0.566380 0.386101
O O7 0.725179 0.536296 0.494826
O O8 0.750000 0.250000 0.500000
O O9 0.463327 0.182177 0.521175
O O10 0.358477 0.260000 0.657469
O O11 0.909901 0.718478 0.152157
O O12 0.250000 0.750000 0.000000
O O13 0.328926 0.364519 0.734097
O O14 0.000000 0.392717 0.750000
O O15 0.132555 0.463305 0.817422
O O16 0.500000 0.277921 0.750000
O O17 0.000000 0.500000 0.500000
#
# Coordination Sequence:
#
# PCOD8144433 Si02
#       7
#     8   8   8   8   8   8   8
#     4  12  27  47  70 103 147 184 233 296 359 421
#     4  11  24  46  73 100 137 192 232 288 351 418
#     4  12  26  43  68 103 143 187 234 289 356 419
#     4  12  25  42  68 102 142 179 237 292 346 414
#     4  10  21  42  72 102 134 174 239 285 339 413
#     4  12  24  41  69 103 136 182 237 286 346 413
#     4  11  24  46  75 107 142 179 234 293 352 423
#
# _framework density 21.658601000000001
#
# number of rings (size 3 to 8) (size 9 to 14) (size 15 to 20)
#    0.000    0.571    4.286    5.571    2.000    0.000 
#    0.000    3.571    0.000    0.000    0.000    0.000 
#    0.000    0.000    0.000    0.000    0.000    0.000 
#
# Total GULP energy -347025.024978 kJ/mol
# GULP energy per Si atom -12393.750892 kJ/mol
# Density = 2.160930 g / cm^3
# Si number density = 21.658601 Si / 1000 Ang^3
#
#
#
# Elastic Constant Matrix: (Units=GPa)
#
#
# Indices 1 2 3 4 5 6 
#
# 1 89.1512 35.3184 75.1499 0.0000 1.8835 0.0000
# 2 35.3184 112.8914 33.4190 0.0000 -0.3450 0.0000
# 3 75.1499 33.4190 149.5527 0.0000 -11.7103 0.0000
# 4 0.0000 0.0000 0.0000 41.0402 0.0000 7.6309
# 5 1.8835 -0.3450 -11.7103 0.0000 40.7473 0.0000
# 6 0.0000 0.0000 0.0000 7.6309 0.0000 28.9840
#
#
#
# Elastic Compliance Matrix: (Units=1/GPa)
#
#
# Indices 1 2 3 4 5 6 
#
# 1 0.021382 -0.003672 -0.010234 0.000000 -0.003961 0.000000
# 2 -0.003672 0.010128 -0.000407 0.000000 0.000138 0.000000
# 3 -0.010234 -0.000407 0.012232 0.000000 0.003985 0.000000
# 4 0.000000 0.000000 0.000000 0.025621 0.000000 -0.006745
# 5 -0.003961 0.000138 0.003985 0.000000 0.025871 0.000000
# 6 0.000000 0.000000 0.000000 -0.006745 0.000000 0.036278
#
#
# Mechanical properties :
#
#
# Convention : Reuss Voigt Hill
#
# Bulk Modulus (GPa) = 66.15619 71.04112 68.59865
# Shear Modulus (GPa) = 30.27074 36.00152 33.13613
#
# Velocity S-wave (km/s) = 3.74255 4.08147 3.91567
# Velocity P-wave (km/s) = 7.02046 7.42178 7.22391
#
# Compressibility (1/GPa) = 0.01511574
#
# Stress axis : x y z
#
# Youngs Moduli (GPa) = 46.76830 98.73803 81.75158
#
# Poissons Ratio (x) = 0.36256 0.83665
# Poissons Ratio (y) = 0.17173 0.03329
# Poissons Ratio (z) = 0.47863 0.04020
#
# Static dielectric constant tensor:
#      x y z
#    x 3.759810 0.000000 -0.280880 
#    y 0.000000 3.864100 0.000000 
#    z -0.280880 0.000000 3.787470 
# 
# 
# High freq. dielectric constant tensor:
#      x y z
#    x 1.846790 0.000000 0.002750 
#    y 0.000000 1.857400 0.000000 
#    z 0.002750 0.000000 1.864180 
# 
# From -- ./inp_files/193188.got.cif
#   From: 2010.06.25/outbox.cif.g09.slc.cpg/sg15_97_cif.got.tgz:193188.got - 2010.06.28 07:06:18.
