data_PCOD8144240
_publ_section_title
;
Structure prediction by ZEFSAII (Michael W. Deem and Ramdas Pophale) SiO2 
 PCOD8144240
Probable space group: C 2/C
;
_chemical_formula_sum "Si O2"
_cell_formula_units_Z 60
_cell_length_a 22.965960
_cell_length_b 22.888720
_cell_length_c 9.751337
_cell_angle_alpha 90.000000
_cell_angle_beta 35.981446
_cell_angle_gamma 90.000000
_cell_volume 3011.586387
_symmetry_space_group_name_H-M "C 2/C"
_symmetry_group_IT_number 15
_symmetry_cell_setting 'monoclinic'
loop_
_space_group_symop_operation_xyz
x,y,z
-x,y,1/2-z
-x,-y,-z
x,-y,1/2+z
1/2+x,1/2+y,z
1/2-x,1/2+y,1/2-z
1/2-x,1/2-y,-z
1/2+x,1/2-y,1/2+z
loop_
_atom_site_type_symbol
_atom_site_label
_atom_site_fract_x
_atom_site_fract_y
_atom_site_fract_z
Si Si1 0.660216 0.770818 0.578200
Si Si2 0.491512 0.322027 0.420934
Si Si3 0.387029 0.123072 0.955379
Si Si4 0.221562 0.215351 0.185664
Si Si5 0.570531 0.994808 0.239849
Si Si6 0.814102 0.600271 0.390193
Si Si7 0.000000 0.998783 0.750000
Si Si8 0.089096 0.070158 0.831951
O O1 0.750000 0.750000 0.500000
O O2 0.558173 0.736861 0.811632
O O3 0.691833 0.759233 0.362820
O O4 0.643724 0.839857 0.625224
O O5 0.500000 0.345328 0.250000
O O6 0.376525 0.317485 0.674614
O O7 0.521723 0.372522 0.467889
O O8 0.500000 0.147796 0.750000
O O9 0.380188 0.069767 0.859910
O O10 0.311442 0.173680 0.058677
O O11 0.356886 0.094955 0.156728
O O12 0.250000 0.250000 0.000000
O O13 0.500000 0.007032 0.250000
O O14 0.500000 0.000000 0.500000
O O15 0.653793 0.044570 0.082090
O O16 0.696732 0.597893 0.611400
O O17 0.933486 0.034114 0.765671
O O18 0.073305 0.962512 0.508196
#
# Coordination Sequence:
#
# PCOD8144240 Si02
#       8
#     8   8   8   8   8   8   4   8
#     4  11  22  43  67  95 126 179 223 262 334 404
#     4  10  21  42  66  88 135 167 210 268 328 387
#     4  11  24  44  68  96 140 178 220 277 347 399
#     4  11  26  41  67 102 130 172 222 279 331 386
#     4  11  24  43  65 100 135 176 225 285 341 404
#     4  12  24  42  74  97 132 182 228 274 341 413
#     4  10  26  40  62  96 134 170 224 276 324 390
#     4  11  23  42  65  94 131 175 220 270 331 393
#
# _framework density 19.923054
#
# number of rings (size 3 to 8) (size 9 to 14) (size 15 to 20)
#    0.000    1.067    6.000    0.800    3.733    4.800 
#    0.000    0.000    0.000    0.000    0.000    0.000 
#    0.000    0.000    0.000    0.000    0.000    0.000 
#
# Total GULP energy -371792.604385 kJ/mol
# GULP energy per Si atom -12393.086813 kJ/mol
# Density = 1.987771 g / cm^3
# Si number density = 19.923054 Si / 1000 Ang^3
#
#
#
# Elastic Constant Matrix: (Units=GPa)
#
#
# Indices 1 2 3 4 5 6 
#
# 1 85.3379 36.6424 42.5803 0.0000 -5.5638 0.0000
# 2 36.6424 124.0642 44.5345 0.0000 -3.8608 0.0000
# 3 42.5803 44.5345 120.6097 0.0000 -5.1012 0.0000
# 4 0.0000 0.0000 0.0000 24.2855 0.0000 -8.6922
# 5 -5.5638 -3.8608 -5.1012 0.0000 45.8259 0.0000
# 6 0.0000 0.0000 0.0000 -8.6922 0.0000 37.4333
#
#
#
# Elastic Compliance Matrix: (Units=1/GPa)
#
#
# Indices 1 2 3 4 5 6 
#
# 1 0.015154 -0.002925 -0.004222 0.000000 0.001123 0.000000
# 2 -0.002925 0.009864 -0.002602 0.000000 0.000186 0.000000
# 3 -0.004222 -0.002602 0.010762 0.000000 0.000466 0.000000
# 4 0.000000 0.000000 0.000000 0.044909 0.000000 0.010428
# 5 0.001123 0.000186 0.000466 0.000000 0.022026 0.000000
# 6 0.000000 0.000000 0.000000 0.010428 0.000000 0.029136
#
#
# Mechanical properties :
#
#
# Convention : Reuss Voigt Hill
#
# Bulk Modulus (GPa) = 61.41763 64.16957 62.79360
# Shear Modulus (GPa) = 31.89247 35.25926 33.57587
#
# Velocity S-wave (km/s) = 4.00532 4.21143 4.10967
# Velocity P-wave (km/s) = 7.23080 7.47842 7.35565
#
# Compressibility (1/GPa) = 0.01628197
#
# Stress axis : x y z
#
# Youngs Moduli (GPa) = 65.98825 101.37899 92.91711
#
# Poissons Ratio (x) = 0.29655 0.39234
# Poissons Ratio (y) = 0.19302 0.24174
# Poissons Ratio (z) = 0.27863 0.26375
#
# Static dielectric constant tensor:
#      x y z
#    x 3.303590 0.000000 0.236990 
#    y 0.000000 3.142340 0.000000 
#    z 0.236990 0.000000 3.515540 
# 
# 
# High freq. dielectric constant tensor:
#      x y z
#    x 1.782310 0.000000 -0.006050 
#    y 0.000000 1.782960 0.000000 
#    z -0.006050 0.000000 1.785160 
# 
# From -- ./inp_files/58741.got.cif
#   From: 2010.06.25/outbox.cif.g09.slc.cpg/sg15_30_cif.got.tgz:58741.got - 2010.06.28 07:06:18.
