data_PCOD8144677
_publ_section_title
;
Structure prediction by ZEFSAII (Michael W. Deem and Ramdas Pophale) SiO2 
 PCOD8144677
Probable space group: C 2/C
;
_chemical_formula_sum "Si O2"
_cell_formula_units_Z 56
_cell_length_a 17.899576
_cell_length_b 27.675738
_cell_length_c 8.948980
_cell_angle_alpha 90.000000
_cell_angle_beta 37.136046
_cell_angle_gamma 90.000000
_cell_volume 2676.354305
_symmetry_space_group_name_H-M "C 2/C"
_symmetry_group_IT_number 15
_symmetry_cell_setting 'monoclinic'
loop_
_space_group_symop_operation_xyz
x,y,z
-x,y,1/2-z
-x,-y,-z
x,-y,1/2+z
1/2+x,1/2+y,z
1/2-x,1/2+y,1/2-z
1/2-x,1/2-y,-z
1/2+x,1/2-y,1/2+z
loop_
_atom_site_type_symbol
_atom_site_label
_atom_site_fract_x
_atom_site_fract_y
_atom_site_fract_z
Si Si1 0.593273 0.680923 0.353563
Si Si2 0.710630 0.163649 0.242040
Si Si3 0.636150 0.400794 0.543258
Si Si4 0.185699 0.175383 0.732199
Si Si5 0.857400 0.247400 0.465077
Si Si6 0.613837 0.943015 0.889581
Si Si7 0.335798 0.969632 0.368688
O O1 0.650164 0.660519 0.416279
O O2 0.449883 0.688642 0.614742
O O3 0.665051 0.731483 0.178838
O O4 0.622484 0.643732 0.176277
O O5 0.640796 0.197642 0.475337
O O6 0.643456 0.112907 0.342008
O O7 0.717499 0.180838 0.058962
O O8 0.684260 0.378505 0.308091
O O9 0.729275 0.440753 0.454125
O O10 0.500000 0.425360 0.750000
O O11 0.226347 0.215271 0.789003
O O12 0.000000 0.228188 0.250000
O O13 0.672021 0.973499 0.660385
O O14 0.466406 0.946607 0.113849
O O15 0.676315 0.967211 0.934758
#
# Coordination Sequence:
#
# PCOD8144677 Si02
#       7
#     8   8   8   8   8   8   8
#     4   9  18  36  55  82 114 158 189 234 301 354
#     4  12  20  33  58  90 110 149 208 248 277 349
#     4   9  18  37  63  81 114 155 196 233 290 359
#     4   9  20  35  54  84 120 156 181 239 306 348
#     4   9  20  35  55  79 118 158 195 237 296 351
#     4  10  24  37  64  83 115 158 193 247 301 349
#     4  10  21  44  57  84 119 153 199 242 304 351
#
# _framework density 20.923985999999999
#
# number of rings (size 3 to 8) (size 9 to 14) (size 15 to 20)
#    0.000    2.286    1.429    3.000    4.000    0.000 
#    0.000    2.143    0.000    0.000    0.000    0.000 
#    0.000    0.000    0.000    0.000    0.000    0.000 
#
# Total GULP energy -346935.742424 kJ/mol
# GULP energy per Si atom -12390.562229 kJ/mol
# Density = 2.087636 g / cm^3
# Si number density = 20.923986 Si / 1000 Ang^3
#
#
#
# Elastic Constant Matrix: (Units=GPa)
#
#
# Indices 1 2 3 4 5 6 
#
# 1 92.3702 40.7335 28.5764 0.0000 4.4707 0.0000
# 2 40.7335 121.3283 38.3816 0.0000 0.7672 0.0000
# 3 28.5764 38.3816 60.2008 0.0000 17.6227 0.0000
# 4 0.0000 0.0000 0.0000 24.8717 0.0000 -5.6610
# 5 4.4707 0.7672 17.6227 0.0000 29.8564 0.0000
# 6 0.0000 0.0000 0.0000 -5.6610 0.0000 54.7987
#
#
#
# Elastic Compliance Matrix: (Units=1/GPa)
#
#
# Indices 1 2 3 4 5 6 
#
# 1 0.013609 -0.003072 -0.004748 0.000000 0.000844 0.000000
# 2 -0.003072 0.011514 -0.007169 0.000000 0.004396 0.000000
# 3 -0.004748 -0.007169 0.028014 0.000000 -0.015640 0.000000
# 4 0.000000 0.000000 0.000000 0.041174 0.000000 0.004254
# 5 0.000844 0.004396 -0.015640 0.000000 0.042486 0.000000
# 6 0.000000 0.000000 0.000000 0.004254 0.000000 0.018688
#
#
# Mechanical properties :
#
#
# Convention : Reuss Voigt Hill
#
# Bulk Modulus (GPa) = 43.18242 54.36471 48.77357
# Shear Modulus (GPa) = 25.88219 32.98590 29.43405
#
# Velocity S-wave (km/s) = 3.52086 3.97478 3.75469
# Velocity P-wave (km/s) = 6.10010 6.86320 6.49287
#
# Compressibility (1/GPa) = 0.02315757
#
# Stress axis : x y z
#
# Youngs Moduli (GPa) = 73.48145 86.85363 35.69637
#
# Poissons Ratio (x) = 0.26683 0.16950
# Poissons Ratio (y) = 0.22575 0.25591
# Poissons Ratio (z) = 0.34891 0.62266
#
# Static dielectric constant tensor:
#      x y z
#    x 4.188780 0.000000 -0.012920 
#    y 0.000000 3.708970 0.000000 
#    z -0.012920 0.000000 3.696540 
# 
# 
# High freq. dielectric constant tensor:
#      x y z
#    x 1.835690 0.000000 0.004060 
#    y 0.000000 1.807310 0.000000 
#    z 0.004060 0.000000 1.805170 
# 
# From -- ./inp_files/52609.got.cif
#   From: 2010.06.25/outbox.cif.g09.slc.cpg/sg15_27_cif.got.tgz:52609.got - 2010.06.28 07:06:18.
