data_PCOD8144650
_publ_section_title
;
Structure prediction by ZEFSAII (Michael W. Deem and Ramdas Pophale) SiO2 
 PCOD8144650
Probable space group: C 2/C
;
_chemical_formula_sum "Si O2"
_cell_formula_units_Z 40
_cell_length_a 9.436921
_cell_length_b 21.424376
_cell_length_c 8.560668
_cell_angle_alpha 90.000000
_cell_angle_beta 96.753904
_cell_angle_gamma 90.000000
_cell_volume 1718.786127
_symmetry_space_group_name_H-M "C 2/C"
_symmetry_group_IT_number 15
_symmetry_cell_setting 'monoclinic'
loop_
_space_group_symop_operation_xyz
x,y,z
-x,y,1/2-z
-x,-y,-z
x,-y,1/2+z
1/2+x,1/2+y,z
1/2-x,1/2+y,1/2-z
1/2-x,1/2-y,-z
1/2+x,1/2-y,1/2+z
loop_
_atom_site_type_symbol
_atom_site_label
_atom_site_fract_x
_atom_site_fract_y
_atom_site_fract_z
Si Si1 0.004529 0.676153 0.564939
Si Si2 0.256614 0.086657 0.940216
Si Si3 0.908499 0.808304 0.961652
Si Si4 0.206453 0.151361 0.379759
Si Si5 0.832775 0.023587 0.253906
O O1 0.846352 0.679251 0.477055
O O2 0.000000 0.685203 0.750000
O O3 0.080490 0.611313 0.525946
O O4 0.094098 0.734306 0.502343
O O5 0.243990 0.042783 0.786664
O O6 0.158083 0.148909 0.909032
O O7 0.206317 0.043966 0.076891
O O8 0.812981 0.822131 0.796682
O O9 0.071454 0.829428 0.964398
O O10 0.220490 0.076380 0.373830
O O11 0.000000 0.014696 0.250000
#
# Coordination Sequence:
#
# PCOD8144650 Si02
#       5
#     8   8   8   8   8
#     4  12  26  42  68 107 144 178 226 285 353 411
#     4  11  26  44  70 103 136 183 236 281 348 409
#     4  10  21  45  71  98 133 186 225 286 340 413
#     4  10  21  43  71  95 141 178 222 280 355 393
#     4  11  23  46  73  97 140 182 236 289 343 411
#
# _framework density 23.272238999999999
#
# number of rings (size 3 to 8) (size 9 to 14) (size 15 to 20)
#    0.000    1.200    6.000    1.800    2.800    4.000 
#    0.000    0.000    0.000    0.000    0.000    0.000 
#    0.000    0.000    0.000    0.000    0.000    0.000 
#
# Total GULP energy -247985.128775 kJ/mol
# GULP energy per Si atom -12399.256439 kJ/mol
# Density = 2.321927 g / cm^3
# Si number density = 23.272239 Si / 1000 Ang^3
#
#
#
# Elastic Constant Matrix: (Units=GPa)
#
#
# Indices 1 2 3 4 5 6 
#
# 1 96.7563 46.8378 47.3065 0.0000 30.3963 0.0000
# 2 46.8378 149.3931 38.7989 0.0000 18.7326 0.0000
# 3 47.3065 38.7989 49.9989 0.0000 18.2428 0.0000
# 4 0.0000 0.0000 0.0000 11.8183 0.0000 6.8977
# 5 30.3963 18.7326 18.2428 0.0000 39.6949 0.0000
# 6 0.0000 0.0000 0.0000 6.8977 0.0000 37.8049
#
#
#
# Elastic Compliance Matrix: (Units=1/GPa)
#
#
# Indices 1 2 3 4 5 6 
#
# 1 0.021648 -0.001516 -0.016242 0.000000 -0.008397 0.000000
# 2 -0.001516 0.008534 -0.004977 0.000000 -0.000579 0.000000
# 3 -0.016242 -0.004977 0.040652 0.000000 -0.003896 0.000000
# 4 0.000000 0.000000 0.000000 0.094699 0.000000 -0.017278
# 5 -0.008397 -0.000579 -0.003896 0.000000 0.033686 0.000000
# 6 0.000000 0.000000 0.000000 -0.017278 0.000000 0.029604
#
#
# Mechanical properties :
#
#
# Convention : Reuss Voigt Hill
#
# Bulk Modulus (GPa) = 39.42586 62.44832 50.93709
# Shear Modulus (GPa) = 17.68352 28.74396 23.21374
#
# Velocity S-wave (km/s) = 2.75954 3.51824 3.16173
# Velocity P-wave (km/s) = 5.20877 6.58757 5.93832
#
# Compressibility (1/GPa) = 0.02536406
#
# Stress axis : x y z
#
# Youngs Moduli (GPa) = 46.19273 117.17559 24.59916
#
# Poissons Ratio (x) = 0.17763 0.39955
# Poissons Ratio (y) = 0.07003 0.12242
# Poissons Ratio (z) = 0.75028 0.58316
#
# Static dielectric constant tensor:
#      x y z
#    x 4.100160 0.000000 -0.074640 
#    y 0.000000 4.739260 0.000000 
#    z -0.074640 0.000000 3.850680 
# 
# 
# High freq. dielectric constant tensor:
#      x y z
#    x 1.921330 0.000000 -0.003400 
#    y 0.000000 1.941100 0.000000 
#    z -0.003400 0.000000 1.890570 
# 
# From -- ./inp_files/23778.got.cif
#   From: 2010.06.25/outbox.cif.g09.slc.cpg/sg15_12_cif.got.tgz:23778.got - 2010.06.28 07:06:18.
