data_PCOD8144631
_publ_section_title
;
Structure prediction by ZEFSAII (Michael W. Deem and Ramdas Pophale) SiO2 
 PCOD8144631
Probable space group: C 2/C
;
_chemical_formula_sum "Si O2"
_cell_formula_units_Z 56
_cell_length_a 8.972745
_cell_length_b 17.768656
_cell_length_c 17.502838
_cell_angle_alpha 90.000000
_cell_angle_beta 71.952149
_cell_angle_gamma 90.000000
_cell_volume 2653.240919
_symmetry_space_group_name_H-M "C 2/C"
_symmetry_group_IT_number 15
_symmetry_cell_setting 'monoclinic'
loop_
_space_group_symop_operation_xyz
x,y,z
-x,y,1/2-z
-x,-y,-z
x,-y,1/2+z
1/2+x,1/2+y,z
1/2-x,1/2+y,1/2-z
1/2-x,1/2-y,-z
1/2+x,1/2-y,1/2+z
loop_
_atom_site_type_symbol
_atom_site_label
_atom_site_fract_x
_atom_site_fract_y
_atom_site_fract_z
Si Si1 0.239045 0.504281 0.022301
Si Si2 0.581865 0.297138 0.815509
Si Si3 0.606884 0.007073 0.877782
Si Si4 0.484001 0.299349 0.137828
Si Si5 0.999798 0.120404 0.478499
Si Si6 0.888672 0.640153 0.205069
Si Si7 0.744450 0.151675 0.794823
O O1 0.339838 0.572568 0.041599
O O2 0.082310 0.489242 0.096172
O O3 0.180216 0.527012 0.947776
O O4 0.345778 0.430579 0.005190
O O5 0.500000 0.319178 0.750000
O O6 0.492553 0.334123 0.900631
O O7 0.754985 0.328568 0.780850
O O8 0.594391 0.207108 0.824904
O O9 0.679382 0.067154 0.807722
O O10 0.665030 0.923616 0.845692
O O11 0.470923 0.209043 0.146833
O O12 0.638966 0.329822 0.154133
O O13 0.332520 0.338757 0.199990
O O14 0.491435 0.319578 0.047918
O O15 0.000000 0.601518 0.250000
#
# Coordination Sequence:
#
# PCOD8144631 Si02
#       7
#     8   8   8   8   8   8   8
#     4  10  24  40  60 101 136 159 225 273 318 407
#     4  11  24  42  65  96 130 165 218 273 322 396
#     4  11  23  41  65  96 134 174 207 282 334 374
#     4  10  21  43  70  94 125 175 226 265 311 413
#     4  11  23  43  67  93 128 180 212 269 333 389
#     4  11  22  42  65  95 130 172 224 265 319 398
#     4  10  22  43  66  96 129 170 221 266 327 394
#
# _framework density 21.106262000000001
#
# number of rings (size 3 to 8) (size 9 to 14) (size 15 to 20)
#    0.000    1.429    4.286    1.714    0.000    9.143 
#    2.571    4.286    0.000    0.000    0.000    0.000 
#    0.000    0.000    0.000    0.000    0.000    0.000 
#
# Total GULP energy -347205.769155 kJ/mol
# GULP energy per Si atom -12400.206041 kJ/mol
# Density = 2.105822 g / cm^3
# Si number density = 21.106262 Si / 1000 Ang^3
#
#
#
# Elastic Constant Matrix: (Units=GPa)
#
#
# Indices 1 2 3 4 5 6 
#
# 1 67.3583 34.2875 25.6535 0.0000 5.9102 0.0000
# 2 34.2875 139.1619 57.1677 0.0000 -6.4887 0.0000
# 3 25.6535 57.1677 120.1364 0.0000 13.8858 0.0000
# 4 0.0000 0.0000 0.0000 28.8753 0.0000 3.4456
# 5 5.9102 -6.4887 13.8858 0.0000 23.3811 0.0000
# 6 0.0000 0.0000 0.0000 3.4456 0.0000 17.2170
#
#
#
# Elastic Compliance Matrix: (Units=1/GPa)
#
#
# Indices 1 2 3 4 5 6 
#
# 1 0.017852 -0.004091 -0.001302 0.000000 -0.004875 0.000000
# 2 -0.004091 0.010545 -0.004941 0.000000 0.006895 0.000000
# 3 -0.001302 -0.004941 0.011890 0.000000 -0.008104 0.000000
# 4 0.000000 0.000000 0.000000 0.035479 0.000000 -0.007100
# 5 -0.004875 0.006895 -0.008104 0.000000 0.050728 0.000000
# 6 0.000000 0.000000 0.000000 -0.007100 0.000000 0.059503
#
#
# Mechanical properties :
#
#
# Convention : Reuss Voigt Hill
#
# Bulk Modulus (GPa) = 50.97213 62.31935 56.64574
# Shear Modulus (GPa) = 23.45158 27.86454 25.65806
#
# Velocity S-wave (km/s) = 3.33696 3.63740 3.49042
# Velocity P-wave (km/s) = 6.24898 6.87252 6.56815
#
# Compressibility (1/GPa) = 0.01961856
#
# Stress axis : x y z
#
# Youngs Moduli (GPa) = 56.01627 94.82917 84.10471
#
# Poissons Ratio (x) = 0.38794 0.10950
# Poissons Ratio (y) = 0.22916 0.41560
# Poissons Ratio (z) = 0.07293 0.46859
#
# Static dielectric constant tensor:
#      x y z
#    x 3.928030 0.000000 -0.085590 
#    y 0.000000 3.814240 0.000000 
#    z -0.085590 0.000000 3.702660 
# 
# 
# High freq. dielectric constant tensor:
#      x y z
#    x 1.833560 0.000000 0.000760 
#    y 0.000000 1.827550 0.000000 
#    z 0.000760 0.000000 1.821610 
# 
# From -- ./inp_files/190892.got.cif
#   From: 2010.06.25/outbox.cif.g09.slc.cpg/sg15_96_cif.got.tgz:190892.got - 2010.06.28 07:06:18.
