data_PCOD8144374
_publ_section_title
;
Structure prediction by ZEFSAII (Michael W. Deem and Ramdas Pophale) SiO2 
 PCOD8144374
Probable space group: C 2/C
;
_chemical_formula_sum "Si O2"
_cell_formula_units_Z 48
_cell_length_a 11.405337
_cell_length_b 16.183904
_cell_length_c 13.248631
_cell_angle_alpha 90.000000
_cell_angle_beta 110.010628
_cell_angle_gamma 90.000000
_cell_volume 2297.835354
_symmetry_space_group_name_H-M "C 2/C"
_symmetry_group_IT_number 15
_symmetry_cell_setting 'monoclinic'
loop_
_space_group_symop_operation_xyz
x,y,z
-x,y,1/2-z
-x,-y,-z
x,-y,1/2+z
1/2+x,1/2+y,z
1/2-x,1/2+y,1/2-z
1/2-x,1/2-y,-z
1/2+x,1/2-y,1/2+z
loop_
_atom_site_type_symbol
_atom_site_label
_atom_site_fract_x
_atom_site_fract_y
_atom_site_fract_z
Si Si1 0.175518 0.897542 0.911341
Si Si2 0.461502 0.911785 0.022783
Si Si3 0.304522 0.746704 0.225119
Si Si4 0.368654 0.250548 0.964215
Si Si5 0.586504 0.646076 0.603124
Si Si6 0.500000 0.119402 0.750000
Si Si7 0.500000 0.473306 0.250000
O O1 0.324006 0.896979 0.937958
O O2 0.134701 0.814247 0.840439
O O3 0.146079 0.895626 0.021217
O O4 0.105147 0.973854 0.838780
O O5 0.555870 0.836897 0.020246
O O6 0.458049 0.931279 0.140837
O O7 0.500000 0.000000 0.000000
O O8 0.320552 0.713073 0.343092
O O9 0.162631 0.772583 0.159713
O O10 0.379298 0.830348 0.244381
O O11 0.250000 0.250000 0.000000
O O12 0.450720 0.322797 0.034919
O O13 0.575970 0.581073 0.691280
#
# Coordination Sequence:
#
# PCOD8144374 Si02
#       7
#     8   8   8   8   8   4   4
#     4  12  24  46  69 103 132 179 234 284 338 409
#     4  11  25  43  67  99 138 175 226 283 340 404
#     4  11  22  43  73  97 129 175 237 274 337 414
#     4  11  25  45  70  99 139 180 225 284 345 409
#     4  12  24  46  71 101 136 180 229 284 342 411
#     4  10  21  42  69  94 122 178 218 278 333 404
#     4  12  29  42  69 104 146 180 224 290 353 404
#
# _framework density 20.889226000000001
#
# number of rings (size 3 to 8) (size 9 to 14) (size 15 to 20)
#    0.000    0.667    3.333    5.500    7.000    0.000 
#    3.000    0.000    0.000    0.000    0.000    0.000 
#    0.000    0.000    0.000    0.000    0.000    0.000 
#
# Total GULP energy -297442.001970 kJ/mol
# GULP energy per Si atom -12393.416749 kJ/mol
# Density = 2.084168 g / cm^3
# Si number density = 20.889226 Si / 1000 Ang^3
#
#
#
# Elastic Constant Matrix: (Units=GPa)
#
#
# Indices 1 2 3 4 5 6 
#
# 1 116.2066 26.5631 42.0732 0.0000 -3.2132 0.0000
# 2 26.5631 82.6411 38.8608 0.0000 -5.0918 0.0000
# 3 42.0732 38.8608 133.4863 0.0000 -5.9491 0.0000
# 4 0.0000 0.0000 0.0000 31.6221 0.0000 4.4549
# 5 -3.2132 -5.0918 -5.9491 0.0000 35.7862 0.0000
# 6 0.0000 0.0000 0.0000 4.4549 0.0000 33.9299
#
#
#
# Elastic Compliance Matrix: (Units=1/GPa)
#
#
# Indices 1 2 3 4 5 6 
#
# 1 0.009994 -0.001997 -0.002560 0.000000 0.000188 0.000000
# 2 -0.001997 0.014481 -0.003529 0.000000 0.001295 0.000000
# 3 -0.002560 -0.003529 0.009362 0.000000 0.000824 0.000000
# 4 0.000000 0.000000 0.000000 0.032219 0.000000 -0.004230
# 5 0.000188 0.001295 0.000824 0.000000 0.028282 0.000000
# 6 0.000000 0.000000 0.000000 -0.004230 0.000000 0.030028
#
#
# Mechanical properties :
#
#
# Convention : Reuss Voigt Hill
#
# Bulk Modulus (GPa) = 56.60582 60.81422 58.71002
# Shear Modulus (GPa) = 34.14655 35.25675 34.70165
#
# Velocity S-wave (km/s) = 4.04747 4.11274 4.08023
# Velocity P-wave (km/s) = 6.99997 7.19227 7.09677
#
# Compressibility (1/GPa) = 0.01766603
#
# Stress axis : x y z
#
# Youngs Moduli (GPa) = 100.06037 69.05366 106.80990
#
# Poissons Ratio (x) = 0.13789 0.27346
# Poissons Ratio (y) = 0.19980 0.37691
# Poissons Ratio (z) = 0.25618 0.24368
#
# Static dielectric constant tensor:
#      x y z
#    x 6.024640 0.000000 -6.053260 
#    y 0.000000 2.754040 0.000000 
#    z -6.053260 0.000000 21.705210 
# 
# 
# High freq. dielectric constant tensor:
#      x y z
#    x 1.826850 0.000000 0.010060 
#    y 0.000000 1.802860 0.000000 
#    z 0.010060 0.000000 1.846040 
# 
# From -- ./inp_files/87905.got.cif
#   From: 2010.06.25/outbox.cif.g09.slc.cpg/sg15_44_cif.got.tgz:87905.got - 2010.06.28 07:06:18.
