data_PCOD8144794
_publ_section_title
;
Structure prediction by ZEFSAII (Michael W. Deem and Ramdas Pophale) SiO2 
 PCOD8144794
Probable space group: C 2/C
;
_chemical_formula_sum "Si O2"
_cell_formula_units_Z 40
_cell_length_a 17.905610
_cell_length_b 22.110980
_cell_length_c 9.238619
_cell_angle_alpha 90.000000
_cell_angle_beta 28.534565
_cell_angle_gamma 90.000000
_cell_volume 1747.226730
_symmetry_space_group_name_H-M "C 2/C"
_symmetry_group_IT_number 15
_symmetry_cell_setting 'monoclinic'
loop_
_space_group_symop_operation_xyz
x,y,z
-x,y,1/2-z
-x,-y,-z
x,-y,1/2+z
1/2+x,1/2+y,z
1/2-x,1/2+y,1/2-z
1/2-x,1/2-y,-z
1/2+x,1/2-y,1/2+z
loop_
_atom_site_type_symbol
_atom_site_label
_atom_site_fract_x
_atom_site_fract_y
_atom_site_fract_z
Si Si1 0.822143 0.961822 0.505912
Si Si2 0.175064 0.447158 0.453056
Si Si3 0.000000 0.667967 0.250000
Si Si4 0.723680 0.333757 0.816980
Si Si5 0.000000 0.737625 0.750000
Si Si6 0.442373 0.275800 0.157599
O O1 0.787725 0.964150 0.394284
O O2 0.733407 0.903260 0.723392
O O3 0.000000 0.955675 0.250000
O O4 0.757609 0.025457 0.672665
O O5 0.156151 0.374071 0.476878
O O6 0.000000 0.476000 0.750000
O O7 0.004156 0.709725 0.100592
O O8 0.850655 0.306464 0.489946
O O9 0.556905 0.328238 0.022887
O O10 0.720710 0.294050 0.977365
O O11 0.041961 0.780172 0.541850
#
# Coordination Sequence:
#
# PCOD8144794 Si02
#       6
#     8   8   4   8   4   8
#     4  12  23  45  67  97 137 175 221 271 345 385
#     4  10  24  41  69  96 128 174 224 275 319 396
#     4   8  20  41  68  90 134 173 220 266 340 380
#     4  10  23  41  65  91 140 172 214 277 335 394
#     4  12  22  33  70  96 126 173 230 264 328 400
#     4  10  21  45  62  95 136 172 211 278 336 401
#
# _framework density 22.893422000000001
#
# number of rings (size 3 to 8) (size 9 to 14) (size 15 to 20)
#    0.600    1.200    2.000    3.600    1.400    3.200 
#    0.000    2.000    8.800    0.000    0.000    0.000 
#    0.000    0.000    0.000    0.000    0.000    0.000 
#
# Total GULP energy -247801.881706 kJ/mol
# GULP energy per Si atom -12390.094085 kJ/mol
# Density = 2.284132 g / cm^3
# Si number density = 22.893422 Si / 1000 Ang^3
#
#
#
# Elastic Constant Matrix: (Units=GPa)
#
#
# Indices 1 2 3 4 5 6 
#
# 1 115.5189 12.8615 25.7274 0.0029 3.4365 -0.0038
# 2 12.8615 90.0164 8.8329 0.0099 9.4138 -0.0107
# 3 25.7274 8.8329 96.0984 0.0068 8.7088 -0.0083
# 4 0.0029 0.0099 0.0068 27.9140 -0.0052 -8.2463
# 5 3.4365 9.4138 8.7088 -0.0052 34.6611 0.0050
# 6 -0.0038 -0.0107 -0.0083 -8.2463 0.0050 6.8527
#
#
#
# Elastic Compliance Matrix: (Units=1/GPa)
#
#
# Indices 1 2 3 4 5 6 
#
# 1 0.009311 -0.001093 -0.002390 0.000000 -0.000026 0.000001
# 2 -0.001093 0.011621 -0.000511 0.000002 -0.002919 0.000021
# 3 -0.002390 -0.000511 0.011316 0.000002 -0.002468 0.000016
# 4 0.000000 0.000002 0.000002 0.055584 -0.000002 0.066888
# 5 -0.000026 -0.002919 -0.002468 -0.000002 0.030266 -0.000033
# 6 0.000001 0.000021 0.000016 0.066888 -0.000033 0.226418
#
#
# Mechanical properties :
#
#
# Convention : Reuss Voigt Hill
#
# Bulk Modulus (GPa) = 41.21953 44.05303 42.63628
# Shear Modulus (GPa) = 13.86608 30.83301 22.34955
#
# Velocity S-wave (km/s) = 2.46373 3.67387 3.12788
# Velocity P-wave (km/s) = 5.11247 6.10580 5.63108
#
# Compressibility (1/GPa) = 0.02426035
#
# Stress axis : x y z
#
# Youngs Moduli (GPa) = 107.39572 86.05317 88.36704
#
# Poissons Ratio (x) = 0.09407 0.21120
# Poissons Ratio (y) = 0.11740 0.04515
# Poissons Ratio (z) = 0.25668 0.04396
#
# Static dielectric constant tensor:
#      x y z
#    x 4.224130 -0.000010 -0.211220 
#    y -0.000010 3.981520 0.000010 
#    z -0.211220 0.000010 4.047840 
# 
# 
# High freq. dielectric constant tensor:
#      x y z
#    x 1.910800 0.000000 -0.013870 
#    y 0.000000 1.895960 0.000000 
#    z -0.013870 0.000000 1.889410 
# 
# From -- ./inp_files/51676.got.cif
#   From: 2010.06.25/outbox.cif.g09.slc.cpg/sg15_26_cif.got.tgz:51676.got - 2010.06.28 07:06:18.
