data_PCOD8144024
_publ_section_title
;
Structure prediction by ZEFSAII (Michael W. Deem and Ramdas Pophale) SiO2 
 PCOD8144024
Probable space group: C 2/C
;
_chemical_formula_sum "Si O2"
_cell_formula_units_Z 64
_cell_length_a 15.254420
_cell_length_b 14.426183
_cell_length_c 18.528986
_cell_angle_alpha 90.000000
_cell_angle_beta 44.425981
_cell_angle_gamma 90.000000
_cell_volume 2854.229686
_symmetry_space_group_name_H-M "C 2/C"
_symmetry_group_IT_number 15
_symmetry_cell_setting 'monoclinic'
loop_
_space_group_symop_operation_xyz
x,y,z
-x,y,1/2-z
-x,-y,-z
x,-y,1/2+z
1/2+x,1/2+y,z
1/2-x,1/2+y,1/2-z
1/2-x,1/2-y,-z
1/2+x,1/2-y,1/2+z
loop_
_atom_site_type_symbol
_atom_site_label
_atom_site_fract_x
_atom_site_fract_y
_atom_site_fract_z
Si Si1 0.468239 0.040919 0.439360
Si Si2 0.863557 0.263616 0.836914
Si Si3 0.998217 0.006560 0.414825
Si Si4 0.534112 0.853554 0.369169
Si Si5 0.364400 0.187021 0.103971
Si Si6 0.923160 0.166054 0.226883
Si Si7 0.314779 0.650540 0.727584
Si Si8 0.218609 0.895116 0.018148
O O1 0.565279 0.126716 0.374162
O O2 0.326105 0.075880 0.512200
O O3 0.500000 0.000000 0.500000
O O4 0.483796 0.955186 0.373151
O O5 0.819338 0.226126 0.787211
O O6 0.773919 0.346142 0.914678
O O7 0.000000 0.308232 0.750000
O O8 0.870693 0.179092 0.890089
O O9 0.861423 0.981763 0.463505
O O10 0.097844 0.938704 0.317640
O O11 0.000000 0.000000 0.500000
O O12 0.033545 0.110166 0.369656
O O13 0.445289 0.814603 0.484119
O O14 0.542244 0.774948 0.303176
O O15 0.672059 0.881036 0.314301
O O16 0.224018 0.149150 0.173019
O O17 0.355136 0.294454 0.131734
O O18 0.000000 0.127871 0.250000
#
# Coordination Sequence:
#
# PCOD8144024 Si02
#       8
#     8   8   8   8   8   8   8   8
#     4  10  21  41  69  96 132 180 229 279 346 408
#     4  11  22  41  69 102 143 170 223 288 357 423
#     4  12  28  47  71 102 146 184 236 292 355 415
#     4  10  23  45  68  95 140 186 235 283 340 407
#     4  10  22  42  73  99 139 178 231 286 356 415
#     4  11  27  45  71 102 137 187 244 287 342 419
#     4  11  23  41  72 100 136 184 227 287 358 415
#     4  11  26  42  68 107 136 183 227 289 352 417
#
# _framework density 22.422863
#
# number of rings (size 3 to 8) (size 9 to 14) (size 15 to 20)
#    0.000    1.250    1.250    3.750   12.250    0.500 
#    6.750    0.000    0.000    0.000    0.000    0.000 
#    0.000    0.000    0.000    0.000    0.000    0.000 
#
# Total GULP energy -396662.318246 kJ/mol
# GULP energy per Si atom -12395.697445 kJ/mol
# Density = 2.237183 g / cm^3
# Si number density = 22.422863 Si / 1000 Ang^3
#
#
#
# Elastic Constant Matrix: (Units=GPa)
#
#
# Indices 1 2 3 4 5 6 
#
# 1 109.3527 22.8048 34.3606 0.0000 -17.1763 0.0000
# 2 22.8048 78.9624 18.3433 0.0000 -14.4694 0.0000
# 3 34.3606 18.3433 99.6687 0.0000 -18.8973 0.0000
# 4 0.0000 0.0000 0.0000 28.7009 0.0000 -2.8188
# 5 -17.1763 -14.4694 -18.8973 0.0000 36.4942 0.0000
# 6 0.0000 0.0000 0.0000 -2.8188 0.0000 32.6846
#
#
#
# Elastic Compliance Matrix: (Units=1/GPa)
#
#
# Indices 1 2 3 4 5 6 
#
# 1 0.010901 -0.001959 -0.002852 0.000000 0.002877 0.000000
# 2 -0.001959 0.014257 -0.001166 0.000000 0.004127 0.000000
# 3 -0.002852 -0.001166 0.012074 0.000000 0.004448 0.000000
# 4 0.000000 0.000000 0.000000 0.035140 0.000000 0.003031
# 5 0.002877 0.004127 0.004448 0.000000 0.032695 0.000000
# 6 0.000000 0.000000 0.000000 0.003031 0.000000 0.030857
#
#
# Mechanical properties :
#
#
# Convention : Reuss Voigt Hill
#
# Bulk Modulus (GPa) = 39.55863 48.77789 44.16826
# Shear Modulus (GPa) = 31.98877 33.74094 32.86486
#
# Velocity S-wave (km/s) = 3.78115 3.88333 3.83258
# Velocity P-wave (km/s) = 6.06162 6.47363 6.27101
#
# Compressibility (1/GPa) = 0.02527893
#
# Stress axis : x y z
#
# Youngs Moduli (GPa) = 91.73196 70.14065 82.81968
#
# Poissons Ratio (x) = 0.13737 0.23622
# Poissons Ratio (y) = 0.17966 0.09659
# Poissons Ratio (z) = 0.26164 0.08180
#
# Static dielectric constant tensor:
#      x y z
#    x 3.924590 0.000000 -0.241260 
#    y 0.000000 4.446730 0.000000 
#    z -0.241260 0.000000 4.045320 
# 
# 
# High freq. dielectric constant tensor:
#      x y z
#    x 1.873590 0.000000 -0.019570 
#    y 0.000000 1.891860 0.000000 
#    z -0.019570 0.000000 1.884890 
# 
# From -- ./inp_files/205685.got.cif
#   From: 2010.06.25/outbox.cif.g09.slc.cpg/sg15_103_cif.got.tgz:205685.got - 2010.06.28 07:06:18.
