data_PCOD8144008
_publ_section_title
;
Structure prediction by ZEFSAII (Michael W. Deem and Ramdas Pophale) SiO2 
 PCOD8144008
Probable space group: C 2/C
;
_chemical_formula_sum "Si O2"
_cell_formula_units_Z 56
_cell_length_a 19.873089
_cell_length_b 9.017447
_cell_length_c 30.608443
_cell_angle_alpha 90.000000
_cell_angle_beta 29.047924
_cell_angle_gamma 90.000000
_cell_volume 2663.275732
_symmetry_space_group_name_H-M "C 2/C"
_symmetry_group_IT_number 15
_symmetry_cell_setting 'monoclinic'
loop_
_space_group_symop_operation_xyz
x,y,z
-x,y,1/2-z
-x,-y,-z
x,-y,1/2+z
1/2+x,1/2+y,z
1/2-x,1/2+y,1/2-z
1/2-x,1/2-y,-z
1/2+x,1/2-y,1/2+z
loop_
_atom_site_type_symbol
_atom_site_label
_atom_site_fract_x
_atom_site_fract_y
_atom_site_fract_z
Si Si1 0.715311 0.518843 0.230965
Si Si2 0.204522 0.843623 0.325124
Si Si3 0.264968 0.800328 0.554110
Si Si4 0.351799 0.953975 0.068677
Si Si5 0.651247 0.945309 0.173538
Si Si6 0.390147 0.354147 0.506769
Si Si7 0.593320 0.433417 0.577057
O O1 0.804196 0.669553 0.181125
O O2 0.745676 0.431309 0.258082
O O3 0.758237 0.419072 0.164603
O O4 0.555188 0.560893 0.316425
O O5 0.050003 0.888819 0.430078
O O6 0.325433 0.874914 0.291752
O O7 0.155019 0.679104 0.633455
O O8 0.398822 0.706422 0.461219
O O9 0.208155 0.906505 0.548576
O O10 0.297478 0.899047 0.576857
O O11 0.354773 0.818774 0.032809
O O12 0.500000 0.000000 0.000000
O O13 0.500000 0.019446 0.250000
O O14 0.776730 0.061733 0.100081
O O15 0.374014 0.410135 0.465759
#
# Coordination Sequence:
#
# PCOD8144008 Si02
#       7
#     8   8   8   8   8   8   8
#     4  11  24  39  64  96 124 167 219 267 318 382
#     4  11  23  42  65  94 129 169 218 271 319 389
#     4  10  21  41  69  91 130 165 216 268 327 396
#     4  12  24  41  63  96 130 173 215 266 331 387
#     4  11  22  42  67  96 129 171 221 268 325 394
#     4  10  23  43  62  95 135 171 212 264 337 388
#     4   9  22  42  66  96 121 171 212 268 325 383
#
# _framework density 21.026737000000001
#
# number of rings (size 3 to 8) (size 9 to 14) (size 15 to 20)
#    0.000    1.429    2.857    1.286    4.000    1.714 
#    2.571    0.000    0.000    0.000    0.000    0.000 
#    0.000    0.000    0.000    0.000    0.000    0.000 
#
# Total GULP energy -347062.775102 kJ/mol
# GULP energy per Si atom -12395.099111 kJ/mol
# Density = 2.097888 g / cm^3
# Si number density = 21.026737 Si / 1000 Ang^3
#
#
#
# Elastic Constant Matrix: (Units=GPa)
#
#
# Indices 1 2 3 4 5 6 
#
# 1 84.5121 41.4440 52.2095 -0.0023 1.1075 -0.0467
# 2 41.4440 100.3297 43.3273 0.0017 1.0682 -0.0458
# 3 52.2095 43.3273 133.8537 -0.0009 3.0341 -0.0089
# 4 -0.0023 0.0017 -0.0009 29.9667 0.0038 7.1602
# 5 1.1075 1.0682 3.0341 0.0038 29.8689 0.0047
# 6 -0.0467 -0.0458 -0.0089 7.1602 0.0047 37.3308
#
#
#
# Elastic Compliance Matrix: (Units=1/GPa)
#
#
# Indices 1 2 3 4 5 6 
#
# 1 0.017493 -0.004975 -0.005214 -0.000002 0.000059 0.000015
# 2 -0.004975 0.013002 -0.002267 -0.000004 -0.000050 0.000010
# 3 -0.005214 -0.002267 0.010256 0.000002 -0.000767 -0.000007
# 4 -0.000002 -0.000004 0.000002 0.034973 -0.000003 -0.006708
# 5 0.000059 -0.000050 -0.000767 -0.000003 0.033557 -0.000004
# 6 0.000015 0.000010 -0.000007 -0.006708 -0.000004 0.028074
#
#
# Mechanical properties :
#
#
# Convention : Reuss Voigt Hill
#
# Bulk Modulus (GPa) = 63.13746 65.85081 64.49413
# Shear Modulus (GPa) = 29.84266 31.54758 30.69512
#
# Velocity S-wave (km/s) = 3.77141 3.87764 3.82490
# Velocity P-wave (km/s) = 7.00408 7.17174 7.08840
#
# Compressibility (1/GPa) = 0.01583846
#
# Stress axis : x y z
#
# Youngs Moduli (GPa) = 57.16730 76.91341 97.50619
#
# Poissons Ratio (x) = 0.38262 0.50840
# Poissons Ratio (y) = 0.28439 0.22105
# Poissons Ratio (z) = 0.29807 0.17436
#
# Static dielectric constant tensor:
#      x y z
#    x 3.331890 -0.000040 0.082010 
#    y -0.000040 3.941230 -0.000040 
#    z 0.082010 -0.000040 4.003320 
# 
# 
# High freq. dielectric constant tensor:
#      x y z
#    x 1.813480 0.000000 0.009130 
#    y 0.000000 1.817440 0.000000 
#    z 0.009130 0.000000 1.835080 
# 
# From -- ./inp_files/317484.got.cif
#   From: 2010.06.25/outbox.cif.g09.slc.cpg/sg15_159_cif.got.tgz:317484.got - 2010.06.28 07:06:18.
