data_PCOD8144275
_publ_section_title
;
Structure prediction by ZEFSAII (Michael W. Deem and Ramdas Pophale) SiO2 
 PCOD8144275
Probable space group: C 2/C
;
_chemical_formula_sum "Si O2"
_cell_formula_units_Z 36
_cell_length_a 8.224760
_cell_length_b 14.916915
_cell_length_c 12.749212
_cell_angle_alpha 90.000000
_cell_angle_beta 102.995481
_cell_angle_gamma 90.000000
_cell_volume 1524.113926
_symmetry_space_group_name_H-M "C 2/C"
_symmetry_group_IT_number 15
_symmetry_cell_setting 'monoclinic'
loop_
_space_group_symop_operation_xyz
x,y,z
-x,y,1/2-z
-x,-y,-z
x,-y,1/2+z
1/2+x,1/2+y,z
1/2-x,1/2+y,1/2-z
1/2-x,1/2-y,-z
1/2+x,1/2-y,1/2+z
loop_
_atom_site_type_symbol
_atom_site_label
_atom_site_fract_x
_atom_site_fract_y
_atom_site_fract_z
Si Si1 0.248958 0.466973 0.488178
Si Si2 0.358306 0.748017 0.309071
Si Si3 0.000000 0.279196 0.750000
Si Si4 0.948027 0.641473 0.014312
Si Si5 0.575561 0.454917 0.659589
O O1 0.127268 0.385618 0.494132
O O2 0.427268 0.437778 0.557154
O O3 0.277820 0.483412 0.367668
O O4 0.180368 0.560213 0.526329
O O5 0.500000 0.787214 0.250000
O O6 0.391774 0.774538 0.435033
O O7 0.348986 0.640779 0.296890
O O8 0.168217 0.779358 0.251406
O O9 0.960183 0.337314 0.639343
O O10 0.500000 0.504726 0.750000
#
# Coordination Sequence:
#
# PCOD8144275 Si02
#       5
#     8   8   4   8   8
#     4  10  23  40  68  96 132 175 214 284 327 399
#     4  11  25  45  70  99 134 180 229 275 330 402
#     4  12  24  44  74  92 138 186 218 282 332 398
#     4  11  24  45  66 100 134 176 227 272 338 397
#     4  10  21  42  66  97 133 176 217 272 340 397
#
# _framework density 23.620280999999999
#
# number of rings (size 3 to 8) (size 9 to 14) (size 15 to 20)
#    0.000    1.333    2.222    3.333    0.000    5.333 
#   10.000    0.000    0.000    0.000    0.000    0.000 
#    0.000    0.000    0.000    0.000    0.000    0.000 
#
# Total GULP energy -223054.203540 kJ/mol
# GULP energy per Si atom -12391.900197 kJ/mol
# Density = 2.356652 g / cm^3
# Si number density = 23.620281 Si / 1000 Ang^3
#
#
#
# Elastic Constant Matrix: (Units=GPa)
#
#
# Indices 1 2 3 4 5 6 
#
# 1 179.9302 15.1250 40.5985 0.0000 -15.4182 0.0000
# 2 15.1250 21.7455 16.3344 0.0000 -4.9578 0.0000
# 3 40.5985 16.3344 111.6041 0.0000 -18.6229 0.0000
# 4 0.0000 0.0000 0.0000 19.0856 0.0000 -3.6554
# 5 -15.4182 -4.9578 -18.6229 0.0000 48.6515 0.0000
# 6 0.0000 0.0000 0.0000 -3.6554 0.0000 12.9591
#
#
#
# Elastic Compliance Matrix: (Units=1/GPa)
#
#
# Indices 1 2 3 4 5 6 
#
# 1 0.006268 -0.002853 -0.001687 0.000000 0.001050 0.000000
# 2 -0.002853 0.053259 -0.006412 0.000000 0.002069 0.000000
# 3 -0.001687 -0.006412 0.011018 0.000000 0.003029 0.000000
# 4 0.000000 0.000000 0.000000 0.055388 0.000000 0.015623
# 5 0.001050 0.002069 0.003029 0.000000 0.022257 0.000000
# 6 0.000000 0.000000 0.000000 0.015623 0.000000 0.081572
#
#
# Mechanical properties :
#
#
# Convention : Reuss Voigt Hill
#
# Bulk Modulus (GPa) = 20.55900 50.82173 35.69037
# Shear Modulus (GPa) = 18.66500 32.22071 25.44286
#
# Velocity S-wave (km/s) = 2.81412 3.69740 3.28557
# Velocity P-wave (km/s) = 4.39111 6.30797 5.43472
#
# Compressibility (1/GPa) = 0.04864049
#
# Stress axis : x y z
#
# Youngs Moduli (GPa) = 159.53439 18.77621 90.76020
#
# Poissons Ratio (x) = 0.05357 0.15316
# Poissons Ratio (y) = 0.45514 0.58195
# Poissons Ratio (z) = 0.26921 0.12039
#
# Static dielectric constant tensor:
#      x y z
#    x 4.980640 0.000000 -0.318240 
#    y 0.000000 3.730800 0.000000 
#    z -0.318240 0.000000 4.261600 
# 
# 
# High freq. dielectric constant tensor:
#      x y z
#    x 1.973290 0.000000 -0.017560 
#    y 0.000000 1.893770 0.000000 
#    z -0.017560 0.000000 1.926890 
# 
# From -- ./inp_files/76370.got.cif
#   From: 2010.06.25/outbox.cif.g09.slc.cpg/sg15_39_cif.got.tgz:76370.got - 2010.06.28 07:06:18.
