data_PCOD8144151
_publ_section_title
;
Structure prediction by ZEFSAII (Michael W. Deem and Ramdas Pophale) SiO2 
 PCOD8144151
Probable space group: C 2/C
;
_chemical_formula_sum "Si O2"
_cell_formula_units_Z 32
_cell_length_a 13.634249
_cell_length_b 5.140847
_cell_length_c 20.582905
_cell_angle_alpha 90.000000
_cell_angle_beta 81.222269
_cell_angle_gamma 90.000000
_cell_volume 1425.791395
_symmetry_space_group_name_H-M "C 2/C"
_symmetry_group_IT_number 15
_symmetry_cell_setting 'monoclinic'
loop_
_space_group_symop_operation_xyz
x,y,z
-x,y,1/2-z
-x,-y,-z
x,-y,1/2+z
1/2+x,1/2+y,z
1/2-x,1/2+y,1/2-z
1/2-x,1/2-y,-z
1/2+x,1/2-y,1/2+z
loop_
_atom_site_type_symbol
_atom_site_label
_atom_site_fract_x
_atom_site_fract_y
_atom_site_fract_z
Si Si1 0.895397 0.230451 0.885954
Si Si2 0.396248 0.780012 0.459779
Si Si3 0.244591 0.902699 0.208418
Si Si4 0.086572 0.539974 0.406514
O O1 0.862481 0.995899 0.936085
O O2 0.857171 0.179388 0.817025
O O3 0.846339 0.492847 0.920609
O O4 0.015646 0.263968 0.871990
O O5 0.362149 0.807248 0.538353
O O6 0.517083 0.810143 0.443864
O O7 0.228252 0.184442 0.241689
O O8 0.331797 0.912326 0.147109
#
# Coordination Sequence:
#
# PCOD8144151 Si02
#       4
#     8   8   8   8
#     4  10  21  42  63  96 121 170 206 266 335 365
#     4   9  20  40  69  97 121 159 211 269 344 370
#     4  12  28  43  60  94 133 176 223 256 308 394
#     4   9  23  41  67  93 131 157 213 274 319 393
#
# _framework density 22.443674000000001
#
# number of rings (size 3 to 8) (size 9 to 14) (size 15 to 20)
#    1.500    0.500    0.000    2.250    3.500    3.000 
#    0.000    0.000    0.000    0.000    0.000    0.000 
#    0.000    0.000    0.000    0.000    0.000    0.000 
#
# Total GULP energy -198319.279768 kJ/mol
# GULP energy per Si atom -12394.954985 kJ/mol
# Density = 2.239259 g / cm^3
# Si number density = 22.443674 Si / 1000 Ang^3
#
#
#
# Elastic Constant Matrix: (Units=GPa)
#
#
# Indices 1 2 3 4 5 6 
#
# 1 15.5463 7.2264 18.5433 0.0000 3.0063 0.0000
# 2 7.2264 95.8231 1.1520 0.0000 1.6187 0.0000
# 3 18.5433 1.1520 85.8662 0.0000 3.9940 0.0000
# 4 0.0000 0.0000 0.0000 41.1020 0.0000 10.8901
# 5 3.0063 1.6187 3.9940 0.0000 44.8127 0.0000
# 6 0.0000 0.0000 0.0000 10.8901 0.0000 20.1631
#
#
#
# Elastic Compliance Matrix: (Units=1/GPa)
#
#
# Indices 1 2 3 4 5 6 
#
# 1 0.091397 -0.006588 -0.019456 0.000000 -0.004159 0.000000
# 2 -0.006588 0.010919 0.001279 0.000000 -0.000066 0.000000
# 3 -0.019456 0.001279 0.015838 0.000000 -0.000153 0.000000
# 4 0.000000 0.000000 0.000000 0.028393 0.000000 -0.015335
# 5 -0.004159 -0.000066 -0.000153 0.000000 0.022610 0.000000
# 6 0.000000 0.000000 0.000000 -0.015335 0.000000 0.057878
#
#
# Mechanical properties :
#
#
# Convention : Reuss Voigt Hill
#
# Bulk Modulus (GPa) = 14.57225 27.89766 21.23496
# Shear Modulus (GPa) = 16.69791 32.56982 24.63386
#
# Velocity S-wave (km/s) = 2.73058 3.81357 3.31658
# Velocity P-wave (km/s) = 4.05565 5.64342 4.91409
#
# Compressibility (1/GPa) = 0.06862358
#
# Stress axis : x y z
#
# Youngs Moduli (GPa) = 10.94122 91.58765 63.14094
#
# Poissons Ratio (x) = 0.60342 1.22847
# Poissons Ratio (y) = 0.07209 -0.08078
# Poissons Ratio (z) = 0.21287 -0.11718
#
# Static dielectric constant tensor:
#      x y z
#    x 3.768830 0.000000 0.306350 
#    y 0.000000 3.867420 0.000000 
#    z 0.306350 0.000000 3.919380 
# 
# 
# High freq. dielectric constant tensor:
#      x y z
#    x 1.861830 0.000000 0.017520 
#    y 0.000000 1.884800 0.000000 
#    z 0.017520 0.000000 1.878240 
# 
# From -- ./inp_files/201846.got.cif
#   From: 2010.06.25/outbox.cif.g09.slc.cpg/sg15_101_cif.got.tgz:201846.got - 2010.06.28 07:06:18.
