data_PCOD8144302
_publ_section_title
;
Structure prediction by ZEFSAII (Michael W. Deem and Ramdas Pophale) SiO2 
 PCOD8144302
Probable space group: C 2/C
;
_chemical_formula_sum "Si O2"
_cell_formula_units_Z 40
_cell_length_a 11.208036
_cell_length_b 7.386180
_cell_length_c 23.425008
_cell_angle_alpha 90.000000
_cell_angle_beta 103.492893
_cell_angle_gamma 90.000000
_cell_volume 1885.704327
_symmetry_space_group_name_H-M "C 2/C"
_symmetry_group_IT_number 15
_symmetry_cell_setting 'monoclinic'
loop_
_space_group_symop_operation_xyz
x,y,z
-x,y,1/2-z
-x,-y,-z
x,-y,1/2+z
1/2+x,1/2+y,z
1/2-x,1/2+y,1/2-z
1/2-x,1/2-y,-z
1/2+x,1/2-y,1/2+z
loop_
_atom_site_type_symbol
_atom_site_label
_atom_site_fract_x
_atom_site_fract_y
_atom_site_fract_z
Si Si1 0.952235 0.162524 0.373788
Si Si2 0.139165 0.027441 0.533870
Si Si3 0.223456 0.113708 0.429523
Si Si4 0.195375 0.488733 0.178039
Si Si5 0.900765 0.851451 0.283663
O O1 0.911580 0.340521 0.335447
O O2 0.087551 0.204041 0.413583
O O3 0.849681 0.109183 0.410863
O O4 0.964165 0.999231 0.330615
O O5 0.227157 0.990530 0.488342
O O6 0.171560 0.232329 0.557446
O O7 0.000000 0.000000 0.500000
O O8 0.240481 0.987093 0.376719
O O9 0.140158 0.685132 0.182364
O O10 0.286276 0.441075 0.239107
O O11 0.000000 0.778242 0.250000
#
# Coordination Sequence:
#
# PCOD8144302 Si02
#       5
#     8   8   8   8   8
#     4  11  23  41  66  94 129 167 211 263 316 381
#     4   9  20  41  68  94 131 166 208 270 320 374
#     4  10  21  42  67  94 129 166 212 267 316 379
#     4  12  25  40  67  95 125 171 215 254 323 384
#     4  12  25  41  62  93 129 166 212 266 315 374
#
# _framework density 21.212233000000001
#
# number of rings (size 3 to 8) (size 9 to 14) (size 15 to 20)
#    0.000    1.200    6.000    0.000    0.000    4.800 
#    0.000    9.000    0.000    0.000    0.000    0.000 
#    0.000    0.000    0.000    0.000    0.000    0.000 
#
# Total GULP energy -247878.205911 kJ/mol
# GULP energy per Si atom -12393.910296 kJ/mol
# Density = 2.116395 g / cm^3
# Si number density = 21.212233 Si / 1000 Ang^3
#
#
#
# Elastic Constant Matrix: (Units=GPa)
#
#
# Indices 1 2 3 4 5 6 
#
# 1 78.8792 34.3108 22.1922 0.0000 0.6962 0.0000
# 2 34.3108 96.4208 31.4087 0.0000 0.1764 0.0000
# 3 22.1922 31.4087 98.2816 0.0000 -14.3566 0.0000
# 4 0.0000 0.0000 0.0000 26.8488 0.0000 -0.0513
# 5 0.6962 0.1764 -14.3566 0.0000 40.1735 0.0000
# 6 0.0000 0.0000 0.0000 -0.0513 0.0000 24.9617
#
#
#
# Elastic Compliance Matrix: (Units=1/GPa)
#
#
# Indices 1 2 3 4 5 6 
#
# 1 0.015353 -0.004783 -0.002083 0.000000 -0.000989 0.000000
# 2 -0.004783 0.013147 -0.003289 0.000000 -0.001150 0.000000
# 3 -0.002083 -0.003289 0.012348 0.000000 0.004463 0.000000
# 4 0.000000 0.000000 0.000000 0.037246 0.000000 0.000077
# 5 -0.000989 -0.001150 0.004463 0.000000 0.026509 0.000000
# 6 0.000000 0.000000 0.000000 0.000077 0.000000 0.040062
#
#
# Mechanical properties :
#
#
# Convention : Reuss Voigt Hill
#
# Bulk Modulus (GPa) = 48.69088 49.93388 49.31238
# Shear Modulus (GPa) = 29.10010 30.77479 29.93745
#
# Velocity S-wave (km/s) = 3.70787 3.81307 3.76084
# Velocity P-wave (km/s) = 6.42924 6.55571 6.49278
#
# Compressibility (1/GPa) = 0.02053773
#
# Stress axis : x y z
#
# Youngs Moduli (GPa) = 65.13474 76.06388 80.98240
#
# Poissons Ratio (x) = 0.36381 0.16866
# Poissons Ratio (y) = 0.31154 0.26639
# Poissons Ratio (z) = 0.13565 0.25021
#
# Static dielectric constant tensor:
#      x y z
#    x 3.742030 0.000000 -0.199200 
#    y 0.000000 3.572380 0.000000 
#    z -0.199200 0.000000 4.330600 
# 
# 
# High freq. dielectric constant tensor:
#      x y z
#    x 1.820020 0.000000 -0.006810 
#    y 0.000000 1.810780 0.000000 
#    z -0.006810 0.000000 1.861740 
# 
# From -- ./inp_files/290534.got.cif
#   From: 2010.06.25/outbox.cif.g09.slc.cpg/sg15_146_cif.got.tgz:290534.got - 2010.06.28 07:06:18.
