data_PCOD8144866
_publ_section_title
;
Structure prediction by ZEFSAII (Michael W. Deem and Ramdas Pophale) SiO2 
 PCOD8144866
Probable space group: C 2/C
;
_chemical_formula_sum "Si O2"
_cell_formula_units_Z 44
_cell_length_a 6.729703
_cell_length_b 22.015846
_cell_length_c 14.161574
_cell_angle_alpha 90.000000
_cell_angle_beta 77.816513
_cell_angle_gamma 90.000000
_cell_volume 2050.922468
_symmetry_space_group_name_H-M "C 2/C"
_symmetry_group_IT_number 15
_symmetry_cell_setting 'monoclinic'
loop_
_space_group_symop_operation_xyz
x,y,z
-x,y,1/2-z
-x,-y,-z
x,-y,1/2+z
1/2+x,1/2+y,z
1/2-x,1/2+y,1/2-z
1/2-x,1/2-y,-z
1/2+x,1/2-y,1/2+z
loop_
_atom_site_type_symbol
_atom_site_label
_atom_site_fract_x
_atom_site_fract_y
_atom_site_fract_z
Si Si1 0.013324 0.331275 0.642691
Si Si2 0.186731 0.783341 0.409716
Si Si3 0.271434 0.067168 0.066391
Si Si4 0.381830 0.057300 0.607427
Si Si5 0.000000 0.647305 0.750000
Si Si6 0.601560 0.617863 0.484006
O O1 0.246889 0.338499 0.588403
O O2 0.000000 0.353950 0.750000
O O3 0.947702 0.261405 0.640561
O O4 0.856014 0.369925 0.597498
O O5 0.250000 0.750000 0.500000
O O6 0.377522 0.807427 0.330519
O O7 0.053306 0.841853 0.442034
O O8 0.030166 0.074724 0.072492
O O9 0.314315 0.012280 0.136533
O O10 0.387242 0.055589 0.954944
O O11 0.362396 0.102009 0.699299
O O12 0.229399 0.076261 0.540342
#
# Coordination Sequence:
#
# PCOD8144866 Si02
#       6
#     8   8   8   8   4   8
#     4  11  26  40  67  99 131 181 230 284 343 413
#     4  12  25  45  68  97 143 182 231 291 342 414
#     4  10  21  46  68  98 141 178 222 288 352 411
#     4  10  23  42  71 101 138 177 227 286 347 415
#     4  12  26  44  72 106 138 186 242 286 350 418
#     4  11  22  45  68  98 135 183 226 279 360 403
#
# _framework density 21.453759999999999
#
# number of rings (size 3 to 8) (size 9 to 14) (size 15 to 20)
#    0.000    1.091    3.636    2.182    6.364    0.727 
#    0.000    1.818    0.000    0.000    0.000    0.000 
#    0.000    0.000    0.000    0.000    0.000    0.000 
#
# Total GULP energy -272806.739538 kJ/mol
# GULP energy per Si atom -12400.306343 kJ/mol
# Density = 2.140493 g / cm^3
# Si number density = 21.453760 Si / 1000 Ang^3
#
#
#
# Elastic Constant Matrix: (Units=GPa)
#
#
# Indices 1 2 3 4 5 6 
#
# 1 127.9046 39.1052 36.8993 0.0000 -2.6572 0.0000
# 2 39.1052 112.6604 31.8991 0.0000 -5.7345 0.0000
# 3 36.8993 31.8991 93.6785 0.0000 -7.6365 0.0000
# 4 0.0000 0.0000 0.0000 33.9062 0.0000 7.9057
# 5 -2.6572 -5.7345 -7.6365 0.0000 28.4145 0.0000
# 6 0.0000 0.0000 0.0000 7.9057 0.0000 30.0205
#
#
#
# Elastic Compliance Matrix: (Units=1/GPa)
#
#
# Indices 1 2 3 4 5 6 
#
# 1 0.009398 -0.002463 -0.002896 0.000000 -0.000396 0.000000
# 2 -0.002463 0.010503 -0.002507 0.000000 0.001215 0.000000
# 3 -0.002896 -0.002507 0.012888 0.000000 0.002687 0.000000
# 4 0.000000 0.000000 0.000000 0.031423 0.000000 -0.008275
# 5 -0.000396 0.001215 0.002687 0.000000 0.036124 0.000000
# 6 0.000000 0.000000 0.000000 -0.008275 0.000000 0.035490
#
#
# Mechanical properties :
#
#
# Convention : Reuss Voigt Hill
#
# Bulk Modulus (GPa) = 58.62264 61.11677 59.86970
# Shear Modulus (GPa) = 31.79800 33.55756 32.67778
#
# Velocity S-wave (km/s) = 3.85407 3.95926 3.90702
# Velocity P-wave (km/s) = 6.86946 7.03211 6.95126
#
# Compressibility (1/GPa) = 0.01705826
#
# Stress axis : x y z
#
# Youngs Moduli (GPa) = 106.40145 95.21278 77.59012
#
# Poissons Ratio (x) = 0.23446 0.22468
# Poissons Ratio (y) = 0.26201 0.19454
# Poissons Ratio (z) = 0.30811 0.23873
#
# Static dielectric constant tensor:
#      x y z
#    x 4.365850 0.000000 -0.120690 
#    y 0.000000 4.041030 0.000000 
#    z -0.120690 0.000000 3.758270 
# 
# 
# High freq. dielectric constant tensor:
#      x y z
#    x 1.846180 0.000000 0.003790 
#    y 0.000000 1.861090 0.000000 
#    z 0.003790 0.000000 1.822200 
# 
# From -- ./inp_files/129335.got.cif
#   From: 2010.06.25/outbox.cif.g09.slc.cpg/sg15_65_cif.got.tgz:129335.got - 2010.06.28 07:06:18.
