data_PCOD8144668
_publ_section_title
;
Structure prediction by ZEFSAII (Michael W. Deem and Ramdas Pophale) SiO2 
 PCOD8144668
Probable space group: C 2/C
;
_chemical_formula_sum "Si O2"
_cell_formula_units_Z 40
_cell_length_a 8.164539
_cell_length_b 13.910120
_cell_length_c 15.766278
_cell_angle_alpha 90.000000
_cell_angle_beta 107.254730
_cell_angle_gamma 90.000000
_cell_volume 1709.987878
_symmetry_space_group_name_H-M "C 2/C"
_symmetry_group_IT_number 15
_symmetry_cell_setting 'monoclinic'
loop_
_space_group_symop_operation_xyz
x,y,z
-x,y,1/2-z
-x,-y,-z
x,-y,1/2+z
1/2+x,1/2+y,z
1/2-x,1/2+y,1/2-z
1/2-x,1/2-y,-z
1/2+x,1/2-y,1/2+z
loop_
_atom_site_type_symbol
_atom_site_label
_atom_site_fract_x
_atom_site_fract_y
_atom_site_fract_z
Si Si1 0.515151 0.074569 0.906465
Si Si2 0.416204 0.423071 0.871911
Si Si3 0.220874 0.045797 0.970231
Si Si4 0.322371 0.739885 0.104850
Si Si5 0.372476 0.886972 0.797233
O O1 0.340997 0.112463 0.927782
O O2 0.597703 0.155317 0.857190
O O3 0.476790 0.975039 0.853514
O O4 0.665278 0.051496 0.998885
O O5 0.543158 0.515246 0.897415
O O6 0.515185 0.327414 0.866370
O O7 0.288629 0.437686 0.773841
O O8 0.317695 0.405279 0.945655
O O9 0.178689 0.699236 0.146794
O O10 0.250000 0.750000 0.000000
O O11 0.500000 0.836124 0.750000
#
# Coordination Sequence:
#
# PCOD8144668 Si02
#       5
#     8   8   8   8   8
#     4  11  22  45  76 101 140 195 245 294 385 461
#     4  11  23  43  73 105 149 187 247 313 375 447
#     4  10  21  43  73 105 138 197 238 301 383 456
#     4  12  25  45  77 108 144 194 257 309 372 467
#     4  12  26  47  72 105 159 195 245 327 387 426
#
# _framework density 23.391978999999999
#
# number of rings (size 3 to 8) (size 9 to 14) (size 15 to 20)
#    0.000    0.800    6.000    1.800    0.000    2.400 
#    0.000    0.000    4.400    0.000    0.000    0.000 
#    0.000    0.000    0.000    0.000    0.000    0.000 
#
# Total GULP energy -247832.754410 kJ/mol
# GULP energy per Si atom -12391.637720 kJ/mol
# Density = 2.333874 g / cm^3
# Si number density = 23.391979 Si / 1000 Ang^3
#
#
#
# Elastic Constant Matrix: (Units=GPa)
#
#
# Indices 1 2 3 4 5 6 
#
# 1 150.8367 46.9969 43.8893 0.0000 -31.5587 0.0000
# 2 46.9969 107.2835 28.2863 0.0000 -23.8613 0.0000
# 3 43.8893 28.2863 95.8156 0.0000 -4.2515 0.0000
# 4 0.0000 0.0000 0.0000 29.2283 0.0000 -5.1295
# 5 -31.5587 -23.8613 -4.2515 0.0000 54.0753 0.0000
# 6 0.0000 0.0000 0.0000 -5.1295 0.0000 38.7750
#
#
#
# Elastic Compliance Matrix: (Units=1/GPa)
#
#
# Indices 1 2 3 4 5 6 
#
# 1 0.009154 -0.002212 -0.003358 0.000000 0.004102 0.000000
# 2 -0.002212 0.011714 -0.002281 0.000000 0.003699 0.000000
# 3 -0.003358 -0.002281 0.012560 0.000000 -0.001979 0.000000
# 4 0.000000 0.000000 0.000000 0.035027 0.000000 0.004634
# 5 0.004102 0.003699 -0.001979 0.000000 0.022363 0.000000
# 6 0.000000 0.000000 0.000000 0.004634 0.000000 0.026403
#
#
# Mechanical properties :
#
#
# Convention : Reuss Voigt Hill
#
# Bulk Modulus (GPa) = 56.41230 65.80899 61.11065
# Shear Modulus (GPa) = 36.01444 40.06659 38.04052
#
# Velocity S-wave (km/s) = 3.92804 4.14313 4.03702
# Velocity P-wave (km/s) = 6.68888 7.14714 6.92180
#
# Compressibility (1/GPa) = 0.01772663
#
# Stress axis : x y z
#
# Youngs Moduli (GPa) = 109.23650 85.36648 79.61503
#
# Poissons Ratio (x) = 0.18887 0.26736
# Poissons Ratio (y) = 0.24168 0.18158
# Poissons Ratio (z) = 0.36683 0.19470
#
# Static dielectric constant tensor:
#      x y z
#    x 4.735470 0.000000 0.340060 
#    y 0.000000 4.043500 0.000000 
#    z 0.340060 0.000000 3.387920 
# 
# 
# High freq. dielectric constant tensor:
#      x y z
#    x 1.953910 0.000000 0.002580 
#    y 0.000000 1.883210 0.000000 
#    z 0.002580 0.000000 1.927060 
# 
# From -- ./inp_files/133299.got.cif
#   From: 2010.06.25/outbox.cif.g09.slc.cpg/sg15_67_cif.got.tgz:133299.got - 2010.06.28 07:06:18.
