data_PCOD8144799
_publ_section_title
;
Structure prediction by ZEFSAII (Michael W. Deem and Ramdas Pophale) SiO2 
 PCOD8144799
Probable space group: C 2/C
;
_chemical_formula_sum "Si O2"
_cell_formula_units_Z 40
_cell_length_a 12.573482
_cell_length_b 7.522279
_cell_length_c 25.663377
_cell_angle_alpha 90.000000
_cell_angle_beta 138.189554
_cell_angle_gamma 90.000000
_cell_volume 1618.186813
_symmetry_space_group_name_H-M "C 2/C"
_symmetry_group_IT_number 15
_symmetry_cell_setting 'monoclinic'
loop_
_space_group_symop_operation_xyz
x,y,z
-x,y,1/2-z
-x,-y,-z
x,-y,1/2+z
1/2+x,1/2+y,z
1/2-x,1/2+y,1/2-z
1/2-x,1/2-y,-z
1/2+x,1/2-y,1/2+z
loop_
_atom_site_type_symbol
_atom_site_label
_atom_site_fract_x
_atom_site_fract_y
_atom_site_fract_z
Si Si1 0.400495 0.794664 0.841602
Si Si2 0.100897 0.513745 0.840248
Si Si3 0.374960 0.478564 0.250683
Si Si4 0.167449 0.700508 0.598301
Si Si5 0.845475 0.685971 0.437465
O O1 0.446744 0.612283 0.828679
O O2 0.438636 0.775336 0.916538
O O3 0.490195 0.961367 0.848295
O O4 0.207848 0.832471 0.767494
O O5 0.243133 0.371512 0.890752
O O6 0.180783 0.704520 0.881515
O O7 0.000000 0.514248 0.750000
O O8 0.500000 0.500223 0.250000
O O9 0.234521 0.343733 0.180112
O O10 0.200286 0.522478 0.575105
O O11 0.976125 0.738082 0.529080
#
# Coordination Sequence:
#
# PCOD8144799 Si02
#       5
#     8   8   8   8   8
#     4  11  23  39  65  97 122 176 228 255 336 397
#     4  12  22  43  66  97 134 170 223 277 323 391
#     4  11  22  42  63  92 133 165 219 280 316 389
#     4  10  21  45  64  93 142 170 211 285 324 382
#     4  10  25  41  66  99 134 173 220 270 332 391
#
# _framework density 24.719025999999999
#
# number of rings (size 3 to 8) (size 9 to 14) (size 15 to 20)
#    0.000    1.200    4.000    1.800    0.000    8.000 
#    0.000    9.000    0.000    0.000    0.000    0.000 
#    0.000    0.000    0.000    0.000    0.000    0.000 
#
# Total GULP energy -247827.984360 kJ/mol
# GULP energy per Si atom -12391.399218 kJ/mol
# Density = 2.466276 g / cm^3
# Si number density = 24.719026 Si / 1000 Ang^3
#
#
#
# Elastic Constant Matrix: (Units=GPa)
#
#
# Indices 1 2 3 4 5 6 
#
# 1 69.2735 -13.3580 -8.1034 0.0000 6.5242 0.0000
# 2 -13.3580 78.4242 8.3561 0.0000 14.5454 0.0000
# 3 -8.1034 8.3561 93.1301 0.0000 15.0468 0.0000
# 4 0.0000 0.0000 0.0000 42.4400 0.0000 5.3173
# 5 6.5242 14.5454 15.0468 0.0000 25.3267 0.0000
# 6 0.0000 0.0000 0.0000 5.3173 0.0000 22.7032
#
#
#
# Elastic Compliance Matrix: (Units=1/GPa)
#
#
# Indices 1 2 3 4 5 6 
#
# 1 0.016209 0.003966 0.002320 0.000000 -0.007832 0.000000
# 2 0.003966 0.015242 0.000616 0.000000 -0.010141 0.000000
# 3 0.002320 0.000616 0.012210 0.000000 -0.008205 0.000000
# 4 0.000000 0.000000 0.000000 0.024275 0.000000 -0.005685
# 5 -0.007832 -0.010141 -0.008205 0.000000 0.052201 0.000000
# 6 0.000000 0.000000 0.000000 -0.005685 0.000000 0.045378
#
#
# Mechanical properties :
#
#
# Convention : Reuss Voigt Hill
#
# Bulk Modulus (GPa) = 17.40164 23.84636 20.62400
# Shear Modulus (GPa) = 29.26265 35.02285 32.14275
#
# Velocity S-wave (km/s) = 3.44439 3.76817 3.60991
# Velocity P-wave (km/s) = 4.78262 5.34791 5.07314
#
# Compressibility (1/GPa) = 0.05746584
#
# Stress axis : x y z
#
# Youngs Moduli (GPa) = 61.69289 65.60793 81.90018
#
# Poissons Ratio (x) = -0.26022 -0.19000
# Poissons Ratio (y) = -0.24469 -0.05045
# Poissons Ratio (z) = -0.14312 -0.04042
#
# Static dielectric constant tensor:
#      x y z
#    x 4.228240 0.000000 0.234770 
#    y 0.000000 4.492680 0.000000 
#    z 0.234770 0.000000 4.810460 
# 
# 
# High freq. dielectric constant tensor:
#      x y z
#    x 1.959490 0.000000 0.011160 
#    y 0.000000 1.984110 0.000000 
#    z 0.011160 0.000000 1.984320 
# 
# From -- ./inp_files/235921.got.cif
#   From: 2010.06.25/outbox.cif.g09.slc.cpg/sg15_118_cif.got.tgz:235921.got - 2010.06.28 07:06:18.
