data_PCOD8144963
_publ_section_title
;
Structure prediction by ZEFSAII (Michael W. Deem and Ramdas Pophale) SiO2 
 PCOD8144963
Probable space group: C 2/C
;
_chemical_formula_sum "Si O2"
_cell_formula_units_Z 44
_cell_length_a 8.537432
_cell_length_b 16.444044
_cell_length_c 17.144051
_cell_angle_alpha 90.000000
_cell_angle_beta 97.566820
_cell_angle_gamma 90.000000
_cell_volume 2385.892781
_symmetry_space_group_name_H-M "C 2/C"
_symmetry_group_IT_number 15
_symmetry_cell_setting 'monoclinic'
loop_
_space_group_symop_operation_xyz
x,y,z
-x,y,1/2-z
-x,-y,-z
x,-y,1/2+z
1/2+x,1/2+y,z
1/2-x,1/2+y,1/2-z
1/2-x,1/2-y,-z
1/2+x,1/2-y,1/2+z
loop_
_atom_site_type_symbol
_atom_site_label
_atom_site_fract_x
_atom_site_fract_y
_atom_site_fract_z
Si Si1 0.494254 0.177136 0.577819
Si Si2 0.296900 0.266417 0.351476
Si Si3 0.000000 0.855309 0.250000
Si Si4 0.772670 0.394315 0.931392
Si Si5 0.016437 0.837139 0.497015
Si Si6 0.215617 0.074985 0.891856
O O1 0.372766 0.195319 0.639677
O O2 0.407759 0.126686 0.503302
O O3 0.574752 0.260712 0.552166
O O4 0.634426 0.126777 0.625310
O O5 0.359471 0.296141 0.271658
O O6 0.285859 0.168531 0.359532
O O7 0.424389 0.298167 0.419990
O O8 0.925829 0.914757 0.179733
O O9 0.784692 0.484421 0.898857
O O10 0.600118 0.391339 0.958980
O O11 0.158127 0.893750 0.473857
#
# Coordination Sequence:
#
# PCOD8144963 Si02
#       6
#     8   8   4   8   8   8
#     4   9  17  31  53  76  95 120 158 206 248 281
#     4   8  17  35  51  66  96 132 160 189 237 295
#     4  10  22  36  46  62  98 144 166 180 232 304
#     4   9  17  32  53  76  97 120 158 210 248 271
#     4   8  16  31  52  75  99 124 152 191 248 296
#     4  11  19  30  50  76 101 125 159 201 237 285
#
# _framework density 18.441732999999999
#
# number of rings (size 3 to 8) (size 9 to 14) (size 15 to 20)
#    0.000    2.909    0.000    3.818    0.000    0.727 
#    0.000    5.455    0.000    4.364    0.000    0.000 
#    0.000    0.000    0.000    0.000    0.000    0.000 
#
# Total GULP energy -272650.171214 kJ/mol
# GULP energy per Si atom -12393.189601 kJ/mol
# Density = 1.839976 g / cm^3
# Si number density = 18.441733 Si / 1000 Ang^3
#
#
#
# Elastic Constant Matrix: (Units=GPa)
#
#
# Indices 1 2 3 4 5 6 
#
# 1 65.6931 29.7599 14.9881 0.0000 -1.2636 0.0000
# 2 29.7599 94.0582 21.8375 0.0000 1.9202 0.0000
# 3 14.9881 21.8375 50.3947 0.0000 -9.2126 0.0000
# 4 0.0000 0.0000 0.0000 12.6783 0.0000 -0.4148
# 5 -1.2636 1.9202 -9.2126 0.0000 24.8421 0.0000
# 6 0.0000 0.0000 0.0000 -0.4148 0.0000 26.4351
#
#
#
# Elastic Compliance Matrix: (Units=1/GPa)
#
#
# Indices 1 2 3 4 5 6 
#
# 1 0.018236 -0.005024 -0.003225 0.000000 0.000120 0.000000
# 2 -0.005024 0.013420 -0.004889 0.000000 -0.003106 0.000000
# 3 -0.003225 -0.004889 0.024630 0.000000 0.009348 0.000000
# 4 0.000000 0.000000 0.000000 0.078915 0.000000 0.001238
# 5 0.000120 -0.003106 0.009348 0.000000 0.043967 0.000000
# 6 0.000000 0.000000 0.000000 0.001238 0.000000 0.037848
#
#
# Mechanical properties :
#
#
# Convention : Reuss Voigt Hill
#
# Bulk Modulus (GPa) = 33.32116 38.14634 35.73375
# Shear Modulus (GPa) = 19.73991 22.36179 21.05085
#
# Velocity S-wave (km/s) = 3.27524 3.48597 3.38224
# Velocity P-wave (km/s) = 5.69302 6.07720 5.88824
#
# Compressibility (1/GPa) = 0.03001096
#
# Stress axis : x y z
#
# Youngs Moduli (GPa) = 54.83613 74.51782 40.60130
#
# Poissons Ratio (x) = 0.37435 0.13093
# Poissons Ratio (y) = 0.27548 0.19849
# Poissons Ratio (z) = 0.17684 0.36430
#
# Static dielectric constant tensor:
#      x y z
#    x 3.513430 0.000000 -0.421200 
#    y 0.000000 3.407480 0.000000 
#    z -0.421200 0.000000 3.370490 
# 
# 
# High freq. dielectric constant tensor:
#      x y z
#    x 1.716920 0.000000 -0.013540 
#    y 0.000000 1.712060 0.000000 
#    z -0.013540 0.000000 1.681450 
# 
# From -- ./inp_files/134464.got.cif
#   From: 2010.06.25/outbox.cif.g09.slc.cpg/sg15_68_cif.got.tgz:134464.got - 2010.06.28 07:06:18.
