data_PCOD8144284
_publ_section_title
;
Structure prediction by ZEFSAII (Michael W. Deem and Ramdas Pophale) SiO2 
 PCOD8144284
Probable space group: C 2/C
;
_chemical_formula_sum "Si O2"
_cell_formula_units_Z 48
_cell_length_a 20.632839
_cell_length_b 18.294272
_cell_length_c 9.089603
_cell_angle_alpha 90.000000
_cell_angle_beta 141.506290
_cell_angle_gamma 90.000000
_cell_volume 2135.544660
_symmetry_space_group_name_H-M "C 2/C"
_symmetry_group_IT_number 15
_symmetry_cell_setting 'monoclinic'
loop_
_space_group_symop_operation_xyz
x,y,z
-x,y,1/2-z
-x,-y,-z
x,-y,1/2+z
1/2+x,1/2+y,z
1/2-x,1/2+y,1/2-z
1/2-x,1/2-y,-z
1/2+x,1/2-y,1/2+z
loop_
_atom_site_type_symbol
_atom_site_label
_atom_site_fract_x
_atom_site_fract_y
_atom_site_fract_z
Si Si1 0.611199 0.370575 0.883956
Si Si2 0.736109 0.879031 0.872471
Si Si3 0.676390 0.849186 0.081231
Si Si4 0.576910 0.998747 0.503792
Si Si5 0.572001 0.470738 0.256267
Si Si6 0.182915 0.785889 0.750977
O O1 0.500000 0.345056 0.750000
O O2 0.626825 0.457663 0.921495
O O3 0.611887 0.344305 0.712914
O O4 0.705430 0.339840 0.149207
O O5 0.675645 0.948573 0.703343
O O6 0.750453 0.825711 0.759405
O O7 0.675545 0.841824 0.901651
O O8 0.842608 0.910419 0.134981
O O9 0.618573 0.778640 0.052210
O O10 0.616921 0.921318 0.027278
O O11 0.500000 0.000000 0.500000
O O12 0.500000 0.962778 0.250000
O O13 0.500000 0.432066 0.250000
O O14 0.500000 0.500000 0.000000
O O15 0.250000 0.750000 0.000000
#
# Coordination Sequence:
#
# PCOD8144284 Si02
#       6
#     8   8   8   8   8   8
#     4  10  21  42  67 100 138 177 224 285 356 430
#     4  12  24  44  74  98 143 183 231 300 348 421
#     4  11  24  46  66 102 140 182 241 293 347 425
#     4  12  27  46  72 103 136 189 250 299 347 409
#     4  11  22  36  66 105 133 167 219 277 355 424
#     4  10  25  44  69 100 144 188 232 286 366 417
#
# _framework density 22.476700999999998
#
# number of rings (size 3 to 8) (size 9 to 14) (size 15 to 20)
#    0.000    1.000    3.333    3.500    7.000    0.000 
#    6.000    2.500    0.000    0.000    0.000    0.000 
#    0.000    0.000    0.000    0.000    0.000    0.000 
#
# Total GULP energy -297350.507558 kJ/mol
# GULP energy per Si atom -12389.604482 kJ/mol
# Density = 2.242554 g / cm^3
# Si number density = 22.476701 Si / 1000 Ang^3
#
#
#
# Elastic Constant Matrix: (Units=GPa)
#
#
# Indices 1 2 3 4 5 6 
#
# 1 158.1459 48.8751 34.8911 0.0000 -33.1132 0.0000
# 2 48.8751 89.3688 14.0418 0.0000 -13.6391 0.0000
# 3 34.8911 14.0418 91.0305 0.0000 -9.8513 0.0000
# 4 0.0000 0.0000 0.0000 15.0339 0.0000 -22.7393
# 5 -33.1132 -13.6391 -9.8513 0.0000 40.1131 0.0000
# 6 0.0000 0.0000 0.0000 -22.7393 0.0000 33.6664
#
#
#
# Elastic Compliance Matrix: (Units=1/GPa)
#
#
# Indices 1 2 3 4 5 6 
#
# 1 0.009212 -0.003796 -0.002324 0.000000 0.005743 0.000000
# 2 -0.003796 0.013549 -0.000488 0.000000 0.001353 0.000000
# 3 -0.002324 -0.000488 0.012046 0.000000 0.000874 0.000000
# 4 0.000000 0.000000 0.000000 -3.077154 0.000000 -2.078407
# 5 0.005743 0.001353 0.000874 0.000000 0.030345 0.000000
# 6 0.000000 0.000000 0.000000 -2.078407 0.000000 -1.374118
#
#
# Mechanical properties :
#
#
# Convention : Reuss Voigt Hill
#
# Bulk Modulus (GPa) = 46.31832 59.35125 52.83479
# Shear Modulus (GPa) = -1.14529 33.81183 16.33327
#
# Velocity S-wave (km/s) = -0.71460 3.88275 2.69862
# Velocity P-wave (km/s) = 4.46891 6.82378 5.76780
#
# Compressibility (1/GPa) = 0.02158973
#
# Stress axis : x y z
#
# Youngs Moduli (GPa) = 108.55896 73.80637 83.01578
#
# Poissons Ratio (x) = 0.28019 0.19290
# Poissons Ratio (y) = 0.41211 0.04055
# Poissons Ratio (z) = 0.25225 0.03605
#
# Static dielectric constant tensor:
#      x y z
#    x 4.263810 0.000000 -0.081350 
#    y 0.000000 4.173590 0.000000 
#    z -0.081350 0.000000 3.934230 
# 
# 
# High freq. dielectric constant tensor:
#      x y z
#    x 1.899370 0.000000 -0.017900 
#    y 0.000000 1.885210 0.000000 
#    z -0.017900 0.000000 1.881620 
# 
# From -- ./inp_files/57987.got.cif
#   From: 2010.06.25/outbox.cif.g09.slc.cpg/sg15_29_cif.got.tgz:57987.got - 2010.06.28 07:06:18.
