data_PCOD8144400
_publ_section_title
;
Structure prediction by ZEFSAII (Michael W. Deem and Ramdas Pophale) SiO2 
 PCOD8144400
Probable space group: C 2/C
;
_chemical_formula_sum "Si O2"
_cell_formula_units_Z 64
_cell_length_a 22.037993
_cell_length_b 26.930840
_cell_length_c 15.259863
_cell_angle_alpha 90.000000
_cell_angle_beta 160.131731
_cell_angle_gamma 90.000000
_cell_volume 3078.017179
_symmetry_space_group_name_H-M "C 2/C"
_symmetry_group_IT_number 15
_symmetry_cell_setting 'monoclinic'
loop_
_space_group_symop_operation_xyz
x,y,z
-x,y,1/2-z
-x,-y,-z
x,-y,1/2+z
1/2+x,1/2+y,z
1/2-x,1/2+y,1/2-z
1/2-x,1/2-y,-z
1/2+x,1/2-y,1/2+z
loop_
_atom_site_type_symbol
_atom_site_label
_atom_site_fract_x
_atom_site_fract_y
_atom_site_fract_z
Si Si1 0.618897 0.601349 0.716329
Si Si2 0.621898 0.297203 0.832579
Si Si3 0.467777 0.796500 0.923922
Si Si4 0.317179 0.102014 0.160234
Si Si5 0.394543 0.971935 0.520969
Si Si6 0.226434 0.424350 0.706580
Si Si7 0.817749 0.202837 0.785602
Si Si8 0.535920 0.842228 0.201297
O O1 0.409806 0.593747 0.409875
O O2 0.708042 0.652096 0.802535
O O3 0.661260 0.598472 0.877152
O O4 0.713948 0.556050 0.798388
O O5 0.500000 0.292413 0.750000
O O6 0.507028 0.302885 0.589953
O O7 0.750000 0.250000 0.000000
O O8 0.748451 0.346251 0.013775
O O9 0.660676 0.786266 0.142111
O O10 0.473599 0.806764 0.036850
O O11 0.383689 0.841315 0.755173
O O12 0.339756 0.747956 0.745146
O O13 0.482060 0.065249 0.366399
O O14 0.235145 0.086390 0.140472
O O15 0.500000 0.990389 0.750000
O O16 0.326389 0.018472 0.373063
O O17 0.059392 0.394999 0.438184
O O18 0.500000 0.819408 0.250000
#
# Coordination Sequence:
#
# PCOD8144400 Si02
#       8
#     8   8   8   8   8   8   8   8
#     4  11  24  42  68  95 132 170 219 266 325 384
#     4  12  22  37  60  88 130 174 211 261 325 382
#     4  11  25  40  62  92 128 169 219 262 319 385
#     4  10  23  45  65  94 131 174 211 268 324 388
#     4  10  21  42  70  94 127 171 210 269 336 389
#     4  11  23  41  68  98 128 166 221 268 325 392
#     4  12  24  40  63  94 128 174 217 264 319 386
#     4  11  23  39  60  93 133 168 213 267 326 393
#
# _framework density 20.792605999999999
#
# number of rings (size 3 to 8) (size 9 to 14) (size 15 to 20)
#    0.000    1.000    3.750    2.625    5.250    0.500 
#    0.000    0.000    0.000    1.500    0.000    0.000 
#    0.000    0.000    0.000    0.000    0.000    0.000 
#
# Total GULP energy -396669.414167 kJ/mol
# GULP energy per Si atom -12395.919193 kJ/mol
# Density = 2.074528 g / cm^3
# Si number density = 20.792606 Si / 1000 Ang^3
#
#
#
# Elastic Constant Matrix: (Units=GPa)
#
#
# Indices 1 2 3 4 5 6 
#
# 1 82.7518 35.8979 33.8539 -0.0002 23.0037 0.0000
# 2 35.8979 131.0228 57.9618 0.0000 10.8852 0.0000
# 3 33.8539 57.9618 91.2706 -0.0006 21.2557 0.0002
# 4 -0.0002 0.0000 -0.0006 -8.0063 -0.0003 0.5145
# 5 23.0037 10.8852 21.2557 -0.0003 22.6735 0.0001
# 6 0.0000 0.0000 0.0002 0.5145 0.0001 27.1747
#
#
#
# Elastic Compliance Matrix: (Units=1/GPa)
#
#
# Indices 1 2 3 4 5 6 
#
# 1 0.018399 -0.003261 -0.000987 0.000000 -0.016177 0.000000
# 2 -0.003261 0.011236 -0.006959 0.000000 0.004438 0.000000
# 3 -0.000987 -0.006959 0.018845 -0.000001 -0.013325 0.000000
# 4 0.000000 0.000000 -0.000001 -0.124750 -0.000001 0.002362
# 5 -0.016177 0.004438 -0.013325 -0.000001 0.070878 0.000000
# 6 0.000000 0.000000 0.000000 0.002362 0.000000 0.036754
#
#
# Mechanical properties :
#
#
# Convention : Reuss Voigt Hill
#
# Bulk Modulus (GPa) = 38.36296 62.27471 50.31883
# Shear Modulus (GPa) = 80.04598 20.19048 50.11823
#
# Velocity S-wave (km/s) = 6.21135 3.11953 4.91490
# Velocity P-wave (km/s) = 8.36251 6.55673 7.51406
#
# Compressibility (1/GPa) = 0.02606681
#
# Stress axis : x y z
#
# Youngs Moduli (GPa) = 54.34965 89.00292 53.06435
#
# Poissons Ratio (x) = 0.29021 0.05235
# Poissons Ratio (y) = 0.17722 0.36929
# Poissons Ratio (z) = 0.05362 0.61940
#
# Static dielectric constant tensor:
#      x y z
#    x 3.349130 0.000000 -0.168310 
#    y 0.000000 3.781030 0.000000 
#    z -0.168310 0.000000 3.716850 
# 
# 
# High freq. dielectric constant tensor:
#      x y z
#    x 1.821780 0.000000 0.007200 
#    y 0.000000 1.810080 0.000000 
#    z 0.007200 0.000000 1.815820 
# 
# From -- ./inp_files/170097.got.cif
#   From: 2010.06.25/outbox.cif.g09.slc.cpg/sg15_86_cif.got.tgz:170097.got - 2010.06.28 07:06:18.
