data_PCOD8144277
_publ_section_title
;
Structure prediction by ZEFSAII (Michael W. Deem and Ramdas Pophale) SiO2 
 PCOD8144277
Probable space group: C 2/C
;
_chemical_formula_sum "Si O2"
_cell_formula_units_Z 56
_cell_length_a 14.764483
_cell_length_b 13.964982
_cell_length_c 17.284332
_cell_angle_alpha 90.000000
_cell_angle_beta 48.080019
_cell_angle_gamma 90.000000
_cell_volume 2651.734513
_symmetry_space_group_name_H-M "C 2/C"
_symmetry_group_IT_number 15
_symmetry_cell_setting 'monoclinic'
loop_
_space_group_symop_operation_xyz
x,y,z
-x,y,1/2-z
-x,-y,-z
x,-y,1/2+z
1/2+x,1/2+y,z
1/2-x,1/2+y,1/2-z
1/2-x,1/2-y,-z
1/2+x,1/2-y,1/2+z
loop_
_atom_site_type_symbol
_atom_site_label
_atom_site_fract_x
_atom_site_fract_y
_atom_site_fract_z
Si Si1 0.211125 0.447935 0.721306
Si Si2 0.000000 0.635484 0.250000
Si Si3 0.500000 0.320222 0.750000
Si Si4 0.743833 0.152788 0.356506
Si Si5 0.033739 0.275787 0.070232
Si Si6 0.522735 0.681799 0.818368
Si Si7 0.723058 0.162108 0.755600
Si Si8 0.545005 0.393230 0.983864
O O1 0.105886 0.434761 0.718002
O O2 0.181794 0.410836 0.824681
O O3 0.245130 0.559101 0.704323
O O4 0.322380 0.382880 0.628667
O O5 0.028132 0.708259 0.161812
O O6 0.619824 0.386623 0.699385
O O7 0.458356 0.253174 0.844969
O O8 0.647955 0.155896 0.482446
O O9 0.772943 0.260963 0.314829
O O10 0.907616 0.333401 0.126499
O O11 0.041300 0.182096 0.010840
O O12 0.500000 0.625985 0.750000
O O13 0.668202 0.684449 0.747221
O O14 0.450456 0.630580 0.927970
O O15 0.500000 0.500000 0.000000
#
# Coordination Sequence:
#
# PCOD8144277 Si02
#       8
#     8   4   4   8   8   8   8   8
#     4  12  23  41  69  98 136 177 231 282 350 411
#     4  10  22  43  65  98 136 182 224 285 337 424
#     4  10  22  37  67  94 124 174 228 267 337 412
#     4  11  21  44  63  95 135 175 222 288 345 411
#     4  11  22  41  68  88 135 181 222 278 359 399
#     4  10  21  42  66  97 134 176 230 285 344 408
#     4  11  22  42  67  95 138 179 220 289 348 407
#     4  12  21  41  71  98 133 183 224 291 348 407
#
# _framework density 21.118254
#
# number of rings (size 3 to 8) (size 9 to 14) (size 15 to 20)
#    0.429    0.571    7.143    0.429    0.000    3.429 
#    7.714    1.429    0.000    0.000    0.000    0.000 
#    0.000    0.000    0.000    0.000    0.000    0.000 
#
# Total GULP energy -347024.572499 kJ/mol
# GULP energy per Si atom -12393.734732 kJ/mol
# Density = 2.107019 g / cm^3
# Si number density = 21.118254 Si / 1000 Ang^3
#
#
#
# Elastic Constant Matrix: (Units=GPa)
#
#
# Indices 1 2 3 4 5 6 
#
# 1 128.9237 9.6401 26.8607 0.0000 -0.2647 0.0000
# 2 9.6401 60.9799 -6.1822 0.0000 12.7745 0.0000
# 3 26.8607 -6.1822 100.6370 0.0000 5.1063 0.0000
# 4 0.0000 0.0000 0.0000 23.0491 0.0000 -4.0351
# 5 -0.2647 12.7745 5.1063 0.0000 45.1786 0.0000
# 6 0.0000 0.0000 0.0000 -4.0351 0.0000 20.6782
#
#
#
# Elastic Compliance Matrix: (Units=1/GPa)
#
#
# Indices 1 2 3 4 5 6 
#
# 1 0.008385 -0.001737 -0.002386 0.000000 0.000810 0.000000
# 2 -0.001737 0.017970 0.001836 0.000000 -0.005299 0.000000
# 3 -0.002386 0.001836 0.010775 0.000000 -0.001751 0.000000
# 4 0.000000 0.000000 0.000000 0.044920 0.000000 0.008766
# 5 0.000810 -0.005299 -0.001751 0.000000 0.023835 0.000000
# 6 0.000000 0.000000 0.000000 0.008766 0.000000 0.050071
#
#
# Mechanical properties :
#
#
# Convention : Reuss Voigt Hill
#
# Bulk Modulus (GPa) = 30.71556 39.01975 34.86766
# Shear Modulus (GPa) = 29.17463 35.12930 32.15197
#
# Velocity S-wave (km/s) = 3.72087 4.08297 3.90612
# Velocity P-wave (km/s) = 5.74769 6.38314 6.07373
#
# Compressibility (1/GPa) = 0.03255679
#
# Stress axis : x y z
#
# Youngs Moduli (GPa) = 119.25820 55.64935 92.80595
#
# Poissons Ratio (x) = 0.09667 0.22142
# Poissons Ratio (y) = 0.20717 -0.17043
# Poissons Ratio (z) = 0.28453 -0.10220
#
# Static dielectric constant tensor:
#      x y z
#    x 4.081330 0.000000 -0.271030 
#    y 0.000000 3.643500 0.000000 
#    z -0.271030 0.000000 3.946990 
# 
# 
# High freq. dielectric constant tensor:
#      x y z
#    x 1.835700 0.000000 -0.005780 
#    y 0.000000 1.806650 0.000000 
#    z -0.005780 0.000000 1.822040 
# 
# From -- ./inp_files/205362.got.cif
#   From: 2010.06.25/outbox.cif.g09.slc.cpg/sg15_103_cif.got.tgz:205362.got - 2010.06.28 07:06:18.
