data_PCOD8144085
_publ_section_title
;
Structure prediction by ZEFSAII (Michael W. Deem and Ramdas Pophale) SiO2 
 PCOD8144085
Probable space group: C 2/C
;
_chemical_formula_sum "Si O2"
_cell_formula_units_Z 56
_cell_length_a 19.597436
_cell_length_b 17.912861
_cell_length_c 14.416308
_cell_angle_alpha 90.000000
_cell_angle_beta 150.930229
_cell_angle_gamma 90.000000
_cell_volume 2458.907569
_symmetry_space_group_name_H-M "C 2/C"
_symmetry_group_IT_number 15
_symmetry_cell_setting 'monoclinic'
loop_
_space_group_symop_operation_xyz
x,y,z
-x,y,1/2-z
-x,-y,-z
x,-y,1/2+z
1/2+x,1/2+y,z
1/2-x,1/2+y,1/2-z
1/2-x,1/2-y,-z
1/2+x,1/2-y,1/2+z
loop_
_atom_site_type_symbol
_atom_site_label
_atom_site_fract_x
_atom_site_fract_y
_atom_site_fract_z
Si Si1 0.086188 0.130123 0.258393
Si Si2 0.481027 0.467816 0.333526
Si Si3 0.204535 0.527740 0.253797
Si Si4 0.468237 0.676071 0.922221
Si Si5 0.124772 0.683045 0.949918
Si Si6 0.273215 0.800340 0.735366
Si Si7 0.509160 0.975813 0.361331
O O1 0.241827 0.164944 0.457644
O O2 0.000000 0.138984 0.250000
O O3 0.006785 0.166156 0.076383
O O4 0.113295 0.042030 0.269872
O O5 0.500000 0.441600 0.250000
O O6 0.631317 0.488918 0.557262
O O7 0.411949 0.401017 0.310540
O O8 0.174068 0.616520 0.226032
O O9 0.141487 0.486925 0.268784
O O10 0.131653 0.493098 0.074765
O O11 0.348569 0.738250 0.761525
O O12 0.605191 0.702861 0.027361
O O13 0.037839 0.611041 0.879869
O O14 0.000000 0.731730 0.750000
O O15 0.183053 0.724473 0.108759
O O16 0.500000 0.017041 0.250000
#
# Coordination Sequence:
#
# PCOD8144085 Si02
#       7
#     8   8   8   8   8   8   8
#     4  10  22  37  59  89 121 152 195 243 305 364
#     4  10  22  39  63  84 121 155 202 247 303 344
#     4   9  19  39  55  86 122 151 192 250 289 353
#     4  10  21  42  58  83 116 157 199 246 293 354
#     4   9  19  34  57  85 122 151 189 242 299 357
#     4   9  20  39  57  79 116 158 196 243 292 350
#     4   9  18  32  59  84 118 148 191 233 301 347
#
# _framework density 22.774339999999999
#
# number of rings (size 3 to 8) (size 9 to 14) (size 15 to 20)
#    0.000    2.571    0.000    1.286    8.000    1.714 
#    7.714    6.429    0.000    0.000    0.000    0.000 
#    0.000    0.000    0.000    0.000    0.000    0.000 
#
# Total GULP energy -347019.490682 kJ/mol
# GULP energy per Si atom -12393.553239 kJ/mol
# Density = 2.272251 g / cm^3
# Si number density = 22.774340 Si / 1000 Ang^3
#
#
#
# Elastic Constant Matrix: (Units=GPa)
#
#
# Indices 1 2 3 4 5 6 
#
# 1 83.8940 30.8726 18.7563 0.0000 8.1646 0.0000
# 2 30.8726 73.5024 22.3759 0.0000 21.4115 0.0000
# 3 18.7563 22.3759 63.7941 0.0000 0.5774 0.0000
# 4 0.0000 0.0000 0.0000 18.9151 0.0000 10.5114
# 5 8.1646 21.4115 0.5774 0.0000 39.3119 0.0000
# 6 0.0000 0.0000 0.0000 10.5114 0.0000 10.1036
#
#
#
# Elastic Compliance Matrix: (Units=1/GPa)
#
#
# Indices 1 2 3 4 5 6 
#
# 1 0.014411 -0.005312 -0.002374 0.000000 -0.000065 0.000000
# 2 -0.005312 0.020404 -0.005505 0.000000 -0.009929 0.000000
# 3 -0.002374 -0.005505 0.018275 0.000000 0.003223 0.000000
# 4 0.000000 0.000000 0.000000 0.125321 0.000000 -0.130379
# 5 -0.000065 -0.009929 0.003223 0.000000 0.030812 0.000000
# 6 0.000000 0.000000 0.000000 -0.130379 0.000000 0.234615
#
#
# Mechanical properties :
#
#
# Convention : Reuss Voigt Hill
#
# Bulk Modulus (GPa) = 37.43905 40.57781 39.00843
# Shear Modulus (GPa) = 10.43575 23.61184 17.02379
#
# Velocity S-wave (km/s) = 2.14294 3.22339 2.73701
# Velocity P-wave (km/s) = 4.75371 5.63114 5.21092
#
# Compressibility (1/GPa) = 0.02671008
#
# Stress axis : x y z
#
# Youngs Moduli (GPa) = 69.38932 49.00911 54.71922
#
# Poissons Ratio (x) = 0.26031 0.12988
# Poissons Ratio (y) = 0.36856 0.30125
# Poissons Ratio (z) = 0.16470 0.26981
#
# Static dielectric constant tensor:
#      x y z
#    x 4.159450 0.000000 -0.326910 
#    y 0.000000 4.037340 0.000000 
#    z -0.326910 0.000000 4.583960 
# 
# 
# High freq. dielectric constant tensor:
#      x y z
#    x 1.893310 0.000000 0.000700 
#    y 0.000000 1.878720 0.000000 
#    z 0.000700 0.000000 1.895380 
# 
# From -- ./inp_files/169159.got.cif
#   From: 2010.06.25/outbox.cif.g09.slc.cpg/sg15_85_cif.got.tgz:169159.got - 2010.06.28 07:06:18.
