data_PCOD8144215
_publ_section_title
;
Structure prediction by ZEFSAII (Michael W. Deem and Ramdas Pophale) SiO2 
 PCOD8144215
Probable space group: C 2/C
;
_chemical_formula_sum "Si O2"
_cell_formula_units_Z 56
_cell_length_a 9.061651
_cell_length_b 21.062837
_cell_length_c 14.718993
_cell_angle_alpha 90.000000
_cell_angle_beta 113.066234
_cell_angle_gamma 90.000000
_cell_volume 2584.728503
_symmetry_space_group_name_H-M "C 2/C"
_symmetry_group_IT_number 15
_symmetry_cell_setting 'monoclinic'
loop_
_space_group_symop_operation_xyz
x,y,z
-x,y,1/2-z
-x,-y,-z
x,-y,1/2+z
1/2+x,1/2+y,z
1/2-x,1/2+y,1/2-z
1/2-x,1/2-y,-z
1/2+x,1/2-y,1/2+z
loop_
_atom_site_type_symbol
_atom_site_label
_atom_site_fract_x
_atom_site_fract_y
_atom_site_fract_z
Si Si1 0.567347 0.930024 0.005348
Si Si2 0.713691 0.283437 0.603222
Si Si3 0.872089 0.082431 0.474965
Si Si4 0.657280 0.099716 0.728984
Si Si5 0.016773 0.296394 0.554745
Si Si6 0.808431 0.739163 0.715391
Si Si7 0.934832 0.012617 0.834884
O O1 0.637996 0.905972 0.116947
O O2 0.691293 0.938088 0.952751
O O3 0.448782 0.872628 0.944708
O O4 0.500000 0.000000 0.000000
O O5 0.619293 0.343163 0.539908
O O6 0.891017 0.275760 0.603563
O O7 0.585089 0.225767 0.558452
O O8 0.742758 0.287560 0.717352
O O9 0.966346 0.067396 0.590329
O O10 0.939417 0.049007 0.400502
O O11 0.500000 0.094071 0.750000
O O12 0.740311 0.166983 0.772278
O O13 0.757525 0.039193 0.784607
O O14 0.191469 0.262238 0.604980
O O15 0.000000 0.745970 0.750000
O O16 0.000000 0.996038 0.750000
#
# Coordination Sequence:
#
# PCOD8144215 Si02
#       7
#     8   8   8   8   8   8   8
#     4  11  22  42  66  94 134 173 219 272 336 402
#     4  10  21  42  65  93 130 166 223 276 326 402
#     4  10  23  41  64 100 129 171 221 276 333 391
#     4  11  23  41  63  95 132 176 221 267 332 407
#     4  10  22  41  67  95 125 177 221 274 332 401
#     4  11  24  41  62  97 135 171 220 276 341 396
#     4  11  22  41  68  95 131 174 221 271 331 399
#
# _framework density 21.665718999999999
#
# number of rings (size 3 to 8) (size 9 to 14) (size 15 to 20)
#    0.000    1.429    2.857    2.143    0.000    3.429 
#    7.714    1.429    0.000    0.000    0.000    0.000 
#    0.000    0.000    0.000    0.000    0.000    0.000 
#
# Total GULP energy -346885.860357 kJ/mol
# GULP energy per Si atom -12388.780727 kJ/mol
# Density = 2.161641 g / cm^3
# Si number density = 21.665719 Si / 1000 Ang^3
#
#
#
# Elastic Constant Matrix: (Units=GPa)
#
#
# Indices 1 2 3 4 5 6 
#
# 1 73.7247 42.4696 32.1329 0.0000 2.1643 0.0000
# 2 42.4696 107.1596 19.7798 0.0000 5.0126 0.0000
# 3 32.1329 19.7798 82.5221 0.0000 -4.9629 0.0000
# 4 0.0000 0.0000 0.0000 33.9096 0.0000 2.5000
# 5 2.1643 5.0126 -4.9629 0.0000 39.7940 0.0000
# 6 0.0000 0.0000 0.0000 2.5000 0.0000 33.6542
#
#
#
# Elastic Compliance Matrix: (Units=1/GPa)
#
#
# Indices 1 2 3 4 5 6 
#
# 1 0.020280 -0.006822 -0.006324 0.000000 -0.001032 0.000000
# 2 -0.006822 0.012152 -0.000329 0.000000 -0.001201 0.000000
# 3 -0.006324 -0.000329 0.014793 0.000000 0.002230 0.000000
# 4 0.000000 0.000000 0.000000 0.029653 0.000000 -0.002203
# 5 -0.001032 -0.001201 0.002230 0.000000 0.025615 0.000000
# 6 0.000000 0.000000 0.000000 -0.002203 0.000000 0.029878
#
#
# Mechanical properties :
#
#
# Convention : Reuss Voigt Hill
#
# Bulk Modulus (GPa) = 49.31656 50.24123 49.77889
# Shear Modulus (GPa) = 30.10615 32.73983 31.42299
#
# Velocity S-wave (km/s) = 3.73174 3.89155 3.81248
# Velocity P-wave (km/s) = 6.43271 6.59028 6.51197
#
# Compressibility (1/GPa) = 0.02027717
#
# Stress axis : x y z
#
# Youngs Moduli (GPa) = 49.30879 82.28828 67.59844
#
# Poissons Ratio (x) = 0.56137 0.42748
# Poissons Ratio (y) = 0.33638 0.02222
# Poissons Ratio (z) = 0.31182 0.02704
#
# Static dielectric constant tensor:
#      x y z
#    x 3.805930 0.000000 -0.100470 
#    y 0.000000 3.960570 0.000000 
#    z -0.100470 0.000000 3.817940 
# 
# 
# High freq. dielectric constant tensor:
#      x y z
#    x 1.843820 0.000000 -0.008370 
#    y 0.000000 1.856000 0.000000 
#    z -0.008370 0.000000 1.851620 
# 
# From -- ./inp_files/137966.got.cif
#   From: 2010.06.25/outbox.cif.g09.slc.cpg/sg15_69_cif.got.tgz:137966.got - 2010.06.28 07:06:18.
