data_PCOD8144226
_publ_section_title
;
Structure prediction by ZEFSAII (Michael W. Deem and Ramdas Pophale) SiO2 
 PCOD8144226
Probable space group: C 2/C
;
_chemical_formula_sum "Si O2"
_cell_formula_units_Z 52
_cell_length_a 27.326729
_cell_length_b 8.829523
_cell_length_c 27.264261
_cell_angle_alpha 90.000000
_cell_angle_beta 159.510140
_cell_angle_gamma 90.000000
_cell_volume 2302.704934
_symmetry_space_group_name_H-M "C 2/C"
_symmetry_group_IT_number 15
_symmetry_cell_setting 'monoclinic'
loop_
_space_group_symop_operation_xyz
x,y,z
-x,y,1/2-z
-x,-y,-z
x,-y,1/2+z
1/2+x,1/2+y,z
1/2-x,1/2+y,1/2-z
1/2-x,1/2-y,-z
1/2+x,1/2-y,1/2+z
loop_
_atom_site_type_symbol
_atom_site_label
_atom_site_fract_x
_atom_site_fract_y
_atom_site_fract_z
Si Si1 0.079171 0.674469 0.427426
Si Si2 0.000000 0.131299 0.250000
Si Si3 0.623282 0.418127 0.290958
Si Si4 0.178186 0.655965 0.688317
Si Si5 0.455180 0.844400 0.123035
Si Si6 0.791508 0.803169 0.681266
Si Si7 0.918072 0.670631 0.378171
O O1 0.018072 0.820611 0.342832
O O2 0.005365 0.656552 0.410460
O O3 0.246290 0.698108 0.587298
O O4 0.059745 0.521155 0.377490
O O5 0.082616 0.237622 0.366292
O O6 0.116101 0.026531 0.332203
O O7 0.637575 0.530592 0.257808
O O8 0.219400 0.765927 0.771965
O O9 0.173309 0.481331 0.699489
O O10 0.306413 0.690684 0.770931
O O11 0.028141 0.699844 0.525148
O O12 0.615437 0.822348 0.258284
O O13 0.360118 0.803473 0.986650
#
# Coordination Sequence:
#
# PCOD8144226 Si02
#       7
#     8   4   8   8   8   8   8
#     4  11  23  44  64 102 134 184 207 285 334 398
#     4  10  24  48  68 108 120 176 226 284 326 426
#     4  10  25  42  71  93 140 167 225 272 345 396
#     4  11  24  42  68  96 138 177 233 274 323 387
#     4  10  22  41  72  93 134 165 228 271 340 393
#     4  10  21  42  65  97 127 182 213 277 326 396
#     4  11  25  42  66 101 138 180 229 277 320 397
#
# _framework density 22.582139000000002
#
# number of rings (size 3 to 8) (size 9 to 14) (size 15 to 20)
#    0.000    1.538    1.538    1.846    8.615    9.846 
#    8.308    0.000    0.000    0.000    0.000    0.000 
#    0.000    0.000    0.000    0.000    0.000    0.000 
#
# Total GULP energy -322341.215845 kJ/mol
# GULP energy per Si atom -12397.739071 kJ/mol
# Density = 2.253074 g / cm^3
# Si number density = 22.582139 Si / 1000 Ang^3
#
#
#
# Elastic Constant Matrix: (Units=GPa)
#
#
# Indices 1 2 3 4 5 6 
#
# 1 101.4130 50.8160 35.5651 -0.0002 -3.1323 0.0000
# 2 50.8160 87.4403 46.8234 0.0005 -14.5574 0.0005
# 3 35.5651 46.8234 76.0153 -0.0019 -5.4430 -0.0003
# 4 -0.0002 0.0005 -0.0019 39.4236 -0.0007 7.1248
# 5 -3.1323 -14.5574 -5.4430 -0.0007 27.7637 0.0000
# 6 0.0000 0.0005 -0.0003 7.1248 0.0000 35.6215
#
#
#
# Elastic Compliance Matrix: (Units=1/GPa)
#
#
# Indices 1 2 3 4 5 6 
#
# 1 0.014380 -0.007633 -0.002228 0.000000 -0.002816 0.000000
# 2 -0.007633 0.022566 -0.009679 -0.000001 0.009073 0.000000
# 3 -0.002228 -0.009679 0.020060 0.000001 -0.001394 0.000000
# 4 0.000000 -0.000001 0.000001 0.026317 0.000001 -0.005264
# 5 -0.002816 0.009073 -0.001394 0.000001 0.040185 0.000000
# 6 0.000000 0.000000 0.000000 -0.005264 0.000000 0.029126
#
#
# Mechanical properties :
#
#
# Convention : Reuss Voigt Hill
#
# Bulk Modulus (GPa) = 55.78532 59.03083 57.40808
# Shear Modulus (GPa) = 25.29252 29.33937 27.31594
#
# Velocity S-wave (km/s) = 3.35031 3.60839 3.48174
# Velocity P-wave (km/s) = 6.30262 6.59984 6.45294
#
# Compressibility (1/GPa) = 0.01792586
#
# Stress axis : x y z
#
# Youngs Moduli (GPa) = 69.54340 44.31509 49.85059
#
# Poissons Ratio (x) = 0.33824 0.11106
# Poissons Ratio (y) = 0.53079 0.48251
# Poissons Ratio (z) = 0.15494 0.42893
#
# Static dielectric constant tensor:
#      x y z
#    x 4.102290 0.000000 0.127340 
#    y 0.000000 4.088350 0.000000 
#    z 0.127340 0.000000 4.035250 
# 
# 
# High freq. dielectric constant tensor:
#      x y z
#    x 1.890860 0.000000 0.014260 
#    y 0.000000 1.889660 0.000000 
#    z 0.014260 0.000000 1.884440 
# 
# From -- ./inp_files/320203.got.cif
#   From: 2010.06.25/outbox.cif.g09.slc.cpg/sg15_161_cif.got.tgz:320203.got - 2010.06.28 07:06:18.
