data_PCOD8144144
_publ_section_title
;
Structure prediction by ZEFSAII (Michael W. Deem and Ramdas Pophale) SiO2 
 PCOD8144144
Probable space group: C 2/C
;
_chemical_formula_sum "Si O2"
_cell_formula_units_Z 48
_cell_length_a 17.199087
_cell_length_b 13.483913
_cell_length_c 15.231653
_cell_angle_alpha 90.000000
_cell_angle_beta 40.095908
_cell_angle_gamma 90.000000
_cell_volume 2275.101452
_symmetry_space_group_name_H-M "C 2/C"
_symmetry_group_IT_number 15
_symmetry_cell_setting 'monoclinic'
loop_
_space_group_symop_operation_xyz
x,y,z
-x,y,1/2-z
-x,-y,-z
x,-y,1/2+z
1/2+x,1/2+y,z
1/2-x,1/2+y,1/2-z
1/2-x,1/2-y,-z
1/2+x,1/2-y,1/2+z
loop_
_atom_site_type_symbol
_atom_site_label
_atom_site_fract_x
_atom_site_fract_y
_atom_site_fract_z
Si Si1 0.540394 0.891328 0.853949
Si Si2 0.932374 0.814060 0.502102
Si Si3 0.753150 0.942771 0.564879
Si Si4 0.206055 0.490957 0.413398
Si Si5 0.835584 0.100123 0.636469
Si Si6 0.762796 0.317106 0.691464
O O1 0.488472 0.780559 0.905155
O O2 0.610088 0.918646 0.703146
O O3 0.651734 0.892736 0.826096
O O4 0.439250 0.974603 0.959335
O O5 0.834958 0.848878 0.515879
O O6 0.862725 0.790185 0.652925
O O7 0.026814 0.901473 0.446155
O O8 0.768653 0.955069 0.448271
O O9 0.804360 0.033770 0.579469
O O10 0.253628 0.426832 0.290396
O O11 0.249728 0.606879 0.378625
O O12 0.822261 0.213718 0.614392
#
# Coordination Sequence:
#
# PCOD8144144 Si02
#       6
#     8   8   8   8   8   8
#     4  10  21  42  65  91 128 163 207 267 310 375
#     4  10  21  42  63  93 125 167 211 255 318 374
#     4  11  25  40  63  96 130 165 210 264 316 377
#     4  12  23  40  65  93 127 166 212 258 321 371
#     4  11  23  42  65  89 129 167 209 264 313 380
#     4  10  22  40  68  91 122 174 210 257 314 377
#
# _framework density 21.097961999999999
#
# number of rings (size 3 to 8) (size 9 to 14) (size 15 to 20)
#    0.000    1.333    5.000    1.500    0.000    2.000 
#    6.000    0.000    0.000    0.000    0.000    0.000 
#    0.000    0.000    0.000    0.000    0.000    0.000 
#
# Total GULP energy -297324.255198 kJ/mol
# GULP energy per Si atom -12388.510633 kJ/mol
# Density = 2.104994 g / cm^3
# Si number density = 21.097962 Si / 1000 Ang^3
#
#
#
# Elastic Constant Matrix: (Units=GPa)
#
#
# Indices 1 2 3 4 5 6 
#
# 1 53.2732 10.0870 24.8038 0.0000 -6.4167 0.0000
# 2 10.0870 100.6461 19.3504 0.0000 2.7460 0.0000
# 3 24.8038 19.3504 53.1284 0.0000 -11.1299 0.0000
# 4 0.0000 0.0000 0.0000 31.7196 0.0000 -6.7415
# 5 -6.4167 2.7460 -11.1299 0.0000 33.9549 0.0000
# 6 0.0000 0.0000 0.0000 -6.7415 0.0000 22.5232
#
#
#
# Elastic Compliance Matrix: (Units=1/GPa)
#
#
# Indices 1 2 3 4 5 6 
#
# 1 0.024023 -0.000343 -0.010881 0.000000 0.001001 0.000000
# 2 -0.000343 0.010858 -0.004287 0.000000 -0.002348 0.000000
# 3 -0.010881 -0.004287 0.026956 0.000000 0.007126 0.000000
# 4 0.000000 0.000000 0.000000 0.033668 0.000000 0.010077
# 5 0.001001 -0.002348 0.007126 0.000000 0.032166 0.000000
# 6 0.000000 0.000000 0.000000 0.010077 0.000000 0.047415
#
#
# Mechanical properties :
#
#
# Convention : Reuss Voigt Hill
#
# Bulk Modulus (GPa) = 32.44985 35.05888 33.75436
# Shear Modulus (GPa) = 23.10760 27.82664 25.46712
#
# Velocity S-wave (km/s) = 3.31305 3.63564 3.47809
# Velocity P-wave (km/s) = 5.48170 5.85467 5.67125
#
# Compressibility (1/GPa) = 0.03081678
#
# Stress axis : x y z
#
# Youngs Moduli (GPa) = 41.62730 92.09465 37.09704
#
# Poissons Ratio (x) = 0.03159 0.40364
# Poissons Ratio (y) = 0.01428 0.15902
# Poissons Ratio (z) = 0.45294 0.39477
#
# Static dielectric constant tensor:
#      x y z
#    x 3.793930 0.000000 -0.249900 
#    y 0.000000 3.762550 0.000000 
#    z -0.249900 0.000000 3.936250 
# 
# 
# High freq. dielectric constant tensor:
#      x y z
#    x 1.815340 0.000000 -0.019890 
#    y 0.000000 1.832550 0.000000 
#    z -0.019890 0.000000 1.827910 
# 
# From -- ./inp_files/162145.got.cif
#   From: 2010.06.25/outbox.cif.g09.slc.cpg/sg15_82_cif.got.tgz:162145.got - 2010.06.28 07:06:18.
