data_PCOD8144513
_publ_section_title
;
Structure prediction by ZEFSAII (Michael W. Deem and Ramdas Pophale) SiO2 
 PCOD8144513
Probable space group: C 2/C
;
_chemical_formula_sum "Si O2"
_cell_formula_units_Z 56
_cell_length_a 8.904268
_cell_length_b 25.800160
_cell_length_c 14.369702
_cell_angle_alpha 90.000000
_cell_angle_beta 126.422386
_cell_angle_gamma 90.000000
_cell_volume 2656.328686
_symmetry_space_group_name_H-M "C 2/C"
_symmetry_group_IT_number 15
_symmetry_cell_setting 'monoclinic'
loop_
_space_group_symop_operation_xyz
x,y,z
-x,y,1/2-z
-x,-y,-z
x,-y,1/2+z
1/2+x,1/2+y,z
1/2-x,1/2+y,1/2-z
1/2-x,1/2-y,-z
1/2+x,1/2-y,1/2+z
loop_
_atom_site_type_symbol
_atom_site_label
_atom_site_fract_x
_atom_site_fract_y
_atom_site_fract_z
Si Si1 0.108126 0.181687 0.196764
Si Si2 0.333295 0.347474 0.432382
Si Si3 0.313355 0.286030 0.239961
Si Si4 0.335859 0.086481 0.350450
Si Si5 0.039909 0.626607 0.605329
Si Si6 0.801771 0.053738 0.817741
Si Si7 0.500000 0.978121 0.750000
Si Si8 0.500000 0.486578 0.750000
O O1 0.236368 0.228116 0.209760
O O2 0.236177 0.131827 0.256971
O O3 0.000000 0.197907 0.250000
O O4 0.953815 0.169089 0.063639
O O5 0.348734 0.303741 0.359065
O O6 0.402391 0.403044 0.418144
O O7 0.118297 0.355111 0.381073
O O8 0.500000 0.287317 0.250000
O O9 0.169749 0.323844 0.135041
O O10 0.458029 0.109489 0.477421
O O11 0.472984 0.056416 0.331693
O O12 0.180161 0.048730 0.337208
O O13 0.160005 0.579811 0.691823
O O14 0.682577 0.013468 0.835778
O O15 0.966110 0.022892 0.826625
#
# Coordination Sequence:
#
# PCOD8144513 Si02
#       8
#     8   8   8   8   8   8   4   4
#     4  12  25  46  70  98 141 180 222 281 335 415
#     4  11  23  45  73 101 133 182 227 277 333 404
#     4  11  28  45  70 105 132 172 229 280 353 403
#     4  11  24  44  64 103 136 179 226 276 338 397
#     4  11  22  45  73  97 134 181 228 281 327 411
#     4  10  21  43  66 100 133 179 231 274 328 401
#     4  10  22  40  64  94 138 174 224 274 334 382
#     4  10  22  42  66 100 140 180 228 272 336 404
#
# _framework density 21.081728999999999
#
# number of rings (size 3 to 8) (size 9 to 14) (size 15 to 20)
#    0.000    1.143    3.571    2.143    7.000    5.143 
#    5.143    2.143    0.000    0.000    0.000    0.000 
#    0.000    0.000    0.000    0.000    0.000    0.000 
#
# Total GULP energy -347326.849699 kJ/mol
# GULP energy per Si atom -12404.530346 kJ/mol
# Density = 2.103375 g / cm^3
# Si number density = 21.081729 Si / 1000 Ang^3
#
#
#
# Elastic Constant Matrix: (Units=GPa)
#
#
# Indices 1 2 3 4 5 6 
#
# 1 140.8678 78.7274 45.9740 0.0000 -3.7124 0.0000
# 2 78.7274 138.6558 46.6595 0.0000 6.9749 0.0000
# 3 45.9740 46.6595 134.8402 0.0000 -3.1550 0.0000
# 4 0.0000 0.0000 0.0000 36.7529 0.0000 -4.1364
# 5 -3.7124 6.9749 -3.1550 0.0000 18.2979 0.0000
# 6 0.0000 0.0000 0.0000 -4.1364 0.0000 18.4877
#
#
#
# Elastic Compliance Matrix: (Units=1/GPa)
#
#
# Indices 1 2 3 4 5 6 
#
# 1 0.011063 -0.005952 -0.001613 0.000000 0.004235 0.000000
# 2 -0.005952 0.011609 -0.002128 0.000000 -0.006000 0.000000
# 3 -0.001613 -0.002128 0.008749 0.000000 0.001993 0.000000
# 4 0.000000 0.000000 0.000000 0.027912 0.000000 0.006245
# 5 0.004235 -0.006000 0.001993 0.000000 0.058141 0.000000
# 6 0.000000 0.000000 0.000000 0.006245 0.000000 0.055487
#
#
# Mechanical properties :
#
#
# Convention : Reuss Voigt Hill
#
# Bulk Modulus (GPa) = 83.09091 84.12062 83.60576
# Shear Modulus (GPa) = 25.46335 30.90791 28.18563
#
# Velocity S-wave (km/s) = 3.47917 3.83312 3.66043
# Velocity P-wave (km/s) = 7.45914 7.71876 7.59006
#
# Compressibility (1/GPa) = 0.01203501
#
# Stress axis : x y z
#
# Youngs Moduli (GPa) = 90.38899 86.13645 114.29314
#
# Poissons Ratio (x) = 0.51266 0.18441
# Poissons Ratio (y) = 0.53797 0.24327
# Poissons Ratio (z) = 0.14584 0.18334
#
# Static dielectric constant tensor:
#      x y z
#    x 3.960250 0.000000 -0.014580 
#    y 0.000000 4.125180 0.000000 
#    z -0.014580 0.000000 3.630720 
# 
# 
# High freq. dielectric constant tensor:
#      x y z
#    x 1.835500 0.000000 -0.003730 
#    y 0.000000 1.845480 0.000000 
#    z -0.003730 0.000000 1.814850 
# 
# From -- ./inp_files/137994.got.cif
#   From: 2010.06.25/outbox.cif.g09.slc.cpg/sg15_69_cif.got.tgz:137994.got - 2010.06.28 07:06:18.
