data_PCOD8144943
_publ_section_title
;
Structure prediction by ZEFSAII (Michael W. Deem and Ramdas Pophale) SiO2 
 PCOD8144943
Probable space group: C 2/C
;
_chemical_formula_sum "Si O2"
_cell_formula_units_Z 64
_cell_length_a 22.531312
_cell_length_b 12.748029
_cell_length_c 24.539351
_cell_angle_alpha 90.000000
_cell_angle_beta 29.664629
_cell_angle_gamma 90.000000
_cell_volume 3488.427071
_symmetry_space_group_name_H-M "C 2/C"
_symmetry_group_IT_number 15
_symmetry_cell_setting 'monoclinic'
loop_
_space_group_symop_operation_xyz
x,y,z
-x,y,1/2-z
-x,-y,-z
x,-y,1/2+z
1/2+x,1/2+y,z
1/2-x,1/2+y,1/2-z
1/2-x,1/2-y,-z
1/2+x,1/2-y,1/2+z
loop_
_atom_site_type_symbol
_atom_site_label
_atom_site_fract_x
_atom_site_fract_y
_atom_site_fract_z
Si Si1 0.179313 0.083493 0.745673
Si Si2 0.598784 0.237640 0.715126
Si Si3 0.886252 0.435193 0.573009
Si Si4 0.025986 0.288862 0.387488
Si Si5 0.749531 0.792848 0.730279
Si Si6 0.011504 0.034540 0.301560
Si Si7 0.859293 0.995359 0.606686
Si Si8 0.661427 0.620923 0.981757
O O1 0.181396 0.210644 0.744620
O O2 0.188674 0.051745 0.801401
O O3 0.289607 0.020993 0.630186
O O4 0.063259 0.048658 0.803905
O O5 0.500000 0.206824 0.750000
O O6 0.562465 0.174271 0.798099
O O7 0.597470 0.362629 0.728151
O O8 0.730293 0.200391 0.590836
O O9 0.929584 0.370672 0.486504
O O10 0.837394 0.351151 0.656920
O O11 0.000000 0.500000 0.500000
O O12 0.960867 0.176986 0.439369
O O13 0.148537 0.277625 0.322777
O O14 0.813003 0.876555 0.640805
O O15 0.000000 0.984946 0.250000
O O16 0.877657 0.062483 0.430936
O O17 0.805360 0.045647 0.594857
O O18 0.000000 0.000000 0.500000
#
# Coordination Sequence:
#
# PCOD8144943 Si02
#       8
#     8   8   8   8   8   8   8   8
#     4  11  21  37  54  85 117 147 190 236 280 343
#     4  10  22  35  54  84 113 151 195 233 286 336
#     4  11  22  34  52  84 120 148 175 227 295 342
#     4  11  19  35  55  82 115 151 178 231 286 342
#     4  11  23  34  56  85 116 147 187 232 283 351
#     4  10  22  38  58  83 110 153 199 237 281 331
#     4  11  19  35  59  86 112 148 186 227 287 347
#     4  11  20  35  60  82 115 150 186 235 284 349
#
# _framework density 18.346378000000001
#
# number of rings (size 3 to 8) (size 9 to 14) (size 15 to 20)
#    0.000    1.250    3.750    5.250    1.750    5.500 
#    0.000    0.000    0.000    1.500    0.000    0.000 
#    0.000    0.000    0.000    0.000    0.000    0.000 
#
# Total GULP energy -396587.328067 kJ/mol
# GULP energy per Si atom -12393.354002 kJ/mol
# Density = 1.830462 g / cm^3
# Si number density = 18.346378 Si / 1000 Ang^3
#
#
#
# Elastic Constant Matrix: (Units=GPa)
#
#
# Indices 1 2 3 4 5 6 
#
# 1 75.2246 30.8314 28.9034 -0.0001 6.5548 0.0000
# 2 30.8314 90.1725 37.9886 -0.0003 -0.0169 0.0000
# 3 28.9034 37.9886 89.2224 -0.0010 -0.5276 0.0002
# 4 -0.0001 -0.0003 -0.0010 33.5993 0.0003 -4.4853
# 5 6.5548 -0.0169 -0.5276 0.0003 32.1430 0.0000
# 6 0.0000 0.0000 0.0002 -4.4853 0.0000 18.2126
#
#
#
# Elastic Compliance Matrix: (Units=1/GPa)
#
#
# Indices 1 2 3 4 5 6 
#
# 1 0.016712 -0.004174 -0.003657 0.000000 -0.003470 0.000000
# 2 -0.004174 0.014557 -0.004841 0.000000 0.000779 0.000000
# 3 -0.003657 -0.004841 0.014460 0.000000 0.000981 0.000000
# 4 0.000000 0.000000 0.000000 0.030774 0.000000 0.007579
# 5 -0.003470 0.000779 0.000981 0.000000 0.031835 0.000000
# 6 0.000000 0.000000 0.000000 0.007579 0.000000 0.056774
#
#
# Mechanical properties :
#
#
# Convention : Reuss Voigt Hill
#
# Bulk Modulus (GPa) = 49.05860 50.00735 49.53298
# Shear Modulus (GPa) = 25.34855 27.25073 26.29964
#
# Velocity S-wave (km/s) = 3.72111 3.85820 3.79027
# Velocity P-wave (km/s) = 6.72759 6.86761 6.79796
#
# Compressibility (1/GPa) = 0.02038379
#
# Stress axis : x y z
#
# Youngs Moduli (GPa) = 59.83796 68.69722 69.15796
#
# Poissons Ratio (x) = 0.28674 0.25292
# Poissons Ratio (y) = 0.24976 0.33480
# Poissons Ratio (z) = 0.21883 0.33257
#
# Static dielectric constant tensor:
#      x y z
#    x 3.122220 0.000000 -0.073840 
#    y 0.000000 2.904730 0.000020 
#    z -0.073840 0.000020 3.240800 
# 
# 
# High freq. dielectric constant tensor:
#      x y z
#    x 1.685510 0.000000 -0.000410 
#    y 0.000000 1.693630 0.000000 
#    z -0.000410 0.000000 1.729270 
# 
# From -- ./inp_files/117604.got.cif
#   From: 2010.06.25/outbox.cif.g09.slc.cpg/sg15_59_cif.got.tgz:117604.got - 2010.06.28 07:06:18.
