data_PCOD8144549
_publ_section_title
;
Structure prediction by ZEFSAII (Michael W. Deem and Ramdas Pophale) SiO2 
 PCOD8144549
Probable space group: C 2/C
;
_chemical_formula_sum "Si O2"
_cell_formula_units_Z 40
_cell_length_a 15.681875
_cell_length_b 14.508276
_cell_length_c 18.236200
_cell_angle_alpha 90.000000
_cell_angle_beta 27.955865
_cell_angle_gamma 90.000000
_cell_volume 1945.036141
_symmetry_space_group_name_H-M "C 2/C"
_symmetry_group_IT_number 15
_symmetry_cell_setting 'monoclinic'
loop_
_space_group_symop_operation_xyz
x,y,z
-x,y,1/2-z
-x,-y,-z
x,-y,1/2+z
1/2+x,1/2+y,z
1/2-x,1/2+y,1/2-z
1/2-x,1/2-y,-z
1/2+x,1/2-y,1/2+z
loop_
_atom_site_type_symbol
_atom_site_label
_atom_site_fract_x
_atom_site_fract_y
_atom_site_fract_z
Si Si1 0.668442 0.656113 0.173032
Si Si2 0.659016 0.029236 0.935128
Si Si3 0.075380 0.686991 0.116477
Si Si4 0.161392 0.829890 0.287685
Si Si5 0.995390 0.781822 0.945285
O O1 0.500000 0.677773 0.250000
O O2 0.764619 0.559929 0.080803
O O3 0.595391 0.651258 0.312147
O O4 0.808765 0.739877 0.055213
O O5 0.828826 0.071889 0.760347
O O6 0.601761 0.102348 0.040801
O O7 0.500000 0.000000 0.000000
O O8 0.000000 0.645359 0.250000
O O9 0.921666 0.752222 0.200563
O O10 0.250000 0.750000 0.000000
O O11 0.048845 0.840465 0.448209
O O12 0.373166 0.803741 0.137385
#
# Coordination Sequence:
#
# PCOD8144549 Si02
#       5
#     8   8   8   8   8
#     4  11  24  41  65  95 131 168 220 281 328 386
#     4  12  24  43  66  98 136 171 227 279 317 405
#     4  12  24  42  70  99 136 178 219 279 348 395
#     4  11  20  41  68  92 128 177 219 259 337 404
#     4  10  21  43  67  88 125 182 217 259 336 405
#
# _framework density 20.565172
#
# number of rings (size 3 to 8) (size 9 to 14) (size 15 to 20)
#    0.000    0.800    6.000    1.800    2.800    0.800 
#    3.600    1.000    0.000    0.000    0.000    0.000 
#    0.000    0.000    0.000    0.000    0.000    0.000 
#
# Total GULP energy -247976.348835 kJ/mol
# GULP energy per Si atom -12398.817442 kJ/mol
# Density = 2.051836 g / cm^3
# Si number density = 20.565172 Si / 1000 Ang^3
#
#
#
# Elastic Constant Matrix: (Units=GPa)
#
#
# Indices 1 2 3 4 5 6 
#
# 1 94.9996 27.7453 31.0318 -0.0014 -5.9353 -0.0012
# 2 27.7453 89.4799 25.3200 -0.0045 8.7183 0.0058
# 3 31.0318 25.3200 94.9221 -0.0087 10.2013 0.0063
# 4 -0.0014 -0.0045 -0.0087 37.2474 0.0108 3.4107
# 5 -5.9353 8.7183 10.2013 0.0108 41.1460 -0.0064
# 6 -0.0012 0.0058 0.0063 3.4107 -0.0064 32.4128
#
#
#
# Elastic Compliance Matrix: (Units=1/GPa)
#
#
# Indices 1 2 3 4 5 6 
#
# 1 0.012921 -0.003293 -0.003720 -0.000002 0.003484 0.000003
# 2 -0.003293 0.013060 -0.002115 0.000002 -0.002718 -0.000003
# 3 -0.003720 -0.002115 0.012662 0.000004 -0.003228 -0.000003
# 4 -0.000002 0.000002 0.000004 0.027109 -0.000009 -0.002853
# 5 0.003484 -0.002718 -0.003228 -0.000009 0.026182 0.000007
# 6 0.000003 -0.000003 -0.000003 -0.002853 0.000007 0.031152
#
#
# Mechanical properties :
#
#
# Convention : Reuss Voigt Hill
#
# Bulk Modulus (GPa) = 49.05166 49.73285 49.39226
# Shear Modulus (GPa) = 33.75211 35.18155 34.46683
#
# Velocity S-wave (km/s) = 4.05560 4.14059 4.09832
# Velocity P-wave (km/s) = 6.77009 6.86257 6.81649
#
# Compressibility (1/GPa) = 0.02038667
#
# Stress axis : x y z
#
# Youngs Moduli (GPa) = 77.39333 76.56882 78.97532
#
# Poissons Ratio (x) = 0.25216 0.29379
# Poissons Ratio (y) = 0.25488 0.16703
# Poissons Ratio (z) = 0.28791 0.16194
#
# Static dielectric constant tensor:
#      x y z
#    x 4.012710 0.000100 0.056770 
#    y 0.000100 3.471650 -0.000040 
#    z 0.056770 -0.000040 3.906000 
# 
# 
# High freq. dielectric constant tensor:
#      x y z
#    x 1.813250 0.000000 -0.001540 
#    y 0.000000 1.786330 0.000000 
#    z -0.001540 0.000000 1.818040 
# 
# From -- ./inp_files/37950.got.cif
#   From: 2010.06.25/outbox.cif.g09.slc.cpg/sg15_19_cif.got.tgz:37950.got - 2010.06.28 07:06:18.
