data_PCOD8144898
_publ_section_title
;
Structure prediction by ZEFSAII (Michael W. Deem and Ramdas Pophale) SiO2 
 PCOD8144898
Probable space group: C 2/C
;
_chemical_formula_sum "Si O2"
_cell_formula_units_Z 52
_cell_length_a 15.014749
_cell_length_b 13.777946
_cell_length_c 12.777753
_cell_angle_alpha 90.000000
_cell_angle_beta 111.714313
_cell_angle_gamma 90.000000
_cell_volume 2455.791767
_symmetry_space_group_name_H-M "C 2/C"
_symmetry_group_IT_number 15
_symmetry_cell_setting 'monoclinic'
loop_
_space_group_symop_operation_xyz
x,y,z
-x,y,1/2-z
-x,-y,-z
x,-y,1/2+z
1/2+x,1/2+y,z
1/2-x,1/2+y,1/2-z
1/2-x,1/2-y,-z
1/2+x,1/2-y,1/2+z
loop_
_atom_site_type_symbol
_atom_site_label
_atom_site_fract_x
_atom_site_fract_y
_atom_site_fract_z
Si Si1 0.000000 0.451287 0.750000
Si Si2 0.611742 0.733510 0.121565
Si Si3 0.221320 0.056507 0.155687
Si Si4 0.759846 0.666949 0.646371
Si Si5 0.875969 0.526524 0.375767
Si Si6 0.400793 0.799152 0.020393
Si Si7 0.149751 0.368859 0.963814
O O1 0.063079 0.516743 0.697540
O O2 0.060820 0.380007 0.848066
O O3 0.623488 0.616012 0.136143
O O4 0.686600 0.789556 0.229766
O O5 0.500121 0.750923 0.100780
O O6 0.640659 0.763846 0.014631
O O7 0.284894 0.080146 0.285801
O O8 0.257544 0.108647 0.065211
O O9 0.215698 0.940475 0.144713
O O10 0.665723 0.727531 0.575376
O O11 0.839125 0.660938 0.590050
O O12 0.933871 0.607826 0.466009
O O13 0.847627 0.440066 0.436609
#
# Coordination Sequence:
#
# PCOD8144898 Si02
#       7
#     4   8   8   8   8   8   8
#     4  10  22  32  58  98 136 154 218 280 334 392
#     4  12  24  41  67 100 131 175 222 279 341 409
#     4  11  24  41  65  94 133 177 217 274 341 403
#     4  11  24  44  67  93 134 176 226 282 337 401
#     4  11  20  38  61  93 129 170 216 275 332 397
#     4  11  24  42  67  96 130 175 228 278 333 402
#     4  11  22  37  63  94 130 173 211 273 337 400
#
# _framework density 21.174433000000001
#
# number of rings (size 3 to 8) (size 9 to 14) (size 15 to 20)
#    0.000    0.923    6.154    1.385    0.000    0.615 
#    0.000    0.000    0.000    0.000    0.000    0.000 
#    0.000    0.000    0.000    0.000    0.000    0.000 
#
# Total GULP energy -322109.636322 kJ/mol
# GULP energy per Si atom -12388.832166 kJ/mol
# Density = 2.112624 g / cm^3
# Si number density = 21.174433 Si / 1000 Ang^3
#
#
#
# Elastic Constant Matrix: (Units=GPa)
#
#
# Indices 1 2 3 4 5 6 
#
# 1 63.1134 35.5049 30.6762 0.0000 15.1573 0.0000
# 2 35.5049 101.5041 34.2743 0.0000 7.9857 0.0000
# 3 30.6762 34.2743 113.9129 0.0000 0.2121 0.0000
# 4 0.0000 0.0000 0.0000 19.4042 0.0000 -2.6725
# 5 15.1573 7.9857 0.2121 0.0000 24.0827 0.0000
# 6 0.0000 0.0000 0.0000 -2.6725 0.0000 21.9966
#
#
#
# Elastic Compliance Matrix: (Units=1/GPa)
#
#
# Indices 1 2 3 4 5 6 
#
# 1 0.024839 -0.005975 -0.004866 0.000000 -0.013609 0.000000
# 2 -0.005975 0.012726 -0.002219 0.000000 -0.000440 0.000000
# 3 -0.004866 -0.002219 0.010750 0.000000 0.003704 0.000000
# 4 0.000000 0.000000 0.000000 0.052412 0.000000 0.006368
# 5 -0.013609 -0.000440 0.003704 0.000000 0.050202 0.000000
# 6 0.000000 0.000000 0.000000 0.006368 0.000000 0.046235
#
#
# Mechanical properties :
#
#
# Convention : Reuss Voigt Hill
#
# Bulk Modulus (GPa) = 45.05537 53.27124 49.16331
# Shear Modulus (GPa) = 21.67482 24.96837 23.32160
#
# Velocity S-wave (km/s) = 3.20290 3.43764 3.32234
# Velocity P-wave (km/s) = 5.91629 6.40073 6.16327
#
# Compressibility (1/GPa) = 0.02219491
#
# Stress axis : x y z
#
# Youngs Moduli (GPa) = 40.25906 78.58177 93.02457
#
# Poissons Ratio (x) = 0.46950 0.45266
# Poissons Ratio (y) = 0.24053 0.20643
# Poissons Ratio (z) = 0.19590 0.17438
#
# Static dielectric constant tensor:
#      x y z
#    x 3.800060 0.000000 -0.031530 
#    y 0.000000 3.757480 0.000000 
#    z -0.031530 0.000000 4.369290 
# 
# 
# High freq. dielectric constant tensor:
#      x y z
#    x 1.813240 0.000000 -0.003460 
#    y 0.000000 1.820740 0.000000 
#    z -0.003460 0.000000 1.855100 
# 
# From -- ./inp_files/97122.got.cif
#   From: 2010.06.25/outbox.cif.g09.slc.cpg/sg15_49_cif.got.tgz:97122.got - 2010.06.28 07:06:18.
