data_PCOD8144139
_publ_section_title
;
Structure prediction by ZEFSAII (Michael W. Deem and Ramdas Pophale) SiO2 
 PCOD8144139
Probable space group: C 2/C
;
_chemical_formula_sum "Si O2"
_cell_formula_units_Z 48
_cell_length_a 13.860696
_cell_length_b 20.344779
_cell_length_c 8.879784
_cell_angle_alpha 90.000000
_cell_angle_beta 115.973945
_cell_angle_gamma 90.000000
_cell_volume 2251.110803
_symmetry_space_group_name_H-M "C 2/C"
_symmetry_group_IT_number 15
_symmetry_cell_setting 'monoclinic'
loop_
_space_group_symop_operation_xyz
x,y,z
-x,y,1/2-z
-x,-y,-z
x,-y,1/2+z
1/2+x,1/2+y,z
1/2-x,1/2+y,1/2-z
1/2-x,1/2-y,-z
1/2+x,1/2-y,1/2+z
loop_
_atom_site_type_symbol
_atom_site_label
_atom_site_fract_x
_atom_site_fract_y
_atom_site_fract_z
Si Si1 0.119942 0.041327 0.282408
Si Si2 0.390232 0.272850 0.089282
Si Si3 0.816210 0.919655 0.002262
Si Si4 0.887458 0.740496 0.750482
Si Si5 0.878991 0.354562 0.726035
Si Si6 0.276464 0.149100 0.462034
O O1 0.125674 0.054506 0.108637
O O2 0.208688 0.082265 0.438326
O O3 0.000000 0.059916 0.250000
O O4 0.147452 0.965100 0.334651
O O5 0.500000 0.280371 0.250000
O O6 0.324777 0.216630 0.139218
O O7 0.343622 0.344963 0.056291
O O8 0.409230 0.238577 0.941637
O O9 0.687542 0.916183 0.888953
O O10 0.809476 0.799539 0.657303
O O11 0.832945 0.672167 0.655350
O O12 0.000000 0.753913 0.750000
O O13 0.870245 0.359282 0.901014
O O14 0.000000 0.360056 0.750000
#
# Coordination Sequence:
#
# PCOD8144139 Si02
#       6
#     8   8   8   8   8   8
#     4  11  23  44  63  91 129 167 210 259 307 376
#     4  11  22  38  64  93 128 162 206 258 319 374
#     4  11  24  41  60  92 125 167 216 254 312 371
#     4  11  21  39  63  96 128 160 202 258 320 370
#     4  10  21  42  63  91 126 163 210 265 312 370
#     4  10  23  40  64  91 129 164 208 256 313 374
#
# _framework density 21.322807000000001
#
# number of rings (size 3 to 8) (size 9 to 14) (size 15 to 20)
#    0.000    1.333    3.333    4.000    0.000    1.333 
#    3.000    4.167    0.000    0.000    0.000    0.000 
#    0.000    0.000    0.000    0.000    0.000    0.000 
#
# Total GULP energy -297452.240134 kJ/mol
# GULP energy per Si atom -12393.843339 kJ/mol
# Density = 2.127427 g / cm^3
# Si number density = 21.322807 Si / 1000 Ang^3
#
#
#
# Elastic Constant Matrix: (Units=GPa)
#
#
# Indices 1 2 3 4 5 6 
#
# 1 123.6434 66.1454 43.2270 0.0000 0.0439 0.0000
# 2 66.1454 76.0791 15.2969 0.0000 4.3106 0.0000
# 3 43.2270 15.2969 79.5476 0.0000 16.6187 0.0000
# 4 0.0000 0.0000 0.0000 49.5353 0.0000 -10.1005
# 5 0.0439 4.3106 16.6187 0.0000 8.9944 0.0000
# 6 0.0000 0.0000 0.0000 -10.1005 0.0000 34.3050
#
#
#
# Elastic Compliance Matrix: (Units=1/GPa)
#
#
# Indices 1 2 3 4 5 6 
#
# 1 0.027223 -0.022270 -0.020705 0.000000 0.048796 0.000000
# 2 -0.022270 0.031933 0.014879 0.000000 -0.042687 0.000000
# 3 -0.020705 0.014879 0.036531 0.000000 -0.074528 0.000000
# 4 0.000000 0.000000 0.000000 0.021477 0.000000 0.006324
# 5 0.048796 -0.042687 -0.074528 0.000000 0.269103 0.000000
# 6 0.000000 0.000000 0.000000 0.006324 0.000000 0.031012
#
#
# Mechanical properties :
#
#
# Convention : Reuss Voigt Hill
#
# Bulk Modulus (GPa) = 25.31941 58.73431 42.02686
# Shear Modulus (GPa) = 10.27460 28.87367 19.57413
#
# Velocity S-wave (km/s) = 2.19751 3.68383 3.03312
# Velocity P-wave (km/s) = 4.28239 6.76012 5.65854
#
# Compressibility (1/GPa) = 0.03949540
#
# Stress axis : x y z
#
# Youngs Moduli (GPa) = 36.73372 31.31517 27.37385
#
# Poissons Ratio (x) = 0.69739 0.56678
# Poissons Ratio (y) = 0.81806 -0.40730
# Poissons Ratio (z) = 0.76057 -0.46594
#
# Static dielectric constant tensor:
#      x y z
#    x 4.382440 0.000000 0.292490 
#    y 0.000000 4.062370 0.000000 
#    z 0.292490 0.000000 4.077900 
# 
# 
# High freq. dielectric constant tensor:
#      x y z
#    x 1.845940 0.000000 0.009500 
#    y 0.000000 1.825530 0.000000 
#    z 0.009500 0.000000 1.839800 
# 
# From -- ./inp_files/40951.got.cif
#   From: 2010.06.25/outbox.cif.g09.slc.cpg/sg15_21_cif.got.tgz:40951.got - 2010.06.28 07:06:18.
