data_PCOD8144897
_publ_section_title
;
Structure prediction by ZEFSAII (Michael W. Deem and Ramdas Pophale) SiO2 
 PCOD8144897
Probable space group: C 2/C
;
_chemical_formula_sum "Si O2"
_cell_formula_units_Z 60
_cell_length_a 21.685926
_cell_length_b 15.583329
_cell_length_c 8.690820
_cell_angle_alpha 90.000000
_cell_angle_beta 96.507740
_cell_angle_gamma 90.000000
_cell_volume 2918.042137
_symmetry_space_group_name_H-M "C 2/C"
_symmetry_group_IT_number 15
_symmetry_cell_setting 'monoclinic'
loop_
_space_group_symop_operation_xyz
x,y,z
-x,y,1/2-z
-x,-y,-z
x,-y,1/2+z
1/2+x,1/2+y,z
1/2-x,1/2+y,1/2-z
1/2-x,1/2-y,-z
1/2+x,1/2-y,1/2+z
loop_
_atom_site_type_symbol
_atom_site_label
_atom_site_fract_x
_atom_site_fract_y
_atom_site_fract_z
Si Si1 0.401563 0.724074 0.992128
Si Si2 0.806430 0.517859 0.064919
Si Si3 0.604419 0.406987 0.593984
Si Si4 0.299557 0.299105 0.708737
Si Si5 0.614677 0.409667 0.242432
Si Si6 0.748403 0.115599 0.724543
Si Si7 0.500000 0.316190 0.750000
Si Si8 0.836643 0.380260 0.846867
O O1 0.338901 0.693353 0.062381
O O2 0.456091 0.743105 0.130818
O O3 0.426428 0.649862 0.882822
O O4 0.388277 0.808871 0.890209
O O5 0.761350 0.461340 0.158321
O O6 0.849422 0.578567 0.183436
O O7 0.766280 0.581421 0.949522
O O8 0.848478 0.454482 0.975909
O O9 0.662290 0.343245 0.641700
O O10 0.589403 0.414930 0.408657
O O11 0.622447 0.497058 0.673417
O O12 0.541519 0.376562 0.655269
O O13 0.292210 0.198889 0.746932
O O14 0.234108 0.345485 0.661172
O O15 0.679934 0.359037 0.258685
#
# Coordination Sequence:
#
# PCOD8144897 Si02
#       8
#     8   8   8   8   8   8   4   8
#     4  11  23  40  64  86 121 167 208 261 309 365
#     4  10  22  32  56  85 130 166 198 239 303 379
#     4  11  25  41  62  93 125 168 210 252 304 365
#     4  11  21  36  61  90 132 165 203 249 310 373
#     4  12  23  38  63  92 127 164 209 251 309 364
#     4  11  20  36  55  94 135 169 197 251 305 380
#     4  10  26  48  64  86 118 168 212 266 304 356
#     4  11  20  38  57  91 122 161 201 247 309 373
#
# _framework density 20.561731999999999
#
# number of rings (size 3 to 8) (size 9 to 14) (size 15 to 20)
#    0.000    1.067    2.667    6.000    1.867    3.733 
#    0.000    0.000    0.000    0.800    0.000    0.000 
#    0.000    0.000    0.000    0.000    0.000    0.000 
#
# Total GULP energy -372021.507131 kJ/mol
# GULP energy per Si atom -12400.716904 kJ/mol
# Density = 2.051493 g / cm^3
# Si number density = 20.561732 Si / 1000 Ang^3
#
#
#
# Elastic Constant Matrix: (Units=GPa)
#
#
# Indices 1 2 3 4 5 6 
#
# 1 69.2027 34.3924 35.4808 0.0000 8.1953 0.0000
# 2 34.3924 113.4637 62.3805 0.0000 10.6178 0.0000
# 3 35.4808 62.3805 159.0008 0.0000 0.4178 0.0000
# 4 0.0000 0.0000 0.0000 26.1685 0.0000 0.0676
# 5 8.1953 10.6178 0.4178 0.0000 23.2245 0.0000
# 6 0.0000 0.0000 0.0000 0.0676 0.0000 14.7561
#
#
#
# Elastic Compliance Matrix: (Units=1/GPa)
#
#
# Indices 1 2 3 4 5 6 
#
# 1 0.018149 -0.003623 -0.002616 0.000000 -0.004701 0.000000
# 2 -0.003623 0.012588 -0.004119 0.000000 -0.004402 0.000000
# 3 -0.002616 -0.004119 0.008482 0.000000 0.002654 0.000000
# 4 0.000000 0.000000 0.000000 0.038214 0.000000 -0.000175
# 5 -0.004701 -0.004402 0.002654 0.000000 0.046682 0.000000
# 6 0.000000 0.000000 0.000000 -0.000175 0.000000 0.067769
#
#
# Mechanical properties :
#
#
# Convention : Reuss Voigt Hill
#
# Bulk Modulus (GPa) = 54.04430 67.35271 60.69850
# Shear Modulus (GPa) = 22.85534 26.79070 24.82302
#
# Velocity S-wave (km/s) = 3.33760 3.61354 3.47831
# Velocity P-wave (km/s) = 6.41824 7.08786 6.76134
#
# Compressibility (1/GPa) = 0.01850334
#
# Stress axis : x y z
#
# Youngs Moduli (GPa) = 55.09983 79.44183 117.89788
#
# Poissons Ratio (x) = 0.28781 0.30844
# Poissons Ratio (y) = 0.19962 0.48557
# Poissons Ratio (z) = 0.14415 0.32718
#
# Static dielectric constant tensor:
#      x y z
#    x 3.355360 0.000000 0.062330 
#    y 0.000000 3.788060 0.000000 
#    z 0.062330 0.000000 4.100840 
# 
# 
# High freq. dielectric constant tensor:
#      x y z
#    x 1.756900 0.000000 0.001170 
#    y 0.000000 1.807100 0.000000 
#    z 0.001170 0.000000 1.831100 
# 
# From -- ./inp_files/61598.got.cif
#   From: 2010.06.25/outbox.cif.g09.slc.cpg/sg15_31_cif.got.tgz:61598.got - 2010.06.28 07:06:18.
