data_PCOD8144967
_publ_section_title
;
Structure prediction by ZEFSAII (Michael W. Deem and Ramdas Pophale) SiO2 
 PCOD8144967
Probable space group: C 2/C
;
_chemical_formula_sum "Si O2"
_cell_formula_units_Z 60
_cell_length_a 11.410388
_cell_length_b 24.462669
_cell_length_c 17.844421
_cell_angle_alpha 90.000000
_cell_angle_beta 137.241197
_cell_angle_gamma 90.000000
_cell_volume 3381.591905
_symmetry_space_group_name_H-M "C 2/C"
_symmetry_group_IT_number 15
_symmetry_cell_setting 'monoclinic'
loop_
_space_group_symop_operation_xyz
x,y,z
-x,y,1/2-z
-x,-y,-z
x,-y,1/2+z
1/2+x,1/2+y,z
1/2-x,1/2+y,1/2-z
1/2-x,1/2-y,-z
1/2+x,1/2-y,1/2+z
loop_
_atom_site_type_symbol
_atom_site_label
_atom_site_fract_x
_atom_site_fract_y
_atom_site_fract_z
Si Si1 0.137956 0.462759 0.605738
Si Si2 0.196459 0.823646 0.315507
Si Si3 0.000000 0.991704 0.250000
Si Si4 0.965872 0.642515 0.064466
Si Si5 0.599862 0.413968 0.164570
Si Si6 0.657406 0.205405 0.268169
Si Si7 0.780671 0.889441 0.922476
Si Si8 0.675695 0.996709 0.792340
O O1 0.329498 0.470739 0.661632
O O2 0.134345 0.478002 0.690046
O O3 0.000000 0.500000 0.500000
O O4 0.078850 0.400081 0.569359
O O5 0.317165 0.832763 0.443588
O O6 0.223340 0.870629 0.265437
O O7 0.249133 0.764619 0.305909
O O8 0.000000 0.827439 0.250000
O O9 0.008017 0.954171 0.180523
O O10 0.885329 0.614412 0.101087
O O11 0.092764 0.689930 0.154347
O O12 0.709248 0.448639 0.156049
O O13 0.454169 0.381253 0.051159
O O14 0.500000 0.214157 0.250000
O O15 0.780603 0.158012 0.359328
O O16 0.777690 0.948752 0.882875
O O17 0.500000 0.012880 0.750000
#
# Coordination Sequence:
#
# PCOD8144967 Si02
#       8
#     8   8   4   8   8   8   8   8
#     4  11  21  36  58  80 117 151 184 226 278 337
#     4  11  21  34  53  80 111 146 185 227 279 334
#     4  10  22  36  52  86 112 148 188 222 272 342
#     4  11  19  35  55  78 113 147 181 226 282 333
#     4  11  21  34  54  81 112 144 181 227 276 327
#     4   9  21  31  51  79 105 144 180 225 279 334
#     4  11  18  35  52  79 112 141 179 225 279 337
#     4  11  21  35  53  83 111 145 183 221 279 336
#
# _framework density 17.743122
#
# number of rings (size 3 to 8) (size 9 to 14) (size 15 to 20)
#    0.000    1.333    4.667    3.200    1.867    1.600 
#    0.000    0.000    0.000    0.000    1.733    1.867 
#    0.000    0.000    0.000    0.000    0.000    0.000 
#
# Total GULP energy -372010.879951 kJ/mol
# GULP energy per Si atom -12400.362665 kJ/mol
# Density = 1.770274 g / cm^3
# Si number density = 17.743122 Si / 1000 Ang^3
#
#
#
# Elastic Constant Matrix: (Units=GPa)
#
#
# Indices 1 2 3 4 5 6 
#
# 1 62.6615 36.9154 26.2839 0.0002 6.9324 0.0001
# 2 36.9154 133.0807 49.6102 -0.0001 -1.0044 0.0000
# 3 26.2839 49.6102 124.9969 0.0011 -4.2133 0.0004
# 4 0.0002 -0.0001 0.0011 26.2545 0.0003 -3.4820
# 5 6.9324 -1.0044 -4.2133 0.0003 23.0145 0.0001
# 6 0.0001 0.0000 0.0004 -3.4820 0.0001 18.0732
#
#
#
# Elastic Compliance Matrix: (Units=1/GPa)
#
#
# Indices 1 2 3 4 5 6 
#
# 1 0.020669 -0.004787 -0.002680 0.000000 -0.006925 0.000000
# 2 -0.004787 0.009929 -0.002889 0.000000 0.001346 0.000000
# 3 -0.002680 -0.002889 0.009794 0.000000 0.002474 0.000000
# 4 0.000000 0.000000 0.000000 0.039087 -0.000001 0.007531
# 5 -0.006925 0.001346 0.002474 -0.000001 0.046049 -0.000001
# 6 0.000000 0.000000 0.000000 0.007531 -0.000001 0.056781
#
#
# Mechanical properties :
#
#
# Convention : Reuss Voigt Hill
#
# Bulk Modulus (GPa) = 50.81048 60.70646 55.75847
# Shear Modulus (GPa) = 23.85721 27.33042 25.59382
#
# Velocity S-wave (km/s) = 3.67084 3.92897 3.80210
# Velocity P-wave (km/s) = 6.83123 7.40748 7.12518
#
# Compressibility (1/GPa) = 0.01968098
#
# Stress axis : x y z
#
# Youngs Moduli (GPa) = 48.38177 100.71409 102.10677
#
# Poissons Ratio (x) = 0.48208 0.27363
# Poissons Ratio (y) = 0.23159 0.29497
# Poissons Ratio (z) = 0.12966 0.29095
#
# Static dielectric constant tensor:
#      x y z
#    x 3.048880 0.000000 -0.031650 
#    y 0.000000 3.552680 0.000000 
#    z -0.031650 0.000000 3.404290 
# 
# 
# High freq. dielectric constant tensor:
#      x y z
#    x 1.636410 0.000000 -0.009380 
#    y 0.000000 1.688990 0.000000 
#    z -0.009380 0.000000 1.705300 
# 
# From -- ./inp_files/148400.got.cif
#   From: 2010.06.25/outbox.cif.g09.slc.cpg/sg15_75_cif.got.tgz:148400.got - 2010.06.28 07:06:18.
