data_PCOD8144531
_publ_section_title
;
Structure prediction by ZEFSAII (Michael W. Deem and Ramdas Pophale) SiO2 
 PCOD8144531
Probable space group: C 2/C
;
_chemical_formula_sum "Si O2"
_cell_formula_units_Z 52
_cell_length_a 18.249816
_cell_length_b 20.318017
_cell_length_c 8.882469
_cell_angle_alpha 90.000000
_cell_angle_beta 46.497509
_cell_angle_gamma 90.000000
_cell_volume 2389.009069
_symmetry_space_group_name_H-M "C 2/C"
_symmetry_group_IT_number 15
_symmetry_cell_setting 'monoclinic'
loop_
_space_group_symop_operation_xyz
x,y,z
-x,y,1/2-z
-x,-y,-z
x,-y,1/2+z
1/2+x,1/2+y,z
1/2-x,1/2+y,1/2-z
1/2-x,1/2-y,-z
1/2+x,1/2-y,1/2+z
loop_
_atom_site_type_symbol
_atom_site_label
_atom_site_fract_x
_atom_site_fract_y
_atom_site_fract_z
Si Si1 0.500000 0.915686 0.250000
Si Si2 0.500000 0.282369 0.750000
Si Si3 0.655818 0.146446 0.030396
Si Si4 0.379893 0.362169 0.143960
Si Si5 0.812114 0.505786 0.946625
Si Si6 0.995776 0.320889 0.510692
Si Si7 0.000000 0.897700 0.250000
Si Si8 0.167288 0.003702 0.392181
O O1 0.453213 0.873595 0.451681
O O2 0.417891 0.959293 0.283764
O O3 0.588521 0.328875 0.559151
O O4 0.469992 0.240996 0.642110
O O5 0.598889 0.189925 0.240494
O O6 0.593697 0.154349 0.963151
O O7 0.771337 0.169124 0.841538
O O8 0.662375 0.070833 0.069795
O O9 0.457198 0.351005 0.176091
O O10 0.384379 0.441092 0.115202
O O11 0.743030 0.539374 0.171433
O O12 0.745206 0.524696 0.900511
O O13 0.911250 0.944194 0.434965
#
# Coordination Sequence:
#
# PCOD8144531 Si02
#       8
#     4   4   8   8   8   8   4   8
#     4  11  20  34  61  99 136 170 203 270 308 388
#     4  11  27  46  62  98 120 173 231 276 312 360
#     4  10  21  43  66  95 127 172 207 264 328 398
#     4  11  25  42  67  94 131 169 221 263 321 382
#     4  11  22  35  64 102 136 167 208 248 332 397
#     4  10  23  42  66  90 131 169 222 268 318 369
#     4  12  23  42  63  93 132 179 202 266 320 394
#     4  11  22  39  60  98 132 173 204 257 321 398
#
# _framework density 21.766347
#
# number of rings (size 3 to 8) (size 9 to 14) (size 15 to 20)
#    0.000    1.231    3.077    4.615    2.154    4.308 
#    0.000    0.000    0.000    0.000    0.000    0.000 
#    0.000    0.000    0.000    0.000    0.000    0.000 
#
# Total GULP energy -322095.169299 kJ/mol
# GULP energy per Si atom -12388.275742 kJ/mol
# Density = 2.171681 g / cm^3
# Si number density = 21.766347 Si / 1000 Ang^3
#
#
#
# Elastic Constant Matrix: (Units=GPa)
#
#
# Indices 1 2 3 4 5 6 
#
# 1 130.1979 14.2324 50.2425 0.0000 0.4442 0.0000
# 2 14.2324 48.6316 31.6021 0.0000 -3.5957 0.0000
# 3 50.2425 31.6021 163.9450 0.0000 -4.0343 0.0000
# 4 0.0000 0.0000 0.0000 24.1663 0.0000 11.0371
# 5 0.4442 -3.5957 -4.0343 0.0000 40.0835 0.0000
# 6 0.0000 0.0000 0.0000 11.0371 0.0000 8.2873
#
#
#
# Elastic Compliance Matrix: (Units=1/GPa)
#
#
# Indices 1 2 3 4 5 6 
#
# 1 0.008755 -0.000965 -0.002508 0.000000 -0.000436 0.000000
# 2 -0.000965 0.023724 -0.004235 0.000000 0.001713 0.000000
# 3 -0.002508 -0.004235 0.007695 0.000000 0.000422 0.000000
# 4 0.000000 0.000000 0.000000 0.105631 0.000000 -0.140680
# 5 -0.000436 0.001713 0.000422 0.000000 0.025149 0.000000
# 6 0.000000 0.000000 0.000000 -0.140680 0.000000 0.308026
#
#
# Mechanical properties :
#
#
# Convention : Reuss Voigt Hill
#
# Bulk Modulus (GPa) = 40.39048 59.43651 49.91349
# Shear Modulus (GPa) = 9.94731 30.95391 20.45061
#
# Velocity S-wave (km/s) = 2.14008 3.77516 3.06854
# Velocity P-wave (km/s) = 4.97024 6.80943 5.96119
#
# Compressibility (1/GPa) = 0.02475831
#
# Stress axis : x y z
#
# Youngs Moduli (GPa) = 114.21571 42.15153 129.95535
#
# Poissons Ratio (x) = 0.04067 0.32592
# Poissons Ratio (y) = 0.11020 0.55039
# Poissons Ratio (z) = 0.28644 0.17852
#
# Static dielectric constant tensor:
#      x y z
#    x 4.050020 0.000000 0.082720 
#    y 0.000000 3.680190 0.000000 
#    z 0.082720 0.000000 4.275190 
# 
# 
# High freq. dielectric constant tensor:
#      x y z
#    x 1.861900 0.000000 0.012510 
#    y 0.000000 1.830290 0.000000 
#    z 0.012510 0.000000 1.875120 
# 
# From -- ./inp_files/42089.got.cif
#   From: 2010.06.25/outbox.cif.g09.slc.cpg/sg15_22_cif.got.tgz:42089.got - 2010.06.28 07:06:18.
