data_PCOD8144577
_publ_section_title
;
Structure prediction by ZEFSAII (Michael W. Deem and Ramdas Pophale) SiO2 
 PCOD8144577
Probable space group: C 2/C
;
_chemical_formula_sum "Si O2"
_cell_formula_units_Z 48
_cell_length_a 10.201497
_cell_length_b 11.154447
_cell_length_c 21.159567
_cell_angle_alpha 90.000000
_cell_angle_beta 56.383080
_cell_angle_gamma 90.000000
_cell_volume 2005.106417
_symmetry_space_group_name_H-M "C 2/C"
_symmetry_group_IT_number 15
_symmetry_cell_setting 'monoclinic'
loop_
_space_group_symop_operation_xyz
x,y,z
-x,y,1/2-z
-x,-y,-z
x,-y,1/2+z
1/2+x,1/2+y,z
1/2-x,1/2+y,1/2-z
1/2-x,1/2-y,-z
1/2+x,1/2-y,1/2+z
loop_
_atom_site_type_symbol
_atom_site_label
_atom_site_fract_x
_atom_site_fract_y
_atom_site_fract_z
Si Si1 0.861444 0.544859 0.829051
Si Si2 0.720712 0.782809 0.818873
Si Si3 0.759421 0.471247 0.586779
Si Si4 0.297210 0.318864 0.654056
Si Si5 0.628733 0.295776 0.085474
Si Si6 0.035538 0.629531 0.565840
O O1 0.829728 0.674368 0.809890
O O2 0.707608 0.459394 0.863747
O O3 0.000000 0.485716 0.750000
O O4 0.919073 0.552050 0.885393
O O5 0.789023 0.899844 0.837114
O O6 0.737373 0.801514 0.740648
O O7 0.541902 0.755110 0.887651
O O8 0.624123 0.557600 0.593006
O O9 0.896826 0.564233 0.565944
O O10 0.813732 0.370334 0.520966
O O11 0.172628 0.253426 0.642461
O O12 0.474380 0.264436 0.598765
O O13 0.750000 0.250000 0.000000
#
# Coordination Sequence:
#
# PCOD8144577 Si02
#       6
#     8   8   8   8   8   8
#     4  12  24  42  64  95 142 176 226 292 342 411
#     4  12  25  41  64 103 134 180 235 277 351 422
#     4  10  22  41  70  94 139 170 230 290 340 413
#     4  11  23  41  70  93 135 180 232 284 343 419
#     4  11  23  44  71 101 130 183 236 287 350 414
#     4  10  21  43  67  99 123 183 225 279 350 406
#
# _framework density 23.938880000000001
#
# number of rings (size 3 to 8) (size 9 to 14) (size 15 to 20)
#    0.000    1.000    1.667    7.500    2.333    2.000 
#    0.000    5.833    0.000    0.000    0.000    0.000 
#    0.000    0.000    0.000    0.000    0.000    0.000 
#
# Total GULP energy -297568.689725 kJ/mol
# GULP energy per Si atom -12398.695405 kJ/mol
# Density = 2.388439 g / cm^3
# Si number density = 23.938880 Si / 1000 Ang^3
#
#
#
# Elastic Constant Matrix: (Units=GPa)
#
#
# Indices 1 2 3 4 5 6 
#
# 1 57.4632 17.0511 27.7742 0.0000 4.0437 0.0000
# 2 17.0511 119.0888 21.3232 0.0000 0.5087 0.0000
# 3 27.7742 21.3232 110.6979 0.0000 22.5136 0.0000
# 4 0.0000 0.0000 0.0000 18.0601 0.0000 26.7671
# 5 4.0437 0.5087 22.5136 0.0000 26.7027 0.0000
# 6 0.0000 0.0000 0.0000 26.7671 0.0000 18.5071
#
#
#
# Elastic Compliance Matrix: (Units=1/GPa)
#
#
# Indices 1 2 3 4 5 6 
#
# 1 0.020310 -0.002029 -0.004933 0.000000 0.001122 0.000000
# 2 -0.002029 0.008950 -0.001500 0.000000 0.001401 0.000000
# 3 -0.004933 -0.001500 0.012555 0.000000 -0.009810 0.000000
# 4 0.000000 0.000000 0.000000 -0.048418 0.000000 0.070028
# 5 0.001122 0.001401 -0.009810 0.000000 0.045524 0.000000
# 6 0.000000 0.000000 0.000000 0.070028 0.000000 -0.047249
#
#
# Mechanical properties :
#
#
# Convention : Reuss Voigt Hill
#
# Bulk Modulus (GPa) = 40.17554 46.61633 43.39594
# Shear Modulus (GPa) = 295.95639 27.39408 161.67524
#
# Velocity S-wave (km/s) = 11.13097 3.38647 8.22699
# Velocity P-wave (km/s) = 13.49136 5.89968 10.41209
#
# Compressibility (1/GPa) = 0.02489077
#
# Stress axis : x y z
#
# Youngs Moduli (GPa) = 49.23671 111.72883 79.64705
#
# Poissons Ratio (x) = 0.22675 0.39291
# Poissons Ratio (y) = 0.09993 0.11946
# Poissons Ratio (z) = 0.24289 0.16758
#
# Static dielectric constant tensor:
#      x y z
#    x 4.434000 0.000000 0.221100 
#    y 0.000000 4.580870 0.000000 
#    z 0.221100 0.000000 4.469900 
# 
# 
# High freq. dielectric constant tensor:
#      x y z
#    x 1.944530 0.000000 0.020860 
#    y 0.000000 1.955280 0.000000 
#    z 0.020860 0.000000 1.948030 
# 
# From -- ./inp_files/237417.got.cif
#   From: 2010.06.25/outbox.cif.g09.slc.cpg/sg15_119_cif.got.tgz:237417.got - 2010.06.28 07:06:18.
