data_PCOD8144057
_publ_section_title
;
Structure prediction by ZEFSAII (Michael W. Deem and Ramdas Pophale) SiO2 
 PCOD8144057
Probable space group: C 2/C
;
_chemical_formula_sum "Si O2"
_cell_formula_units_Z 44
_cell_length_a 9.779238
_cell_length_b 13.093788
_cell_length_c 23.491235
_cell_angle_alpha 90.000000
_cell_angle_beta 37.852693
_cell_angle_gamma 90.000000
_cell_volume 1845.802426
_symmetry_space_group_name_H-M "C 2/C"
_symmetry_group_IT_number 15
_symmetry_cell_setting 'monoclinic'
loop_
_space_group_symop_operation_xyz
x,y,z
-x,y,1/2-z
-x,-y,-z
x,-y,1/2+z
1/2+x,1/2+y,z
1/2-x,1/2+y,1/2-z
1/2-x,1/2-y,-z
1/2+x,1/2-y,1/2+z
loop_
_atom_site_type_symbol
_atom_site_label
_atom_site_fract_x
_atom_site_fract_y
_atom_site_fract_z
Si Si1 0.593870 0.415206 0.407251
Si Si2 0.295911 0.100516 0.391991
Si Si3 0.878808 0.278936 0.117234
Si Si4 0.500000 0.602257 0.250000
Si Si5 0.769312 0.461600 0.232086
Si Si6 0.225032 0.230903 0.092397
O O1 0.623816 0.534598 0.410599
O O2 0.332662 0.383865 0.504581
O O3 0.681034 0.395532 0.314609
O O4 0.749153 0.350222 0.399492
O O5 0.312245 0.208033 0.350966
O O6 0.522629 0.036864 0.322702
O O7 0.790690 0.384784 0.171795
O O8 0.004182 0.217735 0.126547
O O9 0.058826 0.311002 0.010631
O O10 0.573905 0.537194 0.279542
O O11 0.702419 0.670375 0.159182
#
# Coordination Sequence:
#
# PCOD8144057 Si02
#       6
#     8   8   8   4   8   8
#     4  10  21  41  71 103 135 183 240 279 364 429
#     4  10  22  42  70 103 137 184 236 292 350 436
#     4  10  22  42  72 100 133 180 236 289 357 428
#     4  12  28  42  62  98 138 186 236 300 362 418
#     4  12  25  44  67 101 142 187 236 300 351 429
#     4  10  21  43  68  97 135 179 230 294 353 428
#
# _framework density 23.837872000000001
#
# number of rings (size 3 to 8) (size 9 to 14) (size 15 to 20)
#    0.000    1.455    1.818    2.727    5.091    0.727 
#    9.818    1.818    0.000    0.000    0.000    0.000 
#    0.000    0.000    0.000    0.000    0.000    0.000 
#
# Total GULP energy -272594.413909 kJ/mol
# GULP energy per Si atom -12390.655178 kJ/mol
# Density = 2.378362 g / cm^3
# Si number density = 23.837872 Si / 1000 Ang^3
#
#
#
# Elastic Constant Matrix: (Units=GPa)
#
#
# Indices 1 2 3 4 5 6 
#
# 1 61.5672 34.9169 40.0380 -0.0017 8.0642 0.0027
# 2 34.9169 105.7839 50.7968 -0.0013 9.3268 0.0016
# 3 40.0380 50.7968 156.3480 -0.0039 29.0020 0.0036
# 4 -0.0017 -0.0013 -0.0039 31.5034 0.0027 13.9103
# 5 8.0642 9.3268 29.0020 0.0027 27.2170 -0.0024
# 6 0.0027 0.0016 0.0036 13.9103 -0.0024 42.3178
#
#
#
# Elastic Compliance Matrix: (Units=1/GPa)
#
#
# Indices 1 2 3 4 5 6 
#
# 1 0.021778 -0.005345 -0.003718 0.000001 -0.000659 -0.000001
# 2 -0.005345 0.012513 -0.002736 0.000000 0.000211 0.000000
# 3 -0.003718 -0.002736 0.009795 0.000002 -0.008398 -0.000002
# 4 0.000001 0.000000 0.000002 0.037132 -0.000007 -0.012206
# 5 -0.000659 0.000211 -0.008398 -0.000007 0.045814 0.000006
# 6 -0.000001 0.000000 -0.000002 -0.012206 0.000006 0.027643
#
#
# Mechanical properties :
#
#
# Convention : Reuss Voigt Hill
#
# Bulk Modulus (GPa) = 48.80946 63.91136 56.36041
# Shear Modulus (GPa) = 27.01239 33.40414 30.20826
#
# Velocity S-wave (km/s) = 3.36991 3.74746 3.56369
# Velocity P-wave (km/s) = 5.97175 6.75231 6.37399
#
# Compressibility (1/GPa) = 0.02048783
#
# Stress axis : x y z
#
# Youngs Moduli (GPa) = 45.91793 79.92003 102.09561
#
# Poissons Ratio (x) = 0.42716 0.37961
# Poissons Ratio (y) = 0.24543 0.27930
# Poissons Ratio (z) = 0.17073 0.21863
#
# Static dielectric constant tensor:
#      x y z
#    x 3.907960 0.000000 0.138410 
#    y 0.000000 4.163040 0.000000 
#    z 0.138410 0.000000 4.484890 
# 
# 
# High freq. dielectric constant tensor:
#      x y z
#    x 1.911190 0.000000 0.013450 
#    y 0.000000 1.943530 0.000000 
#    z 0.013450 0.000000 1.961310 
# 
# From -- ./inp_files/292179.got.cif
#   From: 2010.06.25/outbox.cif.g09.slc.cpg/sg15_147_cif.got.tgz:292179.got - 2010.06.28 07:06:18.
