data_PCOD8144529
_publ_section_title
;
Structure prediction by ZEFSAII (Michael W. Deem and Ramdas Pophale) SiO2 
 PCOD8144529
Probable space group: C 2/C
;
_chemical_formula_sum "Si O2"
_cell_formula_units_Z 64
_cell_length_a 8.860261
_cell_length_b 29.428711
_cell_length_c 17.454521
_cell_angle_alpha 90.000000
_cell_angle_beta 42.445680
_cell_angle_gamma 90.000000
_cell_volume 3071.561921
_symmetry_space_group_name_H-M "C 2/C"
_symmetry_group_IT_number 15
_symmetry_cell_setting 'monoclinic'
loop_
_space_group_symop_operation_xyz
x,y,z
-x,y,1/2-z
-x,-y,-z
x,-y,1/2+z
1/2+x,1/2+y,z
1/2-x,1/2+y,1/2-z
1/2-x,1/2-y,-z
1/2+x,1/2-y,1/2+z
loop_
_atom_site_type_symbol
_atom_site_label
_atom_site_fract_x
_atom_site_fract_y
_atom_site_fract_z
Si Si1 0.641179 0.185881 0.020959
Si Si2 0.529447 0.046821 0.532310
Si Si3 0.864536 0.100508 0.877903
Si Si4 0.565860 0.984439 0.810204
Si Si5 0.596919 0.547593 0.496556
Si Si6 0.252947 0.760598 0.869064
Si Si7 0.649402 0.320698 0.762898
Si Si8 0.027406 0.919481 0.864660
O O1 0.747974 0.209026 0.055040
O O2 0.395692 0.170211 0.138034
O O3 0.822585 0.146793 0.938591
O O4 0.624347 0.215649 0.948204
O O5 0.385766 0.086477 0.550642
O O6 0.786602 0.061125 0.433962
O O7 0.500000 0.000000 0.500000
O O8 0.429584 0.034291 0.653174
O O9 0.998118 0.065573 0.885953
O O10 0.000000 0.107616 0.750000
O O11 0.500000 0.996531 0.750000
O O12 0.791585 0.955381 0.736738
O O13 0.358925 0.955004 0.920007
O O14 0.500000 0.500000 0.500000
O O15 0.557524 0.584663 0.445076
O O16 0.500000 0.746342 0.750000
O O17 0.136639 0.786289 0.840481
O O18 0.500000 0.299882 0.750000
O O19 0.553063 0.369745 0.821136
#
# Coordination Sequence:
#
# PCOD8144529 Si02
#       8
#     8   8   8   8   8   8   8   8
#     4  10  21  43  66  94 129 163 216 266 316 399
#     4  12  25  39  56  85 124 165 211 266 316 374
#     4  12  26  38  62  92 125 162 216 270 328 381
#     4  10  23  37  62  81 112 165 215 258 319 374
#     4  11  21  43  57  84 120 167 216 268 317 381
#     4   9  20  41  72  96 126 166 208 261 327 393
#     4  11  23  38  64 101 130 166 208 261 331 389
#     4  11  24  40  65  85 126 169 217 270 315 385
#
# _framework density 20.836303999999998
#
# number of rings (size 3 to 8) (size 9 to 14) (size 15 to 20)
#    0.000    1.250    2.500    2.625    7.000    4.000 
#    0.000    0.000    0.000    0.750    0.000    0.000 
#    0.000    0.000    0.000    0.000    0.000    0.000 
#
# Total GULP energy -396436.157910 kJ/mol
# GULP energy per Si atom -12388.629935 kJ/mol
# Density = 2.078888 g / cm^3
# Si number density = 20.836304 Si / 1000 Ang^3
#
#
#
# Elastic Constant Matrix: (Units=GPa)
#
#
# Indices 1 2 3 4 5 6 
#
# 1 103.8613 40.0186 44.6100 0.0000 8.1726 0.0000
# 2 40.0186 83.7029 42.7548 0.0000 9.1232 0.0000
# 3 44.6100 42.7548 110.8338 0.0000 11.7582 0.0000
# 4 0.0000 0.0000 0.0000 38.0918 0.0000 6.3195
# 5 8.1726 9.1232 11.7582 0.0000 44.4653 0.0000
# 6 0.0000 0.0000 0.0000 6.3195 0.0000 24.9987
#
#
#
# Elastic Compliance Matrix: (Units=1/GPa)
#
#
# Indices 1 2 3 4 5 6 
#
# 1 0.012807 -0.004308 -0.003433 0.000000 -0.000562 0.000000
# 2 -0.004308 0.016437 -0.004458 0.000000 -0.001402 0.000000
# 3 -0.003433 -0.004458 0.012305 0.000000 -0.001708 0.000000
# 4 0.000000 0.000000 0.000000 0.027402 0.000000 -0.006927
# 5 -0.000562 -0.001402 -0.001708 0.000000 0.023332 0.000000
# 6 0.000000 0.000000 0.000000 -0.006927 0.000000 0.041753
#
#
# Mechanical properties :
#
#
# Convention : Reuss Voigt Hill
#
# Bulk Modulus (GPa) = 58.30739 61.46275 59.88507
# Shear Modulus (GPa) = 30.45980 32.91213 31.68597
#
# Velocity S-wave (km/s) = 3.82758 3.97868 3.90386
# Velocity P-wave (km/s) = 6.89769 7.11818 7.00880
#
# Compressibility (1/GPa) = 0.01715048
#
# Stress axis : x y z
#
# Youngs Moduli (GPa) = 78.08195 60.84012 81.26637
#
# Poissons Ratio (x) = 0.26211 0.27901
# Poissons Ratio (y) = 0.33639 0.36227
# Poissons Ratio (z) = 0.26807 0.27121
#
# Static dielectric constant tensor:
#      x y z
#    x 3.952500 0.000000 -0.067610 
#    y 0.000000 3.240130 0.000000 
#    z -0.067610 0.000000 3.247270 
# 
# 
# High freq. dielectric constant tensor:
#      x y z
#    x 1.824170 0.000000 0.019740 
#    y 0.000000 1.798180 0.000000 
#    z 0.019740 0.000000 1.829970 
# 
# From -- ./inp_files/194227.got.cif
#   From: 2010.06.25/outbox.cif.g09.slc.cpg/sg15_98_cif.got.tgz:194227.got - 2010.06.28 07:06:18.
