data_PCOD8144331
_publ_section_title
;
Structure prediction by ZEFSAII (Michael W. Deem and Ramdas Pophale) SiO2 
 PCOD8144331
Probable space group: C 2/C
;
_chemical_formula_sum "Si O2"
_cell_formula_units_Z 44
_cell_length_a 10.388580
_cell_length_b 12.603990
_cell_length_c 18.572386
_cell_angle_alpha 90.000000
_cell_angle_beta 61.162966
_cell_angle_gamma 90.000000
_cell_volume 2130.264944
_symmetry_space_group_name_H-M "C 2/C"
_symmetry_group_IT_number 15
_symmetry_cell_setting 'monoclinic'
loop_
_space_group_symop_operation_xyz
x,y,z
-x,y,1/2-z
-x,-y,-z
x,-y,1/2+z
1/2+x,1/2+y,z
1/2-x,1/2+y,1/2-z
1/2-x,1/2-y,-z
1/2+x,1/2-y,1/2+z
loop_
_atom_site_type_symbol
_atom_site_label
_atom_site_fract_x
_atom_site_fract_y
_atom_site_fract_z
Si Si1 0.542054 0.054610 0.659404
Si Si2 0.201797 0.588690 0.024288
Si Si3 0.000000 0.110359 0.750000
Si Si4 0.730385 0.246753 0.590547
Si Si5 0.516391 0.707838 0.590570
Si Si6 0.776295 0.517751 0.131795
O O1 0.500000 0.019754 0.750000
O O2 0.578913 0.181088 0.646267
O O3 0.690353 0.994679 0.593116
O O4 0.415163 0.009083 0.643114
O O5 0.068505 0.671567 0.068918
O O6 0.363187 0.637501 0.983051
O O7 0.178517 0.531148 0.955686
O O8 0.004786 0.183426 0.819431
O O9 0.858277 0.036681 0.791259
O O10 0.750000 0.250000 0.500000
O O11 0.729100 0.360385 0.630881
O O12 0.866285 0.184206 0.589309
#
# Coordination Sequence:
#
# PCOD8144331 Si02
#       6
#     8   8   4   8   8   8
#     4  12  25  41  67 102 133 175 227 282 343 406
#     4  10  21  42  68  91 133 179 215 279 336 400
#     4  10  24  44  68  94 132 178 216 284 342 398
#     4  12  24  42  68  98 132 179 228 277 336 412
#     4  10  22  41  67  99 127 176 231 264 344 412
#     4  11  23  47  66  94 140 176 221 283 343 400
#
# _framework density 20.654706000000001
#
# number of rings (size 3 to 8) (size 9 to 14) (size 15 to 20)
#    0.000    1.091    3.636    2.727    2.545    0.727 
#    3.273    0.000    0.000    0.000    0.000    0.000 
#    0.000    0.000    0.000    0.000    0.000    0.000 
#
# Total GULP energy -272697.512430 kJ/mol
# GULP energy per Si atom -12395.341474 kJ/mol
# Density = 2.060770 g / cm^3
# Si number density = 20.654706 Si / 1000 Ang^3
#
#
#
# Elastic Constant Matrix: (Units=GPa)
#
#
# Indices 1 2 3 4 5 6 
#
# 1 93.4538 56.0308 43.7513 0.0000 8.4548 0.0000
# 2 56.0308 138.5210 64.6506 0.0000 1.2184 0.0000
# 3 43.7513 64.6506 135.5350 0.0000 -11.8923 0.0000
# 4 0.0000 0.0000 0.0000 40.1360 0.0000 -5.8780
# 5 8.4548 1.2184 -11.8923 0.0000 20.9043 0.0000
# 6 0.0000 0.0000 0.0000 -5.8780 0.0000 20.9272
#
#
#
# Elastic Compliance Matrix: (Units=1/GPa)
#
#
# Indices 1 2 3 4 5 6 
#
# 1 0.015960 -0.004683 -0.003642 0.000000 -0.008254 0.000000
# 2 -0.004683 0.010872 -0.003751 0.000000 -0.000873 0.000000
# 3 -0.003642 -0.003751 0.011043 0.000000 0.007974 0.000000
# 4 0.000000 0.000000 0.000000 0.025984 0.000000 0.007298
# 5 -0.008254 -0.000873 0.007974 0.000000 0.055763 0.000000
# 6 0.000000 0.000000 0.000000 0.007298 0.000000 0.049835
#
#
# Mechanical properties :
#
#
# Convention : Reuss Voigt Hill
#
# Bulk Modulus (GPa) = 72.87544 77.37501 75.12522
# Shear Modulus (GPa) = 25.22924 29.93198 27.58061
#
# Velocity S-wave (km/s) = 3.49875 3.81091 3.65817
# Velocity P-wave (km/s) = 7.18895 7.54365 7.36843
#
# Compressibility (1/GPa) = 0.01372204
#
# Stress axis : x y z
#
# Youngs Moduli (GPa) = 62.65524 91.98233 90.55781
#
# Poissons Ratio (x) = 0.43078 0.32985
# Poissons Ratio (y) = 0.29343 0.33965
# Poissons Ratio (z) = 0.22822 0.34499
#
# Static dielectric constant tensor:
#      x y z
#    x 3.730130 0.000000 -0.142450 
#    y 0.000000 4.000640 0.000000 
#    z -0.142450 0.000000 4.062500 
# 
# 
# High freq. dielectric constant tensor:
#      x y z
#    x 1.806190 0.000000 -0.006230 
#    y 0.000000 1.818390 0.000000 
#    z -0.006230 0.000000 1.822050 
# 
# From -- ./inp_files/196438.got.cif
#   From: 2010.06.25/outbox.cif.g09.slc.cpg/sg15_99_cif.got.tgz:196438.got - 2010.06.28 07:06:18.
