data_PCOD8144728
_publ_section_title
;
Structure prediction by ZEFSAII (Michael W. Deem and Ramdas Pophale) SiO2 
 PCOD8144728
Probable space group: C 2/C
;
_chemical_formula_sum "Si O2"
_cell_formula_units_Z 56
_cell_length_a 19.369074
_cell_length_b 11.559847
_cell_length_c 11.871690
_cell_angle_alpha 90.000000
_cell_angle_beta 85.502946
_cell_angle_gamma 90.000000
_cell_volume 2649.929965
_symmetry_space_group_name_H-M "C 2/C"
_symmetry_group_IT_number 15
_symmetry_cell_setting 'monoclinic'
loop_
_space_group_symop_operation_xyz
x,y,z
-x,y,1/2-z
-x,-y,-z
x,-y,1/2+z
1/2+x,1/2+y,z
1/2-x,1/2+y,1/2-z
1/2-x,1/2-y,-z
1/2+x,1/2-y,1/2+z
loop_
_atom_site_type_symbol
_atom_site_label
_atom_site_fract_x
_atom_site_fract_y
_atom_site_fract_z
Si Si1 0.000000 0.189984 0.250000
Si Si2 0.775255 0.696723 0.814259
Si Si3 0.933244 0.278434 0.941957
Si Si4 0.456865 0.610291 0.476080
Si Si5 0.593821 0.880292 0.333303
Si Si6 0.705947 0.329117 0.091438
Si Si7 0.500000 0.072158 0.250000
Si Si8 0.198845 0.091458 0.031178
O O1 0.043925 0.112566 0.159405
O O2 0.052010 0.264674 0.315345
O O3 0.838341 0.623856 0.752062
O O4 0.720939 0.709848 0.718565
O O5 0.795235 0.822791 0.861625
O O6 0.750274 0.622237 0.923303
O O7 0.876207 0.182511 0.918783
O O8 0.949576 0.351060 0.830050
O O9 0.895589 0.367610 0.033994
O O10 0.006024 0.221819 0.973159
O O11 0.500000 0.500000 0.500000
O O12 0.376482 0.600407 0.519277
O O13 0.550003 0.995122 0.320256
O O14 0.721101 0.464831 0.071058
O O15 0.750000 0.250000 0.000000
#
# Coordination Sequence:
#
# PCOD8144728 Si02
#       8
#     4   8   8   8   8   8   4   8
#     4   9  20  37  66  88 128 171 224 257 338 406
#     4  11  26  46  74 102 142 187 236 291 350 426
#     4  11  25  44  67 103 132 179 235 281 349 418
#     4  11  22  42  69  95 128 171 224 288 335 397
#     4  10  21  44  67  93 135 184 219 277 349 410
#     4  12  27  46  71 101 142 190 234 282 357 428
#     4  11  26  41  68 102 138 175 228 293 338 410
#     4  11  27  48  71 106 140 184 242 295 350 412
#
# _framework density 21.132632999999998
#
# number of rings (size 3 to 8) (size 9 to 14) (size 15 to 20)
#    0.000    1.143    4.286    0.429    6.000    1.714 
#    2.571    0.000    0.000    0.000    0.000    0.000 
#    0.000    0.000    0.000    0.000    0.000    0.000 
#
# Total GULP energy -347085.225331 kJ/mol
# GULP energy per Si atom -12395.900905 kJ/mol
# Density = 2.108453 g / cm^3
# Si number density = 21.132633 Si / 1000 Ang^3
#
#
#
# Elastic Constant Matrix: (Units=GPa)
#
#
# Indices 1 2 3 4 5 6 
#
# 1 101.8974 32.8913 25.9401 0.0000 -4.1145 0.0000
# 2 32.8913 122.1231 45.3544 0.0000 -3.6344 0.0000
# 3 25.9401 45.3544 114.7338 0.0000 -7.1565 0.0000
# 4 0.0000 0.0000 0.0000 24.7848 0.0000 11.8261
# 5 -4.1145 -3.6344 -7.1565 0.0000 39.4535 0.0000
# 6 0.0000 0.0000 0.0000 11.8261 0.0000 45.7405
#
#
#
# Elastic Compliance Matrix: (Units=1/GPa)
#
#
# Indices 1 2 3 4 5 6 
#
# 1 0.010992 -0.002383 -0.001502 0.000000 0.000654 0.000000
# 2 -0.002383 0.010116 -0.003456 0.000000 0.000056 0.000000
# 3 -0.001502 -0.003456 0.010511 0.000000 0.001432 0.000000
# 4 0.000000 0.000000 0.000000 0.046025 0.000000 -0.011900
# 5 0.000654 0.000056 0.001432 0.000000 0.025679 0.000000
# 6 0.000000 0.000000 0.000000 -0.011900 0.000000 0.024939
#
#
# Mechanical properties :
#
#
# Convention : Reuss Voigt Hill
#
# Bulk Modulus (GPa) = 59.04914 60.79180 59.92047
# Shear Modulus (GPa) = 33.64942 37.63366 35.64154
#
# Velocity S-wave (km/s) = 3.99469 4.22457 4.11124
# Velocity P-wave (km/s) = 7.01994 7.25432 7.13809
#
# Compressibility (1/GPa) = 0.01693505
#
# Stress axis : x y z
#
# Youngs Moduli (GPa) = 90.97629 98.85715 95.13744
#
# Poissons Ratio (x) = 0.23558 0.14293
# Poissons Ratio (y) = 0.21680 0.32884
# Poissons Ratio (z) = 0.13668 0.34169
#
# Static dielectric constant tensor:
#      x y z
#    x 3.983250 0.000000 0.054420 
#    y 0.000000 3.714620 0.000000 
#    z 0.054420 0.000000 3.374200 
# 
# 
# High freq. dielectric constant tensor:
#      x y z
#    x 1.835520 0.000000 -0.003090 
#    y 0.000000 1.824230 0.000000 
#    z -0.003090 0.000000 1.838830 
# 
# From -- ./inp_files/111098.got.cif
#   From: 2010.06.25/outbox.cif.g09.slc.cpg/sg15_56_cif.got.tgz:111098.got - 2010.06.28 07:06:18.
