data_PCOD8144491
_publ_section_title
;
Structure prediction by ZEFSAII (Michael W. Deem and Ramdas Pophale) SiO2 
 PCOD8144491
Probable space group: C 2/C
;
_chemical_formula_sum "Si O2"
_cell_formula_units_Z 36
_cell_length_a 20.807776
_cell_length_b 12.404193
_cell_length_c 15.625189
_cell_angle_alpha 90.000000
_cell_angle_beta 26.458709
_cell_angle_gamma 90.000000
_cell_volume 1796.877982
_symmetry_space_group_name_H-M "C 2/C"
_symmetry_group_IT_number 15
_symmetry_cell_setting 'monoclinic'
loop_
_space_group_symop_operation_xyz
x,y,z
-x,y,1/2-z
-x,-y,-z
x,-y,1/2+z
1/2+x,1/2+y,z
1/2-x,1/2+y,1/2-z
1/2-x,1/2-y,-z
1/2+x,1/2-y,1/2+z
loop_
_atom_site_type_symbol
_atom_site_label
_atom_site_fract_x
_atom_site_fract_y
_atom_site_fract_z
Si Si1 0.000000 0.179901 0.250000
Si Si2 0.270559 0.467511 0.111005
Si Si3 0.450814 0.787290 0.144571
Si Si4 0.778132 0.839942 0.716581
Si Si5 0.667054 0.680197 0.531760
O O1 0.901923 0.111035 0.431614
O O2 0.910222 0.254530 0.290776
O O3 0.123728 0.400402 0.289834
O O4 0.291580 0.531430 0.177152
O O5 0.265286 0.559315 0.043479
O O6 0.396236 0.692738 0.146328
O O7 0.621155 0.805762 0.935934
O O8 0.810436 0.772508 0.590869
O O9 0.500000 0.676117 0.750000
O O10 0.750000 0.750000 0.500000
#
# Coordination Sequence:
#
# PCOD8144491 Si02
#       5
#     4   8   8   8   8
#     4  12  24  44  70  92 140 176 226 272 330 406
#     4  10  23  42  64  97 129 171 223 269 334 387
#     4  12  23  46  63 102 129 179 220 276 331 394
#     4  10  24  40  71  92 136 165 225 275 327 400
#     4  10  21  43  64  95 132 171 215 272 334 395
#
# _framework density 20.034749999999999
#
# number of rings (size 3 to 8) (size 9 to 14) (size 15 to 20)
#    1.333    0.000    3.333    2.667    0.000    0.889 
#    6.000    0.000    0.000    0.000    0.000    0.000 
#    0.000    0.000    0.000    0.000    0.000    0.000 
#
# Total GULP energy -223007.807482 kJ/mol
# GULP energy per Si atom -12389.322638 kJ/mol
# Density = 1.998915 g / cm^3
# Si number density = 20.034750 Si / 1000 Ang^3
#
#
#
# Elastic Constant Matrix: (Units=GPa)
#
#
# Indices 1 2 3 4 5 6 
#
# 1 133.3814 50.3187 15.7569 0.0000 14.0858 0.0000
# 2 50.3187 105.5515 21.6894 0.0000 6.4322 0.0000
# 3 15.7569 21.6894 86.6174 0.0000 11.9438 0.0000
# 4 0.0000 0.0000 0.0000 35.0972 0.0000 8.8278
# 5 14.0858 6.4322 11.9438 0.0000 15.7560 0.0000
# 6 0.0000 0.0000 0.0000 8.8278 0.0000 34.5926
#
#
#
# Elastic Compliance Matrix: (Units=1/GPa)
#
#
# Indices 1 2 3 4 5 6 
#
# 1 0.009859 -0.004317 0.000290 0.000000 -0.007272 0.000000
# 2 -0.004317 0.011962 -0.002310 0.000000 0.000727 0.000000
# 3 0.000290 -0.002310 0.013375 0.000000 -0.009455 0.000000
# 4 0.000000 0.000000 0.000000 0.030447 0.000000 -0.007770
# 5 -0.007272 0.000727 -0.009455 0.000000 0.076839 0.000000
# 6 0.000000 0.000000 0.000000 -0.007770 0.000000 0.030891
#
#
# Mechanical properties :
#
#
# Convention : Reuss Voigt Hill
#
# Bulk Modulus (GPa) = 44.40041 55.67561 50.03801
# Shear Modulus (GPa) = 25.83250 32.94151 29.38700
#
# Velocity S-wave (km/s) = 3.59470 4.05930 3.83404
# Velocity P-wave (km/s) = 6.28004 7.05835 6.68054
#
# Compressibility (1/GPa) = 0.02252231
#
# Stress axis : x y z
#
# Youngs Moduli (GPa) = 101.42529 83.59556 74.76910
#
# Poissons Ratio (x) = 0.36086 -0.02169
# Poissons Ratio (y) = 0.43782 0.17275
# Poissons Ratio (z) = -0.02942 0.19314
#
# Static dielectric constant tensor:
#      x y z
#    x 3.452550 0.000000 0.192880 
#    y 0.000000 3.736050 0.000000 
#    z 0.192880 0.000000 3.596280 
# 
# 
# High freq. dielectric constant tensor:
#      x y z
#    x 1.769280 0.000000 0.009500 
#    y 0.000000 1.779210 0.000000 
#    z 0.009500 0.000000 1.793870 
# 
# From -- ./inp_files/55073.got.cif
#   From: 2010.06.25/outbox.cif.g09.slc.cpg/sg15_28_cif.got.tgz:55073.got - 2010.06.28 07:06:18.
