data_PCOD8144078
_publ_section_title
;
Structure prediction by ZEFSAII (Michael W. Deem and Ramdas Pophale) SiO2 
 PCOD8144078
Probable space group: C 2/C
;
_chemical_formula_sum "Si O2"
_cell_formula_units_Z 60
_cell_length_a 18.390299
_cell_length_b 17.560980
_cell_length_c 9.343505
_cell_angle_alpha 90.000000
_cell_angle_beta 55.666489
_cell_angle_gamma 90.000000
_cell_volume 2491.757100
_symmetry_space_group_name_H-M "C 2/C"
_symmetry_group_IT_number 15
_symmetry_cell_setting 'monoclinic'
loop_
_space_group_symop_operation_xyz
x,y,z
-x,y,1/2-z
-x,-y,-z
x,-y,1/2+z
1/2+x,1/2+y,z
1/2-x,1/2+y,1/2-z
1/2-x,1/2-y,-z
1/2+x,1/2-y,1/2+z
loop_
_atom_site_type_symbol
_atom_site_label
_atom_site_fract_x
_atom_site_fract_y
_atom_site_fract_z
Si Si1 0.500000 0.340714 0.750000
Si Si2 0.619019 0.549225 0.265420
Si Si3 0.137595 0.913122 0.067386
Si Si4 0.602705 0.014621 0.869227
Si Si5 0.834544 0.590825 0.425423
Si Si6 0.646293 0.252826 0.128406
Si Si7 0.217754 0.373127 0.063585
Si Si8 0.341332 0.742264 0.560718
O O1 0.463045 0.393810 0.663114
O O2 0.579333 0.286879 0.622166
O O3 0.641420 0.546313 0.408654
O O4 0.586601 0.466940 0.238810
O O5 0.705510 0.569570 0.074870
O O6 0.230689 0.898811 0.039817
O O7 0.100338 0.825687 0.099811
O O8 0.635867 0.083742 0.729540
O O9 0.639482 0.937041 0.761883
O O10 0.640454 0.027273 0.985714
O O11 0.500000 0.000000 0.000000
O O12 0.885564 0.671131 0.400689
O O13 0.622162 0.255501 0.321097
O O14 0.750000 0.250000 0.000000
O O15 0.257559 0.314296 0.136668
O O16 0.184681 0.326707 0.962144
#
# Coordination Sequence:
#
# PCOD8144078 Si02
#       8
#     4   8   8   8   8   8   8   8
#     4  10  26  44  66 104 150 180 246 300 374 440
#     4  11  24  43  72 104 138 189 244 300 365 440
#     4  11  23  42  75 101 139 183 242 302 361 433
#     4  12  26  43  68 103 144 188 241 302 366 433
#     4  11  24  43  68 101 139 182 241 291 364 438
#     4  10  22  40  70 100 138 177 242 298 361 428
#     4  10  21  41  73  99 143 187 248 288 364 453
#     4  10  22  43  70 106 141 194 237 306 369 441
#
# _framework density 24.079395000000002
#
# number of rings (size 3 to 8) (size 9 to 14) (size 15 to 20)
#    0.000    1.333    1.333    4.400    5.600    3.733 
#    0.000    1.333    0.000    0.000    0.000    0.000 
#    0.000    0.000    0.000    0.000    0.000    0.000 
#
# Total GULP energy -371817.298756 kJ/mol
# GULP energy per Si atom -12393.909959 kJ/mol
# Density = 2.402459 g / cm^3
# Si number density = 24.079395 Si / 1000 Ang^3
#
#
#
# Elastic Constant Matrix: (Units=GPa)
#
#
# Indices 1 2 3 4 5 6 
#
# 1 62.9105 10.7006 20.6930 0.0000 6.6601 0.0000
# 2 10.7006 142.0960 35.3619 0.0000 8.6474 0.0000
# 3 20.6930 35.3619 77.2678 0.0000 20.1871 0.0000
# 4 0.0000 0.0000 0.0000 33.0834 0.0000 9.6779
# 5 6.6601 8.6474 20.1871 0.0000 43.5876 0.0000
# 6 0.0000 0.0000 0.0000 9.6779 0.0000 20.5091
#
#
#
# Elastic Compliance Matrix: (Units=1/GPa)
#
#
# Indices 1 2 3 4 5 6 
#
# 1 0.017447 -0.000173 -0.004443 0.000000 -0.000574 0.000000
# 2 -0.000173 0.007944 -0.003623 0.000000 0.000128 0.000000
# 3 -0.004443 -0.003623 0.017548 0.000000 -0.006730 0.000000
# 4 0.000000 0.000000 0.000000 0.035067 0.000000 -0.016548
# 5 -0.000574 0.000128 -0.006730 0.000000 0.026121 0.000000
# 6 0.000000 0.000000 0.000000 -0.016548 0.000000 0.056567
#
#
# Mechanical properties :
#
#
# Convention : Reuss Voigt Hill
#
# Bulk Modulus (GPa) = 37.79166 46.19837 41.99501
# Shear Modulus (GPa) = 26.88244 33.80395 30.34319
#
# Velocity S-wave (km/s) = 3.34489 3.75087 3.55368
# Velocity P-wave (km/s) = 5.53592 6.16329 5.85801
#
# Compressibility (1/GPa) = 0.02646087
#
# Stress axis : x y z
#
# Youngs Moduli (GPa) = 57.31525 125.87611 56.98595
#
# Poissons Ratio (x) = 0.02180 0.25321
# Poissons Ratio (y) = 0.00993 0.20645
# Poissons Ratio (z) = 0.25468 0.45603
#
# Static dielectric constant tensor:
#      x y z
#    x 4.042780 0.000000 0.015450 
#    y 0.000000 5.328820 0.000000 
#    z 0.015450 0.000000 4.131200 
# 
# 
# High freq. dielectric constant tensor:
#      x y z
#    x 1.931520 0.000000 0.006390 
#    y 0.000000 1.979380 0.000000 
#    z 0.006390 0.000000 1.950110 
# 
# From -- ./inp_files/56991.got.cif
#   From: 2010.06.25/outbox.cif.g09.slc.cpg/sg15_29_cif.got.tgz:56991.got - 2010.06.28 07:06:18.
