data_PCOD8144467
_publ_section_title
;
Structure prediction by ZEFSAII (Michael W. Deem and Ramdas Pophale) SiO2 
 PCOD8144467
Probable space group: C 2/C
;
_chemical_formula_sum "Si O2"
_cell_formula_units_Z 32
_cell_length_a 21.382321
_cell_length_b 7.487139
_cell_length_c 22.009773
_cell_angle_alpha 90.000000
_cell_angle_beta 152.566607
_cell_angle_gamma 90.000000
_cell_volume 1623.381809
_symmetry_space_group_name_H-M "C 2/C"
_symmetry_group_IT_number 15
_symmetry_cell_setting 'monoclinic'
loop_
_space_group_symop_operation_xyz
x,y,z
-x,y,1/2-z
-x,-y,-z
x,-y,1/2+z
1/2+x,1/2+y,z
1/2-x,1/2+y,1/2-z
1/2-x,1/2-y,-z
1/2+x,1/2-y,1/2+z
loop_
_atom_site_type_symbol
_atom_site_label
_atom_site_fract_x
_atom_site_fract_y
_atom_site_fract_z
Si Si1 0.274170 0.450740 0.840451
Si Si2 0.649112 0.053325 0.609066
Si Si3 0.570395 0.089241 0.752103
Si Si4 0.837767 0.740378 0.474046
O O1 0.251942 0.512168 0.752338
O O2 0.129834 0.447754 0.753924
O O3 0.372970 0.598801 0.956668
O O4 0.345412 0.260340 0.904462
O O5 0.691689 0.942609 0.586908
O O6 0.500000 0.000000 0.500000
O O7 0.500000 0.994672 0.750000
O O8 0.695700 0.210467 0.884924
O O9 0.461500 0.220051 0.626823
#
# Coordination Sequence:
#
# PCOD8144467 Si02
#       4
#     8   8   8   8
#     4  10  23  36  63  93 121 161 201 256 306 364
#     4  12  21  40  60  94 127 155 203 254 315 368
#     4  10  21  43  63  87 125 166 210 250 300 363
#     4  10  22  39  64  92 123 164 205 251 309 360
#
# _framework density 19.711938
#
# number of rings (size 3 to 8) (size 9 to 14) (size 15 to 20)
#    1.500    0.000    5.000    0.750    0.000    3.000 
#    0.000    2.500    0.000    0.000    0.000    0.000 
#    0.000    0.000    0.000    0.000    0.000    0.000 
#
# Total GULP energy -198249.463251 kJ/mol
# GULP energy per Si atom -12390.591453 kJ/mol
# Density = 1.966707 g / cm^3
# Si number density = 19.711938 Si / 1000 Ang^3
#
#
#
# Elastic Constant Matrix: (Units=GPa)
#
#
# Indices 1 2 3 4 5 6 
#
# 1 60.2790 10.3195 13.0247 0.0001 13.5257 0.0000
# 2 10.3195 123.1114 32.3131 0.0000 -0.0263 0.0000
# 3 13.0247 32.3131 80.8440 0.0002 20.0919 0.0001
# 4 0.0001 0.0000 0.0002 28.4519 0.0001 1.9903
# 5 13.5257 -0.0263 20.0919 0.0001 15.3402 0.0000
# 6 0.0000 0.0000 0.0001 1.9903 0.0000 19.6284
#
#
#
# Elastic Compliance Matrix: (Units=1/GPa)
#
#
# Indices 1 2 3 4 5 6 
#
# 1 0.021602 -0.002728 0.003477 0.000000 -0.023605 0.000000
# 2 -0.002728 0.009967 -0.006147 0.000000 0.010474 0.000000
# 3 0.003477 -0.006147 0.022285 0.000000 -0.032264 0.000000
# 4 0.000000 0.000000 0.000000 0.035398 0.000000 -0.003589
# 5 -0.023605 0.010474 -0.032264 0.000000 0.128276 0.000000
# 6 0.000000 0.000000 0.000000 -0.003589 0.000000 0.051310
#
#
# Mechanical properties :
#
#
# Convention : Reuss Voigt Hill
#
# Bulk Modulus (GPa) = 23.22556 41.72766 32.47661
# Shear Modulus (GPa) = 17.00743 26.58926 21.79835
#
# Velocity S-wave (km/s) = 2.94053 3.67671 3.32903
# Velocity P-wave (km/s) = 4.83084 6.26410 5.59357
#
# Compressibility (1/GPa) = 0.04305600
#
# Stress axis : x y z
#
# Youngs Moduli (GPa) = 46.29203 100.32921 44.87342
#
# Poissons Ratio (x) = 0.27373 -0.15601
# Poissons Ratio (y) = 0.12630 0.27586
# Poissons Ratio (z) = -0.16095 0.61677
#
# Static dielectric constant tensor:
#      x y z
#    x 3.661320 0.000000 -0.022690 
#    y 0.000000 3.417080 0.000000 
#    z -0.022690 0.000000 3.494170 
# 
# 
# High freq. dielectric constant tensor:
#      x y z
#    x 1.764000 0.000000 -0.001410 
#    y 0.000000 1.744290 0.000000 
#    z -0.001410 0.000000 1.770740 
# 
# From -- ./inp_files/64468.got.cif
#   From: 2010.06.25/outbox.cif.g09.slc.cpg/sg15_33_cif.got.tgz:64468.got - 2010.06.28 07:06:18.
