data_PCOD8144117
_publ_section_title
;
Structure prediction by ZEFSAII (Michael W. Deem and Ramdas Pophale) SiO2 
 PCOD8144117
Probable space group: C 2/C
;
_chemical_formula_sum "Si O2"
_cell_formula_units_Z 48
_cell_length_a 13.897583
_cell_length_b 20.412152
_cell_length_c 9.025278
_cell_angle_alpha 90.000000
_cell_angle_beta 110.983559
_cell_angle_gamma 90.000000
_cell_volume 2390.497054
_symmetry_space_group_name_H-M "C 2/C"
_symmetry_group_IT_number 15
_symmetry_cell_setting 'monoclinic'
loop_
_space_group_symop_operation_xyz
x,y,z
-x,y,1/2-z
-x,-y,-z
x,-y,1/2+z
1/2+x,1/2+y,z
1/2-x,1/2+y,1/2-z
1/2-x,1/2-y,-z
1/2+x,1/2-y,1/2+z
loop_
_atom_site_type_symbol
_atom_site_label
_atom_site_fract_x
_atom_site_fract_y
_atom_site_fract_z
Si Si1 0.500601 0.200593 0.074708
Si Si2 0.399935 0.103590 0.599217
Si Si3 0.244908 0.511018 0.560239
Si Si4 0.418083 0.336873 0.328262
Si Si5 0.803014 0.648383 0.836927
Si Si6 0.388202 0.477959 0.393622
O O1 0.500000 0.185600 0.250000
O O2 0.539223 0.274183 0.060710
O O3 0.570564 0.151159 0.019775
O O4 0.384112 0.197403 0.953884
O O5 0.500000 0.080385 0.750000
O O6 0.343852 0.043926 0.484246
O O7 0.323732 0.139732 0.672182
O O8 0.189863 0.578049 0.577441
O O9 0.292039 0.511549 0.423155
O O10 0.352535 0.500462 0.710151
O O11 0.500000 0.359645 0.250000
O O12 0.307811 0.317921 0.195332
O O13 0.392164 0.399080 0.417769
O O14 0.500000 0.500000 0.500000
#
# Coordination Sequence:
#
# PCOD8144117 Si02
#       6
#     8   8   8   8   8   8
#     4  10  24  39  64  91 121 168 215 252 311 377
#     4  10  22  42  61  93 129 164 206 262 316 368
#     4  11  21  39  63  92 125 170 201 261 319 364
#     4  10  21  42  62  89 129 166 202 260 313 367
#     4  10  22  42  61  89 133 162 203 263 317 363
#     4  11  22  40  63  93 127 161 210 259 317 373
#
# _framework density 20.079505999999999
#
# number of rings (size 3 to 8) (size 9 to 14) (size 15 to 20)
#    0.000    1.667    3.333    2.500    2.333    6.667 
#    3.000    3.333    0.000    0.000    0.000    0.000 
#    0.000    0.000    0.000    0.000    0.000    0.000 
#
# Total GULP energy -297357.313014 kJ/mol
# GULP energy per Si atom -12389.888042 kJ/mol
# Density = 2.003380 g / cm^3
# Si number density = 20.079506 Si / 1000 Ang^3
#
#
#
# Elastic Constant Matrix: (Units=GPa)
#
#
# Indices 1 2 3 4 5 6 
#
# 1 129.9387 50.0249 38.7812 0.0000 11.4642 0.0000
# 2 50.0249 107.0337 64.8654 0.0000 12.4053 0.0000
# 3 38.7812 64.8654 80.5257 0.0000 16.4802 0.0000
# 4 0.0000 0.0000 0.0000 25.5539 0.0000 12.3937
# 5 11.4642 12.4053 16.4802 0.0000 47.4440 0.0000
# 6 0.0000 0.0000 0.0000 12.3937 0.0000 25.3099
#
#
#
# Elastic Compliance Matrix: (Units=1/GPa)
#
#
# Indices 1 2 3 4 5 6 
#
# 1 0.009571 -0.003295 -0.001785 0.000000 -0.000831 0.000000
# 2 -0.003295 0.019394 -0.014168 0.000000 0.000647 0.000000
# 3 -0.001785 -0.014168 0.025669 0.000000 -0.004781 0.000000
# 4 0.000000 0.000000 0.000000 0.051322 0.000000 -0.025131
# 5 -0.000831 0.000647 -0.004781 0.000000 0.022770 0.000000
# 6 0.000000 0.000000 0.000000 -0.025131 0.000000 0.051816
#
#
# Mechanical properties :
#
#
# Convention : Reuss Voigt Hill
#
# Bulk Modulus (GPa) = 61.96534 69.42679 65.69606
# Shear Modulus (GPa) = 22.28004 30.58332 26.43168
#
# Velocity S-wave (km/s) = 3.33467 3.90694 3.63209
# Velocity P-wave (km/s) = 6.76414 7.41642 7.09778
#
# Compressibility (1/GPa) = 0.01613805
#
# Stress axis : x y z
#
# Youngs Moduli (GPa) = 104.48768 51.56234 38.95771
#
# Poissons Ratio (x) = 0.16990 0.06953
# Poissons Ratio (y) = 0.34429 0.55194
# Poissons Ratio (z) = 0.18650 0.73052
#
# Static dielectric constant tensor:
#      x y z
#    x 4.003820 0.000000 0.092630 
#    y 0.000000 3.513680 0.000000 
#    z 0.092630 0.000000 3.633000 
# 
# 
# High freq. dielectric constant tensor:
#      x y z
#    x 1.811750 0.000000 0.005300 
#    y 0.000000 1.768700 0.000000 
#    z 0.005300 0.000000 1.775490 
# 
# From -- ./inp_files/40966.got.cif
#   From: 2010.06.25/outbox.cif.g09.slc.cpg/sg15_21_cif.got.tgz:40966.got - 2010.06.28 07:06:18.
