data_PCOD8144982
_publ_section_title
;
Structure prediction by ZEFSAII (Michael W. Deem and Ramdas Pophale) SiO2 
 PCOD8144982
Probable space group: C 2/C
;
_chemical_formula_sum "Si O2"
_cell_formula_units_Z 48
_cell_length_a 11.010935
_cell_length_b 17.151737
_cell_length_c 12.485679
_cell_angle_alpha 90.000000
_cell_angle_beta 81.107263
_cell_angle_gamma 90.000000
_cell_volume 2329.659194
_symmetry_space_group_name_H-M "C 2/C"
_symmetry_group_IT_number 15
_symmetry_cell_setting 'monoclinic'
loop_
_space_group_symop_operation_xyz
x,y,z
-x,y,1/2-z
-x,-y,-z
x,-y,1/2+z
1/2+x,1/2+y,z
1/2-x,1/2+y,1/2-z
1/2-x,1/2-y,-z
1/2+x,1/2-y,1/2+z
loop_
_atom_site_type_symbol
_atom_site_label
_atom_site_fract_x
_atom_site_fract_y
_atom_site_fract_z
Si Si1 0.677151 0.931299 0.651378
Si Si2 0.188028 0.777948 0.901197
Si Si3 0.080332 0.383939 0.881810
Si Si4 0.444748 0.337319 0.872091
Si Si5 0.731589 0.413592 0.464338
Si Si6 0.277166 0.263181 0.172487
O O1 0.779565 0.865745 0.633788
O O2 0.634442 0.940036 0.780540
O O3 0.564333 0.903905 0.589966
O O4 0.748813 0.007444 0.602884
O O5 0.233535 0.720930 0.800311
O O6 0.039875 0.783876 0.927472
O O7 0.250000 0.750000 0.000000
O O8 0.101610 0.292758 0.846208
O O9 0.142611 0.402038 0.986585
O O10 0.500000 0.362985 0.750000
O O11 0.327718 0.281596 0.878434
O O12 0.389993 0.413574 0.941733
O O13 0.701698 0.346229 0.383087
#
# Coordination Sequence:
#
# PCOD8144982 Si02
#       6
#     8   8   8   8   8   8
#     4  10  22  36  56  90 123 152 193 258 313 346
#     4  10  22  37  56  84 123 162 195 246 306 363
#     4   9  19  39  57  83 123 159 189 251 310 357
#     4   9  19  38  58  82 113 159 203 246 295 363
#     4  11  21  36  64  87 114 157 210 250 294 364
#     4   9  20  38  62  84 110 162 213 239 287 379
#
# _framework density 20.603873
#
# number of rings (size 3 to 8) (size 9 to 14) (size 15 to 20)
#    0.000    2.333    0.000    3.500    4.667    2.000 
#    9.000    0.000    0.000    0.000    0.000    0.000 
#    0.000    0.000    0.000    0.000    0.000    0.000 
#
# Total GULP energy -297448.684908 kJ/mol
# GULP energy per Si atom -12393.695204 kJ/mol
# Density = 2.055698 g / cm^3
# Si number density = 20.603873 Si / 1000 Ang^3
#
#
#
# Elastic Constant Matrix: (Units=GPa)
#
#
# Indices 1 2 3 4 5 6 
#
# 1 75.2116 31.6481 38.4765 0.0000 -6.5782 0.0000
# 2 31.6481 81.1884 37.7501 0.0000 -9.7094 0.0000
# 3 38.4765 37.7501 88.8341 0.0000 7.5587 0.0000
# 4 0.0000 0.0000 0.0000 29.6999 0.0000 -0.4465
# 5 -6.5782 -9.7094 7.5587 0.0000 34.0897 0.0000
# 6 0.0000 0.0000 0.0000 -0.4465 0.0000 25.2402
#
#
#
# Elastic Compliance Matrix: (Units=1/GPa)
#
#
# Indices 1 2 3 4 5 6 
#
# 1 0.018709 -0.003574 -0.006936 0.000000 0.004130 0.000000
# 2 -0.003574 0.017307 -0.006286 0.000000 0.005633 0.000000
# 3 -0.006936 -0.006286 0.017529 0.000000 -0.007016 0.000000
# 4 0.000000 0.000000 0.000000 0.033679 0.000000 0.000596
# 5 0.004130 0.005633 -0.007016 0.000000 0.033291 0.000000
# 6 0.000000 0.000000 0.000000 0.000596 0.000000 0.039630
#
#
# Mechanical properties :
#
#
# Convention : Reuss Voigt Hill
#
# Bulk Modulus (GPa) = 50.11714 51.22037 50.66876
# Shear Modulus (GPa) = 24.95151 26.96326 25.95739
#
# Velocity S-wave (km/s) = 3.48373 3.62145 3.55326
# Velocity P-wave (km/s) = 6.36858 6.51154 6.44045
#
# Compressibility (1/GPa) = 0.01995325
#
# Stress axis : x y z
#
# Youngs Moduli (GPa) = 53.44920 57.78142 57.04750
#
# Poissons Ratio (x) = 0.20651 0.39569
# Poissons Ratio (y) = 0.19103 0.35859
# Poissons Ratio (z) = 0.37073 0.36320
#
# Static dielectric constant tensor:
#      x y z
#    x 3.989420 0.000000 -0.133020 
#    y 0.000000 3.418780 0.000000 
#    z -0.133020 0.000000 4.006410 
# 
# 
# High freq. dielectric constant tensor:
#      x y z
#    x 1.813880 0.000000 0.001490 
#    y 0.000000 1.767500 0.000000 
#    z 0.001490 0.000000 1.812520 
# 
# From -- ./inp_files/87238.got.cif
#   From: 2010.06.25/outbox.cif.g09.slc.cpg/sg15_44_cif.got.tgz:87238.got - 2010.06.28 07:06:18.
