data_PCOD8144639
_publ_section_title
;
Structure prediction by ZEFSAII (Michael W. Deem and Ramdas Pophale) SiO2 
 PCOD8144639
Probable space group: C 2/C
;
_chemical_formula_sum "Si O2"
_cell_formula_units_Z 52
_cell_length_a 15.270798
_cell_length_b 14.848566
_cell_length_c 10.812213
_cell_angle_alpha 90.000000
_cell_angle_beta 113.914318
_cell_angle_gamma 90.000000
_cell_volume 2241.194650
_symmetry_space_group_name_H-M "C 2/C"
_symmetry_group_IT_number 15
_symmetry_cell_setting 'monoclinic'
loop_
_space_group_symop_operation_xyz
x,y,z
-x,y,1/2-z
-x,-y,-z
x,-y,1/2+z
1/2+x,1/2+y,z
1/2-x,1/2+y,1/2-z
1/2-x,1/2-y,-z
1/2+x,1/2-y,1/2+z
loop_
_atom_site_type_symbol
_atom_site_label
_atom_site_fract_x
_atom_site_fract_y
_atom_site_fract_z
Si Si1 0.836265 0.192702 0.606246
Si Si2 0.213474 0.649847 0.952073
Si Si3 0.000000 0.678746 0.250000
Si Si4 0.947494 0.405060 0.960494
Si Si5 0.428147 0.223946 0.809319
Si Si6 0.626737 0.408827 0.122090
Si Si7 0.089266 0.105356 0.068733
O O1 0.750000 0.250000 0.500000
O O2 0.925280 0.258495 0.637265
O O3 0.829401 0.154520 0.743228
O O4 0.855973 0.105491 0.531641
O O5 0.141877 0.652714 0.794921
O O6 0.303886 0.592339 0.957537
O O7 0.250000 0.750000 0.000000
O O8 0.158010 0.600857 0.035095
O O9 0.060709 0.616807 0.189713
O O10 0.000000 0.500000 0.000000
O O11 0.015075 0.328811 0.053952
O O12 0.500000 0.265301 0.750000
O O13 0.370678 0.309944 0.829897
O O14 0.612963 0.513170 0.154961
O O15 0.523538 0.375475 0.017232
#
# Coordination Sequence:
#
# PCOD8144639 Si02
#       7
#     8   8   4   8   8   8   8
#     4  12  24  45  73 105 145 197 246 303 382 444
#     4  11  24  45  70 102 142 187 243 299 366 453
#     4  12  24  48  74 102 152 186 248 310 374 454
#     4  11  26  46  75 104 144 193 244 308 375 449
#     4  10  21  43  70  98 138 187 234 291 377 439
#     4  11  24  42  70 105 146 183 244 306 364 446
#     4  11  23  44  69 104 143 190 236 306 372 440
#
# _framework density 23.201912
#
# number of rings (size 3 to 8) (size 9 to 14) (size 15 to 20)
#    0.000    0.923    3.077    3.692    3.231    4.923 
#    2.769    0.000    0.000    0.000    0.000    0.000 
#    0.000    0.000    0.000    0.000    0.000    0.000 
#
# Total GULP energy -322238.173403 kJ/mol
# GULP energy per Si atom -12393.775900 kJ/mol
# Density = 2.314910 g / cm^3
# Si number density = 23.201912 Si / 1000 Ang^3
#
#
#
# Elastic Constant Matrix: (Units=GPa)
#
#
# Indices 1 2 3 4 5 6 
#
# 1 157.5626 44.5419 44.6214 0.0000 -19.6063 0.0000
# 2 44.5419 126.7526 32.1217 0.0000 -12.6043 0.0000
# 3 44.6214 32.1217 83.8636 0.0000 -11.3520 0.0000
# 4 0.0000 0.0000 0.0000 32.7523 0.0000 -0.8250
# 5 -19.6063 -12.6043 -11.3520 0.0000 45.4655 0.0000
# 6 0.0000 0.0000 0.0000 -0.8250 0.0000 37.4304
#
#
#
# Elastic Compliance Matrix: (Units=1/GPa)
#
#
# Indices 1 2 3 4 5 6 
#
# 1 0.008055 -0.001777 -0.003314 0.000000 0.002154 0.000000
# 2 -0.001777 0.009249 -0.002436 0.000000 0.001190 0.000000
# 3 -0.003314 -0.002436 0.014837 0.000000 0.001600 0.000000
# 4 0.000000 0.000000 0.000000 0.030549 0.000000 0.000673
# 5 0.002154 0.001190 0.001600 0.000000 0.023653 0.000000
# 6 0.000000 0.000000 0.000000 0.000673 0.000000 0.026731
#
#
# Mechanical properties :
#
#
# Convention : Reuss Voigt Hill
#
# Bulk Modulus (GPa) = 58.52098 67.86098 63.19098
# Shear Modulus (GPa) = 37.36209 39.58921 38.47565
#
# Velocity S-wave (km/s) = 4.01721 4.13521 4.07664
# Velocity P-wave (km/s) = 6.84065 7.21883 7.03228
#
# Compressibility (1/GPa) = 0.01708789
#
# Stress axis : x y z
#
# Youngs Moduli (GPa) = 124.13890 108.11414 67.39822
#
# Poissons Ratio (x) = 0.19209 0.22336
# Poissons Ratio (y) = 0.22056 0.16421
# Poissons Ratio (z) = 0.41140 0.26341
#
# Static dielectric constant tensor:
#      x y z
#    x 3.662190 0.000000 0.748300 
#    y 0.000000 4.049990 0.000000 
#    z 0.748300 0.000000 2.946100 
# 
# 
# High freq. dielectric constant tensor:
#      x y z
#    x 1.924270 0.000000 -0.011240 
#    y 0.000000 1.912110 0.000000 
#    z -0.011240 0.000000 1.914540 
# 
# From -- ./inp_files/97098.got.cif
#   From: 2010.06.25/outbox.cif.g09.slc.cpg/sg15_49_cif.got.tgz:97098.got - 2010.06.28 07:06:18.
