data_PCOD8144861
_publ_section_title
;
Structure prediction by ZEFSAII (Michael W. Deem and Ramdas Pophale) SiO2 
 PCOD8144861
Probable space group: C 2/C
;
_chemical_formula_sum "Si O2"
_cell_formula_units_Z 56
_cell_length_a 28.644300
_cell_length_b 11.456855
_cell_length_c 9.713661
_cell_angle_alpha 90.000000
_cell_angle_beta 126.670485
_cell_angle_gamma 90.000000
_cell_volume 2556.854992
_symmetry_space_group_name_H-M "C 2/C"
_symmetry_group_IT_number 15
_symmetry_cell_setting 'monoclinic'
loop_
_space_group_symop_operation_xyz
x,y,z
-x,y,1/2-z
-x,-y,-z
x,-y,1/2+z
1/2+x,1/2+y,z
1/2-x,1/2+y,1/2-z
1/2-x,1/2-y,-z
1/2+x,1/2-y,1/2+z
loop_
_atom_site_type_symbol
_atom_site_label
_atom_site_fract_x
_atom_site_fract_y
_atom_site_fract_z
Si Si1 0.000000 0.865170 0.250000
Si Si2 0.724405 0.551092 0.754712
Si Si3 0.435437 0.323955 0.385461
Si Si4 0.000000 0.257258 0.250000
Si Si5 0.170950 0.716391 0.196072
Si Si6 0.703687 0.027227 0.870889
Si Si7 0.894519 0.061387 0.390023
Si Si8 0.113966 0.705425 0.807667
O O1 0.024050 0.784329 0.169451
O O2 0.054892 0.936984 0.405802
O O3 0.712562 0.675286 0.807186
O O4 0.748644 0.585677 0.645718
O O5 0.666803 0.469547 0.643552
O O6 0.772275 0.485441 0.932499
O O7 0.471400 0.328838 0.589818
O O8 0.386112 0.226405 0.309133
O O9 0.410594 0.454586 0.316052
O O10 0.949641 0.332335 0.241617
O O11 0.198011 0.594467 0.281330
O O12 0.156248 0.732863 0.009197
O O13 0.643151 0.100013 0.770872
O O14 0.890701 0.181049 0.297553
#
# Coordination Sequence:
#
# PCOD8144861 Si02
#       8
#     4   8   8   4   8   8   8   8
#     4  12  23  38  65 112 134 173 226 285 344 418
#     4  11  26  42  72  98 140 179 232 282 347 402
#     4  10  23  39  66  99 138 176 224 281 351 404
#     4  10  21  46  67 100 142 187 218 287 352 412
#     4  10  24  45  67  95 136 178 231 286 343 408
#     4  12  25  47  68 101 133 188 229 286 333 417
#     4  11  25  39  69 105 143 178 222 287 352 412
#     4  11  24  44  71 100 139 181 228 281 356 410
#
# _framework density 21.901907000000001
#
# number of rings (size 3 to 8) (size 9 to 14) (size 15 to 20)
#    0.000    1.143    2.857    2.143   12.000    2.286 
#    0.000    3.571    0.000    0.000    0.000    0.000 
#    0.000    0.000    0.000    0.000    0.000    0.000 
#
# Total GULP energy -346960.145489 kJ/mol
# GULP energy per Si atom -12391.433767 kJ/mol
# Density = 2.185206 g / cm^3
# Si number density = 21.901907 Si / 1000 Ang^3
#
#
#
# Elastic Constant Matrix: (Units=GPa)
#
#
# Indices 1 2 3 4 5 6 
#
# 1 169.7259 41.6397 35.5464 0.0000 -11.7728 0.0000
# 2 41.6397 79.3501 24.1392 0.0000 9.4776 0.0000
# 3 35.5464 24.1392 78.3911 0.0000 0.5588 0.0000
# 4 0.0000 0.0000 0.0000 16.4711 0.0000 -0.0972
# 5 -11.7728 9.4776 0.5588 0.0000 39.0645 0.0000
# 6 0.0000 0.0000 0.0000 -0.0972 0.0000 24.4829
#
#
#
# Elastic Compliance Matrix: (Units=1/GPa)
#
#
# Indices 1 2 3 4 5 6 
#
# 1 0.007477 -0.003600 -0.002304 0.000000 0.003160 0.000000
# 2 -0.003600 0.016080 -0.003284 0.000000 -0.004939 0.000000
# 3 -0.002304 -0.003284 0.014814 0.000000 -0.000110 0.000000
# 4 0.000000 0.000000 0.000000 0.060714 0.000000 0.000241
# 5 0.003160 -0.004939 -0.000110 0.000000 0.027751 0.000000
# 6 0.000000 0.000000 0.000000 0.000241 0.000000 0.040846
#
#
# Mechanical properties :
#
#
# Convention : Reuss Voigt Hill
#
# Bulk Modulus (GPa) = 50.01486 58.90197 54.45841
# Shear Modulus (GPa) = 25.94400 31.07980 28.51190
#
# Velocity S-wave (km/s) = 3.44547 3.77111 3.61196
# Velocity P-wave (km/s) = 6.22204 6.77596 6.50490
#
# Compressibility (1/GPa) = 0.01999406
#
# Stress axis : x y z
#
# Youngs Moduli (GPa) = 133.74690 62.18713 67.50580
#
# Poissons Ratio (x) = 0.22387 0.15556
# Poissons Ratio (y) = 0.48148 0.22170
# Poissons Ratio (z) = 0.30820 0.20423
#
# Static dielectric constant tensor:
#      x y z
#    x 4.308780 0.000000 0.083500 
#    y 0.000000 3.567160 0.000000 
#    z 0.083500 0.000000 3.870120 
# 
# 
# High freq. dielectric constant tensor:
#      x y z
#    x 1.882560 0.000000 -0.001050 
#    y 0.000000 1.825800 0.000000 
#    z -0.001050 0.000000 1.861290 
# 
# From -- ./inp_files/69483.got.cif
#   From: 2010.06.25/outbox.cif.g09.slc.cpg/sg15_35_cif.got.tgz:69483.got - 2010.06.28 07:06:18.
