data_PCOD8144242
_publ_section_title
;
Structure prediction by ZEFSAII (Michael W. Deem and Ramdas Pophale) SiO2 
 PCOD8144242
Probable space group: C 2/C
;
_chemical_formula_sum "Si O2"
_cell_formula_units_Z 44
_cell_length_a 19.601157
_cell_length_b 7.416433
_cell_length_c 14.596221
_cell_angle_alpha 90.000000
_cell_angle_beta 80.192181
_cell_angle_gamma 90.000000
_cell_volume 2090.850654
_symmetry_space_group_name_H-M "C 2/C"
_symmetry_group_IT_number 15
_symmetry_cell_setting 'monoclinic'
loop_
_space_group_symop_operation_xyz
x,y,z
-x,y,1/2-z
-x,-y,-z
x,-y,1/2+z
1/2+x,1/2+y,z
1/2-x,1/2+y,1/2-z
1/2-x,1/2-y,-z
1/2+x,1/2-y,1/2+z
loop_
_atom_site_type_symbol
_atom_site_label
_atom_site_fract_x
_atom_site_fract_y
_atom_site_fract_z
Si Si1 0.000000 0.156166 0.250000
Si Si2 0.114927 0.060233 0.795022
Si Si3 0.090153 0.574473 0.399531
Si Si4 0.940386 0.443686 0.386330
Si Si5 0.841545 0.765911 0.390433
Si Si6 0.820505 0.771578 0.598884
O O1 0.943034 0.274894 0.316968
O O2 0.960935 0.031261 0.184089
O O3 0.120162 0.251426 0.842996
O O4 0.132958 0.078023 0.683248
O O5 0.168931 0.930515 0.831835
O O6 0.081688 0.622260 0.508207
O O7 0.144618 0.412454 0.372760
O O8 0.016840 0.529433 0.370530
O O9 0.884457 0.583622 0.359017
O O10 0.855094 0.822165 0.492833
O O11 0.760906 0.741879 0.392168
#
# Coordination Sequence:
#
# PCOD8144242 Si02
#       6
#     4   8   8   8   8   8
#     4  12  24  38  64 104 128 168 228 270 334 398
#     4  12  25  38  70  96 127 173 217 272 328 400
#     4  10  22  43  65  90 129 171 214 266 335 382
#     4  10  21  42  66  89 132 170 210 277 322 392
#     4  10  24  44  67  94 135 172 222 271 330 390
#     4  10  24  47  63  97 133 172 219 276 322 403
#
# _framework density 21.044065
#
# number of rings (size 3 to 8) (size 9 to 14) (size 15 to 20)
#    0.000    1.455    1.818    2.182    5.091    0.727 
#    0.000    2.727    0.000    0.000    0.000    0.000 
#    0.000    0.000    0.000    0.000    0.000    0.000 
#
# Total GULP energy -272854.053097 kJ/mol
# GULP energy per Si atom -12402.456959 kJ/mol
# Density = 2.099617 g / cm^3
# Si number density = 21.044065 Si / 1000 Ang^3
#
#
#
# Elastic Constant Matrix: (Units=GPa)
#
#
# Indices 1 2 3 4 5 6 
#
# 1 103.8378 47.8216 23.1704 0.0000 -5.3743 0.0000
# 2 47.8216 130.2399 64.7169 0.0000 1.3521 0.0000
# 3 23.1704 64.7169 84.4923 0.0000 -0.3797 0.0000
# 4 0.0000 0.0000 0.0000 34.0296 0.0000 10.3304
# 5 -5.3743 1.3521 -0.3797 0.0000 18.0415 0.0000
# 6 0.0000 0.0000 0.0000 10.3304 0.0000 26.2070
#
#
#
# Elastic Compliance Matrix: (Units=1/GPa)
#
#
# Indices 1 2 3 4 5 6 
#
# 1 0.011855 -0.004499 0.000212 0.000000 0.003873 0.000000
# 2 -0.004499 0.014126 -0.009598 0.000000 -0.002601 0.000000
# 3 0.000212 -0.009598 0.019134 0.000000 0.001185 0.000000
# 4 0.000000 0.000000 0.000000 0.033381 0.000000 -0.013158
# 5 0.003873 -0.002601 0.001185 0.000000 0.056801 0.000000
# 6 0.000000 0.000000 0.000000 -0.013158 0.000000 0.043345
#
#
# Mechanical properties :
#
#
# Convention : Reuss Voigt Hill
#
# Bulk Modulus (GPa) = 57.64839 65.55420 61.60130
# Shear Modulus (GPa) = 23.56337 27.84636 25.70487
#
# Velocity S-wave (km/s) = 3.34985 3.64158 3.49876
# Velocity P-wave (km/s) = 6.51272 6.99286 6.75706
#
# Compressibility (1/GPa) = 0.01734654
#
# Stress axis : x y z
#
# Youngs Moduli (GPa) = 84.35013 70.79011 52.26237
#
# Poissons Ratio (x) = 0.31846 -0.01108
# Poissons Ratio (y) = 0.37946 0.50162
# Poissons Ratio (z) = -0.01788 0.67945
#
# Static dielectric constant tensor:
#      x y z
#    x 3.718280 0.000000 0.086740 
#    y 0.000000 3.697480 0.000000 
#    z 0.086740 0.000000 4.143700 
# 
# 
# High freq. dielectric constant tensor:
#      x y z
#    x 1.824560 0.000000 0.009440 
#    y 0.000000 1.818700 0.000000 
#    z 0.009440 0.000000 1.837610 
# 
# From -- ./inp_files/212878.got.cif
#   From: 2010.06.25/outbox.cif.g09.slc.cpg/sg15_107_cif.got.tgz:212878.got - 2010.06.28 07:06:18.
