data_PCOD8144193
_publ_section_title
;
Structure prediction by ZEFSAII (Michael W. Deem and Ramdas Pophale) SiO2 
 PCOD8144193
Probable space group: C 2/C
;
_chemical_formula_sum "Si O2"
_cell_formula_units_Z 44
_cell_length_a 15.881445
_cell_length_b 6.588376
_cell_length_c 26.684558
_cell_angle_alpha 90.000000
_cell_angle_beta 132.897996
_cell_angle_gamma 90.000000
_cell_volume 2045.387430
_symmetry_space_group_name_H-M "C 2/C"
_symmetry_group_IT_number 15
_symmetry_cell_setting 'monoclinic'
loop_
_space_group_symop_operation_xyz
x,y,z
-x,y,1/2-z
-x,-y,-z
x,-y,1/2+z
1/2+x,1/2+y,z
1/2-x,1/2+y,1/2-z
1/2-x,1/2-y,-z
1/2+x,1/2-y,1/2+z
loop_
_atom_site_type_symbol
_atom_site_label
_atom_site_fract_x
_atom_site_fract_y
_atom_site_fract_z
Si Si1 0.069562 0.210834 0.868805
Si Si2 0.925295 0.388980 0.075833
Si Si3 0.621085 0.406432 0.677490
Si Si4 0.717105 0.197237 0.806823
Si Si5 0.000000 0.465750 0.750000
Si Si6 0.236260 0.137272 0.422237
O O1 0.061384 0.368997 0.911641
O O2 0.068928 0.326755 0.816231
O O3 0.187496 0.083363 0.917870
O O4 0.962633 0.060183 0.827967
O O5 0.848668 0.310904 0.091451
O O6 0.049114 0.279510 0.124325
O O7 0.861933 0.341412 0.997794
O O8 0.716618 0.333801 0.756428
O O9 0.688709 0.519026 0.660131
O O10 0.588962 0.107727 0.756928
O O11 0.747641 0.334167 0.867286
#
# Coordination Sequence:
#
# PCOD8144193 Si02
#       6
#     8   8   8   8   4   8
#     4  11  20  40  64  94 125 169 210 271 316 384
#     4  10  21  42  64  96 129 170 206 273 317 389
#     4  11  25  40  64  90 136 164 217 264 330 377
#     4  12  23  43  63  95 125 175 212 273 318 386
#     4  12  20  38  68  90 120 166 226 256 320 372
#     4  10  22  39  67  95 129 164 223 256 323 386
#
# _framework density 21.511818000000002
#
# number of rings (size 3 to 8) (size 9 to 14) (size 15 to 20)
#    0.000    1.091    3.636    3.818    0.000    0.727 
#    0.000    0.909    0.000    0.000    0.000    0.000 
#    0.000    0.000    0.000    0.000    0.000    0.000 
#
# Total GULP energy -272926.244637 kJ/mol
# GULP energy per Si atom -12405.738393 kJ/mol
# Density = 2.146286 g / cm^3
# Si number density = 21.511818 Si / 1000 Ang^3
#
#
#
# Elastic Constant Matrix: (Units=GPa)
#
#
# Indices 1 2 3 4 5 6 
#
# 1 73.3441 32.4130 33.8138 0.0000 3.1782 0.0001
# 2 32.4130 121.3007 44.1821 -0.0002 2.8626 0.0006
# 3 33.8138 44.1821 123.7521 0.0000 4.8014 0.0000
# 4 0.0000 -0.0002 0.0000 25.8332 0.0000 -0.6882
# 5 3.1782 2.8626 4.8014 0.0000 18.4588 0.0000
# 6 0.0001 0.0006 0.0000 -0.6882 0.0000 41.8804
#
#
#
# Elastic Compliance Matrix: (Units=1/GPa)
#
#
# Indices 1 2 3 4 5 6 
#
# 1 0.016657 -0.003194 -0.003353 0.000000 -0.001501 0.000000
# 2 -0.003194 0.010095 -0.002719 0.000000 -0.000308 0.000000
# 3 -0.003353 -0.002719 0.010030 0.000000 -0.001610 0.000000
# 4 0.000000 0.000000 0.000000 0.038727 0.000000 0.000636
# 5 -0.001501 -0.000308 -0.001610 0.000000 0.054900 0.000000
# 6 0.000000 0.000000 0.000000 0.000636 0.000000 0.023888
#
#
# Mechanical properties :
#
#
# Convention : Reuss Voigt Hill
#
# Bulk Modulus (GPa) = 54.79642 59.91273 57.35458
# Shear Modulus (GPa) = 27.94661 31.10034 29.52348
#
# Velocity S-wave (km/s) = 3.60825 3.80640 3.70865
# Velocity P-wave (km/s) = 6.54884 6.87240 6.71257
#
# Compressibility (1/GPa) = 0.01824937
#
# Stress axis : x y z
#
# Youngs Moduli (GPa) = 60.03588 99.05564 99.69988
#
# Poissons Ratio (x) = 0.31642 0.33425
# Poissons Ratio (y) = 0.19177 0.27113
# Poissons Ratio (z) = 0.20128 0.26938
#
# Static dielectric constant tensor:
#      x y z
#    x 3.593190 0.000000 0.100960 
#    y 0.000000 4.064930 0.000000 
#    z 0.100960 0.000000 3.778990 
# 
# 
# High freq. dielectric constant tensor:
#      x y z
#    x 1.821400 0.000000 0.007570 
#    y 0.000000 1.855950 0.000000 
#    z 0.007570 0.000000 1.845760 
# 
# From -- ./inp_files/246487.got.cif
#   From: 2010.06.25/outbox.cif.g09.slc.cpg/sg15_124_cif.got.tgz:246487.got - 2010.06.28 07:06:18.
