data_PCOD8144909
_publ_section_title
;
Structure prediction by ZEFSAII (Michael W. Deem and Ramdas Pophale) SiO2 
 PCOD8144909
Probable space group: C 2/C
;
_chemical_formula_sum "Si O2"
_cell_formula_units_Z 44
_cell_length_a 19.730819
_cell_length_b 8.612966
_cell_length_c 16.400512
_cell_angle_alpha 90.000000
_cell_angle_beta 117.968237
_cell_angle_gamma 90.000000
_cell_volume 2461.603536
_symmetry_space_group_name_H-M "C 2/C"
_symmetry_group_IT_number 15
_symmetry_cell_setting 'monoclinic'
loop_
_space_group_symop_operation_xyz
x,y,z
-x,y,1/2-z
-x,-y,-z
x,-y,1/2+z
1/2+x,1/2+y,z
1/2-x,1/2+y,1/2-z
1/2-x,1/2-y,-z
1/2+x,1/2-y,1/2+z
loop_
_atom_site_type_symbol
_atom_site_label
_atom_site_fract_x
_atom_site_fract_y
_atom_site_fract_z
Si Si1 0.104836 0.823024 0.904263
Si Si2 0.817764 0.774483 0.391277
Si Si3 0.642582 0.727606 0.770939
Si Si4 0.325642 0.967884 0.127802
Si Si5 0.000000 0.029066 0.750000
Si Si6 0.752097 0.985237 0.077336
O O1 0.109229 0.656598 0.861069
O O2 0.027380 0.915604 0.838680
O O3 0.176922 0.917388 0.913854
O O4 0.112637 0.807043 0.006193
O O5 0.850605 0.802094 0.320704
O O6 0.745949 0.887300 0.367509
O O7 0.794327 0.594376 0.386381
O O8 0.567776 0.636825 0.757140
O O9 0.719940 0.666956 0.859085
O O10 0.635239 0.908981 0.789103
O O11 0.299154 0.057838 0.030299
#
# Coordination Sequence:
#
# PCOD8144909 Si02
#       6
#     8   8   8   8   4   8
#     4   8  17  34  50  65  94 134 161 184 232 295
#     4   9  17  31  52  75  96 120 156 200 242 278
#     4  11  19  29  49  76 101 121 156 202 233 275
#     4   9  17  31  53  73  94 124 157 197 242 281
#     4  10  22  34  46  66  98 138 164 184 230 286
#     4   8  16  31  49  73  98 122 153 194 245 283
#
# _framework density 17.874528999999999
#
# number of rings (size 3 to 8) (size 9 to 14) (size 15 to 20)
#    0.000    2.909    0.000    3.818    0.000    1.455 
#    0.000    0.000    0.000   12.000    0.000    0.000 
#    0.000    0.000    0.000    0.000    0.000    0.000 
#
# Total GULP energy -272682.263029 kJ/mol
# GULP energy per Si atom -12394.648320 kJ/mol
# Density = 1.783385 g / cm^3
# Si number density = 17.874529 Si / 1000 Ang^3
#
#
#
# Elastic Constant Matrix: (Units=GPa)
#
#
# Indices 1 2 3 4 5 6 
#
# 1 59.7785 33.8542 47.1809 0.0000 -6.5963 0.0000
# 2 33.8542 96.6212 55.0955 0.0000 -1.9746 0.0000
# 3 47.1809 55.0955 101.4217 0.0000 -14.3961 0.0000
# 4 0.0000 0.0000 0.0000 30.4078 0.0000 -0.2884
# 5 -6.5963 -1.9746 -14.3961 0.0000 30.0170 0.0000
# 6 0.0000 0.0000 0.0000 -0.2884 0.0000 12.3270
#
#
#
# Elastic Compliance Matrix: (Units=1/GPa)
#
#
# Indices 1 2 3 4 5 6 
#
# 1 0.027172 -0.003405 -0.010704 0.000000 0.000614 0.000000
# 2 -0.003405 0.015701 -0.007409 0.000000 -0.003269 0.000000
# 3 -0.010704 -0.007409 0.019810 0.000000 0.006661 0.000000
# 4 0.000000 0.000000 0.000000 0.032894 0.000000 0.000770
# 5 0.000614 -0.003269 0.006661 0.000000 0.036429 0.000000
# 6 0.000000 0.000000 0.000000 0.000770 0.000000 0.081141
#
#
# Mechanical properties :
#
#
# Convention : Reuss Voigt Hill
#
# Bulk Modulus (GPa) = 50.89768 58.89806 54.89787
# Shear Modulus (GPa) = 19.03087 22.66308 20.84697
#
# Velocity S-wave (km/s) = 3.26650 3.56462 3.41881
# Velocity P-wave (km/s) = 6.53938 7.06855 6.80911
#
# Compressibility (1/GPa) = 0.01964726
#
# Stress axis : x y z
#
# Youngs Moduli (GPa) = 36.80201 63.69120 50.48025
#
# Poissons Ratio (x) = 0.21684 0.54034
# Poissons Ratio (y) = 0.12529 0.37403
# Poissons Ratio (z) = 0.39393 0.47191
#
# Static dielectric constant tensor:
#      x y z
#    x 2.961310 0.000000 0.148350 
#    y 0.000000 3.436340 0.000000 
#    z 0.148350 0.000000 3.645850 
# 
# 
# High freq. dielectric constant tensor:
#      x y z
#    x 1.654090 0.000000 -0.004620 
#    y 0.000000 1.695680 0.000000 
#    z -0.004620 0.000000 1.695530 
# 
# From -- ./inp_files/159211.got.cif
#   From: 2010.06.25/outbox.cif.g09.slc.cpg/sg15_80_cif.got.tgz:159211.got - 2010.06.28 07:06:18.
