data_PCOD8144174
_publ_section_title
;
Structure prediction by ZEFSAII (Michael W. Deem and Ramdas Pophale) SiO2 
 PCOD8144174
Probable space group: C 2/C
;
_chemical_formula_sum "Si O2"
_cell_formula_units_Z 32
_cell_length_a 10.591556
_cell_length_b 12.109483
_cell_length_c 11.209952
_cell_angle_alpha 90.000000
_cell_angle_beta 96.340731
_cell_angle_gamma 90.000000
_cell_volume 1428.973749
_symmetry_space_group_name_H-M "C 2/C"
_symmetry_group_IT_number 15
_symmetry_cell_setting 'monoclinic'
loop_
_space_group_symop_operation_xyz
x,y,z
-x,y,1/2-z
-x,-y,-z
x,-y,1/2+z
1/2+x,1/2+y,z
1/2-x,1/2+y,1/2-z
1/2-x,1/2-y,-z
1/2+x,1/2-y,1/2+z
loop_
_atom_site_type_symbol
_atom_site_label
_atom_site_fract_x
_atom_site_fract_y
_atom_site_fract_z
Si Si1 0.009131 0.384086 0.939152
Si Si2 0.707617 0.106949 0.254672
Si Si3 0.568047 0.332813 0.573000
Si Si4 0.602175 0.525769 0.852932
O O1 0.124366 0.408644 0.862661
O O2 0.881574 0.342574 0.857551
O O3 0.029670 0.291363 0.040526
O O4 0.000000 0.500000 0.000000
O O5 0.829763 0.178463 0.308994
O O6 0.766546 0.993553 0.205586
O O7 0.449205 0.408528 0.600299
O O8 0.630043 0.387503 0.460752
O O9 0.500000 0.577803 0.750000
#
# Coordination Sequence:
#
# PCOD8144174 Si02
#       4
#     8   8   8   8
#     4  11  24  42  59  96 132 161 200 256 322 369
#     4  10  22  41  62  92 122 168 205 247 314 363
#     4  10  21  42  64  91 123 161 211 258 302 367
#     4   9  20  40  66  91 118 161 216 256 297 363
#
# _framework density 22.393692999999999
#
# number of rings (size 3 to 8) (size 9 to 14) (size 15 to 20)
#    0.000    2.000    0.000    2.250    3.500    1.000 
#   27.000    0.000    0.000    0.000    0.000    0.000 
#    0.000    0.000    0.000    0.000    0.000    0.000 
#
# Total GULP energy -198246.318584 kJ/mol
# GULP energy per Si atom -12390.394912 kJ/mol
# Density = 2.234272 g / cm^3
# Si number density = 22.393693 Si / 1000 Ang^3
#
#
#
# Elastic Constant Matrix: (Units=GPa)
#
#
# Indices 1 2 3 4 5 6 
#
# 1 65.4347 18.8466 13.8819 0.0000 17.2753 0.0000
# 2 18.8466 130.9564 51.9023 0.0000 14.5596 0.0000
# 3 13.8819 51.9023 107.6940 0.0000 18.7902 0.0000
# 4 0.0000 0.0000 0.0000 19.2371 0.0000 -1.5333
# 5 17.2753 14.5596 18.7902 0.0000 29.3421 0.0000
# 6 0.0000 0.0000 0.0000 -1.5333 0.0000 11.9884
#
#
#
# Elastic Compliance Matrix: (Units=1/GPa)
#
#
# Indices 1 2 3 4 5 6 
#
# 1 0.018381 -0.001582 0.000163 0.000000 -0.010141 0.000000
# 2 -0.001582 0.009680 -0.004262 0.000000 -0.001142 0.000000
# 3 0.000163 -0.004262 0.012346 0.000000 -0.005887 0.000000
# 4 0.000000 0.000000 0.000000 0.052518 0.000000 0.006717
# 5 -0.010141 -0.001142 -0.005887 0.000000 0.044388 0.000000
# 6 0.000000 0.000000 0.000000 0.006717 0.000000 0.084273
#
#
# Mechanical properties :
#
#
# Convention : Reuss Voigt Hill
#
# Bulk Modulus (GPa) = 34.43115 52.59409 43.51262
# Shear Modulus (GPa) = 20.60751 26.74382 23.67567
#
# Velocity S-wave (km/s) = 3.03683 3.45955 3.25506
# Velocity P-wave (km/s) = 5.26358 6.28451 5.79656
#
# Compressibility (1/GPa) = 0.02904347
#
# Stress axis : x y z
#
# Youngs Moduli (GPa) = 54.40417 103.30591 80.99955
#
# Poissons Ratio (x) = 0.16346 -0.01317
# Poissons Ratio (y) = 0.08608 0.34521
# Poissons Ratio (z) = -0.00885 0.44028
#
# Static dielectric constant tensor:
#      x y z
#    x 4.446830 0.000000 0.009930 
#    y 0.000000 3.597880 0.000000 
#    z 0.009930 0.000000 4.498670 
# 
# 
# High freq. dielectric constant tensor:
#      x y z
#    x 1.889040 0.000000 0.003300 
#    y 0.000000 1.842640 0.000000 
#    z 0.003300 0.000000 1.906410 
# 
# From -- ./inp_files/83952.got.cif
#   From: 2010.06.25/outbox.cif.g09.slc.cpg/sg15_42_cif.got.tgz:83952.got - 2010.06.28 07:06:18.
