data_PCOD8144176
_publ_section_title
;
Structure prediction by ZEFSAII (Michael W. Deem and Ramdas Pophale) SiO2 
 PCOD8144176
Probable space group: C 2/C
;
_chemical_formula_sum "Si O2"
_cell_formula_units_Z 52
_cell_length_a 28.067426
_cell_length_b 16.239431
_cell_length_c 11.700188
_cell_angle_alpha 90.000000
_cell_angle_beta 27.112768
_cell_angle_gamma 90.000000
_cell_volume 2430.448946
_symmetry_space_group_name_H-M "C 2/C"
_symmetry_group_IT_number 15
_symmetry_cell_setting 'monoclinic'
loop_
_space_group_symop_operation_xyz
x,y,z
-x,y,1/2-z
-x,-y,-z
x,-y,1/2+z
1/2+x,1/2+y,z
1/2-x,1/2+y,1/2-z
1/2-x,1/2-y,-z
1/2+x,1/2-y,1/2+z
loop_
_atom_site_type_symbol
_atom_site_label
_atom_site_fract_x
_atom_site_fract_y
_atom_site_fract_z
Si Si1 0.935557 0.851679 0.611054
Si Si2 0.521994 0.182027 0.071954
Si Si3 0.673685 0.567604 0.961857
Si Si4 0.395520 0.982796 0.046922
Si Si5 0.000000 0.054518 0.750000
Si Si6 0.650782 0.850547 0.728857
Si Si7 0.866803 0.174831 0.664466
O O1 0.918146 0.754755 0.623336
O O2 0.950724 0.891632 0.455522
O O3 0.031949 0.864851 0.492729
O O4 0.838649 0.894894 0.883387
O O5 0.500000 0.205276 0.250000
O O6 0.406797 0.166976 0.267389
O O7 0.591788 0.100220 0.905152
O O8 0.789773 0.529291 0.698641
O O9 0.651871 0.641652 0.921767
O O10 0.591827 0.496309 0.112257
O O11 0.388242 0.063510 0.138672
O O12 0.500000 0.991643 0.750000
O O13 0.774109 0.853406 0.446072
O O14 0.625131 0.773783 0.867371
#
# Coordination Sequence:
#
# PCOD8144176 Si02
#       7
#     8   8   8   8   4   8   8
#     4  11  23  42  67  98 131 175 220 279 347 402
#     4  10  21  42  64  91 136 177 220 279 330 397
#     4  12  25  42  67  99 137 168 226 283 333 405
#     4  11  25  44  65  98 134 181 227 273 329 399
#     4  12  24  42  70  98 136 166 224 280 344 408
#     4  10  22  40  70  95 132 182 228 268 338 401
#     4  10  21  42  68  99 135 176 219 282 339 398
#
# _framework density 21.395223999999999
#
# number of rings (size 3 to 8) (size 9 to 14) (size 15 to 20)
#    0.000    1.231    2.308    3.692    2.154    3.077 
#    2.769    0.000    0.000    0.000    0.000    0.000 
#    0.000    0.000    0.000    0.000    0.000    0.000 
#
# Total GULP energy -322371.607140 kJ/mol
# GULP energy per Si atom -12398.907967 kJ/mol
# Density = 2.134653 g / cm^3
# Si number density = 21.395224 Si / 1000 Ang^3
#
#
#
# Elastic Constant Matrix: (Units=GPa)
#
#
# Indices 1 2 3 4 5 6 
#
# 1 97.3721 49.8976 32.0257 0.0000 14.6460 0.0000
# 2 49.8976 141.0211 51.8863 0.0000 10.3223 0.0000
# 3 32.0257 51.8863 96.6802 0.0000 2.1606 0.0000
# 4 0.0000 0.0000 0.0000 26.7596 0.0000 5.9906
# 5 14.6460 10.3223 2.1606 0.0000 37.3837 0.0000
# 6 0.0000 0.0000 0.0000 5.9906 0.0000 22.3446
#
#
#
# Elastic Compliance Matrix: (Units=1/GPa)
#
#
# Indices 1 2 3 4 5 6 
#
# 1 0.013544 -0.003577 -0.002474 0.000000 -0.004176 0.000000
# 2 -0.003577 0.009959 -0.004135 0.000000 -0.001110 0.000000
# 3 -0.002474 -0.004135 0.013352 0.000000 0.001339 0.000000
# 4 0.000000 0.000000 0.000000 0.039756 0.000000 -0.010659
# 5 -0.004176 -0.001110 0.001339 0.000000 0.028615 0.000000
# 6 0.000000 0.000000 0.000000 -0.010659 0.000000 0.047611
#
#
# Mechanical properties :
#
#
# Convention : Reuss Voigt Hill
#
# Bulk Modulus (GPa) = 60.66331 66.96583 63.81457
# Shear Modulus (GPa) = 27.97917 30.71517 29.34717
#
# Velocity S-wave (km/s) = 3.62018 3.79305 3.70762
# Velocity P-wave (km/s) = 6.77418 7.10988 6.94406
#
# Compressibility (1/GPa) = 0.01648443
#
# Stress axis : x y z
#
# Youngs Moduli (GPa) = 73.83118 100.40716 74.89315
#
# Poissons Ratio (x) = 0.35911 0.18527
# Poissons Ratio (y) = 0.26406 0.30972
# Poissons Ratio (z) = 0.18265 0.41523
#
# Static dielectric constant tensor:
#      x y z
#    x 3.819010 0.000000 -0.160890 
#    y 0.000000 4.142370 0.000000 
#    z -0.160890 0.000000 3.817440 
# 
# 
# High freq. dielectric constant tensor:
#      x y z
#    x 1.838070 0.000000 -0.009320 
#    y 0.000000 1.856390 0.000000 
#    z -0.009320 0.000000 1.831520 
# 
# From -- ./inp_files/123878.got.cif
#   From: 2010.06.25/outbox.cif.g09.slc.cpg/sg15_62_cif.got.tgz:123878.got - 2010.06.28 07:06:18.
