data_PCOD8144391
_publ_section_title
;
Structure prediction by ZEFSAII (Michael W. Deem and Ramdas Pophale) SiO2 
 PCOD8144391
Probable space group: C 2/C
;
_chemical_formula_sum "Si O2"
_cell_formula_units_Z 56
_cell_length_a 29.436801
_cell_length_b 11.134494
_cell_length_c 15.912585
_cell_angle_alpha 90.000000
_cell_angle_beta 30.599181
_cell_angle_gamma 90.000000
_cell_volume 2654.877305
_symmetry_space_group_name_H-M "C 2/C"
_symmetry_group_IT_number 15
_symmetry_cell_setting 'monoclinic'
loop_
_space_group_symop_operation_xyz
x,y,z
-x,y,1/2-z
-x,-y,-z
x,-y,1/2+z
1/2+x,1/2+y,z
1/2-x,1/2+y,1/2-z
1/2-x,1/2-y,-z
1/2+x,1/2-y,1/2+z
loop_
_atom_site_type_symbol
_atom_site_label
_atom_site_fract_x
_atom_site_fract_y
_atom_site_fract_z
Si Si1 0.215881 0.617101 0.943496
Si Si2 0.309859 0.398573 0.865901
Si Si3 0.030786 0.699040 0.294083
Si Si4 0.494456 0.641256 0.004301
Si Si5 0.132688 0.545601 0.907371
Si Si6 0.720977 0.696056 0.916375
Si Si7 0.355193 0.769461 0.634786
O O1 0.289490 0.536751 0.874353
O O2 0.176131 0.540545 0.930171
O O3 0.267293 0.734312 0.827805
O O4 0.134396 0.658784 0.132918
O O5 0.392798 0.333751 0.689284
O O6 0.229741 0.318162 0.956681
O O7 0.321193 0.397017 0.949146
O O8 0.017581 0.814557 0.373844
O O9 0.000000 0.737553 0.250000
O O10 0.969749 0.589779 0.424967
O O11 0.556892 0.704423 0.972755
O O12 0.500000 0.500000 0.000000
O O13 0.187000 0.637141 0.762335
O O14 0.133411 0.411267 0.870864
O O15 0.654860 0.725336 0.945206
#
# Coordination Sequence:
#
# PCOD8144391 Si02
#       7
#     8   8   8   8   8   8   8
#     4  10  22  42  69  98 131 174 225 273 323 402
#     4  11  22  44  67  95 138 172 221 269 335 392
#     4  10  24  45  70  98 132 175 222 276 334 392
#     4  12  26  45  64  97 136 172 218 282 331 390
#     4  10  21  42  69  98 130 172 222 278 330 388
#     4  10  23  41  68  98 127 181 216 273 333 394
#     4  11  24  42  67  98 136 173 223 275 332 395
#
# _framework density 21.093253000000001
#
# number of rings (size 3 to 8) (size 9 to 14) (size 15 to 20)
#    0.000    1.429    4.286    0.000    2.000    5.143 
#    5.143    0.000    0.000    0.000    0.000    0.000 
#    0.000    0.000    0.000    0.000    0.000    0.000 
#
# Total GULP energy -347168.232839 kJ/mol
# GULP energy per Si atom -12398.865459 kJ/mol
# Density = 2.104524 g / cm^3
# Si number density = 21.093253 Si / 1000 Ang^3
#
#
#
# Elastic Constant Matrix: (Units=GPa)
#
#
# Indices 1 2 3 4 5 6 
#
# 1 102.5474 50.7516 45.0801 0.0000 8.1563 0.0000
# 2 50.7516 134.1105 47.8341 0.0000 5.7491 0.0000
# 3 45.0801 47.8341 126.8056 0.0000 6.7301 0.0000
# 4 0.0000 0.0000 0.0000 29.9580 0.0000 0.5652
# 5 8.1563 5.7491 6.7301 0.0000 35.3528 0.0000
# 6 0.0000 0.0000 0.0000 0.5652 0.0000 31.6034
#
#
#
# Elastic Compliance Matrix: (Units=1/GPa)
#
#
# Indices 1 2 3 4 5 6 
#
# 1 0.013151 -0.003773 -0.003155 0.000000 -0.001820 0.000000
# 2 -0.003773 0.009720 -0.002311 0.000000 -0.000270 0.000000
# 3 -0.003155 -0.002311 0.009921 0.000000 -0.000785 0.000000
# 4 0.000000 0.000000 0.000000 0.033391 0.000000 -0.000597
# 5 -0.001820 -0.000270 -0.000785 0.000000 0.028900 0.000000
# 6 0.000000 0.000000 0.000000 -0.000597 0.000000 0.031653
#
#
# Mechanical properties :
#
#
# Convention : Reuss Voigt Hill
#
# Bulk Modulus (GPa) = 69.86474 72.31056 71.08765
# Shear Modulus (GPa) = 33.33644 34.03603 33.68623
#
# Velocity S-wave (km/s) = 3.97978 4.02132 4.00060
# Velocity P-wave (km/s) = 7.36966 7.47778 7.42392
#
# Compressibility (1/GPa) = 0.01431337
#
# Stress axis : x y z
#
# Youngs Moduli (GPa) = 76.04100 102.87727 100.79423
#
# Poissons Ratio (x) = 0.38818 0.31803
# Poissons Ratio (y) = 0.28692 0.23293
# Poissons Ratio (z) = 0.23993 0.23775
#
# Static dielectric constant tensor:
#      x y z
#    x 0.000000 0.000000 0.000000 
#    y 0.000000 0.000000 0.000000 
#    z 0.000000 0.000000 0.000000 
# 
# 
# High freq. dielectric constant tensor:
#      x y z
#    x 1.827500 0.000000 0.004870 
#    y 0.000000 1.825060 0.000000 
#    z 0.004870 0.000000 1.830420 
# 
# From -- ./inp_files/181893.got.cif
#   From: 2010.06.25/outbox.cif.g09.slc.cpg/sg15_91_cif.got.tgz:181893.got - 2010.06.28 07:06:18.
