data_PCOD8144020
_publ_section_title
;
Structure prediction by ZEFSAII (Michael W. Deem and Ramdas Pophale) SiO2 
 PCOD8144020
Probable space group: C 2/C
;
_chemical_formula_sum "Si O2"
_cell_formula_units_Z 64
_cell_length_a 19.963812
_cell_length_b 14.070885
_cell_length_c 10.377293
_cell_angle_alpha 90.000000
_cell_angle_beta 76.756329
_cell_angle_gamma 90.000000
_cell_volume 2837.542305
_symmetry_space_group_name_H-M "C 2/C"
_symmetry_group_IT_number 15
_symmetry_cell_setting 'monoclinic'
loop_
_space_group_symop_operation_xyz
x,y,z
-x,y,1/2-z
-x,-y,-z
x,-y,1/2+z
1/2+x,1/2+y,z
1/2-x,1/2+y,1/2-z
1/2-x,1/2-y,-z
1/2+x,1/2-y,1/2+z
loop_
_atom_site_type_symbol
_atom_site_label
_atom_site_fract_x
_atom_site_fract_y
_atom_site_fract_z
Si Si1 0.868628 0.210729 0.357876
Si Si2 0.391260 0.168836 0.493952
Si Si3 0.186982 0.388622 0.240626
Si Si4 0.400226 0.628382 0.071236
Si Si5 0.029969 0.868386 0.369829
Si Si6 0.539986 0.176730 0.482807
Si Si7 0.077481 0.454907 0.755247
Si Si8 0.167065 0.061268 0.915187
O O1 0.812974 0.287097 0.332680
O O2 0.900164 0.155794 0.222141
O O3 0.925426 0.272919 0.409696
O O4 0.832357 0.130802 0.461561
O O5 0.327355 0.124904 0.601111
O O6 0.381740 0.282204 0.488392
O O7 0.461079 0.145516 0.547726
O O8 0.394417 0.127270 0.350532
O O9 0.127374 0.456461 0.210984
O O10 0.261442 0.433980 0.191801
O O11 0.345286 0.549616 0.049230
O O12 0.478887 0.596172 0.007106
O O13 0.035003 0.754021 0.370014
O O14 0.105198 0.912304 0.347734
O O15 0.000000 0.905653 0.250000
O O16 0.580311 0.086491 0.401540
O O17 0.000000 0.485456 0.750000
#
# Coordination Sequence:
#
# PCOD8144020 Si02
#       8
#     8   8   8   8   8   8   8   8
#     4  10  24  44  69  96 137 175 224 278 336 394
#     4   9  21  41  64  94 133 168 220 278 329 398
#     4  11  25  41  64  97 138 178 223 270 336 400
#     4  10  22  43  68  95 125 169 226 278 327 398
#     4  10  21  41  69  95 128 164 220 277 332 390
#     4   9  19  39  69  98 126 169 219 275 332 386
#     4  10  22  40  68  97 134 174 225 280 331 397
#     4  11  25  44  63  97 132 177 221 272 339 400
#
# _framework density 22.554731
#
# number of rings (size 3 to 8) (size 9 to 14) (size 15 to 20)
#    0.000    2.000    0.000    2.625    5.250    9.500 
#    9.000    0.625    0.000    0.000    0.000    0.000 
#    0.000    0.000    0.000    0.000    0.000    0.000 
#
# Total GULP energy -396645.309306 kJ/mol
# GULP energy per Si atom -12395.165916 kJ/mol
# Density = 2.250340 g / cm^3
# Si number density = 22.554731 Si / 1000 Ang^3
#
#
#
# Elastic Constant Matrix: (Units=GPa)
#
#
# Indices 1 2 3 4 5 6 
#
# 1 103.7379 51.1128 55.5231 0.0000 -31.0438 0.0000
# 2 51.1128 107.2461 42.7074 0.0000 -15.4540 0.0000
# 3 55.5231 42.7074 99.2259 0.0000 -15.4217 0.0000
# 4 0.0000 0.0000 0.0000 26.5177 0.0000 -6.8247
# 5 -31.0438 -15.4540 -15.4217 0.0000 34.5105 0.0000
# 6 0.0000 0.0000 0.0000 -6.8247 0.0000 24.2234
#
#
#
# Elastic Compliance Matrix: (Units=1/GPa)
#
#
# Indices 1 2 3 4 5 6 
#
# 1 0.019270 -0.004695 -0.006872 0.000000 0.012161 0.000000
# 2 -0.004695 0.012712 -0.002811 0.000000 0.000213 0.000000
# 3 -0.006872 -0.002811 0.015020 0.000000 -0.000729 0.000000
# 4 0.000000 0.000000 0.000000 0.040659 0.000000 0.011455
# 5 0.012161 0.000213 -0.000729 0.000000 0.039686 0.000000
# 6 0.000000 0.000000 0.000000 0.011455 0.000000 0.044510
#
#
# Mechanical properties :
#
#
# Convention : Reuss Voigt Hill
#
# Bulk Modulus (GPa) = 54.80659 67.65516 61.23088
# Shear Modulus (GPa) = 24.19017 27.77477 25.98247
#
# Velocity S-wave (km/s) = 3.27847 3.51299 3.39776
# Velocity P-wave (km/s) = 6.21959 6.82026 6.52684
#
# Compressibility (1/GPa) = 0.01824598
#
# Stress axis : x y z
#
# Youngs Moduli (GPa) = 51.89312 78.66516 66.57773
#
# Poissons Ratio (x) = 0.36934 0.45753
# Poissons Ratio (y) = 0.24365 0.18715
# Poissons Ratio (z) = 0.35661 0.22113
#
# Static dielectric constant tensor:
#      x y z
#    x 3.639490 0.000000 -0.197900 
#    y 0.000000 4.327710 0.000000 
#    z -0.197900 0.000000 3.973740 
# 
# 
# High freq. dielectric constant tensor:
#      x y z
#    x 1.852140 0.000000 -0.014140 
#    y 0.000000 1.905970 0.000000 
#    z -0.014140 0.000000 1.891690 
# 
# From -- ./inp_files/112729.got.cif
#   From: 2010.06.25/outbox.cif.g09.slc.cpg/sg15_57_cif.got.tgz:112729.got - 2010.06.28 07:06:18.
