data_PCOD8144288
_publ_section_title
;
Structure prediction by ZEFSAII (Michael W. Deem and Ramdas Pophale) SiO2 
 PCOD8144288
Probable space group: C 2/C
;
_chemical_formula_sum "Si O2"
_cell_formula_units_Z 28
_cell_length_a 7.185748
_cell_length_b 24.082155
_cell_length_c 7.587828
_cell_angle_alpha 90.000000
_cell_angle_beta 57.654355
_cell_angle_gamma 90.000000
_cell_volume 1109.320791
_symmetry_space_group_name_H-M "C 2/C"
_symmetry_group_IT_number 15
_symmetry_cell_setting 'monoclinic'
loop_
_space_group_symop_operation_xyz
x,y,z
-x,y,1/2-z
-x,-y,-z
x,-y,1/2+z
1/2+x,1/2+y,z
1/2-x,1/2+y,1/2-z
1/2-x,1/2-y,-z
1/2+x,1/2-y,1/2+z
loop_
_atom_site_type_symbol
_atom_site_label
_atom_site_fract_x
_atom_site_fract_y
_atom_site_fract_z
Si Si1 0.205624 0.796457 0.264492
Si Si2 0.815390 0.678879 0.093455
Si Si3 0.757680 0.435470 0.804992
Si Si4 0.000000 0.025025 0.750000
O O1 0.236470 0.729480 0.245895
O O2 0.176458 0.814054 0.483493
O O3 0.000000 0.815247 0.250000
O O4 0.422921 0.824656 0.073753
O O5 0.732561 0.622760 0.221298
O O6 0.704527 0.485937 0.700282
O O7 0.000000 0.445908 0.750000
O O8 0.579027 0.435285 0.052922
#
# Coordination Sequence:
#
# PCOD8144288 Si02
#       4
#     8   8   8   4
#     4  10  21  42  67 106 153 194 235 295 349 437
#     4  10  23  41  69 108 147 189 245 290 357 434
#     4  11  24  50  75 109 141 186 242 308 361 437
#     4  10  26  50  78 104 140 188 244 306 374 422
#
# _framework density 25.240669
#
# number of rings (size 3 to 8) (size 9 to 14) (size 15 to 20)
#    0.000    1.714    0.000    2.571    0.000    6.857 
#   33.429    0.000    0.000    0.000    0.000    0.000 
#    0.000    0.000    0.000    0.000    0.000    0.000 
#
# Total GULP energy -173700.049784 kJ/mol
# GULP energy per Si atom -12407.146413 kJ/mol
# Density = 2.518322 g / cm^3
# Si number density = 25.240669 Si / 1000 Ang^3
#
#
#
# Elastic Constant Matrix: (Units=GPa)
#
#
# Indices 1 2 3 4 5 6 
#
# 1 202.9001 45.4586 25.1855 0.0000 4.9772 0.0000
# 2 45.4586 152.5399 74.7599 0.0000 3.9759 0.0000
# 3 25.1855 74.7599 78.5622 0.0000 11.3293 0.0000
# 4 0.0000 0.0000 0.0000 66.9157 0.0000 238.5014
# 5 4.9772 3.9759 11.3293 0.0000 30.4474 0.0000
# 6 0.0000 0.0000 0.0000 238.5014 0.0000 3419.7612
#
#
#
# Elastic Compliance Matrix: (Units=1/GPa)
#
#
# Indices 1 2 3 4 5 6 
#
# 1 0.005297 -0.001448 -0.000235 0.000000 -0.000589 0.000000
# 2 -0.001448 0.012928 -0.012289 0.000000 0.003121 0.000000
# 3 -0.000235 -0.012289 0.025637 0.000000 -0.007896 0.000000
# 4 0.000000 0.000000 0.000000 0.019888 0.000000 -0.001387
# 5 -0.000589 0.003121 -0.007896 0.000000 0.035470 0.000000
# 6 0.000000 0.000000 0.000000 -0.001387 0.000000 0.000389
#
#
# Mechanical properties :
#
#
# Convention : Reuss Voigt Hill
#
# Bulk Modulus (GPa) = 62.82065 80.53445 71.67755
# Shear Modulus (GPa) = 37.63394 722.66475 380.14934
#
# Velocity S-wave (km/s) = 3.86554 16.93904 12.28563
# Velocity P-wave (km/s) = 6.69820 20.36052 15.15613
#
# Compressibility (1/GPa) = 0.01591833
#
# Stress axis : x y z
#
# Youngs Moduli (GPa) = 188.80196 77.34881 39.00636
#
# Poissons Ratio (x) = 0.11198 0.00918
# Poissons Ratio (y) = 0.27334 0.47934
# Poissons Ratio (z) = 0.04443 0.95052
#
# Static dielectric constant tensor:
#      x y z
#    x 4.782280 0.000000 0.165580 
#    y 0.000000 4.342730 0.000000 
#    z 0.165580 0.000000 4.515740 
# 
# 
# High freq. dielectric constant tensor:
#      x y z
#    x 2.028300 0.000000 0.001220 
#    y 0.000000 1.996880 0.000000 
#    z 0.001220 0.000000 2.012260 
# 
# From -- ./inp_files/22460.got.cif
#   From: 2010.06.25/outbox.cif.g09.slc.cpg/sg15_12_cif.got.tgz:22460.got - 2010.06.28 07:06:18.
