data_PCOD8144256
_publ_section_title
;
Structure prediction by ZEFSAII (Michael W. Deem and Ramdas Pophale) SiO2 
 PCOD8144256
Probable space group: C 2/C
;
_chemical_formula_sum "Si O2"
_cell_formula_units_Z 56
_cell_length_a 16.594735
_cell_length_b 19.248739
_cell_length_c 15.334608
_cell_angle_alpha 90.000000
_cell_angle_beta 32.856608
_cell_angle_gamma 90.000000
_cell_volume 2657.515364
_symmetry_space_group_name_H-M "C 2/C"
_symmetry_group_IT_number 15
_symmetry_cell_setting 'monoclinic'
loop_
_space_group_symop_operation_xyz
x,y,z
-x,y,1/2-z
-x,-y,-z
x,-y,1/2+z
1/2+x,1/2+y,z
1/2-x,1/2+y,1/2-z
1/2-x,1/2-y,-z
1/2+x,1/2-y,1/2+z
loop_
_atom_site_type_symbol
_atom_site_label
_atom_site_fract_x
_atom_site_fract_y
_atom_site_fract_z
Si Si1 0.925642 0.118645 0.904409
Si Si2 0.942844 0.026101 0.458531
Si Si3 0.934243 0.228082 0.601361
Si Si4 0.343824 0.089516 0.859943
Si Si5 0.849826 0.715112 0.732754
Si Si6 0.342138 0.198089 0.355573
Si Si7 0.374783 0.357245 0.799619
O O1 0.000000 0.151142 0.750000
O O2 0.970003 0.166088 0.945927
O O3 0.747235 0.125305 0.062309
O O4 0.973660 0.039160 0.867577
O O5 0.766189 0.045819 0.605718
O O6 0.050511 0.088358 0.334175
O O7 0.000000 0.000000 0.500000
O O8 0.807815 0.188964 0.660960
O O9 0.854250 0.274102 0.746901
O O10 0.029523 0.279500 0.453731
O O11 0.500000 0.052856 0.750000
O O12 0.397602 0.159825 0.762197
O O13 0.255584 0.105969 0.028646
O O14 0.814605 0.791351 0.802729
O O15 0.500000 0.180251 0.250000
O O16 0.250000 0.250000 0.500000
O O17 0.500000 0.327797 0.750000
#
# Coordination Sequence:
#
# PCOD8144256 Si02
#       7
#     8   8   8   8   8   8   8
#     4  12  23  41  67  90 127 174 214 262 325 393
#     4  11  25  46  68  95 127 174 224 269 323 398
#     4  12  22  35  61  96 132 158 212 267 322 372
#     4  11  23  42  65  93 132 168 217 267 325 388
#     4  12  22  36  63  98 129 167 206 273 328 363
#     4  12  21  40  59  93 132 169 211 266 315 392
#     4  10  21  42  66  92 127 170 221 255 312 402
#
# _framework density 21.072313999999999
#
# number of rings (size 3 to 8) (size 9 to 14) (size 15 to 20)
#    0.000    0.571    4.286    6.429    0.000    0.571 
#    0.000    0.714    0.000    0.000    0.000    0.000 
#    0.000    0.000    0.000    0.000    0.000    0.000 
#
# Total GULP energy -347078.631290 kJ/mol
# GULP energy per Si atom -12395.665403 kJ/mol
# Density = 2.102435 g / cm^3
# Si number density = 21.072314 Si / 1000 Ang^3
#
#
#
# Elastic Constant Matrix: (Units=GPa)
#
#
# Indices 1 2 3 4 5 6 
#
# 1 133.2860 29.1465 57.1335 0.0085 -14.6249 -0.0028
# 2 29.1465 70.9055 20.1263 0.0093 3.9496 -0.0055
# 3 57.1335 20.1263 114.2069 0.0079 -5.8638 -0.0045
# 4 0.0085 0.0093 0.0079 23.3610 -0.0085 0.0412
# 5 -14.6249 3.9496 -5.8638 -0.0085 43.0799 0.0043
# 6 -0.0028 -0.0055 -0.0045 0.0412 0.0043 26.8519
#
#
#
# Elastic Compliance Matrix: (Units=1/GPa)
#
#
# Indices 1 2 3 4 5 6 
#
# 1 0.010498 -0.003213 -0.004519 0.000000 0.003244 -0.000001
# 2 -0.003213 0.015959 -0.001345 -0.000006 -0.002737 0.000003
# 3 -0.004519 -0.001345 0.011260 -0.000002 0.000122 0.000001
# 4 0.000000 -0.000006 -0.000002 0.042807 0.000009 -0.000066
# 5 0.003244 -0.002737 0.000122 0.000009 0.024581 -0.000004
# 6 -0.000001 0.000003 0.000001 -0.000066 -0.000004 0.037241
#
#
# Mechanical properties :
#
#
# Convention : Reuss Voigt Hill
#
# Bulk Modulus (GPa) = 51.12124 59.02345 55.07235
# Shear Modulus (GPa) = 29.93611 32.79138 31.36375
#
# Velocity S-wave (km/s) = 3.77322 3.94907 3.86215
# Velocity P-wave (km/s) = 6.57993 6.99030 6.78822
#
# Compressibility (1/GPa) = 0.01956134
#
# Stress axis : x y z
#
# Youngs Moduli (GPa) = 95.25262 62.66252 88.80900
#
# Poissons Ratio (x) = 0.20136 0.40134
# Poissons Ratio (y) = 0.30609 0.11947
# Poissons Ratio (z) = 0.43046 0.08430
#
# Static dielectric constant tensor:
#      x y z
#    x 4.128120 -0.000010 -0.109350 
#    y -0.000010 3.672610 0.000010 
#    z -0.109350 0.000010 3.927550 
# 
# 
# High freq. dielectric constant tensor:
#      x y z
#    x 1.844770 0.000000 -0.000010 
#    y 0.000000 1.805330 0.000000 
#    z -0.000010 0.000000 1.832410 
# 
# From -- ./inp_files/50341.got.cif
#   From: 2010.06.25/outbox.cif.g09.slc.cpg/sg15_26_cif.got.tgz:50341.got - 2010.06.28 07:06:18.
