data_PCOD8144439
_publ_section_title
;
Structure prediction by ZEFSAII (Michael W. Deem and Ramdas Pophale) SiO2 
 PCOD8144439
Probable space group: C 2/C
;
_chemical_formula_sum "Si O2"
_cell_formula_units_Z 40
_cell_length_a 14.172027
_cell_length_b 14.588816
_cell_length_c 9.212229
_cell_angle_alpha 90.000000
_cell_angle_beta 115.070025
_cell_angle_gamma 90.000000
_cell_volume 1725.220272
_symmetry_space_group_name_H-M "C 2/C"
_symmetry_group_IT_number 15
_symmetry_cell_setting 'monoclinic'
loop_
_space_group_symop_operation_xyz
x,y,z
-x,y,1/2-z
-x,-y,-z
x,-y,1/2+z
1/2+x,1/2+y,z
1/2-x,1/2+y,1/2-z
1/2-x,1/2-y,-z
1/2+x,1/2-y,1/2+z
loop_
_atom_site_type_symbol
_atom_site_label
_atom_site_fract_x
_atom_site_fract_y
_atom_site_fract_z
Si Si1 0.979814 0.761983 0.469607
Si Si2 0.847696 0.802405 0.125796
Si Si3 0.100336 0.921038 0.896358
Si Si4 0.444792 0.928591 0.364928
Si Si5 0.710781 0.480434 0.246664
O O1 0.891541 0.741763 0.290167
O O2 0.927739 0.816913 0.571269
O O3 0.068239 0.821188 0.446224
O O4 0.040463 0.671857 0.559771
O O5 0.816328 0.902141 0.156498
O O6 0.750000 0.750000 0.000000
O O7 0.000000 0.965308 0.750000
O O8 0.191729 0.926189 0.830428
O O9 0.133831 0.979174 0.058850
O O10 0.500000 0.931291 0.250000
O O11 0.326801 0.962173 0.266899
O O12 0.500000 0.000000 0.500000
#
# Coordination Sequence:
#
# PCOD8144439 Si02
#       5
#     8   8   8   8   8
#     4  10  24  44  71 105 140 186 230 295 346 416
#     4  10  21  42  73 102 142 184 233 280 358 421
#     4  11  25  45  70 106 147 182 234 292 350 420
#     4  12  27  49  71 101 143 183 239 292 351 419
#     4  11  25  44  71 106 138 189 231 284 358 417
#
# _framework density 23.185445999999999
#
# number of rings (size 3 to 8) (size 9 to 14) (size 15 to 20)
#    0.000    1.200    2.000    2.400   11.200    1.600 
#    3.600    6.000    0.000    0.000    0.000    0.000 
#    0.000    0.000    0.000    0.000    0.000    0.000 
#
# Total GULP energy -247848.157624 kJ/mol
# GULP energy per Si atom -12392.407881 kJ/mol
# Density = 2.313268 g / cm^3
# Si number density = 23.185446 Si / 1000 Ang^3
#
#
#
# Elastic Constant Matrix: (Units=GPa)
#
#
# Indices 1 2 3 4 5 6 
#
# 1 153.9245 45.5481 62.3519 0.0000 3.8702 0.0000
# 2 45.5481 61.2389 45.1475 0.0000 -3.1906 0.0000
# 3 62.3519 45.1475 147.2138 0.0000 17.7418 0.0000
# 4 0.0000 0.0000 0.0000 31.4106 0.0000 -8.0069
# 5 3.8702 -3.1906 17.7418 0.0000 41.1313 0.0000
# 6 0.0000 0.0000 0.0000 -8.0069 0.0000 36.6553
#
#
#
# Elastic Compliance Matrix: (Units=1/GPa)
#
#
# Indices 1 2 3 4 5 6 
#
# 1 0.008870 -0.004996 -0.002191 0.000000 -0.000277 0.000000
# 2 -0.004996 0.024801 -0.006095 0.000000 0.005023 0.000000
# 3 -0.002191 -0.006095 0.010150 0.000000 -0.004645 0.000000
# 4 0.000000 0.000000 0.000000 0.033714 0.000000 0.007364
# 5 -0.000277 0.005023 -0.004645 0.000000 0.026732 0.000000
# 6 0.000000 0.000000 0.000000 0.007364 0.000000 0.028890
#
#
# Mechanical properties :
#
#
# Convention : Reuss Voigt Hill
#
# Bulk Modulus (GPa) = 57.95240 74.27469 66.11355
# Shear Modulus (GPa) = 30.21658 35.79475 33.00566
#
# Velocity S-wave (km/s) = 3.61398 3.93344 3.77709
# Velocity P-wave (km/s) = 6.51643 7.26181 6.89920
#
# Compressibility (1/GPa) = 0.01725554
#
# Stress axis : x y z
#
# Youngs Moduli (GPa) = 112.74416 40.32130 98.52281
#
# Poissons Ratio (x) = 0.20145 0.21588
# Poissons Ratio (y) = 0.56328 0.60052
# Poissons Ratio (z) = 0.24704 0.24577
#
# Static dielectric constant tensor:
#      x y z
#    x -0.634230 0.000000 -0.186630 
#    y 0.000000 4.864930 0.000000 
#    z -0.186630 0.000000 4.309630 
# 
# 
# High freq. dielectric constant tensor:
#      x y z
#    x 1.923050 0.000000 -0.002310 
#    y 0.000000 1.892050 0.000000 
#    z -0.002310 0.000000 1.945230 
# 
# From -- ./inp_files/38049.got.cif
#   From: 2010.06.25/outbox.cif.g09.slc.cpg/sg15_20_cif.got.tgz:38049.got - 2010.06.28 07:06:18.
