data_PCOD8144949
_publ_section_title
;
Structure prediction by ZEFSAII (Michael W. Deem and Ramdas Pophale) SiO2 
 PCOD8144949
Probable space group: C 2/C
;
_chemical_formula_sum "Si O2"
_cell_formula_units_Z 44
_cell_length_a 23.663162
_cell_length_b 11.151142
_cell_length_c 9.041360
_cell_angle_alpha 90.000000
_cell_angle_beta 121.683301
_cell_angle_gamma 90.000000
_cell_volume 2030.192349
_symmetry_space_group_name_H-M "C 2/C"
_symmetry_group_IT_number 15
_symmetry_cell_setting 'monoclinic'
loop_
_space_group_symop_operation_xyz
x,y,z
-x,y,1/2-z
-x,-y,-z
x,-y,1/2+z
1/2+x,1/2+y,z
1/2-x,1/2+y,1/2-z
1/2-x,1/2-y,-z
1/2+x,1/2-y,1/2+z
loop_
_atom_site_type_symbol
_atom_site_label
_atom_site_fract_x
_atom_site_fract_y
_atom_site_fract_z
Si Si1 0.857665 0.643626 0.902310
Si Si2 0.582169 0.612721 0.098012
Si Si3 0.783908 0.751738 0.340763
Si Si4 0.289245 0.436474 0.575606
Si Si5 0.500000 0.480855 0.750000
Si Si6 0.329242 0.918544 0.674019
O O1 0.905807 0.745876 0.905971
O O2 0.783412 0.693046 0.814144
O O3 0.863161 0.529340 0.804200
O O4 0.874793 0.605141 0.093469
O O5 0.650144 0.538377 0.228650
O O6 0.531269 0.600317 0.163909
O O7 0.555368 0.563362 0.905182
O O8 0.769633 0.639543 0.428732
O O9 0.820420 0.857057 0.483860
O O10 0.830713 0.702761 0.274305
O O11 0.249945 0.554901 0.467961
#
# Coordination Sequence:
#
# PCOD8144949 Si02
#       6
#     8   8   8   8   4   8
#     4  10  22  35  58  90 131 161 202 231 302 365
#     4  10  23  43  65  92 111 160 207 269 303 350
#     4   9  18  33  51  88 131 167 191 223 279 386
#     4   9  19  33  57  89 127 159 194 234 298 363
#     4  10  24  48  68  82 114 148 220 280 310 330
#     4  11  19  35  56  94 136 165 187 232 288 393
#
# _framework density 21.672823000000001
#
# number of rings (size 3 to 8) (size 9 to 14) (size 15 to 20)
#    0.000    2.182    1.818    1.636    5.091    0.000 
#    6.545    0.000    0.000    3.273    0.000    0.000 
#    0.000    0.000    0.000    0.000    0.000    0.000 
#
# Total GULP energy -272737.701033 kJ/mol
# GULP energy per Si atom -12397.168229 kJ/mol
# Density = 2.162349 g / cm^3
# Si number density = 21.672823 Si / 1000 Ang^3
#
#
#
# Elastic Constant Matrix: (Units=GPa)
#
#
# Indices 1 2 3 4 5 6 
#
# 1 46.1516 23.7987 36.6327 0.0000 -11.8270 0.0000
# 2 23.7987 67.6090 45.4058 0.0000 -14.0379 0.0000
# 3 36.6327 45.4058 129.4342 0.0000 -15.5868 0.0000
# 4 0.0000 0.0000 0.0000 25.6505 0.0000 -13.4089
# 5 -11.8270 -14.0379 -15.5868 0.0000 39.3769 0.0000
# 6 0.0000 0.0000 0.0000 -13.4089 0.0000 31.7811
#
#
#
# Elastic Compliance Matrix: (Units=1/GPa)
#
#
# Indices 1 2 3 4 5 6 
#
# 1 0.030679 -0.005709 -0.006107 0.000000 0.004762 0.000000
# 2 -0.005709 0.021174 -0.005365 0.000000 0.003710 0.000000
# 3 -0.006107 -0.005365 0.011430 0.000000 0.000778 0.000000
# 4 0.000000 0.000000 0.000000 0.050017 0.000000 0.021103
# 5 0.004762 0.003710 0.000778 0.000000 0.028456 0.000000
# 6 0.000000 0.000000 0.000000 0.021103 0.000000 0.040369
#
#
# Mechanical properties :
#
#
# Convention : Reuss Voigt Hill
#
# Bulk Modulus (GPa) = 34.57692 50.54103 42.55898
# Shear Modulus (GPa) = 22.11128 28.51887 25.31507
#
# Velocity S-wave (km/s) = 3.19757 3.63144 3.42139
# Velocity P-wave (km/s) = 5.44254 6.39952 5.94033
#
# Compressibility (1/GPa) = 0.02892102
#
# Stress axis : x y z
#
# Youngs Moduli (GPa) = 32.59531 47.22700 87.48876
#
# Poissons Ratio (x) = 0.26964 0.53426
# Poissons Ratio (y) = 0.18610 0.46941
# Poissons Ratio (z) = 0.19905 0.25339
#
# Static dielectric constant tensor:
#      x y z
#    x 3.385800 0.000000 -0.208610 
#    y 0.000000 3.959300 0.000000 
#    z -0.208610 0.000000 4.270400 
# 
# 
# High freq. dielectric constant tensor:
#      x y z
#    x 1.793800 0.000000 -0.032320 
#    y 0.000000 1.850180 0.000000 
#    z -0.032320 0.000000 1.867100 
# 
# From -- ./inp_files/54420.got.cif
#   From: 2010.06.25/outbox.cif.g09.slc.cpg/sg15_28_cif.got.tgz:54420.got - 2010.06.28 07:06:18.
