data_PCOD8144916
_publ_section_title
;
Structure prediction by ZEFSAII (Michael W. Deem and Ramdas Pophale) SiO2 
 PCOD8144916
Probable space group: C 2/C
;
_chemical_formula_sum "Si O2"
_cell_formula_units_Z 56
_cell_length_a 27.534694
_cell_length_b 12.781787
_cell_length_c 9.639755
_cell_angle_alpha 90.000000
_cell_angle_beta 111.181723
_cell_angle_gamma 90.000000
_cell_volume 3163.430574
_symmetry_space_group_name_H-M "C 2/C"
_symmetry_group_IT_number 15
_symmetry_cell_setting 'monoclinic'
loop_
_space_group_symop_operation_xyz
x,y,z
-x,y,1/2-z
-x,-y,-z
x,-y,1/2+z
1/2+x,1/2+y,z
1/2-x,1/2+y,1/2-z
1/2-x,1/2-y,-z
1/2+x,1/2-y,1/2+z
loop_
_atom_site_type_symbol
_atom_site_label
_atom_site_fract_x
_atom_site_fract_y
_atom_site_fract_z
Si Si1 0.493470 0.104526 0.407192
Si Si2 0.665966 0.198970 0.904881
Si Si3 0.883205 0.591133 0.387884
Si Si4 0.224634 0.099080 0.554548
Si Si5 0.776753 0.899660 0.128412
Si Si6 0.101864 0.343434 0.079077
Si Si7 0.827544 0.694173 0.093222
O O1 0.500000 0.082309 0.250000
O O2 0.436093 0.147548 0.386205
O O3 0.539758 0.180942 0.509028
O O4 0.500000 0.000000 0.500000
O O5 0.717085 0.133471 0.921017
O O6 0.629617 0.216806 0.733479
O O7 0.631099 0.134500 0.976568
O O8 0.682561 0.310904 0.981216
O O9 0.888187 0.467143 0.399379
O O10 0.837045 0.618658 0.233987
O O11 0.220852 0.065813 0.710005
O O12 0.209202 0.999551 0.448219
O O13 0.818791 0.810762 0.139621
O O14 0.720180 0.852819 0.041177
O O15 0.123438 0.300328 0.957077
#
# Coordination Sequence:
#
# PCOD8144916 Si02
#       7
#     8   8   8   8   8   8   8
#     4  10  22  34  52  81 113 145 185 226 274 329
#     4  11  24  37  55  82 114 149 187 222 273 332
#     4  11  21  37  55  80 117 148 185 224 273 329
#     4  11  24  39  55  82 113 145 187 232 270 322
#     4  11  24  37  57  81 112 147 187 232 269 322
#     4  11  21  35  57  82 112 150 182 223 275 329
#     4  11  22  37  55  82 112 150 186 219 275 328
#
# _framework density 17.702300999999999
#
# number of rings (size 3 to 8) (size 9 to 14) (size 15 to 20)
#    0.000    1.143    4.286    2.571   10.000    0.000 
#    0.000    0.000    0.000    0.000    0.000    6.000 
#    0.000    0.000    0.000    0.000    0.000    0.000 
#
# Total GULP energy -347234.406291 kJ/mol
# GULP energy per Si atom -12401.228796 kJ/mol
# Density = 1.766201 g / cm^3
# Si number density = 17.702301 Si / 1000 Ang^3
#
#
#
# Elastic Constant Matrix: (Units=GPa)
#
#
# Indices 1 2 3 4 5 6 
#
# 1 85.2048 30.7311 29.6417 0.0000 0.5708 0.0000
# 2 30.7311 67.5783 38.9093 0.0000 -7.3085 0.0000
# 3 29.6417 38.9093 110.3625 0.0000 -11.1441 0.0000
# 4 0.0000 0.0000 0.0000 28.8776 0.0000 -3.2454
# 5 0.5708 -7.3085 -11.1441 0.0000 27.1530 0.0000
# 6 0.0000 0.0000 0.0000 -3.2454 0.0000 17.7786
#
#
#
# Elastic Compliance Matrix: (Units=1/GPa)
#
#
# Indices 1 2 3 4 5 6 
#
# 1 0.014556 -0.005652 -0.002192 0.000000 -0.002727 0.000000
# 2 -0.005652 0.020914 -0.005503 0.000000 0.003489 0.000000
# 3 -0.002192 -0.005503 0.011940 0.000000 0.003465 0.000000
# 4 0.000000 0.000000 0.000000 0.035354 0.000000 0.006454
# 5 -0.002727 0.003489 0.003465 0.000000 0.039247 0.000000
# 6 0.000000 0.000000 0.000000 0.006454 0.000000 0.057425
#
#
# Mechanical properties :
#
#
# Convention : Reuss Voigt Hill
#
# Bulk Modulus (GPa) = 48.27372 51.30108 49.78740
# Shear Modulus (GPa) = 23.47030 25.68609 24.57819
#
# Velocity S-wave (km/s) = 3.64515 3.81334 3.73019
# Velocity P-wave (km/s) = 6.71156 6.95928 6.83654
#
# Compressibility (1/GPa) = 0.02071521
#
# Stress axis : x y z
#
# Youngs Moduli (GPa) = 68.70088 47.81564 83.75316
#
# Poissons Ratio (x) = 0.27025 0.18360
# Poissons Ratio (y) = 0.38830 0.46089
# Poissons Ratio (z) = 0.15061 0.26313
#
# Static dielectric constant tensor:
#      x y z
#    x 3.742270 0.000000 0.121320 
#    y 0.000000 3.136370 0.000000 
#    z 0.121320 0.000000 3.522620 
# 
# 
# High freq. dielectric constant tensor:
#      x y z
#    x 1.686420 0.000000 -0.007280 
#    y 0.000000 1.648990 0.000000 
#    z -0.007280 0.000000 1.707880 
# 
# From -- ./inp_files/65424.got.cif
#   From: 2010.06.25/outbox.cif.g09.slc.cpg/sg15_33_cif.got.tgz:65424.got - 2010.06.28 07:06:18.
