data_PCOD8144512
_publ_section_title
;
Structure prediction by ZEFSAII (Michael W. Deem and Ramdas Pophale) SiO2 
 PCOD8144512
Probable space group: C 2/C
;
_chemical_formula_sum "Si O2"
_cell_formula_units_Z 52
_cell_length_a 27.670846
_cell_length_b 5.229241
_cell_length_c 18.386910
_cell_angle_alpha 90.000000
_cell_angle_beta 70.664758
_cell_angle_gamma 90.000000
_cell_volume 2510.479136
_symmetry_space_group_name_H-M "C 2/C"
_symmetry_group_IT_number 15
_symmetry_cell_setting 'monoclinic'
loop_
_space_group_symop_operation_xyz
x,y,z
-x,y,1/2-z
-x,-y,-z
x,-y,1/2+z
1/2+x,1/2+y,z
1/2-x,1/2+y,1/2-z
1/2-x,1/2-y,-z
1/2+x,1/2-y,1/2+z
loop_
_atom_site_type_symbol
_atom_site_label
_atom_site_fract_x
_atom_site_fract_y
_atom_site_fract_z
Si Si1 0.404676 0.009184 0.796990
Si Si2 0.536642 0.275859 0.351821
Si Si3 0.191365 0.348133 0.235320
Si Si4 0.000000 0.127284 0.250000
Si Si5 0.192968 0.150486 0.827497
Si Si6 0.932835 0.420532 0.937008
Si Si7 0.903560 0.080137 0.536878
O O1 0.418539 0.831502 0.721639
O O2 0.348849 0.128070 0.810609
O O3 0.404511 0.863821 0.874153
O O4 0.448173 0.219019 0.782887
O O5 0.501663 0.467570 0.323132
O O6 0.494980 0.067040 0.399158
O O7 0.563075 0.409541 0.406519
O O8 0.181819 0.071715 0.274904
O O9 0.248458 0.368679 0.174017
O O10 0.182356 0.571627 0.298582
O O11 0.156455 0.109243 0.914772
O O12 0.917561 0.696812 0.974472
O O13 0.914406 0.198188 0.999628
#
# Coordination Sequence:
#
# PCOD8144512 Si02
#       7
#     8   8   8   4   8   8   8
#     4  12  24  41  67  96 129 174 222 272 317 380
#     4  12  24  42  65  93 128 180 222 261 313 390
#     4  10  22  40  72  96 123 163 228 273 321 367
#     4  12  22  40  68  94 134 158 232 268 308 372
#     4  10  21  43  66 100 124 164 221 279 314 387
#     4  12  26  42  59 100 137 172 208 267 326 395
#     4  12  26  42  66  92 138 171 213 261 338 383
#
# _framework density 20.713179
#
# number of rings (size 3 to 8) (size 9 to 14) (size 15 to 20)
#    0.000    0.615    4.615    3.692    2.154    0.000 
#    0.000    1.538    0.000    0.000    0.000    0.000 
#    0.000    0.000    0.000    0.000    0.000    0.000 
#
# Total GULP energy -322440.357508 kJ/mol
# GULP energy per Si atom -12401.552212 kJ/mol
# Density = 2.066603 g / cm^3
# Si number density = 20.713179 Si / 1000 Ang^3
#
#
#
# Elastic Constant Matrix: (Units=GPa)
#
#
# Indices 1 2 3 4 5 6 
#
# 1 145.1121 12.3680 41.2240 -0.0001 -1.5981 0.0001
# 2 12.3680 68.0323 8.0333 -0.0004 4.0241 -0.0003
# 3 41.2240 8.0333 95.7325 0.0000 1.0478 0.0001
# 4 -0.0001 -0.0004 0.0000 39.0218 -0.0002 15.9503
# 5 -1.5981 4.0241 1.0478 -0.0002 12.6228 -0.0001
# 6 0.0001 -0.0003 0.0001 15.9503 -0.0001 27.8551
#
#
#
# Elastic Compliance Matrix: (Units=1/GPa)
#
#
# Indices 1 2 3 4 5 6 
#
# 1 0.007959 -0.001149 -0.003349 0.000000 0.001652 0.000000
# 2 -0.001149 0.015288 -0.000734 0.000000 -0.004958 0.000000
# 3 -0.003349 -0.000734 0.011962 0.000000 -0.001183 0.000000
# 4 0.000000 0.000000 0.000000 0.033458 0.000000 -0.019158
# 5 0.001652 -0.004958 -0.001183 0.000000 0.081110 0.000000
# 6 0.000000 0.000000 0.000000 -0.019158 0.000000 0.046871
#
#
# Mechanical properties :
#
#
# Convention : Reuss Voigt Hill
#
# Bulk Modulus (GPa) = 40.41157 48.01417 44.21287
# Shear Modulus (GPa) = 23.21705 32.38337 27.80021
#
# Velocity S-wave (km/s) = 3.35159 3.95830 3.66751
# Velocity P-wave (km/s) = 5.87622 6.64241 6.27103
#
# Compressibility (1/GPa) = 0.02474539
#
# Stress axis : x y z
#
# Youngs Moduli (GPa) = 125.64871 65.41195 83.59566
#
# Poissons Ratio (x) = 0.07517 0.27994
# Poissons Ratio (y) = 0.14439 0.06134
# Poissons Ratio (z) = 0.42077 0.04800
#
# Static dielectric constant tensor:
#      x y z
#    x 4.088030 0.000000 0.137360 
#    y 0.000000 3.830780 0.000000 
#    z 0.137360 0.000000 4.351710 
# 
# 
# High freq. dielectric constant tensor:
#      x y z
#    x 1.815500 0.000000 -0.005760 
#    y 0.000000 1.822280 0.000000 
#    z -0.005760 0.000000 1.802770 
# 
# From -- ./inp_files/180149.got.cif
#   From: 2010.06.25/outbox.cif.g09.slc.cpg/sg15_91_cif.got.tgz:180149.got - 2010.06.28 07:06:18.
