data_PCOD8144615
_publ_section_title
;
Structure prediction by ZEFSAII (Michael W. Deem and Ramdas Pophale) SiO2 
 PCOD8144615
Probable space group: C 2/C
;
_chemical_formula_sum "Si O2"
_cell_formula_units_Z 64
_cell_length_a 19.073676
_cell_length_b 17.842773
_cell_length_c 16.043666
_cell_angle_alpha 90.000000
_cell_angle_beta 33.449833
_cell_angle_gamma 90.000000
_cell_volume 3009.641763
_symmetry_space_group_name_H-M "C 2/C"
_symmetry_group_IT_number 15
_symmetry_cell_setting 'monoclinic'
loop_
_space_group_symop_operation_xyz
x,y,z
-x,y,1/2-z
-x,-y,-z
x,-y,1/2+z
1/2+x,1/2+y,z
1/2-x,1/2+y,1/2-z
1/2-x,1/2-y,-z
1/2+x,1/2-y,1/2+z
loop_
_atom_site_type_symbol
_atom_site_label
_atom_site_fract_x
_atom_site_fract_y
_atom_site_fract_z
Si Si1 0.793410 0.559108 0.553445
Si Si2 0.896912 0.939422 0.121584
Si Si3 0.701242 0.820918 0.861899
Si Si4 0.909497 0.176515 0.026522
Si Si5 0.043092 0.656849 0.994027
Si Si6 0.748372 0.847347 0.150178
Si Si7 0.144570 0.406295 0.084932
Si Si8 0.652614 0.681511 0.586760
O O1 0.709554 0.525230 0.712314
O O2 0.918236 0.595982 0.473744
O O3 0.834709 0.495504 0.446735
O O4 0.701585 0.617842 0.599872
O O5 0.839805 0.913157 0.090657
O O6 0.956789 0.866050 0.105131
O O7 0.000000 0.000000 0.000000
O O8 0.837698 0.836843 0.685099
O O9 0.685039 0.733739 0.903986
O O10 0.602709 0.848380 0.889030
O O11 0.688149 0.869321 0.956665
O O12 0.933632 0.263813 0.986249
O O13 0.830160 0.149897 0.024450
O O14 0.120721 0.648694 0.831143
O O15 0.726679 0.867261 0.075530
O O16 0.000000 0.389183 0.250000
O O17 0.500000 0.700605 0.750000
O O18 0.750000 0.750000 0.500000
#
# Coordination Sequence:
#
# PCOD8144615 Si02
#       8
#     8   8   8   8   8   8   8   8
#     4  11  26  44  64  98 139 180 224 275 346 407
#     4  11  23  44  67  99 133 174 225 274 341 403
#     4  11  23  44  72 100 129 176 231 279 352 402
#     4  11  23  40  70 100 129 174 218 280 340 409
#     4  10  21  43  69  97 133 173 228 279 330 409
#     4  10  23  43  71  96 133 176 220 288 337 402
#     4  12  26  46  64 101 141 178 229 283 342 407
#     4  12  26  43  71 102 140 181 227 288 348 415
#
# _framework density 21.264989
#
# number of rings (size 3 to 8) (size 9 to 14) (size 15 to 20)
#    0.000    1.000    5.000    1.125    3.500    2.000 
#    0.000    1.875    0.000    0.000    0.000    0.000 
#    0.000    0.000    0.000    0.000    0.000    0.000 
#
# Total GULP energy -396673.525243 kJ/mol
# GULP energy per Si atom -12396.047664 kJ/mol
# Density = 2.121659 g / cm^3
# Si number density = 21.264989 Si / 1000 Ang^3
#
#
#
# Elastic Constant Matrix: (Units=GPa)
#
#
# Indices 1 2 3 4 5 6 
#
# 1 133.5833 24.1902 27.2744 -0.0003 6.6407 0.0004
# 2 24.1902 72.1387 20.9959 -0.0002 3.6640 0.0004
# 3 27.2744 20.9959 53.5518 -0.0003 10.0566 0.0004
# 4 -0.0003 -0.0002 -0.0003 35.6280 0.0002 -0.1457
# 5 6.6407 3.6640 10.0566 0.0002 31.5779 -0.0004
# 6 0.0004 0.0004 0.0004 -0.1457 -0.0004 34.7018
#
#
#
# Elastic Compliance Matrix: (Units=1/GPa)
#
#
# Indices 1 2 3 4 5 6 
#
# 1 0.008565 -0.001811 -0.003567 0.000000 -0.000455 0.000000
# 2 -0.001811 0.016031 -0.005409 0.000000 0.000243 0.000000
# 3 -0.003567 -0.005409 0.023774 0.000000 -0.006194 0.000000
# 4 0.000000 0.000000 0.000000 0.028068 0.000000 0.000118
# 5 -0.000455 0.000243 -0.006194 0.000000 0.033708 0.000000
# 6 0.000000 0.000000 0.000000 0.000118 0.000000 0.028817
#
#
# Mechanical properties :
#
#
# Convention : Reuss Voigt Hill
#
# Bulk Modulus (GPa) = 37.31718 44.91052 41.11385
# Shear Modulus (GPa) = 29.50411 32.83577 31.16994
#
# Velocity S-wave (km/s) = 3.72889 3.93380 3.83271
# Velocity P-wave (km/s) = 6.01051 6.46516 6.24198
#
# Compressibility (1/GPa) = 0.02679731
#
# Stress axis : x y z
#
# Youngs Moduli (GPa) = 116.75789 62.37813 42.06324
#
# Poissons Ratio (x) = 0.11296 0.15003
# Poissons Ratio (y) = 0.21143 0.22751
# Poissons Ratio (z) = 0.41644 0.33739
#
# Static dielectric constant tensor:
#      x y z
#    x 4.029560 0.000000 0.036940 
#    y 0.000000 4.599620 0.000000 
#    z 0.036940 0.000000 3.720570 
# 
# 
# High freq. dielectric constant tensor:
#      x y z
#    x 1.847120 0.000000 0.004120 
#    y 0.000000 1.828540 0.000000 
#    z 0.004120 0.000000 1.834570 
# 
# From -- ./inp_files/163263.got.cif
#   From: 2010.06.25/outbox.cif.g09.slc.cpg/sg15_82_cif.got.tgz:163263.got - 2010.06.28 07:06:18.
