data_PCOD8144459
_publ_section_title
;
Structure prediction by ZEFSAII (Michael W. Deem and Ramdas Pophale) SiO2 
 PCOD8144459
Probable space group: C 2/C
;
_chemical_formula_sum "Si O2"
_cell_formula_units_Z 52
_cell_length_a 8.452157
_cell_length_b 14.624808
_cell_length_c 29.609523
_cell_angle_alpha 90.000000
_cell_angle_beta 139.865223
_cell_angle_gamma 90.000000
_cell_volume 2359.235094
_symmetry_space_group_name_H-M "C 2/C"
_symmetry_group_IT_number 15
_symmetry_cell_setting 'monoclinic'
loop_
_space_group_symop_operation_xyz
x,y,z
-x,y,1/2-z
-x,-y,-z
x,-y,1/2+z
1/2+x,1/2+y,z
1/2-x,1/2+y,1/2-z
1/2-x,1/2-y,-z
1/2+x,1/2-y,1/2+z
loop_
_atom_site_type_symbol
_atom_site_label
_atom_site_fract_x
_atom_site_fract_y
_atom_site_fract_z
Si Si1 0.158159 0.669399 0.143921
Si Si2 0.692425 0.362772 0.726197
Si Si3 0.996780 0.743205 0.611880
Si Si4 0.500000 0.983241 0.250000
Si Si5 0.212502 0.557385 0.490907
Si Si6 0.711270 0.635888 0.616791
Si Si7 0.054479 0.364212 0.483647
O O1 0.167062 0.678862 0.200091
O O2 0.406849 0.625957 0.177359
O O3 0.104369 0.769440 0.112882
O O4 0.937722 0.601759 0.082895
O O5 0.712029 0.296710 0.686025
O O6 0.814913 0.458439 0.740399
O O7 0.916324 0.656410 0.624133
O O8 0.079998 0.704471 0.581287
O O9 0.767720 0.811822 0.556629
O O10 0.669447 0.920650 0.317314
O O11 0.498980 0.577644 0.546135
O O12 0.171604 0.449112 0.482350
O O13 0.145138 0.601812 0.524486
#
# Coordination Sequence:
#
# PCOD8144459 Si02
#       7
#     8   8   8   4   8   8   8
#     4  10  22  44  67  88 126 175 204 261 317 388
#     4  10  22  43  64  85 128 166 216 255 318 373
#     4  10  21  43  62  91 126 170 196 269 313 376
#     4  12  26  40  62  96 122 168 210 276 308 372
#     4  11  22  40  65 102 121 169 208 266 308 386
#     4  11  23  40  64  94 131 160 214 254 326 375
#     4  10  22  37  65  93 129 159 212 251 321 365
#
# _framework density 22.041042999999998
#
# number of rings (size 3 to 8) (size 9 to 14) (size 15 to 20)
#    0.000    1.538    3.077    3.231    4.308    1.846 
#    2.769    0.000    0.000    0.000    0.000    0.000 
#    0.000    0.000    0.000    0.000    0.000    0.000 
#
# Total GULP energy -322436.196680 kJ/mol
# GULP energy per Si atom -12401.392180 kJ/mol
# Density = 2.199088 g / cm^3
# Si number density = 22.041043 Si / 1000 Ang^3
#
#
#
# Elastic Constant Matrix: (Units=GPa)
#
#
# Indices 1 2 3 4 5 6 
#
# 1 20.1960 7.9487 10.3873 0.0000 -14.3285 0.0000
# 2 7.9487 73.3729 21.9788 0.0000 -3.3553 0.0000
# 3 10.3873 21.9788 130.2855 -0.0003 -16.2674 -0.0003
# 4 0.0000 0.0000 -0.0003 37.7063 -0.0001 -8.9552
# 5 -14.3285 -3.3553 -16.2674 -0.0001 38.2578 -0.0001
# 6 0.0000 0.0000 -0.0003 -8.9552 -0.0001 38.3368
#
#
#
# Elastic Compliance Matrix: (Units=1/GPa)
#
#
# Indices 1 2 3 4 5 6 
#
# 1 0.070585 -0.006056 -0.001448 0.000000 0.025289 0.000000
# 2 -0.006056 0.014876 -0.002267 0.000000 -0.001928 0.000000
# 3 -0.001448 -0.002267 0.008534 0.000000 0.002887 0.000000
# 4 0.000000 0.000000 0.000000 0.028079 0.000000 0.006559
# 5 0.025289 -0.001928 0.002887 0.000000 0.036669 0.000000
# 6 0.000000 0.000000 0.000000 0.006559 0.000000 0.027617
#
#
# Mechanical properties :
#
#
# Convention : Reuss Voigt Hill
#
# Bulk Modulus (GPa) = 13.43163 33.83154 23.63159
# Shear Modulus (GPa) = 21.67127 35.09616 28.38371
#
# Velocity S-wave (km/s) = 3.13904 3.99470 3.59244
# Velocity P-wave (km/s) = 4.38694 6.05471 5.28700
#
# Compressibility (1/GPa) = 0.07445112
#
# Stress axis : x y z
#
# Youngs Moduli (GPa) = 14.16729 67.22165 117.17906
#
# Poissons Ratio (x) = 0.40712 0.16971
# Poissons Ratio (y) = 0.08580 0.26569
# Poissons Ratio (z) = 0.02052 0.15242
#
# Static dielectric constant tensor:
#      x y z
#    x 4.512520 0.000000 -0.176390 
#    y 0.000000 4.006950 0.000000 
#    z -0.176390 0.000000 4.054840 
# 
# 
# High freq. dielectric constant tensor:
#      x y z
#    x 1.851730 0.000000 -0.021770 
#    y 0.000000 1.868580 0.000000 
#    z -0.021770 0.000000 1.876940 
# 
# From -- ./inp_files/308339.got.cif
#   From: 2010.06.25/outbox.cif.g09.slc.cpg/sg15_155_cif.got.tgz:308339.got - 2010.06.28 07:06:18.
