data_PCOD8144310
_publ_section_title
;
Structure prediction by ZEFSAII (Michael W. Deem and Ramdas Pophale) SiO2 
 PCOD8144310
Probable space group: C 2/C
;
_chemical_formula_sum "Si O2"
_cell_formula_units_Z 52
_cell_length_a 13.701624
_cell_length_b 7.969965
_cell_length_c 29.400161
_cell_angle_alpha 90.000000
_cell_angle_beta 132.876326
_cell_angle_gamma 90.000000
_cell_volume 2352.761546
_symmetry_space_group_name_H-M "C 2/C"
_symmetry_group_IT_number 15
_symmetry_cell_setting 'monoclinic'
loop_
_space_group_symop_operation_xyz
x,y,z
-x,y,1/2-z
-x,-y,-z
x,-y,1/2+z
1/2+x,1/2+y,z
1/2-x,1/2+y,1/2-z
1/2-x,1/2-y,-z
1/2+x,1/2-y,1/2+z
loop_
_atom_site_type_symbol
_atom_site_label
_atom_site_fract_x
_atom_site_fract_y
_atom_site_fract_z
Si Si1 0.287641 0.718889 0.236061
Si Si2 0.236964 0.883639 0.307752
Si Si3 0.017384 0.449986 0.057465
Si Si4 0.500000 0.085753 0.750000
Si Si5 0.652230 0.161485 0.350594
Si Si6 0.511143 0.741752 0.891929
Si Si7 0.461113 0.428244 0.939479
O O1 0.319966 0.767463 0.298424
O O2 0.330965 0.525565 0.244731
O O3 0.371344 0.814123 0.224825
O O4 0.131124 0.734685 0.176787
O O5 0.329977 0.959258 0.377234
O O6 0.123604 0.781224 0.297992
O O7 0.944767 0.596592 0.063395
O O8 0.969381 0.254667 0.048769
O O9 0.000000 0.500000 0.000000
O O10 0.453776 0.987185 0.689960
O O11 0.625122 0.258878 0.389079
O O12 0.802655 0.096157 0.391851
O O13 0.510935 0.564532 0.918321
O O14 0.500000 0.500000 0.000000
#
# Coordination Sequence:
#
# PCOD8144310 Si02
#       7
#     8   8   8   4   8   8   8
#     4  11  23  41  68  95 134 177 226 288 355 422
#     4  10  23  42  64  95 133 180 223 287 349 427
#     4  10  21  42  67  96 135 181 230 288 347 411
#     4  12  22  40  64 100 134 174 224 288 356 446
#     4  11  24  44  67 101 138 181 233 288 368 426
#     4  11  23  44  69  96 139 180 226 297 350 421
#     4  11  23  44  72  95 137 187 236 289 352 420
#
# _framework density 22.101689
#
# number of rings (size 3 to 8) (size 9 to 14) (size 15 to 20)
#    0.000    1.231    3.077    3.692    2.154    2.462 
#    2.769    0.769    0.000    0.000    0.000    0.000 
#    0.000    0.000    0.000    0.000    0.000    0.000 
#
# Total GULP energy -322103.269263 kJ/mol
# GULP energy per Si atom -12388.587279 kJ/mol
# Density = 2.205138 g / cm^3
# Si number density = 22.101689 Si / 1000 Ang^3
#
#
#
# Elastic Constant Matrix: (Units=GPa)
#
#
# Indices 1 2 3 4 5 6 
#
# 1 126.9467 69.7780 42.1745 0.0000 -41.6594 0.0000
# 2 69.7780 182.6192 42.9872 0.0000 -25.7754 0.0000
# 3 42.1745 42.9872 88.8919 0.0000 -23.8303 0.0000
# 4 0.0000 0.0000 0.0000 23.2158 0.0000 -18.0086
# 5 -41.6594 -25.7754 -23.8303 0.0000 32.2875 0.0000
# 6 0.0000 0.0000 0.0000 -18.0086 0.0000 30.7336
#
#
#
# Elastic Compliance Matrix: (Units=1/GPa)
#
#
# Indices 1 2 3 4 5 6 
#
# 1 0.015521 -0.003294 -0.001380 0.000000 0.016378 0.000000
# 2 -0.003294 0.007193 -0.001889 0.000000 0.000098 0.000000
# 3 -0.001380 -0.001889 0.014881 0.000000 0.007693 0.000000
# 4 0.000000 0.000000 0.000000 0.078966 0.000000 0.046271
# 5 0.016378 0.000098 0.007693 0.000000 0.057860 0.000000
# 6 0.000000 0.000000 0.000000 0.046271 0.000000 0.059650
#
#
# Mechanical properties :
#
#
# Convention : Reuss Voigt Hill
#
# Bulk Modulus (GPa) = 40.87112 78.70414 59.78763
# Shear Modulus (GPa) = 19.58058 33.48194 26.53126
#
# Velocity S-wave (km/s) = 2.97969 3.89640 3.46846
# Velocity P-wave (km/s) = 5.51094 7.47863 6.56888
#
# Compressibility (1/GPa) = 0.02446715
#
# Stress axis : x y z
#
# Youngs Moduli (GPa) = 64.42814 139.02323 67.20087
#
# Poissons Ratio (x) = 0.45794 0.09276
# Poissons Ratio (y) = 0.21223 0.12698
# Poissons Ratio (z) = 0.08894 0.26268
#
# Static dielectric constant tensor:
#      x y z
#    x 3.774850 0.000000 -0.315060 
#    y 0.000000 4.978790 0.000000 
#    z -0.315060 0.000000 4.091640 
# 
# 
# High freq. dielectric constant tensor:
#      x y z
#    x 1.846760 0.000000 -0.022210 
#    y 0.000000 1.889850 0.000000 
#    z -0.022210 0.000000 1.872580 
# 
# From -- ./inp_files/291698.got.cif
#   From: 2010.06.25/outbox.cif.g09.slc.cpg/sg15_146_cif.got.tgz:291698.got - 2010.06.28 07:06:18.
