data_PCOD8144798
_publ_section_title
;
Structure prediction by ZEFSAII (Michael W. Deem and Ramdas Pophale) SiO2 
 PCOD8144798
Probable space group: C 2/C
;
_chemical_formula_sum "Si O2"
_cell_formula_units_Z 64
_cell_length_a 14.591118
_cell_length_b 15.511000
_cell_length_c 18.161315
_cell_angle_alpha 90.000000
_cell_angle_beta 132.686789
_cell_angle_gamma 90.000000
_cell_volume 3021.376966
_symmetry_space_group_name_H-M "C 2/C"
_symmetry_group_IT_number 15
_symmetry_cell_setting 'monoclinic'
loop_
_space_group_symop_operation_xyz
x,y,z
-x,y,1/2-z
-x,-y,-z
x,-y,1/2+z
1/2+x,1/2+y,z
1/2-x,1/2+y,1/2-z
1/2-x,1/2-y,-z
1/2+x,1/2-y,1/2+z
loop_
_atom_site_type_symbol
_atom_site_label
_atom_site_fract_x
_atom_site_fract_y
_atom_site_fract_z
Si Si1 0.402116 0.323518 0.046503
Si Si2 0.893408 0.140230 0.238177
Si Si3 0.415660 0.735201 0.396645
Si Si4 0.436218 0.450844 0.286217
Si Si5 0.657483 0.914685 0.130094
Si Si6 0.464092 0.037854 0.648303
Si Si7 0.820468 0.680287 0.489955
Si Si8 0.866440 0.629696 0.044399
O O1 0.514190 0.391621 0.120369
O O2 0.432229 0.223918 0.086517
O O3 0.386317 0.325544 0.949993
O O4 0.281078 0.357827 0.023526
O O5 0.869815 0.186517 0.300806
O O6 0.763945 0.140193 0.121864
O O7 0.000000 0.191420 0.250000
O O8 0.967134 0.052198 0.302337
O O9 0.319679 0.814028 0.343561
O O10 0.556388 0.773370 0.475459
O O11 0.500000 0.405978 0.250000
O O12 0.288881 0.459877 0.204830
O O13 0.574504 0.957510 0.148505
O O14 0.603386 0.918420 0.017159
O O15 0.500000 0.068821 0.750000
O O16 0.353617 0.100153 0.560673
O O17 0.419517 0.938320 0.632260
O O18 0.750000 0.750000 0.500000
#
# Coordination Sequence:
#
# PCOD8144798 Si02
#       8
#     8   8   8   8   8   8   8   8
#     4  10  23  40  65  97 133 175 225 283 331 397
#     4  11  24  42  65  97 130 176 224 268 344 410
#     4  10  24  41  65 101 130 175 226 280 329 403
#     4  11  23  40  67  95 130 179 222 272 335 402
#     4  10  22  43  65  93 134 176 222 270 330 413
#     4  11  26  42  68 103 134 173 227 279 335 399
#     4  11  24  41  70  91 139 178 217 279 337 405
#     4  10  21  45  64  91 136 178 223 271 337 402
#
# _framework density 21.182395
#
# number of rings (size 3 to 8) (size 9 to 14) (size 15 to 20)
#    0.000    1.500    2.500    1.125    7.000    4.000 
#    0.000    0.000    0.000    0.000    0.000    0.000 
#    0.000    0.000    0.000    0.000    0.000    0.000 
#
# Total GULP energy -396497.370441 kJ/mol
# GULP energy per Si atom -12390.542826 kJ/mol
# Density = 2.113418 g / cm^3
# Si number density = 21.182395 Si / 1000 Ang^3
#
#
#
# Elastic Constant Matrix: (Units=GPa)
#
#
# Indices 1 2 3 4 5 6 
#
# 1 81.7360 12.1176 30.5513 0.0000 -14.6730 0.0000
# 2 12.1176 73.8646 64.9784 0.0000 -15.9578 0.0000
# 3 30.5513 64.9784 115.6656 0.0000 -10.3693 0.0000
# 4 0.0000 0.0000 0.0000 33.7873 0.0000 -4.6194
# 5 -14.6730 -15.9578 -10.3693 0.0000 30.7055 0.0000
# 6 0.0000 0.0000 0.0000 -4.6194 0.0000 22.7145
#
#
#
# Elastic Compliance Matrix: (Units=1/GPa)
#
#
# Indices 1 2 3 4 5 6 
#
# 1 0.015052 0.004042 -0.005582 0.000000 0.007408 0.000000
# 2 0.004042 0.030572 -0.017165 0.000000 0.012023 0.000000
# 3 -0.005582 -0.017165 0.019308 0.000000 -0.005067 0.000000
# 4 0.000000 0.000000 0.000000 0.030443 0.000000 0.006191
# 5 0.007408 0.012023 -0.005067 0.000000 0.040645 0.000000
# 6 0.000000 0.000000 0.000000 0.006191 0.000000 0.045284
#
#
# Mechanical properties :
#
#
# Convention : Reuss Voigt Hill
#
# Bulk Modulus (GPa) = 36.33376 54.06231 45.19804
# Shear Modulus (GPa) = 21.94056 28.34939 25.14497
#
# Velocity S-wave (km/s) = 3.22186 3.66231 3.44913
# Velocity P-wave (km/s) = 5.57051 6.59250 6.10294
#
# Compressibility (1/GPa) = 0.02752261
#
# Stress axis : x y z
#
# Youngs Moduli (GPa) = 66.43788 32.70930 51.79099
#
# Poissons Ratio (x) = -0.13220 0.28910
# Poissons Ratio (y) = -0.26852 0.88897
# Poissons Ratio (z) = 0.37086 0.56144
#
# Static dielectric constant tensor:
#      x y z
#    x 4.070200 0.000000 -0.202250 
#    y 0.000000 3.932310 0.000000 
#    z -0.202250 0.000000 3.708660 
# 
# 
# High freq. dielectric constant tensor:
#      x y z
#    x 1.839240 0.000000 -0.006860 
#    y 0.000000 1.838950 0.000000 
#    z -0.006860 0.000000 1.812420 
# 
# From -- ./inp_files/205750.got.cif
#   From: 2010.06.25/outbox.cif.g09.slc.cpg/sg15_103_cif.got.tgz:205750.got - 2010.06.28 07:06:18.
