data_PCOD8144034
_publ_section_title
;
Structure prediction by ZEFSAII (Michael W. Deem and Ramdas Pophale) SiO2 
 PCOD8144034
Probable space group: C 2/C
;
_chemical_formula_sum "Si O2"
_cell_formula_units_Z 60
_cell_length_a 8.285389
_cell_length_b 20.995991
_cell_length_c 17.547835
_cell_angle_alpha 90.000000
_cell_angle_beta 124.719566
_cell_angle_gamma 90.000000
_cell_volume 2509.100207
_symmetry_space_group_name_H-M "C 2/C"
_symmetry_group_IT_number 15
_symmetry_cell_setting 'monoclinic'
loop_
_space_group_symop_operation_xyz
x,y,z
-x,y,1/2-z
-x,-y,-z
x,-y,1/2+z
1/2+x,1/2+y,z
1/2-x,1/2+y,1/2-z
1/2-x,1/2-y,-z
1/2+x,1/2-y,1/2+z
loop_
_atom_site_type_symbol
_atom_site_label
_atom_site_fract_x
_atom_site_fract_y
_atom_site_fract_z
Si Si1 0.587605 0.344946 0.590510
Si Si2 0.565388 0.603618 0.920572
Si Si3 0.012516 0.401327 0.030299
Si Si4 0.172497 0.480304 0.643293
Si Si5 0.500000 0.201830 0.250000
Si Si6 0.191768 0.791543 0.190588
Si Si7 0.552290 0.524398 0.153597
Si Si8 0.572455 0.782956 0.393126
O O1 0.607725 0.356334 0.507294
O O2 0.804626 0.339112 0.684370
O O3 0.493037 0.407778 0.602601
O O4 0.444483 0.283936 0.565666
O O5 0.760750 0.611688 0.923848
O O6 0.396059 0.638151 0.827134
O O7 0.473992 0.533416 0.914378
O O8 0.010092 0.464016 0.085301
O O9 0.902416 0.342600 0.042196
O O10 0.909206 0.416647 0.920720
O O11 0.228761 0.471496 0.748273
O O12 0.384125 0.496770 0.666600
O O13 0.531860 0.242362 0.180999
O O14 0.376048 0.793134 0.294496
O O15 0.248040 0.776027 0.117949
#
# Coordination Sequence:
#
# PCOD8144034 Si02
#       8
#     8   8   8   8   4   8   8   8
#     4  11  25  42  62  99 135 184 219 284 333 396
#     4  11  23  41  67  96 133 175 228 276 337 395
#     4  10  21  41  69  99 132 172 229 277 335 400
#     4   9  21  40  69  96 128 179 221 280 336 393
#     4  10  24  44  66  96 142 172 228 270 346 406
#     4  10  22  42  69  98 133 184 215 279 331 404
#     4  10  22  42  64  93 131 176 227 273 337 400
#     4  10  23  43  66  99 138 174 231 271 338 403
#
# _framework density 23.912956000000001
#
# number of rings (size 3 to 8) (size 9 to 14) (size 15 to 20)
#    0.000    1.867    0.000    2.800    3.733    9.067 
#    4.800    1.333    0.000    0.000    0.000    0.000 
#    0.000    0.000    0.000    0.000    0.000    0.000 
#
# Total GULP energy -371734.599795 kJ/mol
# GULP energy per Si atom -12391.153326 kJ/mol
# Density = 2.385853 g / cm^3
# Si number density = 23.912956 Si / 1000 Ang^3
#
#
#
# Elastic Constant Matrix: (Units=GPa)
#
#
# Indices 1 2 3 4 5 6 
#
# 1 83.5168 40.4454 13.9526 0.0000 -16.8617 0.0000
# 2 40.4454 161.4600 47.9346 0.0000 -13.3826 0.0000
# 3 13.9526 47.9346 66.1429 0.0000 -12.8430 0.0000
# 4 0.0000 0.0000 0.0000 39.6640 0.0000 2.0274
# 5 -16.8617 -13.3826 -12.8430 0.0000 23.4709 0.0000
# 6 0.0000 0.0000 0.0000 2.0274 0.0000 30.6667
#
#
#
# Elastic Compliance Matrix: (Units=1/GPa)
#
#
# Indices 1 2 3 4 5 6 
#
# 1 0.015389 -0.003371 0.001085 0.000000 0.009727 0.000000
# 2 -0.003371 0.008679 -0.005693 0.000000 -0.000588 0.000000
# 3 0.001085 -0.005693 0.020740 0.000000 0.008883 0.000000
# 4 0.000000 0.000000 0.000000 0.025297 0.000000 -0.001672
# 5 0.009727 -0.000588 0.008883 0.000000 0.054119 0.000000
# 6 0.000000 0.000000 0.000000 -0.001672 0.000000 0.032719
#
#
# Mechanical properties :
#
#
# Convention : Reuss Voigt Hill
#
# Bulk Modulus (GPa) = 34.66044 57.30941 45.98492
# Shear Modulus (GPa) = 27.39456 32.67948 30.03702
#
# Velocity S-wave (km/s) = 3.38834 3.70077 3.54799
# Velocity P-wave (km/s) = 5.46202 6.50221 6.00468
#
# Compressibility (1/GPa) = 0.02885134
#
# Stress axis : x y z
#
# Youngs Moduli (GPa) = 64.98319 115.21644 48.21500
#
# Poissons Ratio (x) = 0.38837 -0.05233
# Poissons Ratio (y) = 0.21905 0.27449
# Poissons Ratio (z) = -0.07054 0.65594
#
# Static dielectric constant tensor:
#      x y z
#    x 4.215520 0.000000 0.070430 
#    y 0.000000 4.434260 0.000000 
#    z 0.070430 0.000000 4.494330 
# 
# 
# High freq. dielectric constant tensor:
#      x y z
#    x 1.933520 0.000000 0.017110 
#    y 0.000000 1.948290 0.000000 
#    z 0.017110 0.000000 1.961900 
# 
# From -- ./inp_files/192562.got.cif
#   From: 2010.06.25/outbox.cif.g09.slc.cpg/sg15_97_cif.got.tgz:192562.got - 2010.06.28 07:06:18.
