data_PCOD8144282
_publ_section_title
;
Structure prediction by ZEFSAII (Michael W. Deem and Ramdas Pophale) SiO2 
 PCOD8144282
Probable space group: C 2/C
;
_chemical_formula_sum "Si O2"
_cell_formula_units_Z 48
_cell_length_a 13.793349
_cell_length_b 19.707969
_cell_length_c 14.066238
_cell_angle_alpha 90.000000
_cell_angle_beta 148.039762
_cell_angle_gamma 90.000000
_cell_volume 2024.028231
_symmetry_space_group_name_H-M "C 2/C"
_symmetry_group_IT_number 15
_symmetry_cell_setting 'monoclinic'
loop_
_space_group_symop_operation_xyz
x,y,z
-x,y,1/2-z
-x,-y,-z
x,-y,1/2+z
1/2+x,1/2+y,z
1/2-x,1/2+y,1/2-z
1/2-x,1/2-y,-z
1/2+x,1/2-y,1/2+z
loop_
_atom_site_type_symbol
_atom_site_label
_atom_site_fract_x
_atom_site_fract_y
_atom_site_fract_z
Si Si1 0.933362 0.663885 0.933495
Si Si2 0.205202 0.124007 0.198256
Si Si3 0.514247 0.518529 0.155638
Si Si4 0.530437 0.713547 0.382380
Si Si5 0.178231 0.598071 0.837602
Si Si6 0.553259 0.361416 0.191379
O O1 0.891531 0.602566 0.827665
O O2 0.738210 0.680264 0.820259
O O3 0.028083 0.725760 0.956314
O O4 0.077199 0.635805 0.132073
O O5 0.151686 0.048816 0.189838
O O6 0.141025 0.166519 0.236609
O O7 0.102636 0.150397 0.018092
O O8 0.500000 0.552262 0.250000
O O9 0.580398 0.441864 0.221368
O O10 0.307461 0.531502 0.946462
O O11 0.500000 0.741094 0.250000
O O12 0.716279 0.668692 0.547440
O O13 0.000000 0.584296 0.750000
O O14 0.500000 0.331907 0.250000
#
# Coordination Sequence:
#
# PCOD8144282 Si02
#       6
#     8   8   8   8   8   8
#     4  12  24  40  67  97 136 180 220 265 346 397
#     4  11  23  42  70 100 133 169 226 274 344 412
#     4  10  21  42  66  99 140 171 218 283 334 406
#     4  11  23  42  68 106 146 168 210 279 341 424
#     4  11  21  38  66 109 143 174 210 266 351 422
#     4  11  26  49  66  89 133 181 235 287 321 376
#
# _framework density 23.715084000000001
#
# number of rings (size 3 to 8) (size 9 to 14) (size 15 to 20)
#    0.000    1.000    3.333    6.000    0.000    3.333 
#    9.000    0.833    0.000    0.000    0.000    0.000 
#    0.000    0.000    0.000    0.000    0.000    0.000 
#
# Total GULP energy -297331.058562 kJ/mol
# GULP energy per Si atom -12388.794107 kJ/mol
# Density = 2.366111 g / cm^3
# Si number density = 23.715084 Si / 1000 Ang^3
#
#
#
# Elastic Constant Matrix: (Units=GPa)
#
#
# Indices 1 2 3 4 5 6 
#
# 1 121.6341 11.8862 49.1109 0.0000 -14.0620 0.0000
# 2 11.8862 44.3341 11.5694 0.0000 6.2763 0.0000
# 3 49.1109 11.5694 163.7001 0.0000 1.2538 0.0000
# 4 0.0000 0.0000 0.0000 22.0791 0.0000 -6.1003
# 5 -14.0620 6.2763 1.2538 0.0000 32.4331 0.0000
# 6 0.0000 0.0000 0.0000 -6.1003 0.0000 25.5498
#
#
#
# Elastic Compliance Matrix: (Units=1/GPa)
#
#
# Indices 1 2 3 4 5 6 
#
# 1 0.010254 -0.002706 -0.002924 0.000000 0.005082 0.000000
# 2 -0.002706 0.024335 -0.000863 0.000000 -0.005849 0.000000
# 3 -0.002924 -0.000863 0.007057 0.000000 -0.001373 0.000000
# 4 0.000000 0.000000 0.000000 0.048491 0.000000 0.011578
# 5 0.005082 -0.005849 -0.001373 0.000000 0.034221 0.000000
# 6 0.000000 0.000000 0.000000 0.011578 0.000000 0.041904
#
#
# Mechanical properties :
#
#
# Convention : Reuss Voigt Hill
#
# Bulk Modulus (GPa) = 34.89144 52.75568 43.82356
# Shear Modulus (GPa) = 26.48294 33.15250 29.81772
#
# Velocity S-wave (km/s) = 3.34535 3.74297 3.54973
# Velocity P-wave (km/s) = 5.44670 6.40107 5.94307
#
# Compressibility (1/GPa) = 0.02866033
#
# Stress axis : x y z
#
# Youngs Moduli (GPa) = 97.52383 41.09353 141.69398
#
# Poissons Ratio (x) = 0.11118 0.41430
# Poissons Ratio (y) = 0.26386 0.12233
# Poissons Ratio (z) = 0.28515 0.03548
#
# Static dielectric constant tensor:
#      x y z
#    x 5.271110 0.000000 0.135630 
#    y 0.000000 4.121100 0.000000 
#    z 0.135630 0.000000 4.460730 
# 
# 
# High freq. dielectric constant tensor:
#      x y z
#    x 1.935610 0.000000 -0.001360 
#    y 0.000000 1.917480 0.000000 
#    z -0.001360 0.000000 1.946030 
# 
# From -- ./inp_files/156843.got.cif
#   From: 2010.06.25/outbox.cif.g09.slc.cpg/sg15_79_cif.got.tgz:156843.got - 2010.06.28 07:06:18.
