data_PCOD8144243
_publ_section_title
;
Structure prediction by ZEFSAII (Michael W. Deem and Ramdas Pophale) SiO2 
 PCOD8144243
Probable space group: C 2/C
;
_chemical_formula_sum "Si O2"
_cell_formula_units_Z 60
_cell_length_a 10.976584
_cell_length_b 8.902869
_cell_length_c 23.656378
_cell_angle_alpha 90.000000
_cell_angle_beta 102.300149
_cell_angle_gamma 90.000000
_cell_volume 2258.707610
_symmetry_space_group_name_H-M "C 2/C"
_symmetry_group_IT_number 15
_symmetry_cell_setting 'monoclinic'
loop_
_space_group_symop_operation_xyz
x,y,z
-x,y,1/2-z
-x,-y,-z
x,-y,1/2+z
1/2+x,1/2+y,z
1/2-x,1/2+y,1/2-z
1/2-x,1/2-y,-z
1/2+x,1/2-y,1/2+z
loop_
_atom_site_type_symbol
_atom_site_label
_atom_site_fract_x
_atom_site_fract_y
_atom_site_fract_z
Si Si1 0.845056 0.917244 0.092298
Si Si2 0.914692 0.324268 0.188257
Si Si3 0.557029 0.413472 0.649893
Si Si4 0.471916 0.115572 0.080601
Si Si5 0.212533 0.589281 0.176085
Si Si6 0.000000 0.885843 0.250000
Si Si7 0.661462 0.890398 0.502533
Si Si8 0.323495 0.123328 0.201325
O O1 0.867623 0.738411 0.089676
O O2 0.983928 0.989271 0.095139
O O3 0.800313 0.970705 0.151080
O O4 0.742586 0.975092 0.038362
O O5 0.775624 0.254821 0.181261
O O6 0.907721 0.502584 0.175430
O O7 0.000000 0.285054 0.250000
O O8 0.982253 0.243720 0.142932
O O9 0.557171 0.508026 0.708116
O O10 0.698054 0.363715 0.651361
O O11 0.573321 0.096529 0.139465
O O12 0.547753 0.162875 0.031412
O O13 0.396562 0.960594 0.060460
O O14 0.201327 0.542689 0.240551
O O15 0.892681 0.780728 0.212609
O O16 0.750000 0.750000 0.500000
#
# Coordination Sequence:
#
# PCOD8144243 Si02
#       8
#     8   8   8   8   8   4   8   8
#     4  10  21  42  66  90 122 161 202 248 309 368
#     4  11  20  40  58  82 124 168 209 253 297 345
#     4  11  23  42  58  85 128 164 204 259 300 351
#     4  10  21  44  68  90 126 160 193 255 314 364
#     4  10  22  39  61  91 126 165 206 255 304 352
#     4  12  24  36  58  88 118 162 220 248 292 362
#     4  10  23  44  69  96 122 152 197 252 313 380
#     4  12  23  38  61  87 123 170 211 252 299 348
#
# _framework density 26.563863000000001
#
# number of rings (size 3 to 8) (size 9 to 14) (size 15 to 20)
#    0.000    1.333    2.667    3.600    0.000    0.533 
#    7.200    4.000    0.000    0.000    0.000    0.000 
#    0.000    0.000    0.000    0.000    0.000    0.000 
#
# Total GULP energy -371844.649333 kJ/mol
# GULP energy per Si atom -12394.821644 kJ/mol
# Density = 2.650340 g / cm^3
# Si number density = 26.563863 Si / 1000 Ang^3
#
#
#
# Elastic Constant Matrix: (Units=GPa)
#
#
# Indices 1 2 3 4 5 6 
#
# 1 122.5734 59.0199 20.0245 0.0000 23.9166 0.0000
# 2 59.0199 149.0266 6.3582 0.0000 16.9048 0.0000
# 3 20.0245 6.3582 38.7718 0.0000 28.1765 0.0000
# 4 0.0000 0.0000 0.0000 18.8099 0.0000 10.4034
# 5 23.9166 16.9048 28.1765 0.0000 46.0653 0.0000
# 6 0.0000 0.0000 0.0000 10.4034 0.0000 45.1668
#
#
#
# Elastic Compliance Matrix: (Units=1/GPa)
#
#
# Indices 1 2 3 4 5 6 
#
# 1 0.011071 -0.003993 -0.003512 0.000000 -0.002135 0.000000
# 2 -0.003993 0.008478 0.002568 0.000000 -0.002609 0.000000
# 3 -0.003512 0.002568 0.047786 0.000000 -0.028348 0.000000
# 4 0.000000 0.000000 0.000000 0.060925 0.000000 -0.014033
# 5 -0.002135 -0.002609 -0.028348 0.000000 0.041113 0.000000
# 6 0.000000 0.000000 0.000000 -0.014033 0.000000 0.025372
#
#
# Mechanical properties :
#
#
# Convention : Reuss Voigt Hill
#
# Bulk Modulus (GPa) = 17.40299 53.46410 35.43354
# Shear Modulus (GPa) = 22.34411 37.00633 29.67522
#
# Velocity S-wave (km/s) = 2.90340 3.73649 3.34597
# Velocity P-wave (km/s) = 4.21963 6.22779 5.31934
#
# Compressibility (1/GPa) = 0.05746138
#
# Stress axis : x y z
#
# Youngs Moduli (GPa) = 90.32558 117.95542 20.92671
#
# Poissons Ratio (x) = 0.47094 0.07349
# Poissons Ratio (y) = 0.36063 -0.05373
# Poissons Ratio (z) = 0.31720 -0.30287
#
# Static dielectric constant tensor:
#      x y z
#    x 5.235280 0.000000 0.220240 
#    y 0.000000 4.661010 0.000000 
#    z 0.220240 0.000000 4.781060 
# 
# 
# High freq. dielectric constant tensor:
#      x y z
#    x 2.081050 0.000000 0.025270 
#    y 0.000000 2.072740 0.000000 
#    z 0.025270 0.000000 2.048830 
# 
# From -- ./inp_files/310333.got.cif
#   From: 2010.06.25/outbox.cif.g09.slc.cpg/sg15_156_cif.got.tgz:310333.got - 2010.06.28 07:06:18.
