data_PCOD8144480
_publ_section_title
;
Structure prediction by ZEFSAII (Michael W. Deem and Ramdas Pophale) SiO2 
 PCOD8144480
Probable space group: C 2/C
;
_chemical_formula_sum "Si O2"
_cell_formula_units_Z 56
_cell_length_a 12.793429
_cell_length_b 25.100542
_cell_length_c 8.447425
_cell_angle_alpha 90.000000
_cell_angle_beta 100.053611
_cell_angle_gamma 90.000000
_cell_volume 2671.000794
_symmetry_space_group_name_H-M "C 2/C"
_symmetry_group_IT_number 15
_symmetry_cell_setting 'monoclinic'
loop_
_space_group_symop_operation_xyz
x,y,z
-x,y,1/2-z
-x,-y,-z
x,-y,1/2+z
1/2+x,1/2+y,z
1/2-x,1/2+y,1/2-z
1/2-x,1/2-y,-z
1/2+x,1/2-y,1/2+z
loop_
_atom_site_type_symbol
_atom_site_label
_atom_site_fract_x
_atom_site_fract_y
_atom_site_fract_z
Si Si1 0.598230 0.290103 0.658836
Si Si2 0.899066 0.598628 0.132117
Si Si3 0.670053 0.574615 0.445836
Si Si4 0.464823 0.613387 0.561136
Si Si5 0.197627 0.034916 0.098595
Si Si6 0.299532 0.832068 0.866823
Si Si7 0.013538 0.681722 0.574126
O O1 0.500000 0.296895 0.750000
O O2 0.598297 0.335740 0.524769
O O3 0.704673 0.292193 0.793871
O O4 0.590924 0.232624 0.571022
O O5 0.816272 0.551516 0.077485
O O6 0.841805 0.644066 0.215848
O O7 0.000000 0.573592 0.250000
O O8 0.938660 0.627982 0.985532
O O9 0.560456 0.601760 0.466461
O O10 0.664695 0.550320 0.267941
O O11 0.695234 0.528609 0.578787
O O12 0.759083 0.620614 0.472381
O O13 0.500000 0.625099 0.750000
O O14 0.385972 0.562808 0.541887
O O15 0.397431 0.801821 0.974996
O O16 0.000000 0.666374 0.750000
#
# Coordination Sequence:
#
# PCOD8144480 Si02
#       7
#     8   8   8   8   8   8   8
#     4  11  21  43  64  89 126 168 201 251 320 369
#     4   9  20  42  63  86 127 164 206 251 306 365
#     4  11  22  40  64  89 131 163 205 250 312 368
#     4  12  23  38  60  96 127 158 211 256 302 381
#     4  11  22  40  63  92 122 171 202 252 315 360
#     4  10  21  43  64  85 128 170 197 257 313 361
#     4  10  24  39  64  95 121 161 212 261 302 365
#
# _framework density 20.965924000000001
#
# number of rings (size 3 to 8) (size 9 to 14) (size 15 to 20)
#    0.000    1.429    4.286    1.714    0.000    6.857 
#    2.571    7.143    0.000    0.000    0.000    0.000 
#    0.000    0.000    0.000    0.000    0.000    0.000 
#
# Total GULP energy -347176.885604 kJ/mol
# GULP energy per Si atom -12399.174486 kJ/mol
# Density = 2.091820 g / cm^3
# Si number density = 20.965924 Si / 1000 Ang^3
#
#
#
# Elastic Constant Matrix: (Units=GPa)
#
#
# Indices 1 2 3 4 5 6 
#
# 1 98.1512 10.9254 33.4312 0.0000 5.3944 0.0000
# 2 10.9254 69.0170 22.3903 0.0000 -6.2000 0.0000
# 3 33.4312 22.3903 78.2641 0.0000 2.2554 0.0000
# 4 0.0000 0.0000 0.0000 108.2653 0.0000 -71.5349
# 5 5.3944 -6.2000 2.2554 0.0000 23.7397 0.0000
# 6 0.0000 0.0000 0.0000 -71.5349 0.0000 81.7506
#
#
#
# Elastic Compliance Matrix: (Units=1/GPa)
#
#
# Indices 1 2 3 4 5 6 
#
# 1 0.012059 -0.000526 -0.004931 0.000000 -0.002409 0.000000
# 2 -0.000526 0.016516 -0.004641 0.000000 0.004874 0.000000
# 3 -0.004931 -0.004641 0.016259 0.000000 -0.001636 0.000000
# 4 0.000000 0.000000 0.000000 0.021896 0.000000 0.019160
# 5 -0.002409 0.004874 -0.001636 0.000000 0.044099 0.000000
# 6 0.000000 0.000000 0.000000 0.019160 0.000000 0.028998
#
#
# Mechanical properties :
#
#
# Convention : Reuss Voigt Hill
#
# Bulk Modulus (GPa) = 40.58810 42.10290 41.34550
# Shear Modulus (GPa) = 29.72026 54.66347 42.19186
#
# Velocity S-wave (km/s) = 3.76912 5.11167 4.49085
# Velocity P-wave (km/s) = 6.19216 7.41377 6.83033
#
# Compressibility (1/GPa) = 0.02463776
#
# Stress axis : x y z
#
# Youngs Moduli (GPa) = 82.92624 60.54811 61.50604
#
# Poissons Ratio (x) = 0.03182 0.30331
# Poissons Ratio (y) = 0.04358 0.28544
# Poissons Ratio (z) = 0.40893 0.28100
#
# Static dielectric constant tensor:
#      x y z
#    x 4.679630 0.000000 0.556510 
#    y 0.000000 3.812460 0.000000 
#    z 0.556510 0.000000 3.964940 
# 
# 
# High freq. dielectric constant tensor:
#      x y z
#    x 1.830770 0.000000 0.003210 
#    y 0.000000 1.809990 0.000000 
#    z 0.003210 0.000000 1.816590 
# 
# From -- ./inp_files/34351.got.cif
#   From: 2010.06.25/outbox.cif.g09.slc.cpg/sg15_18_cif.got.tgz:34351.got - 2010.06.28 07:06:18.
