data_PCOD8144597
_publ_section_title
;
Structure prediction by ZEFSAII (Michael W. Deem and Ramdas Pophale) SiO2 
 PCOD8144597
Probable space group: C 2/C
;
_chemical_formula_sum "Si O2"
_cell_formula_units_Z 56
_cell_length_a 11.166403
_cell_length_b 26.710741
_cell_length_c 9.485984
_cell_angle_alpha 90.000000
_cell_angle_beta 63.859109
_cell_angle_gamma 90.000000
_cell_volume 2539.915773
_symmetry_space_group_name_H-M "C 2/C"
_symmetry_group_IT_number 15
_symmetry_cell_setting 'monoclinic'
loop_
_space_group_symop_operation_xyz
x,y,z
-x,y,1/2-z
-x,-y,-z
x,-y,1/2+z
1/2+x,1/2+y,z
1/2-x,1/2+y,1/2-z
1/2-x,1/2-y,-z
1/2+x,1/2-y,1/2+z
loop_
_atom_site_type_symbol
_atom_site_label
_atom_site_fract_x
_atom_site_fract_y
_atom_site_fract_z
Si Si1 0.121689 0.458754 0.588215
Si Si2 0.257779 0.147523 0.081027
Si Si3 0.778411 0.697555 0.559340
Si Si4 0.179392 0.119407 0.418258
Si Si5 0.959284 0.568008 0.917338
Si Si6 0.464962 0.229328 0.931133
Si Si7 0.089133 0.165750 0.908597
O O1 0.261218 0.436210 0.578162
O O2 0.127579 0.518995 0.580333
O O3 0.000000 0.441205 0.750000
O O4 0.090731 0.442641 0.442956
O O5 0.163084 0.137364 0.264140
O O6 0.370238 0.106422 0.048512
O O7 0.321967 0.203419 0.039030
O O8 0.182635 0.137849 0.973201
O O9 0.750000 0.750000 0.500000
O O10 0.786948 0.656173 0.433602
O O11 0.662866 0.681634 0.728014
O O12 0.920591 0.695640 0.559772
O O13 0.032662 0.127520 0.562357
O O14 0.000000 0.594586 0.750000
O O15 0.500000 0.233774 0.750000
O O16 0.470424 0.284317 0.991654
#
# Coordination Sequence:
#
# PCOD8144597 Si02
#       7
#     8   8   8   8   8   8   8
#     4  10  21  43  68  99 130 168 218 281 333 391
#     4  12  24  42  68  97 131 177 221 275 333 403
#     4  12  26  44  65  94 131 175 226 280 325 389
#     4  12  25  42  65  95 137 175 214 270 342 397
#     4  10  22  40  69 101 130 163 222 281 331 388
#     4  12  24  42  67  93 129 179 230 271 327 385
#     4  12  27  44  63  95 137 179 222 268 328 411
#
# _framework density 22.047975999999998
#
# number of rings (size 3 to 8) (size 9 to 14) (size 15 to 20)
#    0.000    0.571    4.286    4.286    2.000    1.143 
#    0.000    0.714    0.000    1.714    0.000    0.000 
#    0.000    0.000    0.000    0.000    0.000    0.000 
#
# Total GULP energy -347153.523064 kJ/mol
# GULP energy per Si atom -12398.340109 kJ/mol
# Density = 2.199779 g / cm^3
# Si number density = 22.047976 Si / 1000 Ang^3
#
#
#
# Elastic Constant Matrix: (Units=GPa)
#
#
# Indices 1 2 3 4 5 6 
#
# 1 81.4521 18.9402 7.1067 0.0000 0.8176 0.0000
# 2 18.9402 69.7576 7.1549 0.0000 -1.4309 0.0000
# 3 7.1067 7.1549 101.3855 0.0000 16.7970 0.0000
# 4 0.0000 0.0000 0.0000 27.4944 0.0000 5.3181
# 5 0.8176 -1.4309 16.7970 0.0000 25.8240 0.0000
# 6 0.0000 0.0000 0.0000 5.3181 0.0000 34.2406
#
#
#
# Elastic Compliance Matrix: (Units=1/GPa)
#
#
# Indices 1 2 3 4 5 6 
#
# 1 0.013151 -0.003509 -0.000642 0.000000 -0.000193 0.000000
# 2 -0.003509 0.015438 -0.001125 0.000000 0.001698 0.000000
# 3 -0.000642 -0.001125 0.011202 0.000000 -0.007328 0.000000
# 4 0.000000 0.000000 0.000000 0.037498 0.000000 -0.005824
# 5 -0.000193 0.001698 -0.007328 0.000000 0.043590 0.000000
# 6 0.000000 0.000000 0.000000 -0.005824 0.000000 0.030110
#
#
# Mechanical properties :
#
#
# Convention : Reuss Voigt Hill
#
# Bulk Modulus (GPa) = 34.20054 35.44431 34.82243
# Shear Modulus (GPa) = 29.19077 32.13801 30.66439
#
# Velocity S-wave (km/s) = 3.64258 3.82205 3.73339
# Velocity P-wave (km/s) = 5.76513 5.96559 5.86622
#
# Compressibility (1/GPa) = 0.02923930
#
# Stress axis : x y z
#
# Youngs Moduli (GPa) = 76.03969 64.77419 89.27113
#
# Poissons Ratio (x) = 0.22728 0.05733
# Poissons Ratio (y) = 0.26681 0.10042
# Poissons Ratio (z) = 0.04884 0.07286
#
# Static dielectric constant tensor:
#      x y z
#    x 3.984310 0.000000 0.186760 
#    y 0.000000 3.900460 0.000000 
#    z 0.186760 0.000000 4.147810 
# 
# 
# High freq. dielectric constant tensor:
#      x y z
#    x 1.861050 0.000000 0.019570 
#    y 0.000000 1.854430 0.000000 
#    z 0.019570 0.000000 1.880720 
# 
# From -- ./inp_files/35147.got.cif
#   From: 2010.06.25/outbox.cif.g09.slc.cpg/sg15_18_cif.got.tgz:35147.got - 2010.06.28 07:06:18.
