data_PCOD8144743
_publ_section_title
;
Structure prediction by ZEFSAII (Michael W. Deem and Ramdas Pophale) SiO2 
 PCOD8144743
Probable space group: C 2/C
;
_chemical_formula_sum "Si O2"
_cell_formula_units_Z 64
_cell_length_a 28.167889
_cell_length_b 8.641549
_cell_length_c 13.546054
_cell_angle_alpha 90.000000
_cell_angle_beta 56.206443
_cell_angle_gamma 90.000000
_cell_volume 2740.212839
_symmetry_space_group_name_H-M "C 2/C"
_symmetry_group_IT_number 15
_symmetry_cell_setting 'monoclinic'
loop_
_space_group_symop_operation_xyz
x,y,z
-x,y,1/2-z
-x,-y,-z
x,-y,1/2+z
1/2+x,1/2+y,z
1/2-x,1/2+y,1/2-z
1/2-x,1/2-y,-z
1/2+x,1/2-y,1/2+z
loop_
_atom_site_type_symbol
_atom_site_label
_atom_site_fract_x
_atom_site_fract_y
_atom_site_fract_z
Si Si1 0.254783 0.536187 0.870049
Si Si2 0.054002 0.930321 0.748568
Si Si3 0.544867 0.218632 0.278955
Si Si4 0.474487 0.203882 0.557033
Si Si5 0.671621 0.317014 0.574684
Si Si6 0.193016 0.727567 0.338476
Si Si7 0.853754 0.524885 0.395526
Si Si8 0.416709 0.052181 0.018228
O O1 0.298116 0.431155 0.883735
O O2 0.228286 0.431676 0.812633
O O3 0.286497 0.678132 0.780624
O O4 0.204970 0.608035 0.998940
O O5 0.050013 0.859702 0.864320
O O6 0.106915 0.860801 0.629471
O O7 0.000000 0.875240 0.750000
O O8 0.064891 0.111147 0.727994
O O9 0.500000 0.152306 0.250000
O O10 0.511668 0.241332 0.418562
O O11 0.603971 0.119542 0.226154
O O12 0.519109 0.115927 0.577361
O O13 0.421853 0.089688 0.591367
O O14 0.701148 0.320787 0.432551
O O15 0.668675 0.140432 0.620238
O O16 0.127074 0.683651 0.392040
O O17 0.894340 0.511800 0.442296
#
# Coordination Sequence:
#
# PCOD8144743 Si02
#       8
#     8   8   8   8   8   8   8   8
#     4  10  23  45  70 101 138 184 229 285 344 405
#     4  11  25  43  65 100 144 181 215 282 348 404
#     4  11  24  42  67 103 140 172 226 280 338 416
#     4  11  22  41  66 103 134 180 223 272 348 409
#     4  10  23  43  70  99 134 185 231 279 339 408
#     4  10  22  45  69 101 139 177 230 290 341 399
#     4  10  21  44  68  98 134 179 227 281 335 398
#     4   9  21  38  67  99 133 171 233 278 332 402
#
# _framework density 23.35585
#
# number of rings (size 3 to 8) (size 9 to 14) (size 15 to 20)
#    0.000    2.000    1.250    3.375    5.250    3.500 
#    9.000    1.250    0.000    0.000    0.000    0.000 
#    0.000    0.000    0.000    0.000    0.000    0.000 
#
# Total GULP energy -396456.676660 kJ/mol
# GULP energy per Si atom -12389.271146 kJ/mol
# Density = 2.330269 g / cm^3
# Si number density = 23.355850 Si / 1000 Ang^3
#
#
#
# Elastic Constant Matrix: (Units=GPa)
#
#
# Indices 1 2 3 4 5 6 
#
# 1 80.5468 12.8731 13.3387 0.0000 -7.6711 0.0000
# 2 12.8731 51.1559 33.4046 0.0000 -6.6196 0.0000
# 3 13.3387 33.4046 93.8259 0.0000 -13.6424 0.0000
# 4 0.0000 0.0000 0.0000 27.1493 0.0000 -3.0614
# 5 -7.6711 -6.6196 -13.6424 0.0000 30.7505 0.0000
# 6 0.0000 0.0000 0.0000 -3.0614 0.0000 41.4169
#
#
#
# Elastic Compliance Matrix: (Units=1/GPa)
#
#
# Indices 1 2 3 4 5 6 
#
# 1 0.013164 -0.002613 -0.000583 0.000000 0.002463 0.000000
# 2 -0.002613 0.026058 -0.008750 0.000000 0.001076 0.000000
# 3 -0.000583 -0.008750 0.014496 0.000000 0.004402 0.000000
# 4 0.000000 0.000000 0.000000 0.037143 0.000000 0.002745
# 5 0.002463 0.001076 0.004402 0.000000 0.035319 0.000000
# 6 0.000000 0.000000 0.000000 0.002745 0.000000 0.024348
#
#
# Mechanical properties :
#
#
# Convention : Reuss Voigt Hill
#
# Bulk Modulus (GPa) = 33.52694 38.30684 35.91689
# Shear Modulus (GPa) = 27.12062 30.92415 29.02238
#
# Velocity S-wave (km/s) = 3.41132 3.64269 3.52890
# Velocity P-wave (km/s) = 5.46829 5.84202 5.65824
#
# Compressibility (1/GPa) = 0.02982676
#
# Stress axis : x y z
#
# Youngs Moduli (GPa) = 75.96539 38.37544 68.98415
#
# Poissons Ratio (x) = 0.10029 0.04021
# Poissons Ratio (y) = 0.19852 0.60358
# Poissons Ratio (z) = 0.04428 0.33577
#
# Static dielectric constant tensor:
#      x y z
#    x 4.454850 0.000000 -0.259170 
#    y 0.000000 4.164280 0.000000 
#    z -0.259170 0.000000 4.226130 
# 
# 
# High freq. dielectric constant tensor:
#      x y z
#    x 1.932330 0.000000 -0.009770 
#    y 0.000000 1.911360 0.000000 
#    z -0.009770 0.000000 1.922180 
# 
# From -- ./inp_files/181147.got.cif
#   From: 2010.06.25/outbox.cif.g09.slc.cpg/sg15_91_cif.got.tgz:181147.got - 2010.06.28 07:06:18.
