data_PCOD8144905
_publ_section_title
;
Structure prediction by ZEFSAII (Michael W. Deem and Ramdas Pophale) SiO2 
 PCOD8144905
Probable space group: C 2/C
;
_chemical_formula_sum "Si O2"
_cell_formula_units_Z 56
_cell_length_a 12.767881
_cell_length_b 23.644840
_cell_length_c 14.976527
_cell_angle_alpha 90.000000
_cell_angle_beta 138.793235
_cell_angle_gamma 90.000000
_cell_volume 2978.554843
_symmetry_space_group_name_H-M "C 2/C"
_symmetry_group_IT_number 15
_symmetry_cell_setting 'monoclinic'
loop_
_space_group_symop_operation_xyz
x,y,z
-x,y,1/2-z
-x,-y,-z
x,-y,1/2+z
1/2+x,1/2+y,z
1/2-x,1/2+y,1/2-z
1/2-x,1/2-y,-z
1/2+x,1/2-y,1/2+z
loop_
_atom_site_type_symbol
_atom_site_label
_atom_site_fract_x
_atom_site_fract_y
_atom_site_fract_z
Si Si1 0.813515 0.782206 0.629365
Si Si2 0.152645 0.667224 0.784395
Si Si3 0.961132 0.369811 0.003502
Si Si4 0.197595 0.480609 0.540119
Si Si5 0.646951 0.433250 0.030838
Si Si6 0.804012 0.977291 0.797923
Si Si7 0.499886 0.913796 0.851595
O O1 0.750000 0.750000 0.500000
O O2 0.798073 0.732691 0.692682
O O3 0.701369 0.834657 0.583084
O O4 0.000000 0.802503 0.750000
O O5 0.300122 0.631464 0.919082
O O6 0.000000 0.657910 0.750000
O O7 0.108396 0.650486 0.656277
O O8 0.935420 0.436075 0.012122
O O9 0.028513 0.364927 0.944641
O O10 0.310611 0.450599 0.541894
O O11 0.300665 0.498976 0.692955
O O12 0.120951 0.534227 0.441489
O O13 0.734741 0.470369 0.162250
O O14 0.461552 0.443030 0.924491
O O15 0.676610 0.930130 0.735345
O O16 0.500000 0.890882 0.750000
#
# Coordination Sequence:
#
# PCOD8144905 Si02
#       7
#     8   8   8   8   8   8   8
#     4  11  21  37  58  92 125 146 192 245 309 360
#     4  11  20  36  58  86 115 155 186 233 308 364
#     4  11  22  36  58  88 111 156 198 237 298 355
#     4  11  20  35  57  80 116 154 192 234 288 357
#     4  11  20  34  56  80 119 148 188 239 291 351
#     4  10  22  33  49  88 113 151 193 235 295 340
#     4  11  22  38  59  80 115 160 204 239 280 356
#
# _framework density 18.801065000000001
#
# number of rings (size 3 to 8) (size 9 to 14) (size 15 to 20)
#    0.000    1.143    5.714    3.857    0.000    4.571 
#    0.000    0.000    0.000    0.857    0.000    0.000 
#    0.000    0.000    0.000    0.000    0.000    0.000 
#
# Total GULP energy -346986.304047 kJ/mol
# GULP energy per Si atom -12392.368002 kJ/mol
# Density = 1.875827 g / cm^3
# Si number density = 18.801065 Si / 1000 Ang^3
#
#
#
# Elastic Constant Matrix: (Units=GPa)
#
#
# Indices 1 2 3 4 5 6 
#
# 1 75.7814 11.6653 23.6135 0.0000 -28.1648 0.0000
# 2 11.6653 51.5446 8.9682 0.0000 -7.3707 0.0000
# 3 23.6135 8.9682 80.3678 0.0000 -20.3467 0.0000
# 4 0.0000 0.0000 0.0000 27.3865 0.0000 -1.1830
# 5 -28.1648 -7.3707 -20.3467 0.0000 41.8882 0.0000
# 6 0.0000 0.0000 0.0000 -1.1830 0.0000 18.5974
#
#
#
# Elastic Compliance Matrix: (Units=1/GPa)
#
#
# Indices 1 2 3 4 5 6 
#
# 1 0.018270 -0.002181 -0.002408 0.000000 0.010731 0.000000
# 2 -0.002181 0.020326 -0.001246 0.000000 0.001505 0.000000
# 3 -0.002408 -0.001246 0.014622 0.000000 0.005264 0.000000
# 4 0.000000 0.000000 0.000000 0.036615 0.000000 0.002329
# 5 0.010731 0.001505 0.005264 0.000000 0.033910 0.000000
# 6 0.000000 0.000000 0.000000 0.002329 0.000000 0.053919
#
#
# Mechanical properties :
#
#
# Convention : Reuss Voigt Hill
#
# Bulk Modulus (GPa) = 24.06893 32.90976 28.48934
# Shear Modulus (GPa) = 24.60830 28.47086 26.53958
#
# Velocity S-wave (km/s) = 3.62177 3.89565 3.76120
# Velocity P-wave (km/s) = 5.50629 6.14630 5.83508
#
# Compressibility (1/GPa) = 0.04154734
#
# Stress axis : x y z
#
# Youngs Moduli (GPa) = 54.73383 49.19724 68.38962
#
# Poissons Ratio (x) = 0.10732 0.16468
# Poissons Ratio (y) = 0.11940 0.08524
# Poissons Ratio (z) = 0.13179 0.06132
#
# Static dielectric constant tensor:
#      x y z
#    x 3.526410 0.000000 -0.388310 
#    y 0.000000 3.506730 0.000000 
#    z -0.388310 0.000000 3.887020 
# 
# 
# High freq. dielectric constant tensor:
#      x y z
#    x 1.706180 0.000000 -0.016610 
#    y 0.000000 1.705780 0.000000 
#    z -0.016610 0.000000 1.754120 
# 
# From -- ./inp_files/148592.got.cif
#   From: 2010.06.25/outbox.cif.g09.slc.cpg/sg15_75_cif.got.tgz:148592.got - 2010.06.28 07:06:18.
