data_PCOD8144489
_publ_section_title
;
Structure prediction by ZEFSAII (Michael W. Deem and Ramdas Pophale) SiO2 
 PCOD8144489
Probable space group: C 2/C
;
_chemical_formula_sum "Si O2"
_cell_formula_units_Z 40
_cell_length_a 12.355476
_cell_length_b 14.311973
_cell_length_c 11.114511
_cell_angle_alpha 90.000000
_cell_angle_beta 101.242614
_cell_angle_gamma 90.000000
_cell_volume 1927.677691
_symmetry_space_group_name_H-M "C 2/C"
_symmetry_group_IT_number 15
_symmetry_cell_setting 'monoclinic'
loop_
_space_group_symop_operation_xyz
x,y,z
-x,y,1/2-z
-x,-y,-z
x,-y,1/2+z
1/2+x,1/2+y,z
1/2-x,1/2+y,1/2-z
1/2-x,1/2-y,-z
1/2+x,1/2-y,1/2+z
loop_
_atom_site_type_symbol
_atom_site_label
_atom_site_fract_x
_atom_site_fract_y
_atom_site_fract_z
Si Si1 0.843949 0.759071 0.920922
Si Si2 0.276953 0.854508 0.975446
Si Si3 0.264896 0.378375 0.280429
Si Si4 0.451101 0.773457 0.866235
Si Si5 0.372518 0.571347 0.245355
O O1 0.824081 0.673090 0.824698
O O2 0.844069 0.857600 0.848761
O O3 0.750000 0.750000 0.000000
O O4 0.959000 0.753215 0.014889
O O5 0.381553 0.859928 0.907707
O O6 0.166476 0.889300 0.889590
O O7 0.250000 0.750000 0.000000
O O8 0.296795 0.904716 0.107575
O O9 0.372625 0.314419 0.323250
O O10 0.306449 0.475389 0.238882
O O11 0.500000 0.808414 0.750000
O O12 0.500000 0.551994 0.250000
#
# Coordination Sequence:
#
# PCOD8144489 Si02
#       5
#     8   8   8   8   8
#     4  12  25  43  71  98 139 192 225 274 360 409
#     4  10  21  43  64  94 141 177 219 281 341 408
#     4  11  25  42  67 108 140 170 234 291 339 407
#     4  11  21  42  70  95 138 181 229 282 342 409
#     4  12  25  42  75 106 134 176 232 294 343 405
#
# _framework density 20.750354999999999
#
# number of rings (size 3 to 8) (size 9 to 14) (size 15 to 20)
#    0.000    0.800    6.000    3.000    2.800    1.600 
#    0.000    1.000    4.400    0.000    0.000    0.000 
#    0.000    0.000    0.000    0.000    0.000    0.000 
#
# Total GULP energy -247828.798280 kJ/mol
# GULP energy per Si atom -12391.439914 kJ/mol
# Density = 2.070313 g / cm^3
# Si number density = 20.750355 Si / 1000 Ang^3
#
#
#
# Elastic Constant Matrix: (Units=GPa)
#
#
# Indices 1 2 3 4 5 6 
#
# 1 71.2804 20.8719 31.9231 0.0000 -10.9205 0.0000
# 2 20.8719 79.9705 27.0506 0.0000 8.4462 0.0000
# 3 31.9231 27.0506 149.4655 0.0000 3.3499 0.0000
# 4 0.0000 0.0000 0.0000 16.1816 0.0000 -5.8568
# 5 -10.9205 8.4462 3.3499 0.0000 47.7314 0.0000
# 6 0.0000 0.0000 0.0000 -5.8568 0.0000 33.6808
#
#
#
# Elastic Compliance Matrix: (Units=1/GPa)
#
#
# Indices 1 2 3 4 5 6 
#
# 1 0.017331 -0.003995 -0.003088 0.000000 0.004889 0.000000
# 2 -0.003995 0.014474 -0.001691 0.000000 -0.003357 0.000000
# 3 -0.003088 -0.001691 0.007677 0.000000 -0.000946 0.000000
# 4 0.000000 0.000000 0.000000 0.065949 0.000000 0.011468
# 5 0.004889 -0.003357 -0.000946 0.000000 0.022729 0.000000
# 6 0.000000 0.000000 0.000000 0.011468 0.000000 0.031685
#
#
# Mechanical properties :
#
#
# Convention : Reuss Voigt Hill
#
# Bulk Modulus (GPa) = 45.59190 51.15639 48.37415
# Shear Modulus (GPa) = 27.07019 34.24348 30.65683
#
# Velocity S-wave (km/s) = 3.61579 4.06675 3.84788
# Velocity P-wave (km/s) = 6.28103 6.83798 6.56541
#
# Compressibility (1/GPa) = 0.02193372
#
# Stress axis : x y z
#
# Youngs Moduli (GPa) = 57.70040 69.09033 130.25385
#
# Poissons Ratio (x) = 0.27602 0.40224
# Poissons Ratio (y) = 0.23052 0.22026
# Poissons Ratio (z) = 0.17818 0.11683
#
# Static dielectric constant tensor:
#      x y z
#    x 5.076310 0.000000 -0.790510 
#    y 0.000000 3.733190 0.000000 
#    z -0.790510 0.000000 4.813640 
# 
# 
# High freq. dielectric constant tensor:
#      x y z
#    x 1.817330 0.000000 -0.007890 
#    y 0.000000 1.788720 0.000000 
#    z -0.007890 0.000000 1.841550 
# 
# From -- ./inp_files/86232.got.cif
#   From: 2010.06.25/outbox.cif.g09.slc.cpg/sg15_44_cif.got.tgz:86232.got - 2010.06.28 07:06:18.
