data_PCOD8144366
_publ_section_title
;
Structure prediction by ZEFSAII (Michael W. Deem and Ramdas Pophale) SiO2 
 PCOD8144366
Probable space group: C 2/C
;
_chemical_formula_sum "Si O2"
_cell_formula_units_Z 64
_cell_length_a 25.990140
_cell_length_b 8.033142
_cell_length_c 14.688065
_cell_angle_alpha 90.000000
_cell_angle_beta 103.520110
_cell_angle_gamma 90.000000
_cell_volume 2981.628566
_symmetry_space_group_name_H-M "C 2/C"
_symmetry_group_IT_number 15
_symmetry_cell_setting 'monoclinic'
loop_
_space_group_symop_operation_xyz
x,y,z
-x,y,1/2-z
-x,-y,-z
x,-y,1/2+z
1/2+x,1/2+y,z
1/2-x,1/2+y,1/2-z
1/2-x,1/2-y,-z
1/2+x,1/2-y,1/2+z
loop_
_atom_site_type_symbol
_atom_site_label
_atom_site_fract_x
_atom_site_fract_y
_atom_site_fract_z
Si Si1 0.536061 0.649742 0.979007
Si Si2 0.059058 0.761827 0.788778
Si Si3 0.313743 0.419051 0.071268
Si Si4 0.306487 0.081195 0.955531
Si Si5 0.435920 0.811684 0.884471
Si Si6 0.892203 0.339972 0.362769
Si Si7 0.633509 0.740010 0.487272
Si Si8 0.416616 0.616268 0.700998
O O1 0.495476 0.797210 0.943417
O O2 0.567629 0.629787 0.898182
O O3 0.500000 0.500000 0.000000
O O4 0.579567 0.687803 0.073624
O O5 0.103599 0.676504 0.743957
O O6 0.082157 0.747616 0.899507
O O7 0.000000 0.682945 0.750000
O O8 0.054441 0.951458 0.750535
O O9 0.316541 0.239140 0.024366
O O10 0.329909 0.579203 0.016545
O O11 0.352914 0.407960 0.174158
O O12 0.255196 0.453269 0.084608
O O13 0.333457 0.912514 0.005900
O O14 0.331478 0.132772 0.868173
O O15 0.432096 0.765687 0.775089
O O16 0.425152 0.000001 0.903724
O O17 0.392497 0.705771 0.924392
#
# Coordination Sequence:
#
# PCOD8144366 Si02
#       8
#     8   8   8   8   8   8   8   8
#     4  12  22  40  64  88 126 170 217 263 323 395
#     4  11  23  39  63  93 129 173 215 264 323 391
#     4  10  21  42  69  90 121 172 209 273 331 376
#     4  10  22  42  67  93 123 163 220 270 328 383
#     4  11  24  37  61  92 128 169 205 267 326 395
#     4  11  24  39  60  92 130 162 218 267 324 389
#     4  10  23  42  66  94 131 170 219 267 322 399
#     4  11  23  39  62  95 125 167 221 266 322 396
#
# _framework density 21.464780000000001
#
# number of rings (size 3 to 8) (size 9 to 14) (size 15 to 20)
#    0.000    1.250    1.250    5.625    3.500    2.000 
#    0.000    6.250    0.000    0.000    0.000    0.000 
#    0.000    0.000    0.000    0.000    0.000    0.000 
#
# Total GULP energy -396488.650281 kJ/mol
# GULP energy per Si atom -12390.270321 kJ/mol
# Density = 2.141592 g / cm^3
# Si number density = 21.464780 Si / 1000 Ang^3
#
#
#
# Elastic Constant Matrix: (Units=GPa)
#
#
# Indices 1 2 3 4 5 6 
#
# 1 119.6211 35.7013 32.1052 0.0000 -5.6950 0.0000
# 2 35.7013 76.6098 10.4069 0.0000 -5.7749 0.0000
# 3 32.1052 10.4069 88.6783 0.0000 -16.8495 0.0000
# 4 0.0000 0.0000 0.0000 22.1050 0.0000 -3.3728
# 5 -5.6950 -5.7749 -16.8495 0.0000 27.6168 0.0000
# 6 0.0000 0.0000 0.0000 -3.3728 0.0000 33.7321
#
#
#
# Elastic Compliance Matrix: (Units=1/GPa)
#
#
# Indices 1 2 3 4 5 6 
#
# 1 0.010604 -0.004536 -0.003474 0.000000 -0.000882 0.000000
# 2 -0.004536 0.015310 0.000312 0.000000 0.002457 0.000000
# 3 -0.003474 0.000312 0.013997 0.000000 0.007889 0.000000
# 4 0.000000 0.000000 0.000000 0.045939 0.000000 0.004593
# 5 -0.000882 0.002457 0.007889 0.000000 0.041355 0.000000
# 6 0.000000 0.000000 0.000000 0.004593 0.000000 0.030105
#
#
# Mechanical properties :
#
#
# Convention : Reuss Voigt Hill
#
# Bulk Modulus (GPa) = 40.79217 49.03733 44.91475
# Shear Modulus (GPa) = 27.64308 30.47049 29.05679
#
# Velocity S-wave (km/s) = 3.59253 3.77179 3.68325
# Velocity P-wave (km/s) = 6.02112 6.47021 6.24970
#
# Compressibility (1/GPa) = 0.02451451
#
# Stress axis : x y z
#
# Youngs Moduli (GPa) = 94.30365 65.31752 71.44509
#
# Poissons Ratio (x) = 0.29629 0.24822
# Poissons Ratio (y) = 0.42777 -0.02231
# Poissons Ratio (z) = 0.32763 -0.02040
#
# Static dielectric constant tensor:
#      x y z
#    x 4.166620 0.000000 -0.225870 
#    y 0.000000 4.106700 0.000000 
#    z -0.225870 0.000000 3.840200 
# 
# 
# High freq. dielectric constant tensor:
#      x y z
#    x 1.849220 0.000000 -0.014690 
#    y 0.000000 1.853200 0.000000 
#    z -0.014690 0.000000 1.825210 
# 
# From -- ./inp_files/172393.got.cif
#   From: 2010.06.25/outbox.cif.g09.slc.cpg/sg15_87_cif.got.tgz:172393.got - 2010.06.28 07:06:18.
