data_PCOD8144352
_publ_section_title
;
Structure prediction by ZEFSAII (Michael W. Deem and Ramdas Pophale) SiO2 
 PCOD8144352
Probable space group: C 2/C
;
_chemical_formula_sum "Si O2"
_cell_formula_units_Z 64
_cell_length_a 8.730522
_cell_length_b 13.993802
_cell_length_c 31.439756
_cell_angle_alpha 90.000000
_cell_angle_beta 130.193876
_cell_angle_gamma 90.000000
_cell_volume 2934.078449
_symmetry_space_group_name_H-M "C 2/C"
_symmetry_group_IT_number 15
_symmetry_cell_setting 'monoclinic'
loop_
_space_group_symop_operation_xyz
x,y,z
-x,y,1/2-z
-x,-y,-z
x,-y,1/2+z
1/2+x,1/2+y,z
1/2-x,1/2+y,1/2-z
1/2-x,1/2-y,-z
1/2+x,1/2-y,1/2+z
loop_
_atom_site_type_symbol
_atom_site_label
_atom_site_fract_x
_atom_site_fract_y
_atom_site_fract_z
Si Si1 0.728928 0.638730 0.613076
Si Si2 0.049189 0.267645 0.990663
Si Si3 0.836828 0.565615 0.413695
Si Si4 0.336858 0.449670 0.757308
Si Si5 0.984949 0.796570 0.838507
Si Si6 0.546142 0.042897 0.365477
Si Si7 0.460853 0.409427 0.141946
Si Si8 0.723850 0.269098 0.611306
O O1 0.620973 0.693285 0.554861
O O2 0.946312 0.688959 0.661053
O O3 0.769182 0.529002 0.608609
O O4 0.587379 0.643151 0.628489
O O5 0.977267 0.378330 0.972312
O O6 0.250000 0.250000 0.000000
O O7 0.078544 0.253610 0.045881
O O8 0.683772 0.641302 0.366237
O O9 0.706546 0.478625 0.410162
O O10 0.965307 0.523061 0.398042
O O11 0.500000 0.446005 0.750000
O O12 0.322272 0.344859 0.777672
O O13 0.394154 0.532094 0.801072
O O14 0.121181 0.475588 0.700227
O O15 0.908246 0.803872 0.872950
O O16 0.622218 0.150244 0.375648
O O17 0.347789 0.325211 0.147289
#
# Coordination Sequence:
#
# PCOD8144352 Si02
#       8
#     8   8   8   8   8   8   8   8
#     4  11  25  43  69 100 140 173 228 282 337 407
#     4  11  22  47  70 100 135 188 225 279 349 400
#     4  10  21  42  68  96 139 171 225 279 331 399
#     4  11  24  45  72  95 134 181 225 277 350 404
#     4  10  23  44  66 100 132 173 224 281 334 401
#     4  12  23  43  68  99 135 178 224 288 332 406
#     4  11  23  43  67 103 137 175 227 283 335 403
#     4  12  25  43  72  99 141 175 229 282 335 408
#
# _framework density 21.812640999999999
#
# number of rings (size 3 to 8) (size 9 to 14) (size 15 to 20)
#    0.000    1.000    5.000    3.000    0.000    6.000 
#    0.000    0.000    0.000    0.000    0.000    0.000 
#    0.000    0.000    0.000    0.000    0.000    0.000 
#
# Total GULP energy -396817.076980 kJ/mol
# GULP energy per Si atom -12400.533656 kJ/mol
# Density = 2.176299 g / cm^3
# Si number density = 21.812641 Si / 1000 Ang^3
#
#
#
# Elastic Constant Matrix: (Units=GPa)
#
#
# Indices 1 2 3 4 5 6 
#
# 1 88.5230 11.8480 22.9569 0.0000 -9.0000 0.0000
# 2 11.8480 99.5631 38.0870 0.0000 9.9332 0.0000
# 3 22.9569 38.0870 96.4613 0.0000 3.7427 0.0000
# 4 0.0000 0.0000 0.0000 21.1307 0.0000 -3.8239
# 5 -9.0000 9.9332 3.7427 0.0000 29.4527 0.0000
# 6 0.0000 0.0000 0.0000 -3.8239 0.0000 36.6346
#
#
#
# Elastic Compliance Matrix: (Units=1/GPa)
#
#
# Indices 1 2 3 4 5 6 
#
# 1 0.012605 -0.000866 -0.002833 0.000000 0.004504 0.000000
# 2 -0.000866 0.012242 -0.004479 0.000000 -0.003824 0.000000
# 3 -0.002833 -0.004479 0.012848 0.000000 -0.000988 0.000000
# 4 0.000000 0.000000 0.000000 0.048236 0.000000 0.005035
# 5 0.004504 -0.003824 -0.000988 0.000000 0.036744 0.000000
# 6 0.000000 0.000000 0.000000 0.005035 0.000000 0.027822
#
#
# Mechanical properties :
#
#
# Convention : Reuss Voigt Hill
#
# Bulk Modulus (GPa) = 46.86171 47.81457 47.33814
# Shear Modulus (GPa) = 28.74140 31.55396 30.14768
#
# Velocity S-wave (km/s) = 3.63388 3.80753 3.72172
# Velocity P-wave (km/s) = 6.25597 6.42634 6.34173
#
# Compressibility (1/GPa) = 0.02133938
#
# Stress axis : x y z
#
# Youngs Moduli (GPa) = 79.33435 81.68663 77.83347
#
# Poissons Ratio (x) = 0.07071 0.22049
# Poissons Ratio (y) = 0.06867 0.34863
# Poissons Ratio (z) = 0.22474 0.36589
#
# Static dielectric constant tensor:
#      x y z
#    x 3.794900 0.000000 0.136240 
#    y 0.000000 4.216240 0.000000 
#    z 0.136240 0.000000 4.096560 
# 
# 
# High freq. dielectric constant tensor:
#      x y z
#    x 1.861190 0.000000 0.004810 
#    y 0.000000 1.871270 0.000000 
#    z 0.004810 0.000000 1.843080 
# 
# From -- ./inp_files/308286.got.cif
#   From: 2010.06.25/outbox.cif.g09.slc.cpg/sg15_155_cif.got.tgz:308286.got - 2010.06.28 07:06:18.
