data_PCOD8144910
_publ_section_title
;
Structure prediction by ZEFSAII (Michael W. Deem and Ramdas Pophale) SiO2 
 PCOD8144910
Probable space group: C 2/C
;
_chemical_formula_sum "Si O2"
_cell_formula_units_Z 40
_cell_length_a 15.606226
_cell_length_b 28.103275
_cell_length_c 5.144329
_cell_angle_alpha 90.000000
_cell_angle_beta 64.098362
_cell_angle_gamma 90.000000
_cell_volume 2029.581965
_symmetry_space_group_name_H-M "C 2/C"
_symmetry_group_IT_number 15
_symmetry_cell_setting 'monoclinic'
loop_
_space_group_symop_operation_xyz
x,y,z
-x,y,1/2-z
-x,-y,-z
x,-y,1/2+z
1/2+x,1/2+y,z
1/2-x,1/2+y,1/2-z
1/2-x,1/2-y,-z
1/2+x,1/2-y,1/2+z
loop_
_atom_site_type_symbol
_atom_site_label
_atom_site_fract_x
_atom_site_fract_y
_atom_site_fract_z
Si Si1 0.391932 0.332746 0.397239
Si Si2 0.308038 0.296779 0.989842
Si Si3 0.110518 0.970240 0.583155
Si Si4 0.889062 0.529764 0.910275
Si Si5 0.761937 0.107809 0.375057
O O1 0.500000 0.352080 0.250000
O O2 0.359649 0.299079 0.200746
O O3 0.319830 0.378126 0.531925
O O4 0.388410 0.299970 0.659949
O O5 0.250000 0.250000 0.000000
O O6 0.237560 0.342845 0.057301
O O7 0.167289 0.921440 0.532495
O O8 0.000000 0.957565 0.750000
O O9 0.140313 0.993821 0.272613
O O10 0.860323 0.507960 0.670683
O O11 0.000000 0.542389 0.750000
O O12 0.834268 0.578589 0.048038
#
# Coordination Sequence:
#
# PCOD8144910 Si02
#       5
#     8   8   8   8   8
#     4  10  23  38  64  93 122 164 201 253 315 385
#     4  10  23  41  63  88 128 160 211 256 307 377
#     4  10  22  34  50  83 124 161 197 237 288 364
#     4  10  22  40  61  87 120 163 216 263 309 363
#     4  10  24  34  68  82 130 156 211 247 318 365
#
# _framework density 19.708493000000001
#
# number of rings (size 3 to 8) (size 9 to 14) (size 15 to 20)
#    1.200    0.800    0.000    2.400    8.400    0.800 
#    0.000    2.000    0.000    1.200    0.000    0.000 
#    0.000    0.000    0.000    0.000    0.000    0.000 
#
# Total GULP energy -247787.021632 kJ/mol
# GULP energy per Si atom -12389.351082 kJ/mol
# Density = 1.966364 g / cm^3
# Si number density = 19.708493 Si / 1000 Ang^3
#
#
#
# Elastic Constant Matrix: (Units=GPa)
#
#
# Indices 1 2 3 4 5 6 
#
# 1 94.8645 57.0510 46.6938 0.0000 2.3895 0.0000
# 2 57.0510 133.7836 33.3230 0.0000 -10.2991 0.0000
# 3 46.6938 33.3230 112.5836 0.0000 6.7235 0.0000
# 4 0.0000 0.0000 0.0000 19.5260 0.0000 -2.9457
# 5 2.3895 -10.2991 6.7235 0.0000 32.9418 0.0000
# 6 0.0000 0.0000 0.0000 -2.9457 0.0000 28.8317
#
#
#
# Elastic Compliance Matrix: (Units=1/GPa)
#
#
# Indices 1 2 3 4 5 6 
#
# 1 0.016685 -0.006026 -0.005013 0.000000 -0.002071 0.000000
# 2 -0.006026 0.010560 -0.000860 0.000000 0.003914 0.000000
# 3 -0.005013 -0.000860 0.011349 0.000000 -0.002222 0.000000
# 4 0.000000 0.000000 0.000000 0.052016 0.000000 0.005314
# 5 -0.002071 0.003914 -0.002222 0.000000 0.032184 0.000000
# 6 0.000000 0.000000 0.000000 0.005314 0.000000 0.035227
#
#
# Mechanical properties :
#
#
# Convention : Reuss Voigt Hill
#
# Bulk Modulus (GPa) = 67.58659 68.37415 67.98037
# Shear Modulus (GPa) = 26.77382 29.87083 28.32232
#
# Velocity S-wave (km/s) = 3.68977 3.89734 3.79497
# Velocity P-wave (km/s) = 7.24708 7.41757 7.33282
#
# Compressibility (1/GPa) = 0.01479584
#
# Stress axis : x y z
#
# Youngs Moduli (GPa) = 59.93455 94.69638 88.11700
#
# Poissons Ratio (x) = 0.57064 0.44171
# Poissons Ratio (y) = 0.36117 0.07579
# Poissons Ratio (z) = 0.30043 0.08145
#
# Static dielectric constant tensor:
#      x y z
#    x 3.445930 0.000000 0.073270 
#    y 0.000000 3.394530 0.000000 
#    z 0.073270 0.000000 3.752680 
# 
# 
# High freq. dielectric constant tensor:
#      x y z
#    x 1.756620 0.000000 0.009630 
#    y 0.000000 1.750970 0.000000 
#    z 0.009630 0.000000 1.778910 
# 
# From -- ./inp_files/8471.got.cif
#   From: 2010.06.25/outbox.cif.g09.slc.cpg/sg15_5_cif.got.tgz:8471.got - 2010.06.28 07:06:18.
