data_PCOD8144460
_publ_section_title
;
Structure prediction by ZEFSAII (Michael W. Deem and Ramdas Pophale) SiO2 
 PCOD8144460
Probable space group: C 2/C
;
_chemical_formula_sum "Si O2"
_cell_formula_units_Z 44
_cell_length_a 9.077491
_cell_length_b 25.209730
_cell_length_c 11.656046
_cell_angle_alpha 90.000000
_cell_angle_beta 50.214739
_cell_angle_gamma 90.000000
_cell_volume 2049.745070
_symmetry_space_group_name_H-M "C 2/C"
_symmetry_group_IT_number 15
_symmetry_cell_setting 'monoclinic'
loop_
_space_group_symop_operation_xyz
x,y,z
-x,y,1/2-z
-x,-y,-z
x,-y,1/2+z
1/2+x,1/2+y,z
1/2-x,1/2+y,1/2-z
1/2-x,1/2-y,-z
1/2+x,1/2-y,1/2+z
loop_
_atom_site_type_symbol
_atom_site_label
_atom_site_fract_x
_atom_site_fract_y
_atom_site_fract_z
Si Si1 0.813185 0.197668 0.290483
Si Si2 0.500000 0.969305 0.750000
Si Si3 0.477180 0.836716 0.392303
Si Si4 0.711766 0.724102 0.642688
Si Si5 0.852217 0.077692 0.193692
Si Si6 0.229945 0.552793 0.495010
O O1 0.674279 0.200124 0.468200
O O2 0.729477 0.229110 0.225896
O O3 0.864248 0.138777 0.222567
O O4 0.000000 0.225533 0.250000
O O5 0.323619 0.931308 0.804365
O O6 0.597767 0.004852 0.603100
O O7 0.500000 0.817677 0.250000
O O8 0.665582 0.826910 0.377280
O O9 0.411674 0.897314 0.425947
O O10 0.500000 0.700780 0.750000
O O11 0.750000 0.750000 0.500000
O O12 0.795923 0.042330 0.332212
O O13 0.065016 0.061072 0.038667
#
# Coordination Sequence:
#
# PCOD8144460 Si02
#       6
#     8   4   8   8   8   8
#     4  11  23  44  68  90 128 181 220 255 324 404
#     4  12  22  36  68 100 126 162 214 278 324 360
#     4  11  23  43  68  92 128 174 220 264 316 392
#     4  12  27  42  64  98 134 164 217 276 329 377
#     4  10  22  40  66  91 129 170 212 262 323 388
#     4  10  21  43  62  92 128 168 215 259 317 396
#
# _framework density 21.466085
#
# number of rings (size 3 to 8) (size 9 to 14) (size 15 to 20)
#    0.000    1.091    6.364    1.636    3.818    1.455 
#    0.000    0.000    4.000    0.000    0.000    0.000 
#    0.000    0.000    0.000    0.000    0.000    0.000 
#
# Total GULP energy -272538.742159 kJ/mol
# GULP energy per Si atom -12388.124644 kJ/mol
# Density = 2.141723 g / cm^3
# Si number density = 21.466085 Si / 1000 Ang^3
#
#
#
# Elastic Constant Matrix: (Units=GPa)
#
#
# Indices 1 2 3 4 5 6 
#
# 1 167.7078 38.7007 42.4478 0.0000 -23.9244 0.0000
# 2 38.7007 59.8794 24.9096 0.0000 -6.8410 0.0000
# 3 42.4478 24.9096 105.8152 0.0000 -6.0075 0.0000
# 4 0.0000 0.0000 0.0000 24.1596 0.0000 -2.5806
# 5 -23.9244 -6.8410 -6.0075 0.0000 49.0602 0.0000
# 6 0.0000 0.0000 0.0000 -2.5806 0.0000 42.0295
#
#
#
# Elastic Compliance Matrix: (Units=1/GPa)
#
#
# Indices 1 2 3 4 5 6 
#
# 1 0.007799 -0.003842 -0.002053 0.000000 0.003016 0.000000
# 2 -0.003842 0.020615 -0.003278 0.000000 0.000600 0.000000
# 3 -0.002053 -0.003278 0.011040 0.000000 -0.000106 0.000000
# 4 0.000000 0.000000 0.000000 0.041665 0.000000 0.002558
# 5 0.003016 0.000600 -0.000106 0.000000 0.021925 0.000000
# 6 0.000000 0.000000 0.000000 0.002558 0.000000 0.023950
#
#
# Mechanical properties :
#
#
# Convention : Reuss Voigt Hill
#
# Bulk Modulus (GPa) = 47.37390 60.61317 53.99353
# Shear Modulus (GPa) = 32.81373 38.20615 35.50994
#
# Velocity S-wave (km/s) = 3.91401 4.22339 4.07164
# Velocity P-wave (km/s) = 6.52251 7.21670 6.87836
#
# Compressibility (1/GPa) = 0.02110867
#
# Stress axis : x y z
#
# Youngs Moduli (GPa) = 128.21718 48.50725 90.58340
#
# Poissons Ratio (x) = 0.18637 0.18597
# Poissons Ratio (y) = 0.49263 0.29691
# Poissons Ratio (z) = 0.26323 0.15899
#
# Static dielectric constant tensor:
#      x y z
#    x 4.203250 0.000000 -0.178130 
#    y 0.000000 3.564560 0.000000 
#    z -0.178130 0.000000 4.190660 
# 
# 
# High freq. dielectric constant tensor:
#      x y z
#    x 1.852900 0.000000 -0.015770 
#    y 0.000000 1.826180 0.000000 
#    z -0.015770 0.000000 1.853880 
# 
# From -- ./inp_files/81079.got.cif
#   From: 2010.06.25/outbox.cif.g09.slc.cpg/sg15_41_cif.got.tgz:81079.got - 2010.06.28 07:06:18.
