data_PCOD8144659
_publ_section_title
;
Structure prediction by ZEFSAII (Michael W. Deem and Ramdas Pophale) SiO2 
 PCOD8144659
Probable space group: C 2/C
;
_chemical_formula_sum "Si O2"
_cell_formula_units_Z 48
_cell_length_a 14.705463
_cell_length_b 16.386201
_cell_length_c 9.219237
_cell_angle_alpha 90.000000
_cell_angle_beta 69.413488
_cell_angle_gamma 90.000000
_cell_volume 2079.667221
_symmetry_space_group_name_H-M "C 2/C"
_symmetry_group_IT_number 15
_symmetry_cell_setting 'monoclinic'
loop_
_space_group_symop_operation_xyz
x,y,z
-x,y,1/2-z
-x,-y,-z
x,-y,1/2+z
1/2+x,1/2+y,z
1/2-x,1/2+y,1/2-z
1/2-x,1/2-y,-z
1/2+x,1/2-y,1/2+z
loop_
_atom_site_type_symbol
_atom_site_label
_atom_site_fract_x
_atom_site_fract_y
_atom_site_fract_z
Si Si1 0.516882 0.337414 0.902584
Si Si2 0.271643 0.918360 0.107770
Si Si3 0.030525 0.328540 0.564075
Si Si4 0.708189 0.572430 0.329556
Si Si5 0.687158 0.654918 0.910233
Si Si6 0.831884 0.660553 0.062179
O O1 0.500000 0.302464 0.750000
O O2 0.597591 0.408455 0.849774
O O3 0.550313 0.262526 0.989314
O O4 0.419411 0.385770 0.012762
O O5 0.221124 0.844452 0.224268
O O6 0.257983 0.994732 0.223797
O O7 0.381134 0.891447 0.008611
O O8 0.212136 0.939226 0.998536
O O9 0.000000 0.320661 0.750000
O O10 0.942144 0.370211 0.521965
O O11 0.773420 0.649451 0.245123
O O12 0.663578 0.745012 0.979642
O O13 0.772103 0.615362 0.965429
#
# Coordination Sequence:
#
# PCOD8144659 Si02
#       6
#     8   8   8   8   8   8
#     4  11  25  45  76 110 140 186 240 301 358 425
#     4  12  28  46  67 102 146 198 240 293 355 430
#     4  11  25  45  73 111 141 185 242 301 358 416
#     4  12  26  46  68  99 146 193 241 292 356 425
#     4  10  23  43  72 106 139 187 238 297 361 419
#     4  10  21  43  72 102 139 182 240 296 356 419
#
# _framework density 23.080615000000002
#
# number of rings (size 3 to 8) (size 9 to 14) (size 15 to 20)
#    0.000    1.000    3.333    2.000    9.333    2.667 
#    0.000    0.000    0.000    0.000    0.000    0.000 
#    0.000    0.000    0.000    0.000    0.000    0.000 
#
# Total GULP energy -297356.929276 kJ/mol
# GULP energy per Si atom -12389.872053 kJ/mol
# Density = 2.302808 g / cm^3
# Si number density = 23.080615 Si / 1000 Ang^3
#
#
#
# Elastic Constant Matrix: (Units=GPa)
#
#
# Indices 1 2 3 4 5 6 
#
# 1 158.7158 52.7802 64.5822 0.0000 -12.3212 0.0000
# 2 52.7802 63.0968 40.2863 0.0000 1.8996 0.0000
# 3 64.5822 40.2863 170.0630 0.0000 1.4116 0.0000
# 4 0.0000 0.0000 0.0000 34.7640 0.0000 -2.2414
# 5 -12.3212 1.8996 1.4116 0.0000 42.3793 0.0000
# 6 0.0000 0.0000 0.0000 -2.2414 0.0000 16.7043
#
#
#
# Elastic Compliance Matrix: (Units=1/GPa)
#
#
# Indices 1 2 3 4 5 6 
#
# 1 0.009675 -0.006865 -0.002074 0.000000 0.003190 0.000000
# 2 -0.006865 0.023564 -0.002951 0.000000 -0.002954 0.000000
# 3 -0.002074 -0.002951 0.007373 0.000000 -0.000716 0.000000
# 4 0.000000 0.000000 0.000000 0.029016 0.000000 0.003894
# 5 0.003190 -0.002954 -0.000716 0.000000 0.024680 0.000000
# 6 0.000000 0.000000 0.000000 0.003894 0.000000 0.060387
#
#
# Mechanical properties :
#
#
# Convention : Reuss Voigt Hill
#
# Bulk Modulus (GPa) = 59.40984 78.57478 68.99231
# Shear Modulus (GPa) = 27.16123 34.38464 30.77294
#
# Velocity S-wave (km/s) = 3.43417 3.86393 3.65537
# Velocity P-wave (km/s) = 6.44366 7.35011 6.91176
#
# Compressibility (1/GPa) = 0.01683223
#
# Stress axis : x y z
#
# Youngs Moduli (GPa) = 103.35773 42.43793 135.63225
#
# Poissons Ratio (x) = 0.29133 0.28136
# Poissons Ratio (y) = 0.70952 0.40020
# Poissons Ratio (z) = 0.21441 0.12522
#
# Static dielectric constant tensor:
#      x y z
#    x 4.610900 0.000000 -0.050040 
#    y 0.000000 3.911880 0.000000 
#    z -0.050040 0.000000 4.555880 
# 
# 
# High freq. dielectric constant tensor:
#      x y z
#    x 1.926190 0.000000 -0.004510 
#    y 0.000000 1.885920 0.000000 
#    z -0.004510 0.000000 1.927220 
# 
# From -- ./inp_files/40680.got.cif
#   From: 2010.06.25/outbox.cif.g09.slc.cpg/sg15_21_cif.got.tgz:40680.got - 2010.06.28 07:06:18.
