data_PCOD8144508
_publ_section_title
;
Structure prediction by ZEFSAII (Michael W. Deem and Ramdas Pophale) SiO2 
 PCOD8144508
Probable space group: C 2/C
;
_chemical_formula_sum "Si O2"
_cell_formula_units_Z 48
_cell_length_a 11.817744
_cell_length_b 21.706766
_cell_length_c 8.907909
_cell_angle_alpha 90.000000
_cell_angle_beta 68.342717
_cell_angle_gamma 90.000000
_cell_volume 2123.791463
_symmetry_space_group_name_H-M "C 2/C"
_symmetry_group_IT_number 15
_symmetry_cell_setting 'monoclinic'
loop_
_space_group_symop_operation_xyz
x,y,z
-x,y,1/2-z
-x,-y,-z
x,-y,1/2+z
1/2+x,1/2+y,z
1/2-x,1/2+y,1/2-z
1/2-x,1/2-y,-z
1/2+x,1/2-y,1/2+z
loop_
_atom_site_type_symbol
_atom_site_label
_atom_site_fract_x
_atom_site_fract_y
_atom_site_fract_z
Si Si1 0.772417 0.352183 0.326674
Si Si2 0.357893 0.923004 0.795775
Si Si3 0.769028 0.822087 0.479593
Si Si4 0.998259 0.171428 0.481353
Si Si5 0.000000 0.065983 0.250000
Si Si6 0.256825 0.968820 0.536905
Si Si7 0.000000 0.274034 0.250000
O O1 0.789942 0.353041 0.139029
O O2 0.643868 0.318682 0.417509
O O3 0.769432 0.420429 0.394772
O O4 0.883583 0.315840 0.349724
O O5 0.500000 0.916828 0.750000
O O6 0.337083 0.947384 0.638146
O O7 0.295916 0.855899 0.847255
O O8 0.301708 0.966829 0.951190
O O9 0.750000 0.750000 0.500000
O O10 0.915646 0.832525 0.414409
O O11 0.027047 0.108777 0.378816
O O12 0.040830 0.231345 0.368027
O O13 0.116838 0.023355 0.159613
#
# Coordination Sequence:
#
# PCOD8144508 Si02
#       7
#     8   8   8   8   4   8   4
#     4  11  25  40  71 101 137 185 231 290 355 416
#     4  12  28  47  73 103 143 186 234 293 352 418
#     4  12  25  46  67 104 141 185 238 287 344 421
#     4  10  21  43  65  97 144 183 231 289 344 416
#     4   9  20  44  72 102 130 181 230 286 358 407
#     4  11  25  48  74 101 141 182 235 292 353 423
#     4  11  22  38  68 102 138 181 238 280 358 413
#
# _framework density 22.601089000000002
#
# number of rings (size 3 to 8) (size 9 to 14) (size 15 to 20)
#    0.000    1.000    3.333    2.500    3.500    3.333 
#    3.000    0.000    0.000    0.000    0.000    0.000 
#    0.000    0.000    0.000    0.000    0.000    0.000 
#
# Total GULP energy -297641.909358 kJ/mol
# GULP energy per Si atom -12401.746223 kJ/mol
# Density = 2.254965 g / cm^3
# Si number density = 22.601089 Si / 1000 Ang^3
#
#
#
# Elastic Constant Matrix: (Units=GPa)
#
#
# Indices 1 2 3 4 5 6 
#
# 1 162.3912 47.0636 35.2819 0.0000 -14.4022 0.0000
# 2 47.0636 105.8049 32.2143 0.0000 -13.3735 0.0000
# 3 35.2819 32.2143 73.5021 0.0000 2.1626 0.0000
# 4 0.0000 0.0000 0.0000 28.2298 0.0000 -4.1924
# 5 -14.4022 -13.3735 2.1626 0.0000 52.5162 0.0000
# 6 0.0000 0.0000 0.0000 -4.1924 0.0000 16.9096
#
#
#
# Elastic Compliance Matrix: (Units=1/GPa)
#
#
# Indices 1 2 3 4 5 6 
#
# 1 0.007555 -0.002357 -0.002640 0.000000 0.001580 0.000000
# 2 -0.002357 0.012128 -0.004261 0.000000 0.002618 0.000000
# 3 -0.002640 -0.004261 0.016813 0.000000 -0.002501 0.000000
# 4 0.000000 0.000000 0.000000 0.036778 0.000000 0.009118
# 5 0.001580 0.002618 -0.002501 0.000000 0.020245 0.000000
# 6 0.000000 0.000000 0.000000 0.009118 0.000000 0.061399
#
#
# Mechanical properties :
#
#
# Convention : Reuss Voigt Hill
#
# Bulk Modulus (GPa) = 55.61641 63.42418 59.52030
# Shear Modulus (GPa) = 27.86659 34.67370 31.27014
#
# Velocity S-wave (km/s) = 3.51518 3.92109 3.72367
# Velocity P-wave (km/s) = 6.41378 6.97304 6.69925
#
# Compressibility (1/GPa) = 0.01798030
#
# Stress axis : x y z
#
# Youngs Moduli (GPa) = 132.36687 82.45400 59.47658
#
# Poissons Ratio (x) = 0.19434 0.15701
# Poissons Ratio (y) = 0.31198 0.25343
# Poissons Ratio (z) = 0.34943 0.35134
#
# Static dielectric constant tensor:
#      x y z
#    x 4.198830 0.000000 0.069230 
#    y 0.000000 3.889930 0.000000 
#    z 0.069230 0.000000 4.088860 
# 
# 
# High freq. dielectric constant tensor:
#      x y z
#    x 1.909550 0.000000 0.002690 
#    y 0.000000 1.886830 0.000000 
#    z 0.002690 0.000000 1.885510 
# 
# From -- ./inp_files/32587.got.cif
#   From: 2010.06.25/outbox.cif.g09.slc.cpg/sg15_17_cif.got.tgz:32587.got - 2010.06.28 07:06:18.
