data_PCOD8144933
_publ_section_title
;
Structure prediction by ZEFSAII (Michael W. Deem and Ramdas Pophale) SiO2 
 PCOD8144933
Probable space group: C 2/C
;
_chemical_formula_sum "Si O2"
_cell_formula_units_Z 44
_cell_length_a 24.613243
_cell_length_b 15.518636
_cell_length_c 8.818693
_cell_angle_alpha 90.000000
_cell_angle_beta 42.856911
_cell_angle_gamma 90.000000
_cell_volume 2291.099427
_symmetry_space_group_name_H-M "C 2/C"
_symmetry_group_IT_number 15
_symmetry_cell_setting 'monoclinic'
loop_
_space_group_symop_operation_xyz
x,y,z
-x,y,1/2-z
-x,-y,-z
x,-y,1/2+z
1/2+x,1/2+y,z
1/2-x,1/2+y,1/2-z
1/2-x,1/2-y,-z
1/2+x,1/2-y,1/2+z
loop_
_atom_site_type_symbol
_atom_site_label
_atom_site_fract_x
_atom_site_fract_y
_atom_site_fract_z
Si Si1 0.734257 0.389988 0.545580
Si Si2 0.500000 0.545984 0.750000
Si Si3 0.671399 0.711476 0.734977
Si Si4 0.169964 0.032299 0.878768
Si Si5 0.012055 0.213006 0.891082
Si Si6 0.361809 0.767408 0.357995
O O1 0.709917 0.445358 0.739880
O O2 0.720868 0.444149 0.421928
O O3 0.679439 0.305506 0.660513
O O4 0.826500 0.359803 0.376910
O O5 0.576537 0.483646 0.605549
O O6 0.495912 0.608938 0.907388
O O7 0.750000 0.750000 0.500000
O O8 0.678352 0.608494 0.739116
O O9 0.601169 0.732179 0.762058
O O10 0.654398 0.754714 0.931546
O O11 0.000000 0.256579 0.750000
O O12 0.955397 0.258920 0.130509
#
# Coordination Sequence:
#
# PCOD8144933 Si02
#       6
#     8   4   8   8   8   8
#     4  10  22  37  60  89 126 168 207 255 310 376
#     4  10  22  34  62  96 136 152 196 256 334 398
#     4  11  26  39  62  92 127 173 219 260 319 381
#     4  11  23  36  61  91 132 165 207 256 328 385
#     4  10  22  39  64  90 131 161 205 264 321 383
#     4  10  22  40  61  89 131 167 218 252 316 376
#
# _framework density 19.204754000000001
#
# number of rings (size 3 to 8) (size 9 to 14) (size 15 to 20)
#    0.545    1.091    1.818    1.636   17.818    1.455 
#    0.000    0.000    0.000    1.091    0.000    0.000 
#    0.000    0.000    0.000    0.000    0.000    0.000 
#
# Total GULP energy -272773.473035 kJ/mol
# GULP energy per Si atom -12398.794229 kJ/mol
# Density = 1.916104 g / cm^3
# Si number density = 19.204754 Si / 1000 Ang^3
#
#
#
# Elastic Constant Matrix: (Units=GPa)
#
#
# Indices 1 2 3 4 5 6 
#
# 1 118.2856 54.1421 52.1256 0.0000 -6.4403 0.0000
# 2 54.1421 84.3912 56.8399 0.0000 -5.0404 0.0000
# 3 52.1256 56.8399 132.8650 0.0000 -3.7286 0.0000
# 4 0.0000 0.0000 0.0000 37.1423 0.0000 -5.2176
# 5 -6.4403 -5.0404 -3.7286 0.0000 28.5725 0.0000
# 6 0.0000 0.0000 0.0000 -5.2176 0.0000 25.6815
#
#
#
# Elastic Compliance Matrix: (Units=1/GPa)
#
#
# Indices 1 2 3 4 5 6 
#
# 1 0.012406 -0.006496 -0.002049 0.000000 0.001383 0.000000
# 2 -0.006496 0.020164 -0.006041 0.000000 0.001304 0.000000
# 3 -0.002049 -0.006041 0.010912 0.000000 -0.000104 0.000000
# 4 0.000000 0.000000 0.000000 0.027714 0.000000 0.005631
# 5 0.001383 0.001304 -0.000104 0.000000 0.035527 0.000000
# 6 0.000000 0.000000 0.000000 0.005631 0.000000 0.040083
#
#
# Mechanical properties :
#
#
# Convention : Reuss Voigt Hill
#
# Bulk Modulus (GPa) = 69.88690 73.52854 71.70772
# Shear Modulus (GPa) = 27.66274 29.77486 28.71880
#
# Velocity S-wave (km/s) = 3.79939 3.94177 3.87124
# Velocity P-wave (km/s) = 7.46436 7.68677 7.57638
#
# Compressibility (1/GPa) = 0.01430883
#
# Stress axis : x y z
#
# Youngs Moduli (GPa) = 80.60624 49.59308 91.64419
#
# Poissons Ratio (x) = 0.32218 0.18779
# Poissons Ratio (y) = 0.52365 0.55362
# Poissons Ratio (z) = 0.16517 0.29959
#
# Static dielectric constant tensor:
#      x y z
#    x 3.547500 0.000000 -0.011880 
#    y 0.000000 3.457760 0.000000 
#    z -0.011880 0.000000 3.374520 
# 
# 
# High freq. dielectric constant tensor:
#      x y z
#    x 1.755070 0.000000 0.007600 
#    y 0.000000 1.722310 0.000000 
#    z 0.007600 0.000000 1.740650 
# 
# From -- ./inp_files/62630.got.cif
#   From: 2010.06.25/outbox.cif.g09.slc.cpg/sg15_32_cif.got.tgz:62630.got - 2010.06.28 07:06:18.
