data_PCOD8144791
_publ_section_title
;
Structure prediction by ZEFSAII (Michael W. Deem and Ramdas Pophale) SiO2 
 PCOD8144791
Probable space group: C 2/C
;
_chemical_formula_sum "Si O2"
_cell_formula_units_Z 52
_cell_length_a 21.194478
_cell_length_b 11.063471
_cell_length_c 12.445901
_cell_angle_alpha 90.000000
_cell_angle_beta 127.272404
_cell_angle_gamma 90.000000
_cell_volume 2322.338077
_symmetry_space_group_name_H-M "C 2/C"
_symmetry_group_IT_number 15
_symmetry_cell_setting 'monoclinic'
loop_
_space_group_symop_operation_xyz
x,y,z
-x,y,1/2-z
-x,-y,-z
x,-y,1/2+z
1/2+x,1/2+y,z
1/2-x,1/2+y,1/2-z
1/2-x,1/2-y,-z
1/2+x,1/2-y,1/2+z
loop_
_atom_site_type_symbol
_atom_site_label
_atom_site_fract_x
_atom_site_fract_y
_atom_site_fract_z
Si Si1 0.207249 0.126350 0.959308
Si Si2 0.000000 0.235103 0.250000
Si Si3 0.450856 0.888276 0.002789
Si Si4 0.646163 0.294147 0.797866
Si Si5 0.425631 0.649747 0.853451
Si Si6 0.595229 0.582358 0.034391
Si Si7 0.689418 0.084390 0.984387
O O1 0.141965 0.114992 0.799906
O O2 0.284394 0.044951 0.026710
O O3 0.250000 0.250000 0.000000
O O4 0.168518 0.095631 0.031974
O O5 0.997290 0.318525 0.354364
O O6 0.080319 0.153927 0.317946
O O7 0.422114 0.790358 0.884397
O O8 0.372269 0.935529 0.982125
O O9 0.500000 0.000000 0.000000
O O10 0.610094 0.319558 0.644197
O O11 0.731864 0.351416 0.890868
O O12 0.653393 0.154139 0.843748
O O13 0.411161 0.557937 0.937660
O O14 0.512552 0.622252 0.893889
#
# Coordination Sequence:
#
# PCOD8144791 Si02
#       7
#     8   4   8   8   8   8   8
#     4  12  29  44  67 108 153 186 232 304 372 429
#     4  10  22  44  76 106 132 188 248 282 358 432
#     4  11  26  47  74 103 145 191 242 301 363 445
#     4  10  21  44  76 104 135 183 244 298 345 427
#     4  11  26  47  72 105 135 195 242 297 361 431
#     4  11  25  46  74 103 143 188 240 303 358 435
#     4  10  25  45  73 107 138 192 242 295 357 444
#
# _framework density 22.391228000000002
#
# number of rings (size 3 to 8) (size 9 to 14) (size 15 to 20)
#    0.000    1.231    3.077    0.462   10.769    2.462 
#    0.000    0.000    0.000    0.000    0.000    0.000 
#    0.000    0.000    0.000    0.000    0.000    0.000 
#
# Total GULP energy -322117.171711 kJ/mol
# GULP energy per Si atom -12389.121989 kJ/mol
# Density = 2.234026 g / cm^3
# Si number density = 22.391228 Si / 1000 Ang^3
#
#
#
# Elastic Constant Matrix: (Units=GPa)
#
#
# Indices 1 2 3 4 5 6 
#
# 1 205.0033 71.6163 25.0845 0.0000 9.1598 0.0000
# 2 71.6163 125.1856 13.5662 0.0000 -7.0812 0.0000
# 3 25.0845 13.5662 50.9202 0.0000 9.2150 0.0000
# 4 0.0000 0.0000 0.0000 28.8514 0.0000 4.8056
# 5 9.1598 -7.0812 9.2150 0.0000 35.0506 0.0000
# 6 0.0000 0.0000 0.0000 4.8056 0.0000 40.9237
#
#
#
# Elastic Compliance Matrix: (Units=1/GPa)
#
#
# Indices 1 2 3 4 5 6 
#
# 1 0.006449 -0.003595 -0.001872 0.000000 -0.001919 0.000000
# 2 -0.003595 0.010418 -0.001633 0.000000 0.003474 0.000000
# 3 -0.001872 -0.001633 0.022014 0.000000 -0.005629 0.000000
# 4 0.000000 0.000000 0.000000 0.035352 0.000000 -0.004151
# 5 -0.001919 0.003474 -0.005629 0.000000 0.031213 0.000000
# 6 0.000000 0.000000 0.000000 -0.004151 0.000000 0.024923
#
#
# Mechanical properties :
#
#
# Convention : Reuss Voigt Hill
#
# Bulk Modulus (GPa) = 40.51625 66.84924 53.68274
# Shear Modulus (GPa) = 32.72332 39.02128 35.87230
#
# Velocity S-wave (km/s) = 3.82702 4.17910 4.00693
# Velocity P-wave (km/s) = 6.13694 7.29427 6.74049
#
# Compressibility (1/GPa) = 0.02468146
#
# Stress axis : x y z
#
# Youngs Moduli (GPa) = 155.07287 95.98604 45.42500
#
# Poissons Ratio (x) = 0.34506 0.08502
# Poissons Ratio (y) = 0.55747 0.07419
# Poissons Ratio (z) = 0.29024 0.15678
#
# Static dielectric constant tensor:
#      x y z
#    x 4.172620 0.000000 0.091670 
#    y 0.000000 4.101030 0.000000 
#    z 0.091670 0.000000 3.891610 
# 
# 
# High freq. dielectric constant tensor:
#      x y z
#    x 1.905990 0.000000 0.019830 
#    y 0.000000 1.876400 0.000000 
#    z 0.019830 0.000000 1.878550 
# 
# From -- ./inp_files/111724.got.cif
#   From: 2010.06.25/outbox.cif.g09.slc.cpg/sg15_56_cif.got.tgz:111724.got - 2010.06.28 07:06:18.
