data_PCOD8144162
_publ_section_title
;
Structure prediction by ZEFSAII (Michael W. Deem and Ramdas Pophale) SiO2 
 PCOD8144162
Probable space group: C 2/C
;
_chemical_formula_sum "Si O2"
_cell_formula_units_Z 52
_cell_length_a 18.047916
_cell_length_b 23.103224
_cell_length_c 8.394535
_cell_angle_alpha 90.000000
_cell_angle_beta 47.206302
_cell_angle_gamma 90.000000
_cell_volume 2568.483140
_symmetry_space_group_name_H-M "C 2/C"
_symmetry_group_IT_number 15
_symmetry_cell_setting 'monoclinic'
loop_
_space_group_symop_operation_xyz
x,y,z
-x,y,1/2-z
-x,-y,-z
x,-y,1/2+z
1/2+x,1/2+y,z
1/2-x,1/2+y,1/2-z
1/2-x,1/2-y,-z
1/2+x,1/2-y,1/2+z
loop_
_atom_site_type_symbol
_atom_site_label
_atom_site_fract_x
_atom_site_fract_y
_atom_site_fract_z
Si Si1 0.000000 0.357810 0.750000
Si Si2 0.500000 0.547951 0.750000
Si Si3 0.500000 0.697555 0.250000
Si Si4 0.196754 0.825073 0.997137
Si Si5 0.905866 0.733600 0.169108
Si Si6 0.099200 0.886959 0.851100
Si Si7 0.702520 0.520061 0.999479
Si Si8 0.791364 0.578567 0.562106
O O1 0.980463 0.316730 0.624530
O O2 0.094471 0.399680 0.581814
O O3 0.499922 0.587113 0.588120
O O4 0.400166 0.509982 0.908564
O O5 0.440370 0.740781 0.451283
O O6 0.428450 0.655933 0.251327
O O7 0.103153 0.784801 0.187381
O O8 0.221727 0.868840 0.104409
O O9 0.293740 0.788851 0.804754
O O10 0.166785 0.856033 0.881216
O O11 0.172055 0.937467 0.685179
O O12 0.784110 0.473624 0.944615
O O13 0.751639 0.557103 0.788666
#
# Coordination Sequence:
#
# PCOD8144162 Si02
#       8
#     4   4   4   8   8   8   8   8
#     4  10  24  45  70  86 126 178 219 264 314 370
#     4  12  23  39  60  88 132 172 197 257 318 390
#     4  12  25  36  62  98 124 162 208 265 318 374
#     4  10  21  42  64  87 126 169 210 260 318 381
#     4  10  22  41  64  90 122 166 218 263 314 370
#     4  12  24  37  61  92 131 166 204 256 324 381
#     4  12  24  39  62  96 132 165 211 260 316 391
#     4  11  23  43  65  97 127 171 213 262 319 377
#
# _framework density 20.245411000000001
#
# number of rings (size 3 to 8) (size 9 to 14) (size 15 to 20)
#    0.000    0.923    3.077    3.692    2.154    2.462 
#    0.000    0.000    0.000    0.000    0.000    0.000 
#    0.000    0.000    0.000    0.000    0.000    0.000 
#
# Total GULP energy -322393.796375 kJ/mol
# GULP energy per Si atom -12399.761399 kJ/mol
# Density = 2.019933 g / cm^3
# Si number density = 20.245411 Si / 1000 Ang^3
#
#
#
# Elastic Constant Matrix: (Units=GPa)
#
#
# Indices 1 2 3 4 5 6 
#
# 1 105.4065 55.6708 70.5009 0.0000 -1.2436 0.0000
# 2 55.6708 129.6965 84.0765 0.0000 -0.9869 0.0000
# 3 70.5009 84.0765 116.5923 0.0000 3.6504 0.0000
# 4 0.0000 0.0000 0.0000 39.9010 0.0000 14.0378
# 5 -1.2436 -0.9869 3.6504 0.0000 23.6279 0.0000
# 6 0.0000 0.0000 0.0000 14.0378 0.0000 -25.8784
#
#
#
# Elastic Compliance Matrix: (Units=1/GPa)
#
#
# Indices 1 2 3 4 5 6 
#
# 1 0.016129 -0.001012 -0.009092 0.000000 0.002211 0.000000
# 2 -0.001012 0.014660 -0.010025 0.000000 0.002108 0.000000
# 3 -0.009092 -0.010025 0.021436 0.000000 -0.004209 0.000000
# 4 0.000000 0.000000 0.000000 0.021046 0.000000 0.011416
# 5 0.002211 0.002108 -0.004209 0.000000 0.043178 0.000000
# 6 0.000000 0.000000 0.000000 0.011416 0.000000 -0.032450
#
#
# Mechanical properties :
#
#
# Convention : Reuss Voigt Hill
#
# Bulk Modulus (GPa) = 83.57522 85.79906 84.68714
# Shear Modulus (GPa) = 38.98746 16.95992 27.97369
#
# Velocity S-wave (km/s) = 4.39309 2.89747 3.72120
# Velocity P-wave (km/s) = 8.19164 7.32566 7.77072
#
# Compressibility (1/GPa) = 0.01196527
#
# Stress axis : x y z
#
# Youngs Moduli (GPa) = 61.99970 68.21358 46.65085
#
# Poissons Ratio (x) = 0.06906 0.42415
# Poissons Ratio (y) = 0.06277 0.46769
# Poissons Ratio (z) = 0.56371 0.68386
#
# Static dielectric constant tensor:
#      x y z
#    x 2.973100 0.000000 0.019000 
#    y 0.000000 4.175940 0.000000 
#    z 0.019000 0.000000 3.662150 
# 
# 
# High freq. dielectric constant tensor:
#      x y z
#    x 1.789060 0.000000 0.009160 
#    y 0.000000 1.814420 0.000000 
#    z 0.009160 0.000000 1.787080 
# 
# From -- ./inp_files/58602.got.cif
#   From: 2010.06.25/outbox.cif.g09.slc.cpg/sg15_30_cif.got.tgz:58602.got - 2010.06.28 07:06:18.
