data_PCOD8144569
_publ_section_title
;
Structure prediction by ZEFSAII (Michael W. Deem and Ramdas Pophale) SiO2 
 PCOD8144569
Probable space group: C 2/C
;
_chemical_formula_sum "Si O2"
_cell_formula_units_Z 48
_cell_length_a 17.068967
_cell_length_b 7.302994
_cell_length_c 22.178318
_cell_angle_alpha 90.000000
_cell_angle_beta 51.337513
_cell_angle_gamma 90.000000
_cell_volume 2158.731458
_symmetry_space_group_name_H-M "C 2/C"
_symmetry_group_IT_number 15
_symmetry_cell_setting 'monoclinic'
loop_
_space_group_symop_operation_xyz
x,y,z
-x,y,1/2-z
-x,-y,-z
x,-y,1/2+z
1/2+x,1/2+y,z
1/2-x,1/2+y,1/2-z
1/2-x,1/2-y,-z
1/2+x,1/2-y,1/2+z
loop_
_atom_site_type_symbol
_atom_site_label
_atom_site_fract_x
_atom_site_fract_y
_atom_site_fract_z
Si Si1 0.214070 0.953539 0.970356
Si Si2 0.381647 0.278628 0.240725
Si Si3 0.200626 0.501941 0.301798
Si Si4 0.392861 0.275729 0.376310
Si Si5 0.616731 0.700251 0.931479
Si Si6 0.904744 0.201291 0.075213
O O1 0.333391 0.914587 0.918928
O O2 0.168348 0.791585 0.948484
O O3 0.190417 0.151388 0.952639
O O4 0.161233 0.939133 0.061045
O O5 0.317871 0.448241 0.244274
O O6 0.328319 0.082480 0.250280
O O7 0.388180 0.313516 0.307990
O O8 0.491750 0.266370 0.157711
O O9 0.177270 0.663146 0.360203
O O10 0.139336 0.319301 0.348474
O O11 0.586135 0.513480 0.909895
O O12 0.513556 0.786184 0.006308
#
# Coordination Sequence:
#
# PCOD8144569 Si02
#       6
#     8   8   8   8   8   8
#     4   9  18  39  73  89 128 171 220 271 334 393
#     4  11  26  40  67  92 139 177 223 263 335 404
#     4  12  24  40  66  98 132 179 223 276 326 400
#     4  10  21  43  67  95 129 186 208 266 349 398
#     4   9  20  37  69 105 128 162 226 287 329 385
#     4   9  19  39  67 105 130 163 218 284 336 385
#
# _framework density 22.235279999999999
#
# number of rings (size 3 to 8) (size 9 to 14) (size 15 to 20)
#    1.000    1.000    1.667    1.500    4.667    0.000 
#    0.000    0.833    7.333    0.000    0.000    0.000 
#    0.000    0.000    0.000    0.000    0.000    0.000 
#
# Total GULP energy -297354.947700 kJ/mol
# GULP energy per Si atom -12389.789488 kJ/mol
# Density = 2.218467 g / cm^3
# Si number density = 22.235280 Si / 1000 Ang^3
#
#
#
# Elastic Constant Matrix: (Units=GPa)
#
#
# Indices 1 2 3 4 5 6 
#
# 1 89.4222 29.3953 43.8592 -0.0003 -30.3276 0.0012
# 2 29.3953 79.1555 25.8605 -0.0007 -11.4347 0.0016
# 3 43.8592 25.8605 97.8695 -0.0001 -30.7594 -0.0001
# 4 -0.0003 -0.0007 -0.0001 37.4123 -0.0001 -2.3546
# 5 -30.3276 -11.4347 -30.7594 -0.0001 44.8136 -0.0003
# 6 0.0012 0.0016 -0.0001 -2.3546 -0.0003 17.2246
#
#
#
# Elastic Compliance Matrix: (Units=1/GPa)
#
#
# Indices 1 2 3 4 5 6 
#
# 1 0.017149 -0.003870 -0.004240 0.000000 0.007708 -0.000001
# 2 -0.003870 0.014760 -0.002302 0.000000 -0.000433 -0.000001
# 3 -0.004240 -0.002302 0.014841 0.000000 0.006730 0.000001
# 4 0.000000 0.000000 0.000000 0.026961 0.000000 0.003686
# 5 0.007708 -0.000433 0.006730 0.000000 0.032040 0.000000
# 6 -0.000001 -0.000001 0.000001 0.003686 0.000000 0.058560
#
#
# Mechanical properties :
#
#
# Convention : Reuss Voigt Hill
#
# Bulk Modulus (GPa) = 38.57042 51.63081 45.10061
# Shear Modulus (GPa) = 25.80290 31.04557 28.42424
#
# Velocity S-wave (km/s) = 3.41023 3.74067 3.57927
# Velocity P-wave (km/s) = 5.73501 6.47514 6.11628
#
# Compressibility (1/GPa) = 0.02592660
#
# Stress axis : x y z
#
# Youngs Moduli (GPa) = 58.31357 67.75087 67.37978
#
# Poissons Ratio (x) = 0.26217 0.28569
# Poissons Ratio (y) = 0.22565 0.15510
# Poissons Ratio (z) = 0.24725 0.15596
#
# Static dielectric constant tensor:
#      x y z
#    x 4.104890 0.000000 -0.225280 
#    y 0.000000 3.672760 0.000000 
#    z -0.225280 0.000000 4.162620 
# 
# 
# High freq. dielectric constant tensor:
#      x y z
#    x 1.865390 0.000000 -0.009020 
#    y 0.000000 1.833880 0.000000 
#    z -0.009020 0.000000 1.897290 
# 
# From -- ./inp_files/297955.got.cif
#   From: 2010.06.25/outbox.cif.g09.slc.cpg/sg15_149_cif.got.tgz:297955.got - 2010.06.28 07:06:18.
