data_PCOD8144415
_publ_section_title
;
Structure prediction by ZEFSAII (Michael W. Deem and Ramdas Pophale) SiO2 
 PCOD8144415
Probable space group: C 2/C
;
_chemical_formula_sum "Si O2"
_cell_formula_units_Z 60
_cell_length_a 5.316638
_cell_length_b 27.094644
_cell_length_c 19.509433
_cell_angle_alpha 90.000000
_cell_angle_beta 95.703291
_cell_angle_gamma 90.000000
_cell_volume 2796.469148
_symmetry_space_group_name_H-M "C 2/C"
_symmetry_group_IT_number 15
_symmetry_cell_setting 'monoclinic'
loop_
_space_group_symop_operation_xyz
x,y,z
-x,y,1/2-z
-x,-y,-z
x,-y,1/2+z
1/2+x,1/2+y,z
1/2-x,1/2+y,1/2-z
1/2-x,1/2-y,-z
1/2+x,1/2-y,1/2+z
loop_
_atom_site_type_symbol
_atom_site_label
_atom_site_fract_x
_atom_site_fract_y
_atom_site_fract_z
Si Si1 0.175940 0.498753 0.439036
Si Si2 0.738010 0.677250 0.707297
Si Si3 0.174876 0.900667 0.522763
Si Si4 0.129325 0.544039 0.190565
Si Si5 0.736150 0.208969 0.207090
Si Si6 0.426776 0.406568 0.384900
Si Si7 0.778957 0.627521 0.402305
Si Si8 0.500000 0.466255 0.250000
O O1 0.384420 0.541478 0.459763
O O2 0.269962 0.443167 0.430270
O O3 0.000000 0.500000 0.500000
O O4 0.046233 0.514671 0.365692
O O5 0.500000 0.666181 0.750000
O O6 0.741947 0.733965 0.684840
O O7 0.719458 0.643615 0.638584
O O8 0.000000 0.662048 0.750000
O O9 0.450507 0.884083 0.555892
O O10 0.166818 0.892876 0.439778
O O11 0.949343 0.868405 0.549885
O O12 0.294181 0.584077 0.153672
O O13 0.265179 0.502024 0.238139
O O14 0.000000 0.574308 0.250000
O O15 0.500000 0.198025 0.250000
O O16 0.700383 0.179247 0.136024
O O17 0.000000 0.194053 0.250000
O O18 0.503947 0.433000 0.317380
#
# Coordination Sequence:
#
# PCOD8144415 Si02
#       8
#     8   8   8   8   8   8   8   4
#     4  11  23  42  63  89 134 182 220 259 325 398
#     4  10  24  42  66 100 132 164 220 273 334 397
#     4  11  25  43  61  96 127 179 219 261 317 411
#     4  11  23  36  56  93 122 159 217 273 311 383
#     4  10  21  42  70  99 128 169 211 276 343 392
#     4  12  23  41  66  89 133 177 219 268 333 376
#     4  11  24  42  66  91 132 166 217 271 331 386
#     4  12  24  36  60  94 126 168 216 274 324 384
#
# _framework density 21.455625999999999
#
# number of rings (size 3 to 8) (size 9 to 14) (size 15 to 20)
#    0.000    1.067    2.000    4.800    4.667    2.133 
#    0.000    1.333    0.000    0.000    0.000    0.000 
#    0.000    0.000    0.000    0.000    0.000    0.000 
#
# Total GULP energy -371799.767776 kJ/mol
# GULP energy per Si atom -12393.325593 kJ/mol
# Density = 2.140679 g / cm^3
# Si number density = 21.455626 Si / 1000 Ang^3
#
#
#
# Elastic Constant Matrix: (Units=GPa)
#
#
# Indices 1 2 3 4 5 6 
#
# 1 123.4700 39.8694 63.3071 0.0000 3.3463 0.0000
# 2 39.8694 113.4803 59.9828 0.0000 18.2317 0.0000
# 3 63.3071 59.9828 162.1631 0.0000 11.5955 0.0000
# 4 0.0000 0.0000 0.0000 42.5576 0.0000 15.5809
# 5 3.3463 18.2317 11.5955 0.0000 32.9828 0.0000
# 6 0.0000 0.0000 0.0000 15.5809 0.0000 22.4986
#
#
#
# Elastic Compliance Matrix: (Units=1/GPa)
#
#
# Indices 1 2 3 4 5 6 
#
# 1 0.010489 -0.002087 -0.003415 0.000000 0.001290 0.000000
# 2 -0.002087 0.012146 -0.003296 0.000000 -0.005343 0.000000
# 3 -0.003415 -0.003296 0.008785 0.000000 -0.000920 0.000000
# 4 0.000000 0.000000 0.000000 0.031479 0.000000 -0.021800
# 5 0.001290 -0.005343 -0.000920 0.000000 0.033465 0.000000
# 6 0.000000 0.000000 0.000000 -0.021800 0.000000 0.059544
#
#
# Mechanical properties :
#
#
# Convention : Reuss Voigt Hill
#
# Bulk Modulus (GPa) = 72.34023 80.60356 76.47190
# Shear Modulus (GPa) = 28.07217 35.33807 31.70512
#
# Velocity S-wave (km/s) = 3.62108 4.06277 3.84827
# Velocity P-wave (km/s) = 7.16047 7.72381 7.44747
#
# Compressibility (1/GPa) = 0.01382357
#
# Stress axis : x y z
#
# Youngs Moduli (GPa) = 95.33612 82.33182 113.83448
#
# Poissons Ratio (x) = 0.17186 0.38875
# Poissons Ratio (y) = 0.19900 0.37517
# Poissons Ratio (z) = 0.32558 0.27134
#
# Static dielectric constant tensor:
#      x y z
#    x 3.856520 0.000000 0.253180 
#    y 0.000000 4.111070 0.000000 
#    z 0.253180 0.000000 4.305560 
# 
# 
# High freq. dielectric constant tensor:
#      x y z
#    x 1.840750 0.000000 0.009520 
#    y 0.000000 1.833220 0.000000 
#    z 0.009520 0.000000 1.856280 
# 
# From -- ./inp_files/186201.got.cif
#   From: 2010.06.25/outbox.cif.g09.slc.cpg/sg15_94_cif.got.tgz:186201.got - 2010.06.28 07:06:18.
