data_PCOD8144928
_publ_section_title
;
Structure prediction by ZEFSAII (Michael W. Deem and Ramdas Pophale) SiO2 
 PCOD8144928
Probable space group: C 2/C
;
_chemical_formula_sum "Si O2"
_cell_formula_units_Z 56
_cell_length_a 11.749857
_cell_length_b 25.324875
_cell_length_c 9.927677
_cell_angle_alpha 90.000000
_cell_angle_beta 113.840075
_cell_angle_gamma 90.000000
_cell_volume 2702.062426
_symmetry_space_group_name_H-M "C 2/C"
_symmetry_group_IT_number 15
_symmetry_cell_setting 'monoclinic'
loop_
_space_group_symop_operation_xyz
x,y,z
-x,y,1/2-z
-x,-y,-z
x,-y,1/2+z
1/2+x,1/2+y,z
1/2-x,1/2+y,1/2-z
1/2-x,1/2-y,-z
1/2+x,1/2-y,1/2+z
loop_
_atom_site_type_symbol
_atom_site_label
_atom_site_fract_x
_atom_site_fract_y
_atom_site_fract_z
Si Si1 0.850015 0.473528 0.342049
Si Si2 0.906399 0.663992 0.498182
Si Si3 0.505128 0.274628 0.898971
Si Si4 0.885346 0.805419 0.279642
Si Si5 0.634636 0.949120 0.436825
Si Si6 0.767956 0.699028 0.184966
Si Si7 0.675983 0.135331 0.544703
O O1 0.791730 0.468286 0.163210
O O2 0.803676 0.527100 0.396148
O O3 0.810865 0.427090 0.426140
O O4 0.996151 0.472444 0.378984
O O5 0.868446 0.614623 0.573379
O O6 0.792419 0.672083 0.340668
O O7 0.932311 0.716992 0.595935
O O8 0.032269 0.651238 0.478530
O O9 0.500000 0.302954 0.750000
O O10 0.365518 0.272367 0.889182
O O11 0.588469 0.306239 0.047155
O O12 0.868480 0.745767 0.214035
O O13 0.758867 0.837865 0.200734
O O14 0.000000 0.830426 0.250000
O O15 0.773940 0.653351 0.076372
#
# Coordination Sequence:
#
# PCOD8144928 Si02
#       7
#     8   8   8   8   8   8   8
#     4   9  20  33  57  81 113 152 183 241 295 353
#     4  10  22  34  58  83 120 158 193 239 297 348
#     4  11  24  37  55  82 119 165 200 237 287 345
#     4  11  21  37  57  80 116 158 198 245 281 352
#     4   9  19  36  52  83 119 145 190 236 295 356
#     4  11  21  36  55  84 120 158 201 240 286 350
#     4  11  20  35  59  85 114 155 201 238 297 349
#
# _framework density 20.724910999999999
#
# number of rings (size 3 to 8) (size 9 to 14) (size 15 to 20)
#    0.000    1.714    2.857    2.571    6.000    3.429 
#    0.000    0.000    0.000    0.000    0.000    5.000 
#    0.000    0.000    0.000    0.000    0.000    0.000 
#
# Total GULP energy -346983.962580 kJ/mol
# GULP energy per Si atom -12392.284378 kJ/mol
# Density = 2.067774 g / cm^3
# Si number density = 20.724911 Si / 1000 Ang^3
#
#
#
# Elastic Constant Matrix: (Units=GPa)
#
#
# Indices 1 2 3 4 5 6 
#
# 1 31.1348 17.4881 27.8265 0.0000 2.1327 0.0000
# 2 17.4881 61.4220 33.4003 0.0000 -3.2503 0.0000
# 3 27.8265 33.4003 140.6912 0.0000 -7.1580 0.0000
# 4 0.0000 0.0000 0.0000 19.6902 0.0000 2.4372
# 5 2.1327 -3.2503 -7.1580 0.0000 31.3038 0.0000
# 6 0.0000 0.0000 0.0000 2.4372 0.0000 10.9228
#
#
#
# Elastic Compliance Matrix: (Units=1/GPa)
#
#
# Indices 1 2 3 4 5 6 
#
# 1 0.043603 -0.009028 -0.006758 0.000000 -0.005453 0.000000
# 2 -0.009028 0.020591 -0.002997 0.000000 0.002068 0.000000
# 3 -0.006758 -0.002997 0.009271 0.000000 0.002269 0.000000
# 4 0.000000 0.000000 0.000000 0.052229 0.000000 -0.011654
# 5 -0.005453 0.002068 0.002269 0.000000 0.033050 0.000000
# 6 0.000000 0.000000 0.000000 -0.011654 0.000000 0.094152
#
#
# Mechanical properties :
#
#
# Convention : Reuss Voigt Hill
#
# Bulk Modulus (GPa) = 27.85703 43.40864 35.63283
# Shear Modulus (GPa) = 16.53275 22.68557 19.60916
#
# Velocity S-wave (km/s) = 2.82746 3.31207 3.07931
# Velocity P-wave (km/s) = 4.91222 5.96800 5.46566
#
# Compressibility (1/GPa) = 0.03589758
#
# Stress axis : x y z
#
# Youngs Moduli (GPa) = 22.93410 48.56552 107.85782
#
# Poissons Ratio (x) = 0.43847 0.72892
# Poissons Ratio (y) = 0.20706 0.32329
# Poissons Ratio (z) = 0.15499 0.14557
#
# Static dielectric constant tensor:
#      x y z
#    x 3.364800 0.000000 -0.034000 
#    y 0.000000 3.610070 0.000000 
#    z -0.034000 0.000000 4.233690 
# 
# 
# High freq. dielectric constant tensor:
#      x y z
#    x 1.767990 0.000000 -0.008780 
#    y 0.000000 1.782650 0.000000 
#    z -0.008780 0.000000 1.827120 
# 
# From -- ./inp_files/35322.got.cif
#   From: 2010.06.25/outbox.cif.g09.slc.cpg/sg15_18_cif.got.tgz:35322.got - 2010.06.28 07:06:18.
