data_PCOD8144528
_publ_section_title
;
Structure prediction by ZEFSAII (Michael W. Deem and Ramdas Pophale) SiO2 
 PCOD8144528
Probable space group: C 2/C
;
_chemical_formula_sum "Si O2"
_cell_formula_units_Z 60
_cell_length_a 7.935863
_cell_length_b 22.574398
_cell_length_c 24.092596
_cell_angle_alpha 90.000000
_cell_angle_beta 43.445005
_cell_angle_gamma 90.000000
_cell_volume 2968.017419
_symmetry_space_group_name_H-M "C 2/C"
_symmetry_group_IT_number 15
_symmetry_cell_setting 'monoclinic'
loop_
_space_group_symop_operation_xyz
x,y,z
-x,y,1/2-z
-x,-y,-z
x,-y,1/2+z
1/2+x,1/2+y,z
1/2-x,1/2+y,1/2-z
1/2-x,1/2-y,-z
1/2+x,1/2-y,1/2+z
loop_
_atom_site_type_symbol
_atom_site_label
_atom_site_fract_x
_atom_site_fract_y
_atom_site_fract_z
Si Si1 0.406224 0.898302 0.105407
Si Si2 0.500000 0.484584 0.250000
Si Si3 0.345685 0.697997 0.016778
Si Si4 0.942404 0.404100 0.970736
Si Si5 0.312227 0.482847 0.999031
Si Si6 0.232549 0.812937 0.833288
Si Si7 0.869420 0.720340 0.917437
Si Si8 0.511212 0.428665 0.648999
O O1 0.428065 0.830907 0.120498
O O2 0.221672 0.940008 0.183357
O O3 0.333000 0.897817 0.058427
O O4 0.683477 0.921761 0.046598
O O5 0.583776 0.530108 0.278257
O O6 0.212707 0.638301 0.031015
O O7 0.287095 0.702038 0.096344
O O8 0.250000 0.750000 0.000000
O O9 0.640471 0.696707 0.935716
O O10 0.234709 0.393735 0.897963
O O11 0.904649 0.470055 0.956935
O O12 0.455816 0.475891 0.907595
O O13 0.500000 0.500000 0.000000
O O14 0.500000 0.794085 0.750000
O O15 0.185854 0.880443 0.824791
O O16 0.030788 0.771938 0.849869
O O17 0.750000 0.750000 0.000000
#
# Coordination Sequence:
#
# PCOD8144528 Si02
#       8
#     8   4   8   8   8   8   8   8
#     4  11  22  40  65  95 129 174 220 272 337 395
#     4  12  24  40  64  96 140 180 208 268 360 402
#     4  11  22  41  69  95 123 172 227 274 328 394
#     4  11  19  38  64  91 120 168 226 265 311 392
#     4  11  20  37  62  92 121 167 222 265 309 386
#     4  11  25  42  64  99 131 173 214 280 346 393
#     4  10  21  43  66  94 126 169 224 278 326 401
#     4  11  23  41  62  94 132 170 222 269 327 405
#
# _framework density 20.215513999999999
#
# number of rings (size 3 to 8) (size 9 to 14) (size 15 to 20)
#    0.000    1.067    2.667    8.000    2.800    1.067 
#    0.000    0.000    0.000    0.000    0.000    0.000 
#    0.000    0.000    0.000    0.000    0.000    0.000 
#
# Total GULP energy -371769.157341 kJ/mol
# GULP energy per Si atom -12392.305245 kJ/mol
# Density = 2.016950 g / cm^3
# Si number density = 20.215514 Si / 1000 Ang^3
#
#
#
# Elastic Constant Matrix: (Units=GPa)
#
#
# Indices 1 2 3 4 5 6 
#
# 1 106.9195 30.8279 37.6344 0.0001 -2.8436 -0.0002
# 2 30.8279 107.7470 34.3076 0.0000 2.7525 0.0000
# 3 37.6344 34.3076 102.4445 0.0000 -3.1216 -0.0001
# 4 0.0001 0.0000 0.0000 29.5196 0.0000 -7.1333
# 5 -2.8436 2.7525 -3.1216 0.0000 27.2194 0.0001
# 6 -0.0002 0.0000 -0.0001 -7.1333 0.0001 52.5571
#
#
#
# Elastic Compliance Matrix: (Units=1/GPa)
#
#
# Indices 1 2 3 4 5 6 
#
# 1 0.011182 -0.002157 -0.003355 0.000000 0.001002 0.000000
# 2 -0.002157 0.010862 -0.002896 0.000000 -0.001656 0.000000
# 3 -0.003355 -0.002896 0.012004 0.000000 0.001319 0.000000
# 4 0.000000 0.000000 0.000000 0.035025 0.000000 0.004754
# 5 0.001002 -0.001656 0.001319 0.000000 0.037162 0.000000
# 6 0.000000 0.000000 0.000000 0.004754 0.000000 0.019672
#
#
# Mechanical properties :
#
#
# Convention : Reuss Voigt Hill
#
# Bulk Modulus (GPa) = 58.02769 58.07232 58.05000
# Shear Modulus (GPa) = 33.67749 36.14861 34.91305
#
# Velocity S-wave (km/s) = 4.08600 4.23325 4.16028
# Velocity P-wave (km/s) = 7.14334 7.25830 7.20105
#
# Compressibility (1/GPa) = 0.01723315
#
# Stress axis : x y z
#
# Youngs Moduli (GPa) = 89.42709 92.06042 83.30590
#
# Poissons Ratio (x) = 0.19854 0.27951
# Poissons Ratio (y) = 0.19286 0.24124
# Poissons Ratio (z) = 0.30005 0.26660
#
# Static dielectric constant tensor:
#      x y z
#    x 4.110500 0.000000 -0.243870 
#    y 0.000000 4.795920 0.000000 
#    z -0.243870 0.000000 3.630060 
# 
# 
# High freq. dielectric constant tensor:
#      x y z
#    x 1.793180 0.000000 -0.009250 
#    y 0.000000 1.807420 0.000000 
#    z -0.009250 0.000000 1.766530 
# 
# From -- ./inp_files/266217.got.cif
#   From: 2010.06.25/outbox.cif.g09.slc.cpg/sg15_134_cif.got.tgz:266217.got - 2010.06.28 07:06:18.
