data_PCOD8144983
_publ_section_title
;
Structure prediction by ZEFSAII (Michael W. Deem and Ramdas Pophale) SiO2 
 PCOD8144983
Probable space group: C 2/C
;
_chemical_formula_sum "Si O2"
_cell_formula_units_Z 56
_cell_length_a 34.459246
_cell_length_b 13.994266
_cell_length_c 9.814934
_cell_angle_alpha 90.000000
_cell_angle_beta 43.920180
_cell_angle_gamma 90.000000
_cell_volume 3283.123017
_symmetry_space_group_name_H-M "C 2/C"
_symmetry_group_IT_number 15
_symmetry_cell_setting 'monoclinic'
loop_
_space_group_symop_operation_xyz
x,y,z
-x,y,1/2-z
-x,-y,-z
x,-y,1/2+z
1/2+x,1/2+y,z
1/2-x,1/2+y,1/2-z
1/2-x,1/2-y,-z
1/2+x,1/2-y,1/2+z
loop_
_atom_site_type_symbol
_atom_site_label
_atom_site_fract_x
_atom_site_fract_y
_atom_site_fract_z
Si Si1 0.745248 0.520051 0.882406
Si Si2 0.885796 0.330332 0.375526
Si Si3 0.002700 0.403023 0.081405
Si Si4 0.880344 0.684824 0.201965
Si Si5 0.217355 0.198297 0.462846
Si Si6 0.318049 0.000927 0.944264
Si Si7 0.213804 0.778178 0.464667
O O1 0.717613 0.416819 0.979832
O O2 0.789802 0.551632 0.885639
O O3 0.770575 0.527180 0.669167
O O4 0.701928 0.608164 0.987962
O O5 0.951032 0.334300 0.171280
O O6 0.878469 0.291371 0.546879
O O7 0.863231 0.437535 0.412221
O O8 0.849208 0.263385 0.369560
O O9 0.000000 0.429624 0.250000
O O10 0.000000 0.500000 0.000000
O O11 0.056454 0.337547 0.909020
O O12 0.848460 0.769094 0.366663
O O13 0.845639 0.590506 0.310846
O O14 0.250000 0.250000 0.500000
O O15 0.250420 0.229528 0.245915
O O16 0.250000 0.750000 0.500000
#
# Coordination Sequence:
#
# PCOD8144983 Si02
#       7
#     8   8   8   8   8   8   8
#     4  12  22  32  52  82 108 148 175 217 277 332
#     4  11  21  36  52  81 115 142 180 227 273 328
#     4  10  22  36  57  81 108 147 190 226 276 329
#     4  11  21  35  55  80 109 149 182 222 270 334
#     4  12  20  36  55  76 110 150 180 220 277 333
#     4  12  18  31  54  76 109 139 179 214 262 331
#     4  12  22  34  53  82 115 143 177 232 280 322
#
# _framework density 17.056930000000001
#
# number of rings (size 3 to 8) (size 9 to 14) (size 15 to 20)
#    0.000    0.571   10.000    0.000    0.000    0.000 
#    2.571    0.000    0.000    0.857    0.000    0.000 
#    0.000    0.000    0.000    0.000    0.000    0.000 
#
# Total GULP energy -346937.456024 kJ/mol
# GULP energy per Si atom -12390.623429 kJ/mol
# Density = 1.701811 g / cm^3
# Si number density = 17.056930 Si / 1000 Ang^3
#
#
#
# Elastic Constant Matrix: (Units=GPa)
#
#
# Indices 1 2 3 4 5 6 
#
# 1 110.4688 24.2133 44.1715 0.0000 -13.3660 0.0000
# 2 24.2133 132.7093 30.5032 0.0000 -19.4289 0.0000
# 3 44.1715 30.5032 75.8287 0.0000 -15.0702 0.0000
# 4 0.0000 0.0000 0.0000 -19.4269 0.0000 -0.0717
# 5 -13.3660 -19.4289 -15.0702 0.0000 35.3332 0.0000
# 6 0.0000 0.0000 0.0000 -0.0717 0.0000 -7.0497
#
#
#
# Elastic Compliance Matrix: (Units=1/GPa)
#
#
# Indices 1 2 3 4 5 6 
#
# 1 0.011918 -0.000472 -0.006455 0.000000 0.001496 0.000000
# 2 -0.000472 0.008721 -0.002530 0.000000 0.003538 0.000000
# 3 -0.006455 -0.002530 0.018797 0.000000 0.004184 0.000000
# 4 0.000000 0.000000 0.000000 -0.051477 0.000000 0.000524
# 5 0.001496 0.003538 0.004184 0.000000 0.032598 0.000000
# 6 0.000000 0.000000 0.000000 0.000524 0.000000 -0.141855
#
#
# Mechanical properties :
#
#
# Convention : Reuss Voigt Hill
#
# Bulk Modulus (GPa) = 48.72943 57.42030 53.07487
# Shear Modulus (GPa) = -52.33251 16.44590 -17.94330
#
# Velocity S-wave (km/s) = -5.54506 3.10849 -3.24692
# Velocity P-wave (km/s) = 3.51656 6.82793 4.13850
#
# Compressibility (1/GPa) = 0.02052148
#
# Stress axis : x y z
#
# Youngs Moduli (GPa) = 83.90725 114.66783 53.19897
#
# Poissons Ratio (x) = 0.05409 0.34342
# Poissons Ratio (y) = 0.03958 0.13460
# Poissons Ratio (z) = 0.54165 0.29013
#
# Static dielectric constant tensor:
#      x y z
#    x 3.345150 0.000000 -0.137770 
#    y 0.000000 3.296560 0.000000 
#    z -0.137770 0.000000 3.360940 
# 
# 
# High freq. dielectric constant tensor:
#      x y z
#    x 1.657490 0.000000 0.012750 
#    y 0.000000 1.647630 0.000000 
#    z 0.012750 0.000000 1.652150 
# 
# From -- ./inp_files/65928.got.cif
#   From: 2010.06.25/outbox.cif.g09.slc.cpg/sg15_33_cif.got.tgz:65928.got - 2010.06.28 07:06:18.
