data_PCOD8144958
_publ_section_title
;
Structure prediction by ZEFSAII (Michael W. Deem and Ramdas Pophale) SiO2 
 PCOD8144958
Probable space group: C 2/C
;
_chemical_formula_sum "Si O2"
_cell_formula_units_Z 56
_cell_length_a 26.908897
_cell_length_b 19.328458
_cell_length_c 8.068729
_cell_angle_alpha 90.000000
_cell_angle_beta 42.312869
_cell_angle_gamma 90.000000
_cell_volume 2825.065682
_symmetry_space_group_name_H-M "C 2/C"
_symmetry_group_IT_number 15
_symmetry_cell_setting 'monoclinic'
loop_
_space_group_symop_operation_xyz
x,y,z
-x,y,1/2-z
-x,-y,-z
x,-y,1/2+z
1/2+x,1/2+y,z
1/2-x,1/2+y,1/2-z
1/2-x,1/2-y,-z
1/2+x,1/2-y,1/2+z
loop_
_atom_site_type_symbol
_atom_site_label
_atom_site_fract_x
_atom_site_fract_y
_atom_site_fract_z
Si Si1 0.782735 0.649769 0.848376
Si Si2 0.264159 0.970961 0.146861
Si Si3 0.810462 0.083787 0.977592
Si Si4 0.525957 0.427391 0.499806
Si Si5 0.500000 0.976876 0.250000
Si Si6 0.500000 0.666851 0.750000
Si Si7 0.163264 0.789350 0.877808
Si Si8 0.102556 0.441125 0.267085
O O1 0.757896 0.581603 0.813976
O O2 0.814801 0.709327 0.648144
O O3 0.848180 0.627226 0.815067
O O4 0.708568 0.679645 0.111984
O O5 0.206577 0.034384 0.321469
O O6 0.251096 0.930356 0.008199
O O7 0.346169 0.999601 0.936751
O O8 0.813066 0.164385 0.023032
O O9 0.886797 0.065886 0.703729
O O10 0.500000 0.500000 0.500000
O O11 0.498797 0.374921 0.425353
O O12 0.500000 0.407457 0.750000
O O13 0.437650 0.028069 0.474205
O O14 0.538588 0.925960 0.288859
O O15 0.575356 0.710833 0.560990
#
# Coordination Sequence:
#
# PCOD8144958 Si02
#       8
#     8   8   8   8   4   4   8   8
#     4  11  23  40  68  90 123 169 211 256 319 386
#     4  12  21  37  66  91 123 160 211 266 313 370
#     4  11  22  36  61  94 125 163 213 264 311 373
#     4  11  22  34  58  95 127 165 210 264 322 374
#     4  10  22  35  60  94 129 150 202 266 324 375
#     4  10  24  43  64  84 133 170 214 264 326 393
#     4  10  24  44  61  89 126 171 210 257 320 390
#     4  11  20  38  60  95 122 161 204 262 318 382
#
# _framework density 19.822548000000001
#
# number of rings (size 3 to 8) (size 9 to 14) (size 15 to 20)
#    0.000    1.143    5.000    0.857    6.000    1.143 
#    0.000    0.000    1.571    0.000    0.000    0.000 
#    0.000    0.000    0.000    0.000    0.000    0.000 
#
# Total GULP energy -347022.947629 kJ/mol
# GULP energy per Si atom -12393.676701 kJ/mol
# Density = 1.977743 g / cm^3
# Si number density = 19.822548 Si / 1000 Ang^3
#
#
#
# Elastic Constant Matrix: (Units=GPa)
#
#
# Indices 1 2 3 4 5 6 
#
# 1 98.0579 26.7777 20.3545 0.0000 3.3053 0.0000
# 2 26.7777 75.5230 26.0581 0.0000 -10.7432 0.0000
# 3 20.3545 26.0581 121.7290 0.0000 -5.2966 0.0000
# 4 0.0000 0.0000 0.0000 32.1861 0.0000 2.3391
# 5 3.3053 -10.7432 -5.2966 0.0000 32.9275 0.0000
# 6 0.0000 0.0000 0.0000 2.3391 0.0000 25.0988
#
#
#
# Elastic Compliance Matrix: (Units=1/GPa)
#
#
# Indices 1 2 3 4 5 6 
#
# 1 0.011657 -0.004108 -0.001187 0.000000 -0.002701 0.000000
# 2 -0.004108 0.016346 -0.002580 0.000000 0.005331 0.000000
# 3 -0.001187 -0.002580 0.008997 0.000000 0.000725 0.000000
# 4 0.000000 0.000000 0.000000 0.031281 0.000000 -0.002915
# 5 -0.002701 0.005331 0.000725 0.000000 0.032497 0.000000
# 6 0.000000 0.000000 0.000000 -0.002915 0.000000 0.040114
#
#
# Mechanical properties :
#
#
# Convention : Reuss Voigt Hill
#
# Bulk Modulus (GPa) = 47.05965 49.07671 48.06818
# Shear Modulus (GPa) = 30.53856 32.85045 31.69451
#
# Velocity S-wave (km/s) = 3.92930 4.07532 4.00298
# Velocity P-wave (km/s) = 6.66167 6.85245 6.75774
#
# Compressibility (1/GPa) = 0.02124963
#
# Stress axis : x y z
#
# Youngs Moduli (GPa) = 85.78261 61.17681 111.14309
#
# Poissons Ratio (x) = 0.25130 0.13198
# Poissons Ratio (y) = 0.35238 0.28678
# Poissons Ratio (z) = 0.10186 0.15786
#
# Static dielectric constant tensor:
#      x y z
#    x 3.734390 0.000000 0.024810 
#    y 0.000000 3.511610 0.000000 
#    z 0.024810 0.000000 3.974140 
# 
# 
# High freq. dielectric constant tensor:
#      x y z
#    x 1.772810 0.000000 -0.006270 
#    y 0.000000 1.748450 0.000000 
#    z -0.006270 0.000000 1.792670 
# 
# From -- ./inp_files/67149.got.cif
#   From: 2010.06.25/outbox.cif.g09.slc.cpg/sg15_34_cif.got.tgz:67149.got - 2010.06.28 07:06:18.
