data_PCOD8144865
_publ_section_title
;
Structure prediction by ZEFSAII (Michael W. Deem and Ramdas Pophale) SiO2 
 PCOD8144865
Probable space group: C 2/C
;
_chemical_formula_sum "Si O2"
_cell_formula_units_Z 52
_cell_length_a 10.668824
_cell_length_b 18.046308
_cell_length_c 20.259088
_cell_angle_alpha 90.000000
_cell_angle_beta 141.001907
_cell_angle_gamma 90.000000
_cell_volume 2454.588866
_symmetry_space_group_name_H-M "C 2/C"
_symmetry_group_IT_number 15
_symmetry_cell_setting 'monoclinic'
loop_
_space_group_symop_operation_xyz
x,y,z
-x,y,1/2-z
-x,-y,-z
x,-y,1/2+z
1/2+x,1/2+y,z
1/2-x,1/2+y,1/2-z
1/2-x,1/2-y,-z
1/2+x,1/2-y,1/2+z
loop_
_atom_site_type_symbol
_atom_site_label
_atom_site_fract_x
_atom_site_fract_y
_atom_site_fract_z
Si Si1 0.182692 0.204568 0.536023
Si Si2 0.500000 0.130915 0.750000
Si Si3 0.001878 0.877628 0.324244
Si Si4 0.371123 0.906315 0.562485
Si Si5 0.098639 0.927463 0.571669
Si Si6 0.483090 0.244502 0.080745
Si Si7 0.188774 0.486323 0.235838
O O1 0.250000 0.250000 0.500000
O O2 0.386337 0.185376 0.655069
O O3 0.069036 0.128892 0.471255
O O4 0.040941 0.251106 0.527336
O O5 0.354875 0.078520 0.730938
O O6 0.858241 0.949674 0.259845
O O7 0.000000 0.843906 0.250000
O O8 0.219795 0.905870 0.437966
O O9 0.914952 0.811490 0.335961
O O10 0.238576 0.891640 0.573293
O O11 0.534079 0.839605 0.624125
O O12 0.494958 0.983820 0.616474
O O13 0.228211 0.944667 0.688934
O O14 0.000000 0.000000 0.500000
O O15 0.250000 0.250000 0.000000
#
# Coordination Sequence:
#
# PCOD8144865 Si02
#       7
#     8   4   8   8   8   8   8
#     4  12  26  44  73 106 145 183 227 306 365 419
#     4  12  22  42  70 106 134 180 244 274 362 428
#     4  11  24  43  68  97 144 187 229 296 355 413
#     4  11  22  41  72 100 133 177 245 282 340 433
#     4  12  19  43  71 100 132 183 233 283 346 428
#     4  10  21  46  67  97 141 179 236 287 347 428
#     4  12  23  41  72 100 135 184 236 292 343 427
#
# _framework density 21.184811
#
# number of rings (size 3 to 8) (size 9 to 14) (size 15 to 20)
#    0.000    0.615    9.231    0.000    0.000    5.538 
#    2.769    0.000    0.000    0.000    0.000    0.000 
#    0.000    0.000    0.000    0.000    0.000    0.000 
#
# Total GULP energy -322262.701821 kJ/mol
# GULP energy per Si atom -12394.719301 kJ/mol
# Density = 2.113659 g / cm^3
# Si number density = 21.184811 Si / 1000 Ang^3
#
#
#
# Elastic Constant Matrix: (Units=GPa)
#
#
# Indices 1 2 3 4 5 6 
#
# 1 123.9131 64.0216 44.8212 0.0000 -14.4000 0.0000
# 2 64.0216 123.6612 52.7883 0.0001 -1.4576 0.0001
# 3 44.8212 52.7883 103.2711 0.0009 -3.1009 0.0004
# 4 0.0000 0.0001 0.0009 35.0881 0.0004 2.9229
# 5 -14.4000 -1.4576 -3.1009 0.0004 31.8217 0.0002
# 6 0.0000 0.0001 0.0004 2.9229 0.0002 54.4872
#
#
#
# Elastic Compliance Matrix: (Units=1/GPa)
#
#
# Indices 1 2 3 4 5 6 
#
# 1 0.012260 -0.005220 -0.002501 0.000000 0.005065 0.000000
# 2 -0.005220 0.012566 -0.004224 0.000000 -0.002198 0.000000
# 3 -0.002501 -0.004224 0.012926 0.000000 -0.000066 0.000000
# 4 0.000000 0.000000 0.000000 0.028628 0.000000 -0.001536
# 5 0.005065 -0.002198 -0.000066 0.000000 0.033610 0.000000
# 6 0.000000 0.000000 0.000000 -0.001536 0.000000 0.018435
#
#
# Mechanical properties :
#
#
# Convention : Reuss Voigt Hill
#
# Bulk Modulus (GPa) = 72.13465 74.90086 73.51776
# Shear Modulus (GPa) = 34.02838 36.89370 35.46104
#
# Velocity S-wave (km/s) = 4.01217 4.17768 4.09576
# Velocity P-wave (km/s) = 7.45570 7.66181 7.55946
#
# Compressibility (1/GPa) = 0.01386296
#
# Stress axis : x y z
#
# Youngs Moduli (GPa) = 81.56275 79.57747 77.36537
#
# Poissons Ratio (x) = 0.41542 0.19347
# Poissons Ratio (y) = 0.42578 0.32678
# Poissons Ratio (z) = 0.20397 0.33612
#
# Static dielectric constant tensor:
#      x y z
#    x 3.808010 0.000000 0.065460 
#    y 0.000000 4.320870 0.000000 
#    z 0.065460 0.000000 3.741460 
# 
# 
# High freq. dielectric constant tensor:
#      x y z
#    x 1.819750 0.000000 0.008070 
#    y 0.000000 1.837240 0.000000 
#    z 0.008070 0.000000 1.820680 
# 
# From -- ./inp_files/239854.got.cif
#   From: 2010.06.25/outbox.cif.g09.slc.cpg/sg15_120_cif.got.tgz:239854.got - 2010.06.28 07:06:18.
