data_PCOD8144802
_publ_section_title
;
Structure prediction by ZEFSAII (Michael W. Deem and Ramdas Pophale) SiO2 
 PCOD8144802
Probable space group: C 2/C
;
_chemical_formula_sum "Si O2"
_cell_formula_units_Z 52
_cell_length_a 15.443718
_cell_length_b 11.006981
_cell_length_c 16.078717
_cell_angle_alpha 90.000000
_cell_angle_beta 65.843348
_cell_angle_gamma 90.000000
_cell_volume 2493.853983
_symmetry_space_group_name_H-M "C 2/C"
_symmetry_group_IT_number 15
_symmetry_cell_setting 'monoclinic'
loop_
_space_group_symop_operation_xyz
x,y,z
-x,y,1/2-z
-x,-y,-z
x,-y,1/2+z
1/2+x,1/2+y,z
1/2-x,1/2+y,1/2-z
1/2-x,1/2-y,-z
1/2+x,1/2-y,1/2+z
loop_
_atom_site_type_symbol
_atom_site_label
_atom_site_fract_x
_atom_site_fract_y
_atom_site_fract_z
Si Si1 0.868640 0.038431 0.454992
Si Si2 0.482340 0.229273 0.929064
Si Si3 0.185561 0.608757 0.431074
Si Si4 0.872063 0.550779 0.695987
Si Si5 0.814085 0.137709 0.647946
Si Si6 0.000000 0.383385 0.750000
Si Si7 0.983946 0.200729 0.897928
O O1 0.948561 0.141303 0.405011
O O2 0.777776 0.047559 0.432295
O O3 0.836623 0.046020 0.563519
O O4 0.910346 0.907756 0.418821
O O5 0.563641 0.171531 0.839732
O O6 0.390314 0.140504 0.966580
O O7 0.520262 0.243655 0.008133
O O8 0.131724 0.520308 0.388995
O O9 0.219359 0.732543 0.373838
O O10 0.765714 0.585283 0.761393
O O11 0.914355 0.466683 0.751410
O O12 0.909806 0.153442 0.664250
O O13 0.043521 0.302783 0.658385
#
# Coordination Sequence:
#
# PCOD8144802 Si02
#       7
#     8   8   8   8   8   4   8
#     4  10  22  42  70  92 124 172 217 258 318 387
#     4  10  21  45  65  94 124 177 210 257 323 386
#     4  10  22  41  61  94 128 165 210 266 315 381
#     4  12  26  39  68  92 135 164 218 264 323 383
#     4  10  22  43  62  96 127 165 212 273 308 376
#     4  12  26  44  60  98 132 166 208 274 328 370
#     4  10  23  46  67  90 135 169 212 263 324 379
#
# _framework density 20.851261000000001
#
# number of rings (size 3 to 8) (size 9 to 14) (size 15 to 20)
#    0.000    1.846    3.077    4.154    6.462    2.462 
#    0.000    1.538    0.000    0.000    0.000    0.000 
#    0.000    0.000    0.000    0.000    0.000    0.000 
#
# Total GULP energy -322451.941659 kJ/mol
# GULP energy per Si atom -12401.997756 kJ/mol
# Density = 2.080380 g / cm^3
# Si number density = 20.851261 Si / 1000 Ang^3
#
#
#
# Elastic Constant Matrix: (Units=GPa)
#
#
# Indices 1 2 3 4 5 6 
#
# 1 108.6654 45.0463 34.8421 0.0000 5.7099 0.0000
# 2 45.0463 84.7238 36.5703 0.0000 -14.4749 0.0000
# 3 34.8421 36.5703 51.2732 0.0000 -11.1064 0.0000
# 4 0.0000 0.0000 0.0000 23.4582 0.0000 -7.4273
# 5 5.7099 -14.4749 -11.1064 0.0000 36.2044 0.0000
# 6 0.0000 0.0000 0.0000 -7.4273 0.0000 31.0321
#
#
#
# Elastic Compliance Matrix: (Units=1/GPa)
#
#
# Indices 1 2 3 4 5 6 
#
# 1 0.014133 -0.005609 -0.007040 0.000000 -0.006631 0.000000
# 2 -0.005609 0.019656 -0.008907 0.000000 0.006011 0.000000
# 3 -0.007040 -0.008907 0.032252 0.000000 0.007443 0.000000
# 4 0.000000 0.000000 0.000000 0.046124 0.000000 0.011040
# 5 -0.006631 0.006011 0.007443 0.000000 0.033354 0.000000
# 6 0.000000 0.000000 0.000000 0.011040 0.000000 0.034867
#
#
# Mechanical properties :
#
#
# Convention : Reuss Voigt Hill
#
# Bulk Modulus (GPa) = 43.60820 53.06444 48.33632
# Shear Modulus (GPa) = 21.63175 26.68583 24.15879
#
# Velocity S-wave (km/s) = 3.22441 3.58134 3.40755
# Velocity P-wave (km/s) = 5.90100 6.52729 6.22203
#
# Compressibility (1/GPa) = 0.02293147
#
# Stress axis : x y z
#
# Youngs Moduli (GPa) = 70.75475 50.87388 31.00543
#
# Poissons Ratio (x) = 0.28533 0.21829
# Poissons Ratio (y) = 0.39683 0.27615
# Poissons Ratio (z) = 0.49813 0.45311
#
# Static dielectric constant tensor:
#      x y z
#    x 3.796870 0.000000 0.063520 
#    y 0.000000 3.798970 0.000000 
#    z 0.063520 0.000000 3.518000 
# 
# 
# High freq. dielectric constant tensor:
#      x y z
#    x 1.823970 0.000000 0.005840 
#    y 0.000000 1.818630 0.000000 
#    z 0.005840 0.000000 1.796270 
# 
# From -- ./inp_files/152564.got.cif
#   From: 2010.06.25/outbox.cif.g09.slc.cpg/sg15_77_cif.got.tgz:152564.got - 2010.06.28 07:06:18.
