data_PCOD8144956
_publ_section_title
;
Structure prediction by ZEFSAII (Michael W. Deem and Ramdas Pophale) SiO2 
 PCOD8144956
Probable space group: C 2/C
;
_chemical_formula_sum "Si O2"
_cell_formula_units_Z 36
_cell_length_a 14.677036
_cell_length_b 10.996656
_cell_length_c 9.498432
_cell_angle_alpha 90.000000
_cell_angle_beta 105.431836
_cell_angle_gamma 90.000000
_cell_volume 1477.761640
_symmetry_space_group_name_H-M "C 2/C"
_symmetry_group_IT_number 15
_symmetry_cell_setting 'monoclinic'
loop_
_space_group_symop_operation_xyz
x,y,z
-x,y,1/2-z
-x,-y,-z
x,-y,1/2+z
1/2+x,1/2+y,z
1/2-x,1/2+y,1/2-z
1/2-x,1/2-y,-z
1/2+x,1/2-y,1/2+z
loop_
_atom_site_type_symbol
_atom_site_label
_atom_site_fract_x
_atom_site_fract_y
_atom_site_fract_z
Si Si1 0.205951 0.259959 0.199818
Si Si2 0.605022 0.148971 0.153749
Si Si3 0.144629 0.443984 0.382285
Si Si4 0.819937 0.076651 0.534654
Si Si5 0.000000 0.859145 0.250000
O O1 0.286842 0.190839 0.319233
O O2 0.134875 0.326908 0.277370
O O3 0.248316 0.358398 0.110881
O O4 0.149667 0.161461 0.084006
O O5 0.540816 0.268559 0.146855
O O6 0.597590 0.061770 0.288470
O O7 0.583491 0.078622 0.998756
O O8 0.258645 0.461734 0.455879
O O9 0.919262 0.050534 0.654762
#
# Coordination Sequence:
#
# PCOD8144956 Si02
#       5
#     8   8   8   8   4
#     4   9  18  36  60  83 116 155 208 240 283 350
#     4  10  22  35  60  88 120 154 201 244 298 347
#     4  11  19  37  63  90 109 161 212 237 275 371
#     4   9  19  37  59  85 121 159 191 245 299 354
#     4  10  22  40  56  88 134 156 178 254 320 334
#
# _framework density 24.361167999999999
#
# number of rings (size 3 to 8) (size 9 to 14) (size 15 to 20)
#    0.000    2.222    2.222    2.000    0.000    0.889 
#    0.000    4.444    0.000    0.000    0.000    0.000 
#    0.000    0.000    0.000    0.000    0.000    0.000 
#
# Total GULP energy -223079.955731 kJ/mol
# GULP energy per Si atom -12393.330874 kJ/mol
# Density = 2.430572 g / cm^3
# Si number density = 24.361168 Si / 1000 Ang^3
#
#
#
# Elastic Constant Matrix: (Units=GPa)
#
#
# Indices 1 2 3 4 5 6 
#
# 1 49.2562 -9.9236 27.4316 0.0000 13.1025 0.0000
# 2 -9.9236 26.8417 18.9403 0.0000 -6.9905 0.0000
# 3 27.4316 18.9403 104.7084 0.0000 -20.3112 0.0000
# 4 0.0000 0.0000 0.0000 18.7968 0.0000 -8.5581
# 5 13.1025 -6.9905 -20.3112 0.0000 27.8484 0.0000
# 6 0.0000 0.0000 0.0000 -8.5581 0.0000 25.2145
#
#
#
# Elastic Compliance Matrix: (Units=1/GPa)
#
#
# Indices 1 2 3 4 5 6 
#
# 1 0.047059 0.025276 -0.023255 0.000000 -0.032757 0.000000
# 2 0.025276 0.057139 -0.019198 0.000000 -0.011552 0.000000
# 3 -0.023255 -0.019198 0.023649 0.000000 0.023370 0.000000
# 4 0.000000 0.000000 0.000000 0.062924 0.000000 0.021357
# 5 -0.032757 -0.011552 0.023370 0.000000 0.065466 0.000000
# 6 0.000000 0.000000 0.000000 0.021357 0.000000 0.046909
#
#
# Mechanical properties :
#
#
# Convention : Reuss Voigt Hill
#
# Bulk Modulus (GPa) = 10.69602 28.18923 19.44263
# Shear Modulus (GPa) = 13.56253 23.99581 18.77917
#
# Velocity S-wave (km/s) = 2.36207 3.14188 2.77946
# Velocity P-wave (km/s) = 3.44083 4.97578 4.27771
#
# Compressibility (1/GPa) = 0.09349270
#
# Stress axis : x y z
#
# Youngs Moduli (GPa) = 21.24995 17.50129 42.28569
#
# Poissons Ratio (x) = -0.44237 0.98335
# Poissons Ratio (y) = -0.53712 0.81181
# Poissons Ratio (z) = 0.49416 0.33599
#
# Static dielectric constant tensor:
#      x y z
#    x 3.877910 0.000000 0.117040 
#    y 0.000000 4.139450 0.000000 
#    z 0.117040 0.000000 4.606970 
# 
# 
# High freq. dielectric constant tensor:
#      x y z
#    x 1.933310 0.000000 0.000010 
#    y 0.000000 1.942360 0.000000 
#    z 0.000010 0.000000 1.977670 
# 
# From -- ./inp_files/37528.got.cif
#   From: 2010.06.25/outbox.cif.g09.slc.cpg/sg15_19_cif.got.tgz:37528.got - 2010.06.28 07:06:18.
