data_PCOD8144663
_publ_section_title
;
Structure prediction by ZEFSAII (Michael W. Deem and Ramdas Pophale) SiO2 
 PCOD8144663
Probable space group: C 2/C
;
_chemical_formula_sum "Si O2"
_cell_formula_units_Z 48
_cell_length_a 19.007222
_cell_length_b 21.612585
_cell_length_c 8.339812
_cell_angle_alpha 90.000000
_cell_angle_beta 39.923914
_cell_angle_gamma 90.000000
_cell_volume 2198.674203
_symmetry_space_group_name_H-M "C 2/C"
_symmetry_group_IT_number 15
_symmetry_cell_setting 'monoclinic'
loop_
_space_group_symop_operation_xyz
x,y,z
-x,y,1/2-z
-x,-y,-z
x,-y,1/2+z
1/2+x,1/2+y,z
1/2-x,1/2+y,1/2-z
1/2-x,1/2-y,-z
1/2+x,1/2-y,1/2+z
loop_
_atom_site_type_symbol
_atom_site_label
_atom_site_fract_x
_atom_site_fract_y
_atom_site_fract_z
Si Si1 0.139816 0.679753 0.260606
Si Si2 0.041482 0.088916 0.519154
Si Si3 0.383216 0.972866 0.154412
Si Si4 0.500000 0.881436 0.750000
Si Si5 0.210040 0.417395 0.865334
Si Si6 0.628544 0.322961 0.308478
Si Si7 0.000000 0.097168 0.250000
O O1 0.037641 0.661404 0.329666
O O2 0.138488 0.639762 0.425423
O O3 0.121514 0.749842 0.344964
O O4 0.251407 0.663098 0.970418
O O5 0.166503 0.105455 0.330934
O O6 0.027840 0.056764 0.363913
O O7 0.966450 0.151623 0.646490
O O8 0.000000 0.050140 0.750000
O O9 0.333912 0.936420 0.387300
O O10 0.299392 0.025773 0.243532
O O11 0.399077 0.924845 0.981228
O O12 0.500000 0.000000 0.000000
O O13 0.604807 0.358349 0.520500
#
# Coordination Sequence:
#
# PCOD8144663 Si02
#       7
#     8   8   8   4   8   8   4
#     4  11  23  39  67  99 132 187 215 274 354 404
#     4  10  21  43  72  94 140 176 216 289 343 403
#     4  12  24  44  62  92 132 165 232 290 321 413
#     4  12  26  38  65  90 130 177 222 286 338 392
#     4  12  23  43  71  94 129 182 224 282 356 396
#     4   9  22  41  64 100 144 165 231 274 328 435
#     4   8  20  40  63  94 134 175 214 276 320 410
#
# _framework density 21.831337999999999
#
# number of rings (size 3 to 8) (size 9 to 14) (size 15 to 20)
#    1.000    0.333    5.000    0.000    3.500    1.333 
#    3.000    1.667    0.000    0.000    0.000    0.000 
#    0.000    0.000    0.000    0.000    0.000    0.000 
#
# Total GULP energy -297315.745654 kJ/mol
# GULP energy per Si atom -12388.156069 kJ/mol
# Density = 2.178165 g / cm^3
# Si number density = 21.831338 Si / 1000 Ang^3
#
#
#
# Elastic Constant Matrix: (Units=GPa)
#
#
# Indices 1 2 3 4 5 6 
#
# 1 130.2879 24.8179 33.2855 0.0000 13.4921 0.0000
# 2 24.8179 41.4225 15.3143 0.0000 9.8588 0.0000
# 3 33.2855 15.3143 102.4841 0.0000 18.0439 0.0000
# 4 0.0000 0.0000 0.0000 3.3281 0.0000 -0.1418
# 5 13.4921 9.8588 18.0439 0.0000 50.7673 0.0000
# 6 0.0000 0.0000 0.0000 -0.1418 0.0000 23.4440
#
#
#
# Elastic Compliance Matrix: (Units=1/GPa)
#
#
# Indices 1 2 3 4 5 6 
#
# 1 0.009168 -0.004504 -0.002165 0.000000 -0.000792 0.000000
# 2 -0.004504 0.028490 -0.002167 0.000000 -0.003565 0.000000
# 3 -0.002165 -0.002167 0.011317 0.000000 -0.003026 0.000000
# 4 0.000000 0.000000 0.000000 0.300545 0.000000 0.001818
# 5 -0.000792 -0.003565 -0.003026 0.000000 0.021676 0.000000
# 6 0.000000 0.000000 0.000000 0.001818 0.000000 0.042666
#
#
# Mechanical properties :
#
#
# Convention : Reuss Voigt Hill
#
# Bulk Modulus (GPa) = 31.94513 46.78111 39.36312
# Shear Modulus (GPa) = 11.31300 28.89301 20.10301
#
# Velocity S-wave (km/s) = 2.27887 3.64189 3.03781
# Velocity P-wave (km/s) = 4.64637 6.25775 5.51127
#
# Compressibility (1/GPa) = 0.03130368
#
# Stress axis : x y z
#
# Youngs Moduli (GPa) = 109.06917 35.10046 88.35925
#
# Poissons Ratio (x) = 0.15810 0.19132
# Poissons Ratio (y) = 0.49126 0.19144
# Poissons Ratio (z) = 0.23616 0.07605
#
# Static dielectric constant tensor:
#      x y z
#    x 3.852030 0.000000 0.534960 
#    y 0.000000 3.711460 0.000000 
#    z 0.534960 0.000000 3.253850 
# 
# 
# High freq. dielectric constant tensor:
#      x y z
#    x 1.861620 0.000000 0.009900 
#    y 0.000000 1.837800 0.000000 
#    z 0.009900 0.000000 1.867080 
# 
# From -- ./inp_files/57743.got.cif
#   From: 2010.06.25/outbox.cif.g09.slc.cpg/sg15_29_cif.got.tgz:57743.got - 2010.06.28 07:06:18.
