data_PCOD8144563
_publ_section_title
;
Structure prediction by ZEFSAII (Michael W. Deem and Ramdas Pophale) SiO2 
 PCOD8144563
Probable space group: C 2/C
;
_chemical_formula_sum "Si O2"
_cell_formula_units_Z 40
_cell_length_a 8.925427
_cell_length_b 27.458823
_cell_length_c 14.955635
_cell_angle_alpha 90.000000
_cell_angle_beta 33.521077
_cell_angle_gamma 90.000000
_cell_volume 2024.167979
_symmetry_space_group_name_H-M "C 2/C"
_symmetry_group_IT_number 15
_symmetry_cell_setting 'monoclinic'
loop_
_space_group_symop_operation_xyz
x,y,z
-x,y,1/2-z
-x,-y,-z
x,-y,1/2+z
1/2+x,1/2+y,z
1/2-x,1/2+y,1/2-z
1/2-x,1/2-y,-z
1/2+x,1/2-y,1/2+z
loop_
_atom_site_type_symbol
_atom_site_label
_atom_site_fract_x
_atom_site_fract_y
_atom_site_fract_z
Si Si1 0.308380 0.127484 0.089847
Si Si2 0.282557 0.540941 0.089264
Si Si3 0.696210 0.043664 0.929054
Si Si4 0.250392 0.645738 0.184250
Si Si5 0.217359 0.301825 0.061915
O O1 0.341772 0.154997 0.167647
O O2 0.000000 0.105333 0.250000
O O3 0.547412 0.088721 0.956406
O O4 0.357831 0.161998 0.981047
O O5 0.329423 0.588825 0.127093
O O6 0.000000 0.514223 0.250000
O O7 0.500000 0.500000 0.000000
O O8 0.242980 0.557761 0.008101
O O9 0.000000 0.031681 0.750000
O O10 0.500000 0.000000 0.000000
O O11 0.000000 0.663122 0.250000
O O12 0.501988 0.680146 0.033806
O O13 0.000000 0.301003 0.250000
O O14 0.250000 0.250000 0.000000
#
# Coordination Sequence:
#
# PCOD8144563 Si02
#       5
#     8   8   8   8   8
#     4  10  22  42  65  90 133 171 215 266 327 382
#     4  11  23  40  61  92 132 175 222 266 321 376
#     4  12  25  38  60  93 134 176 225 266 320 381
#     4  10  21  43  67  93 134 172 214 270 322 382
#     4  11  25  45  72 100 128 167 216 267 333 394
#
# _framework density 19.761206999999999
#
# number of rings (size 3 to 8) (size 9 to 14) (size 15 to 20)
#    0.000    1.200    4.000    3.600    8.400    0.800 
#    0.000    5.000    0.000    0.000    0.000    0.000 
#    0.000    0.000    0.000    0.000    0.000    0.000 
#
# Total GULP energy -247769.830541 kJ/mol
# GULP energy per Si atom -12388.491527 kJ/mol
# Density = 1.971623 g / cm^3
# Si number density = 19.761207 Si / 1000 Ang^3
#
#
#
# Elastic Constant Matrix: (Units=GPa)
#
#
# Indices 1 2 3 4 5 6 
#
# 1 143.1931 59.1088 68.7609 0.0000 -8.2560 0.0000
# 2 59.1088 120.6748 71.6515 0.0000 -19.8775 0.0000
# 3 68.7609 71.6515 168.4697 0.0000 -12.8790 0.0000
# 4 0.0000 0.0000 0.0000 29.6820 0.0000 0.9088
# 5 -8.2560 -19.8775 -12.8790 0.0000 49.5924 0.0000
# 6 0.0000 0.0000 0.0000 0.9088 0.0000 36.9557
#
#
#
# Elastic Compliance Matrix: (Units=1/GPa)
#
#
# Indices 1 2 3 4 5 6 
#
# 1 0.009508 -0.003206 -0.002545 0.000000 -0.000363 0.000000
# 2 -0.003206 0.012718 -0.003828 0.000000 0.003570 0.000000
# 3 -0.002545 -0.003828 0.008624 0.000000 0.000282 0.000000
# 4 0.000000 0.000000 0.000000 0.033716 0.000000 -0.000829
# 5 -0.000363 0.003570 0.000282 0.000000 0.021608 0.000000
# 6 0.000000 0.000000 0.000000 -0.000829 0.000000 0.027080
#
#
# Mechanical properties :
#
#
# Convention : Reuss Voigt Hill
#
# Bulk Modulus (GPa) = 85.52246 92.37557 88.94902
# Shear Modulus (GPa) = 36.68166 38.76712 37.72439
#
# Velocity S-wave (km/s) = 4.31309 4.43400 4.37396
# Velocity P-wave (km/s) = 8.25685 8.54759 8.40348
#
# Compressibility (1/GPa) = 0.01169283
#
# Stress axis : x y z
#
# Youngs Moduli (GPa) = 105.17319 78.63056 115.95631
#
# Poissons Ratio (x) = 0.25209 0.29511
# Poissons Ratio (y) = 0.33718 0.44383
# Poissons Ratio (z) = 0.26766 0.30096
#
# Static dielectric constant tensor:
#      x y z
#    x 4.031640 0.000000 -0.076780 
#    y 0.000000 3.338820 0.000000 
#    z -0.076780 0.000000 3.724470 
# 
# 
# High freq. dielectric constant tensor:
#      x y z
#    x 1.793730 0.000000 -0.000240 
#    y 0.000000 1.752120 0.000000 
#    z -0.000240 0.000000 1.780130 
# 
# From -- ./inp_files/23774.got.cif
#   From: 2010.06.25/outbox.cif.g09.slc.cpg/sg15_12_cif.got.tgz:23774.got - 2010.06.28 07:06:18.
