data_PCOD8144172
_publ_section_title
;
Structure prediction by ZEFSAII (Michael W. Deem and Ramdas Pophale) SiO2 
 PCOD8144172
Probable space group: C 2/C
;
_chemical_formula_sum "Si O2"
_cell_formula_units_Z 36
_cell_length_a 22.348458
_cell_length_b 15.947504
_cell_length_c 5.296749
_cell_angle_alpha 90.000000
_cell_angle_beta 128.769156
_cell_angle_gamma 90.000000
_cell_volume 1471.849418
_symmetry_space_group_name_H-M "C 2/C"
_symmetry_group_IT_number 15
_symmetry_cell_setting 'monoclinic'
loop_
_space_group_symop_operation_xyz
x,y,z
-x,y,1/2-z
-x,-y,-z
x,-y,1/2+z
1/2+x,1/2+y,z
1/2-x,1/2+y,1/2-z
1/2-x,1/2-y,-z
1/2+x,1/2-y,1/2+z
loop_
_atom_site_type_symbol
_atom_site_label
_atom_site_fract_x
_atom_site_fract_y
_atom_site_fract_z
Si Si1 0.594994 0.027817 0.607770
Si Si2 0.635137 0.686969 0.613966
Si Si3 0.000000 0.055355 0.250000
Si Si4 0.090742 0.720705 0.495885
Si Si5 0.763452 0.958274 0.083433
O O1 0.610747 0.124550 0.598954
O O2 0.548913 0.988332 0.247941
O O3 0.672445 0.973332 0.849392
O O4 0.574184 0.612925 0.466028
O O5 0.624804 0.752155 0.815998
O O6 0.718249 0.641505 0.859750
O O7 0.630221 0.730550 0.329478
O O8 0.000000 0.000000 0.500000
O O9 0.000000 0.736700 0.250000
O O10 0.800704 0.002219 0.428869
#
# Coordination Sequence:
#
# PCOD8144172 Si02
#       5
#     8   8   4   8   8
#     4  10  23  44  67  94 127 175 227 267 320 390
#     4  12  23  41  64  99 135 169 216 270 334 388
#     4  12  22  36  62  94 128 174 206 250 322 388
#     4  12  24  43  66  98 137 170 213 274 335 389
#     4  10  21  42  64  90 132 169 223 265 314 394
#
# _framework density 24.459026000000001
#
# number of rings (size 3 to 8) (size 9 to 14) (size 15 to 20)
#    0.000    0.889    2.222    5.333    0.000    0.889 
#    0.000   26.667    0.000    0.000    0.000    0.000 
#    0.000    0.000    0.000    0.000    0.000    0.000 
#
# Total GULP energy -223155.401533 kJ/mol
# GULP energy per Si atom -12397.522307 kJ/mol
# Density = 2.440336 g / cm^3
# Si number density = 24.459026 Si / 1000 Ang^3
#
#
#
# Elastic Constant Matrix: (Units=GPa)
#
#
# Indices 1 2 3 4 5 6 
#
# 1 72.3632 33.1796 71.1468 0.0000 -24.7761 0.0000
# 2 33.1796 124.3761 67.4993 0.0000 -22.1387 0.0000
# 3 71.1468 67.4993 168.2652 0.0000 -48.6425 0.0000
# 4 0.0000 0.0000 0.0000 59.2251 0.0000 0.5418
# 5 -24.7761 -22.1387 -48.6425 0.0000 61.1534 0.0000
# 6 0.0000 0.0000 0.0000 0.5418 0.0000 64.5917
#
#
#
# Elastic Compliance Matrix: (Units=1/GPa)
#
#
# Indices 1 2 3 4 5 6 
#
# 1 0.023978 -0.001087 -0.009100 0.000000 0.002082 0.000000
# 2 -0.001087 0.010342 -0.003551 0.000000 0.000480 0.000000
# 3 -0.009100 -0.003551 0.012697 0.000000 0.005127 0.000000
# 4 0.000000 0.000000 0.000000 0.016886 0.000000 -0.000142
# 5 0.002082 0.000480 0.005127 0.000000 0.021448 0.000000
# 6 0.000000 0.000000 0.000000 -0.000142 0.000000 0.015483
#
#
# Mechanical properties :
#
#
# Convention : Reuss Voigt Hill
#
# Bulk Modulus (GPa) = 51.17264 78.73956 64.95610
# Shear Modulus (GPa) = 37.08507 49.87264 43.47885
#
# Velocity S-wave (km/s) = 3.89808 4.52046 4.22076
# Velocity P-wave (km/s) = 6.42084 7.71417 7.09703
#
# Compressibility (1/GPa) = 0.01954169
#
# Stress axis : x y z
#
# Youngs Moduli (GPa) = 41.70472 96.68949 78.75598
#
# Poissons Ratio (x) = 0.10511 0.71672
# Poissons Ratio (y) = 0.04534 0.27963
# Poissons Ratio (z) = 0.37953 0.34330
#
# Static dielectric constant tensor:
#      x y z
#    x 5.081310 0.000000 -0.701560 
#    y 0.000000 4.414470 0.000000 
#    z -0.701560 0.000000 5.421360 
# 
# 
# High freq. dielectric constant tensor:
#      x y z
#    x 1.987530 0.000000 -0.017300 
#    y 0.000000 1.972940 0.000000 
#    z -0.017300 0.000000 2.004950 
# 
# From -- ./inp_files/12578.got.cif
#   From: 2010.06.25/outbox.cif.g09.slc.cpg/sg15_7_cif.got.tgz:12578.got - 2010.06.28 07:06:18.
