data_PCOD8144378
_publ_section_title
;
Structure prediction by ZEFSAII (Michael W. Deem and Ramdas Pophale) SiO2 
 PCOD8144378
Probable space group: C 2/C
;
_chemical_formula_sum "Si O2"
_cell_formula_units_Z 36
_cell_length_a 7.146937
_cell_length_b 17.381200
_cell_length_c 14.767400
_cell_angle_alpha 90.000000
_cell_angle_beta 48.865494
_cell_angle_gamma 90.000000
_cell_volume 1381.641081
_symmetry_space_group_name_H-M "C 2/C"
_symmetry_group_IT_number 15
_symmetry_cell_setting 'monoclinic'
loop_
_space_group_symop_operation_xyz
x,y,z
-x,y,1/2-z
-x,-y,-z
x,-y,1/2+z
1/2+x,1/2+y,z
1/2-x,1/2+y,1/2-z
1/2-x,1/2-y,-z
1/2+x,1/2-y,1/2+z
loop_
_atom_site_type_symbol
_atom_site_label
_atom_site_fract_x
_atom_site_fract_y
_atom_site_fract_z
Si Si1 0.187716 0.984359 0.055305
Si Si2 0.000000 0.872596 0.250000
Si Si3 0.898636 0.270989 0.040605
Si Si4 0.294795 0.107227 0.152116
Si Si5 0.194832 0.106594 0.382099
O O1 0.365165 0.028345 0.073492
O O2 0.032621 0.047791 0.051462
O O3 0.987653 0.928130 0.166825
O O4 0.326467 0.924187 0.938153
O O5 0.754271 0.820258 0.336269
O O6 0.950373 0.187759 0.067164
O O7 0.750000 0.250000 0.000000
O O8 0.135931 0.317636 0.929397
O O9 0.374947 0.108413 0.235187
O O10 0.000000 0.106544 0.250000
#
# Coordination Sequence:
#
# PCOD8144378 Si02
#       5
#     8   4   8   8   8
#     4  10  21  43  68  94 136 178 232 284 339 411
#     4  12  22  44  60  98 136 174 224 286 330 410
#     4  12  25  41  69 101 137 178 230 287 350 406
#     4  10  23  45  69 100 137 184 231 288 340 414
#     4  10  21  42  69  95 134 178 231 281 344 410
#
# _framework density 26.055969000000001
#
# number of rings (size 3 to 8) (size 9 to 14) (size 15 to 20)
#    0.000    1.333    5.556    1.333    0.000    4.444 
#    0.000    0.000    0.000    0.000    0.000    0.000 
#    0.000    0.000    0.000    0.000    0.000    0.000 
#
# Total GULP energy -223023.860154 kJ/mol
# GULP energy per Si atom -12390.214453 kJ/mol
# Density = 2.599666 g / cm^3
# Si number density = 26.055969 Si / 1000 Ang^3
#
#
#
# Elastic Constant Matrix: (Units=GPa)
#
#
# Indices 1 2 3 4 5 6 
#
# 1 105.6101 55.6527 52.7008 0.0000 27.7140 0.0000
# 2 55.6527 237.6931 112.8810 0.0000 18.2281 0.0000
# 3 52.7008 112.8810 205.4050 0.0000 32.0415 0.0000
# 4 0.0000 0.0000 0.0000 59.3232 0.0000 9.5666
# 5 27.7140 18.2281 32.0415 0.0000 25.4833 0.0000
# 6 0.0000 0.0000 0.0000 9.5666 0.0000 23.3907
#
#
#
# Elastic Compliance Matrix: (Units=1/GPa)
#
#
# Indices 1 2 3 4 5 6 
#
# 1 0.014355 -0.002133 -0.000390 0.000000 -0.013596 0.000000
# 2 -0.002133 0.006010 -0.003044 0.000000 0.001848 0.000000
# 3 -0.000390 -0.003044 0.007757 0.000000 -0.007152 0.000000
# 4 0.000000 0.000000 0.000000 0.018047 0.000000 -0.007381
# 5 -0.013596 0.001848 -0.007152 0.000000 0.061697 0.000000
# 6 0.000000 0.000000 0.000000 -0.007381 0.000000 0.045771
#
#
# Mechanical properties :
#
#
# Convention : Reuss Voigt Hill
#
# Bulk Modulus (GPa) = 58.86472 110.13079 84.49776
# Shear Modulus (GPa) = 29.33667 43.47104 36.40385
#
# Velocity S-wave (km/s) = 3.35910 4.08900 3.74189
# Velocity P-wave (km/s) = 6.13884 8.04065 7.15323
#
# Compressibility (1/GPa) = 0.01698810
#
# Stress axis : x y z
#
# Youngs Moduli (GPa) = 69.66071 166.37626 128.91658
#
# Poissons Ratio (x) = 0.35493 0.05028
# Poissons Ratio (y) = 0.14861 0.39243
# Poissons Ratio (z) = 0.02717 0.50646
#
# Static dielectric constant tensor:
#      x y z
#    x 5.872680 0.000000 1.329940 
#    y 0.000000 8.540010 0.000000 
#    z 1.329940 0.000000 5.964590 
# 
# 
# High freq. dielectric constant tensor:
#      x y z
#    x 2.056230 0.000000 0.007680 
#    y 0.000000 2.065570 0.000000 
#    z 0.007680 0.000000 2.094220 
# 
# From -- ./inp_files/190152.got.cif
#   From: 2010.06.25/outbox.cif.g09.slc.cpg/sg15_96_cif.got.tgz:190152.got - 2010.06.28 07:06:18.
