data_PCOD8144769
_publ_section_title
;
Structure prediction by ZEFSAII (Michael W. Deem and Ramdas Pophale) SiO2 
 PCOD8144769
Probable space group: C 2/C
;
_chemical_formula_sum "Si O2"
_cell_formula_units_Z 44
_cell_length_a 8.206133
_cell_length_b 11.442542
_cell_length_c 26.964400
_cell_angle_alpha 90.000000
_cell_angle_beta 50.916666
_cell_angle_gamma 90.000000
_cell_volume 1965.360178
_symmetry_space_group_name_H-M "C 2/C"
_symmetry_group_IT_number 15
_symmetry_cell_setting 'monoclinic'
loop_
_space_group_symop_operation_xyz
x,y,z
-x,y,1/2-z
-x,-y,-z
x,-y,1/2+z
1/2+x,1/2+y,z
1/2-x,1/2+y,1/2-z
1/2-x,1/2-y,-z
1/2+x,1/2-y,1/2+z
loop_
_atom_site_type_symbol
_atom_site_label
_atom_site_fract_x
_atom_site_fract_y
_atom_site_fract_z
Si Si1 0.035417 0.211552 0.921404
Si Si2 0.285805 0.638170 0.833675
Si Si3 0.000000 0.072355 0.250000
Si Si4 0.931527 0.664639 0.184986
Si Si5 0.465931 0.905674 0.313431
Si Si6 0.610668 0.877493 0.471956
O O1 0.017719 0.310198 0.882240
O O2 0.247515 0.140463 0.875845
O O3 0.841257 0.121384 0.953115
O O4 0.028274 0.275846 0.975896
O O5 0.397407 0.510436 0.812216
O O6 0.472240 0.733541 0.799198
O O7 0.130393 0.650034 0.909910
O O8 0.153360 0.652400 0.808824
O O9 0.178478 0.153625 0.240707
O O10 0.042247 0.544807 0.179172
O O11 0.500000 0.869771 0.250000
O O12 0.500000 0.000000 0.500000
#
# Coordination Sequence:
#
# PCOD8144769 Si02
#       6
#     8   8   4   8   8   8
#     4  10  24  43  68 100 136 175 228 287 336 407
#     4  10  24  43  66 100 138 178 231 278 337 413
#     4  10  22  38  64  98 134 174 228 270 336 414
#     4  10  24  43  67  96 135 178 218 280 342 402
#     4  11  26  43  66 101 138 182 232 284 344 401
#     4  10  21  44  70  96 136 181 227 282 341 403
#
# _framework density 22.387754999999999
#
# number of rings (size 3 to 8) (size 9 to 14) (size 15 to 20)
#    0.000    1.818    0.000    2.182   12.727    2.182 
#    3.273   12.727    0.000    0.000    0.000    0.000 
#    0.000    0.000    0.000    0.000    0.000    0.000 
#
# Total GULP energy -272812.374174 kJ/mol
# GULP energy per Si atom -12400.562462 kJ/mol
# Density = 2.233680 g / cm^3
# Si number density = 22.387755 Si / 1000 Ang^3
#
#
#
# Elastic Constant Matrix: (Units=GPa)
#
#
# Indices 1 2 3 4 5 6 
#
# 1 158.0183 93.4893 78.1694 -0.0001 -9.9041 0.0000
# 2 93.4893 122.3349 48.1089 0.0000 -13.7026 0.0000
# 3 78.1694 48.1089 134.2631 -0.0002 -5.8056 0.0001
# 4 -0.0001 0.0000 -0.0002 32.7066 0.0001 -8.8140
# 5 -9.9041 -13.7026 -5.8056 0.0001 49.7496 0.0000
# 6 0.0000 0.0000 0.0001 -8.8140 0.0000 54.8004
#
#
#
# Elastic Compliance Matrix: (Units=1/GPa)
#
#
# Indices 1 2 3 4 5 6 
#
# 1 0.013947 -0.008713 -0.005007 0.000000 -0.000207 0.000000
# 2 -0.008713 0.015211 -0.000273 0.000000 0.002423 0.000000
# 3 -0.005007 -0.000273 0.010468 0.000000 0.000149 0.000000
# 4 0.000000 0.000000 0.000000 0.031960 0.000000 0.005140
# 5 -0.000207 0.002423 0.000149 0.000000 0.020744 0.000000
# 6 0.000000 0.000000 0.000000 0.005140 0.000000 0.019075
#
#
# Mechanical properties :
#
#
# Convention : Reuss Voigt Hill
#
# Bulk Modulus (GPa) = 85.90950 94.90571 90.40760
# Shear Modulus (GPa) = 34.89885 40.44124 37.67005
#
# Velocity S-wave (km/s) = 3.95249 4.25479 4.10642
# Velocity P-wave (km/s) = 7.69976 8.16220 7.93435
#
# Compressibility (1/GPa) = 0.01164016
#
# Stress axis : x y z
#
# Youngs Moduli (GPa) = 71.69974 65.74036 95.53226
#
# Poissons Ratio (x) = 0.57277 0.47835
# Poissons Ratio (y) = 0.62469 0.02610
# Poissons Ratio (z) = 0.35902 0.01796
#
# Static dielectric constant tensor:
#      x y z
#    x 4.135440 0.000000 -0.082320 
#    y 0.000000 4.033100 0.000000 
#    z -0.082320 0.000000 4.287680 
# 
# 
# High freq. dielectric constant tensor:
#      x y z
#    x 1.880470 0.000000 -0.006370 
#    y 0.000000 1.884040 0.000000 
#    z -0.006370 0.000000 1.893600 
# 
# From -- ./inp_files/287865.got.cif
#   From: 2010.06.25/outbox.cif.g09.slc.cpg/sg15_144_cif.got.tgz:287865.got - 2010.06.28 07:06:18.
