data_PCOD8144399
_publ_section_title
;
Structure prediction by ZEFSAII (Michael W. Deem and Ramdas Pophale) SiO2 
 PCOD8144399
Probable space group: C 2/C
;
_chemical_formula_sum "Si O2"
_cell_formula_units_Z 48
_cell_length_a 9.941876
_cell_length_b 20.693593
_cell_length_c 18.625390
_cell_angle_alpha 90.000000
_cell_angle_beta 140.896326
_cell_angle_gamma 90.000000
_cell_volume 2416.852007
_symmetry_space_group_name_H-M "C 2/C"
_symmetry_group_IT_number 15
_symmetry_cell_setting 'monoclinic'
loop_
_space_group_symop_operation_xyz
x,y,z
-x,y,1/2-z
-x,-y,-z
x,-y,1/2+z
1/2+x,1/2+y,z
1/2-x,1/2+y,1/2-z
1/2-x,1/2-y,-z
1/2+x,1/2-y,1/2+z
loop_
_atom_site_type_symbol
_atom_site_label
_atom_site_fract_x
_atom_site_fract_y
_atom_site_fract_z
Si Si1 0.676792 0.500680 0.771931
Si Si2 0.047271 0.287143 0.445524
Si Si3 0.729760 0.825510 0.812362
Si Si4 0.486380 0.904087 0.158963
Si Si5 0.745983 0.361254 0.838971
Si Si6 0.487568 0.555140 0.053427
O O1 0.500000 0.535456 0.750000
O O2 0.785195 0.438819 0.856054
O O3 0.535586 0.474830 0.649139
O O4 0.858032 0.547386 0.817849
O O5 0.250000 0.250000 0.500000
O O6 0.955497 0.332399 0.343583
O O7 0.104798 0.329674 0.538978
O O8 0.863910 0.237166 0.390403
O O9 0.500000 0.818020 0.750000
O O10 0.696256 0.830872 0.713525
O O11 0.844614 0.888161 0.894465
O O12 0.500000 0.911547 0.250000
O O13 0.245864 0.915823 0.035643
O O14 0.500000 0.344415 0.750000
O O15 0.500000 0.500000 0.000000
#
# Coordination Sequence:
#
# PCOD8144399 Si02
#       6
#     8   8   8   8   8   8
#     4  10  23  42  65 100 138 169 219 276 338 391
#     4  12  24  43  67  98 129 178 234 262 324 402
#     4  11  26  44  67  99 137 175 219 279 337 393
#     4  12  25  42  71 100 133 179 224 280 325 398
#     4  10  21  42  70  93 133 185 215 265 334 406
#     4  11  23  42  67 100 133 176 223 266 339 399
#
# _framework density 19.860544999999998
#
# number of rings (size 3 to 8) (size 9 to 14) (size 15 to 20)
#    0.000    1.000    5.000    2.000    7.000    4.000 
#    0.000    0.000    0.000    0.000    0.000    0.000 
#    0.000    0.000    0.000    0.000    0.000    0.000 
#
# Total GULP energy -297618.747245 kJ/mol
# GULP energy per Si atom -12400.781135 kJ/mol
# Density = 1.981534 g / cm^3
# Si number density = 19.860545 Si / 1000 Ang^3
#
#
#
# Elastic Constant Matrix: (Units=GPa)
#
#
# Indices 1 2 3 4 5 6 
#
# 1 151.9286 76.3343 60.0237 0.0002 18.4832 0.0004
# 2 76.3343 129.1705 60.5537 -0.0001 1.3564 0.0004
# 3 60.0237 60.5537 96.2826 -0.0011 18.4804 0.0002
# 4 0.0002 -0.0001 -0.0011 51.8469 -0.0002 -5.0301
# 5 18.4832 1.3564 18.4804 -0.0002 34.7497 0.0005
# 6 0.0004 0.0004 0.0002 -5.0301 0.0005 65.1112
#
#
#
# Elastic Compliance Matrix: (Units=1/GPa)
#
#
# Indices 1 2 3 4 5 6 
#
# 1 0.010649 -0.004963 -0.002748 0.000000 -0.004009 0.000000
# 2 -0.004963 0.013714 -0.006610 0.000000 0.005619 0.000000
# 3 -0.002748 -0.006610 0.017737 0.000000 -0.007713 0.000000
# 4 0.000000 0.000000 0.000000 0.019433 0.000000 0.001501
# 5 -0.004009 0.005619 -0.007713 0.000000 0.034792 0.000000
# 6 0.000000 0.000000 0.000000 0.001501 0.000000 0.015474
#
#
# Mechanical properties :
#
#
# Convention : Reuss Voigt Hill
#
# Bulk Modulus (GPa) = 74.30225 85.68945 79.99585
# Shear Modulus (GPa) = 34.50027 42.37289 38.43658
#
# Velocity S-wave (km/s) = 4.17241 4.62402 4.40400
# Velocity P-wave (km/s) = 7.79135 8.47042 8.13797
#
# Compressibility (1/GPa) = 0.01345854
#
# Stress axis : x y z
#
# Youngs Moduli (GPa) = 93.90657 72.91801 56.38030
#
# Poissons Ratio (x) = 0.36187 0.15494
# Poissons Ratio (y) = 0.46603 0.37266
# Poissons Ratio (z) = 0.25806 0.48197
#
# Static dielectric constant tensor:
#      x y z
#    x 3.450580 0.000000 0.102700 
#    y 0.000000 3.449880 0.000000 
#    z 0.102700 0.000000 3.586760 
# 
# 
# High freq. dielectric constant tensor:
#      x y z
#    x 1.784130 0.000000 -0.006900 
#    y 0.000000 1.780440 0.000000 
#    z -0.006900 0.000000 1.775340 
# 
# From -- ./inp_files/191963.got.cif
#   From: 2010.06.25/outbox.cif.g09.slc.cpg/sg15_96_cif.got.tgz:191963.got - 2010.06.28 07:06:18.
