data_PCOD8144619
_publ_section_title
;
Structure prediction by ZEFSAII (Michael W. Deem and Ramdas Pophale) SiO2 
 PCOD8144619
Probable space group: C 2/C
;
_chemical_formula_sum "Si O2"
_cell_formula_units_Z 44
_cell_length_a 23.321128
_cell_length_b 14.309315
_cell_length_c 8.196908
_cell_angle_alpha 90.000000
_cell_angle_beta 136.181536
_cell_angle_gamma 90.000000
_cell_volume 1893.914172
_symmetry_space_group_name_H-M "C 2/C"
_symmetry_group_IT_number 15
_symmetry_cell_setting 'monoclinic'
loop_
_space_group_symop_operation_xyz
x,y,z
-x,y,1/2-z
-x,-y,-z
x,-y,1/2+z
1/2+x,1/2+y,z
1/2-x,1/2+y,1/2-z
1/2-x,1/2-y,-z
1/2+x,1/2-y,1/2+z
loop_
_atom_site_type_symbol
_atom_site_label
_atom_site_fract_x
_atom_site_fract_y
_atom_site_fract_z
Si Si1 0.152767 0.911935 0.502677
Si Si2 0.159256 0.627974 0.108293
Si Si3 0.056937 0.783206 0.070079
Si Si4 0.571498 0.426422 0.677765
Si Si5 0.500000 0.159767 0.250000
Si Si6 0.090377 0.535696 0.648079
O O1 0.242607 0.866278 0.708357
O O2 0.114753 0.860657 0.269331
O O3 0.107148 0.891042 0.578595
O O4 0.142548 0.024145 0.438024
O O5 0.111219 0.724651 0.050707
O O6 0.148156 0.552103 0.228532
O O7 0.123768 0.596798 0.863388
O O8 0.025773 0.715809 0.145854
O O9 0.973574 0.836504 0.828248
O O10 0.500000 0.500000 0.500000
O O11 0.580967 0.098308 0.465222
O O12 0.000000 0.500000 0.500000
#
# Coordination Sequence:
#
# PCOD8144619 Si02
#       6
#     8   8   8   8   4   8
#     4  11  23  44  67 103 139 176 220 289 345 395
#     4  12  24  42  70 100 137 173 227 284 350 394
#     4  11  22  42  67  99 136 180 226 278 322 415
#     4  10  21  43  69  98 134 185 230 270 331 419
#     4  12  22  42  68  90 128 170 234 268 328 396
#     4  12  23  42  66  94 127 182 223 274 332 421
#
# _framework density 23.232309999999998
#
# number of rings (size 3 to 8) (size 9 to 14) (size 15 to 20)
#    0.000    0.727    5.455    3.273    0.000    0.000 
#   13.091    0.909    0.000    0.000    0.000    0.000 
#    0.000    0.000    0.000    0.000    0.000    0.000 
#
# Total GULP energy -272593.664411 kJ/mol
# GULP energy per Si atom -12390.621110 kJ/mol
# Density = 2.317943 g / cm^3
# Si number density = 23.232310 Si / 1000 Ang^3
#
#
#
# Elastic Constant Matrix: (Units=GPa)
#
#
# Indices 1 2 3 4 5 6 
#
# 1 113.9329 54.4766 29.2157 0.0000 7.0918 0.0000
# 2 54.4766 125.2814 47.4272 0.0000 8.9208 0.0000
# 3 29.2157 47.4272 93.9167 0.0000 2.9216 0.0000
# 4 0.0000 0.0000 0.0000 21.3926 0.0000 30.1326
# 5 7.0918 8.9208 2.9216 0.0000 35.9455 0.0000
# 6 0.0000 0.0000 0.0000 30.1326 0.0000 -3.9320
#
#
#
# Elastic Compliance Matrix: (Units=1/GPa)
#
#
# Indices 1 2 3 4 5 6 
#
# 1 0.011240 -0.004330 -0.001278 0.000000 -0.001039 0.000000
# 2 -0.004330 0.011689 -0.004504 0.000000 -0.001681 0.000000
# 3 -0.001278 -0.004504 0.013311 0.000000 0.000288 0.000000
# 4 0.000000 0.000000 0.000000 0.003963 0.000000 0.030373
# 5 -0.001039 -0.001681 0.000288 0.000000 0.028419 0.000000
# 6 0.000000 0.000000 0.000000 0.030373 0.000000 -0.021563
#
#
# Mechanical properties :
#
#
# Convention : Reuss Voigt Hill
#
# Bulk Modulus (GPa) = 62.43277 66.15221 64.29249
# Shear Modulus (GPa) = 68.85148 24.14866 46.50007
#
# Velocity S-wave (km/s) = 5.44981 3.22754 4.47870
# Velocity P-wave (km/s) = 8.15672 6.51348 7.38097
#
# Compressibility (1/GPa) = 0.01601723
#
# Stress axis : x y z
#
# Youngs Moduli (GPa) = 88.97082 85.54741 75.12782
#
# Poissons Ratio (x) = 0.37040 0.09599
# Poissons Ratio (y) = 0.38522 0.33837
# Poissons Ratio (z) = 0.11367 0.38530
#
# Static dielectric constant tensor:
#      x y z
#    x 4.174020 0.000000 0.355690 
#    y 0.000000 5.202200 0.000000 
#    z 0.355690 0.000000 4.739270 
# 
# 
# High freq. dielectric constant tensor:
#      x y z
#    x 1.920420 0.000000 -0.015940 
#    y 0.000000 1.929300 0.000000 
#    z -0.015940 0.000000 1.913370 
# 
# From -- ./inp_files/66350.got.cif
#   From: 2010.06.25/outbox.cif.g09.slc.cpg/sg15_34_cif.got.tgz:66350.got - 2010.06.28 07:06:18.
