data_PCOD8144390
_publ_section_title
;
Structure prediction by ZEFSAII (Michael W. Deem and Ramdas Pophale) SiO2 
 PCOD8144390
Probable space group: C 2/C
;
_chemical_formula_sum "Si O2"
_cell_formula_units_Z 60
_cell_length_a 26.615969
_cell_length_b 11.562191
_cell_length_c 31.356106
_cell_angle_alpha 90.000000
_cell_angle_beta 162.808598
_cell_angle_gamma 90.000000
_cell_volume 2852.049777
_symmetry_space_group_name_H-M "C 2/C"
_symmetry_group_IT_number 15
_symmetry_cell_setting 'monoclinic'
loop_
_space_group_symop_operation_xyz
x,y,z
-x,y,1/2-z
-x,-y,-z
x,-y,1/2+z
1/2+x,1/2+y,z
1/2-x,1/2+y,1/2-z
1/2-x,1/2-y,-z
1/2+x,1/2-y,1/2+z
loop_
_atom_site_type_symbol
_atom_site_label
_atom_site_fract_x
_atom_site_fract_y
_atom_site_fract_z
Si Si1 0.913302 0.077429 0.371479
Si Si2 0.126176 0.716114 0.011281
Si Si3 0.229348 0.055814 0.154916
Si Si4 0.000000 0.505681 0.250000
Si Si5 0.843989 0.494678 0.905141
Si Si6 0.716486 0.305021 0.518078
Si Si7 0.439937 0.862609 0.282986
Si Si8 0.325472 0.293593 0.191897
O O1 0.779233 0.082096 0.301625
O O2 0.820337 0.052499 0.252216
O O3 0.003799 0.201127 0.439872
O O4 0.042585 0.971893 0.484979
O O5 0.078897 0.705982 0.923176
O O6 0.117982 0.589917 0.025124
O O7 0.313387 0.767785 0.161686
O O8 0.305864 0.165521 0.193744
O O9 0.349232 0.947382 0.243168
O O10 0.171914 0.579887 0.384631
O O11 0.975742 0.429569 0.188012
O O12 0.808587 0.621848 0.894641
O O13 0.000000 0.500000 0.000000
O O14 0.750000 0.250000 0.500000
O O15 0.516675 0.336599 0.357324
O O16 0.777250 0.211657 0.602690
#
# Coordination Sequence:
#
# PCOD8144390 Si02
#       8
#     8   8   8   4   8   8   8   8
#     4  10  22  43  65  96 139 187 230 274 340 411
#     4  11  24  45  68  96 139 181 229 281 333 416
#     4  10  21  42  69  97 135 185 227 279 349 409
#     4  12  26  46  76  98 134 180 236 292 358 412
#     4  12  26  41  65 106 144 180 234 279 335 419
#     4  12  24  46  69 104 135 176 229 291 358 421
#     4  11  24  45  72  96 135 181 230 286 344 406
#     4  12  26  42  73 101 141 179 226 291 355 409
#
# _framework density 21.037500999999999
#
# number of rings (size 3 to 8) (size 9 to 14) (size 15 to 20)
#    0.000    0.800    4.000    2.400    7.467    0.533 
#    4.800    0.000    0.000    0.000    0.000    0.000 
#    0.000    0.000    0.000    0.000    0.000    0.000 
#
# Total GULP energy -372164.034645 kJ/mol
# GULP energy per Si atom -12405.467822 kJ/mol
# Density = 2.098962 g / cm^3
# Si number density = 21.037501 Si / 1000 Ang^3
#
#
#
# Elastic Constant Matrix: (Units=GPa)
#
#
# Indices 1 2 3 4 5 6 
#
# 1 111.7596 33.4044 56.4149 0.1033 -11.2474 0.0537
# 2 33.4044 90.2371 46.8033 -0.3000 -1.4820 -0.1051
# 3 56.4149 46.8033 122.7553 -1.1916 -16.0980 -0.0122
# 4 0.1033 -0.3000 -1.1916 27.5237 -0.1956 -4.7667
# 5 -11.2474 -1.4820 -16.0980 -0.1956 38.5669 0.0686
# 6 0.0537 -0.1051 -0.0122 -4.7667 0.0686 46.0671
#
#
#
# Elastic Compliance Matrix: (Units=1/GPa)
#
#
# Indices 1 2 3 4 5 6 
#
# 1 0.012008 -0.002071 -0.004531 -0.000261 0.001530 -0.000049
# 2 -0.002071 0.014285 -0.004763 -0.000052 -0.002044 0.000031
# 3 -0.004531 -0.004763 0.012539 0.000543 0.003732 0.000048
# 4 -0.000261 -0.000052 0.000543 0.037022 0.000329 0.003831
# 5 0.001530 -0.002044 0.003732 0.000329 0.027856 -0.000013
# 6 -0.000049 0.000031 0.000048 0.003831 -0.000013 0.022104
#
#
# Mechanical properties :
#
#
# Convention : Reuss Voigt Hill
#
# Bulk Modulus (GPa) = 62.10213 66.44411 64.27312
# Shear Modulus (GPa) = 32.48580 34.97351 33.72965
#
# Velocity S-wave (km/s) = 3.93388 4.08172 4.00848
# Velocity P-wave (km/s) = 7.08644 7.33936 7.21401
#
# Compressibility (1/GPa) = 0.01610251
#
# Stress axis : x y z
#
# Youngs Moduli (GPa) = 83.27660 70.00110 79.74835
#
# Poissons Ratio (x) = 0.14497 0.36133
# Poissons Ratio (y) = 0.17246 0.37987
# Poissons Ratio (z) = 0.37732 0.33344
#
# Static dielectric constant tensor:
#      x y z
#    x 5.636670 -0.009700 -3.188720 
#    y -0.009700 3.733420 0.020070 
#    z -3.188720 0.020070 10.266570 
# 
# 
# High freq. dielectric constant tensor:
#      x y z
#    x 1.828830 -0.000010 -0.011140 
#    y -0.000010 1.821640 -0.000030 
#    z -0.011140 -0.000030 1.834760 
# 
# From -- ./inp_files/319580.got.cif
#   From: 2010.06.25/outbox.cif.g09.slc.cpg/sg15_160_cif.got.tgz:319580.got - 2010.06.28 07:06:18.
