data_PCOD8144260
_publ_section_title
;
Structure prediction by ZEFSAII (Michael W. Deem and Ramdas Pophale) SiO2 
 PCOD8144260
Probable space group: C 2/C
;
_chemical_formula_sum "Si O2"
_cell_formula_units_Z 36
_cell_length_a 6.364549
_cell_length_b 13.201464
_cell_length_c 20.852310
_cell_angle_alpha 90.000000
_cell_angle_beta 96.028708
_cell_angle_gamma 90.000000
_cell_volume 1742.349703
_symmetry_space_group_name_H-M "C 2/C"
_symmetry_group_IT_number 15
_symmetry_cell_setting 'monoclinic'
loop_
_space_group_symop_operation_xyz
x,y,z
-x,y,1/2-z
-x,-y,-z
x,-y,1/2+z
1/2+x,1/2+y,z
1/2-x,1/2+y,1/2-z
1/2-x,1/2-y,-z
1/2+x,1/2-y,1/2+z
loop_
_atom_site_type_symbol
_atom_site_label
_atom_site_fract_x
_atom_site_fract_y
_atom_site_fract_z
Si Si1 0.000000 0.058669 0.750000
Si Si2 0.455610 0.070779 0.582120
Si Si3 0.323255 0.451692 0.537400
Si Si4 0.160876 0.082654 0.143832
Si Si5 0.362243 0.795487 0.307763
O O1 0.885160 0.990057 0.798304
O O2 0.825713 0.126898 0.710116
O O3 0.326431 0.113370 0.515647
O O4 0.475785 0.159048 0.634696
O O5 0.687873 0.039768 0.566638
O O6 0.340358 0.970665 0.606789
O O7 0.500000 0.500000 0.500000
O O8 0.445503 0.391252 0.597269
O O9 0.243508 0.190955 0.171387
O O10 0.500000 0.771656 0.250000
#
# Coordination Sequence:
#
# PCOD8144260 Si02
#       5
#     4   8   8   8   8
#     4  12  24  40  60  92 132 160 210 264 298 370
#     4  10  21  42  66  93 128 162 208 262 309 370
#     4   9  20  41  68  91 125 165 205 265 314 358
#     4  11  23  41  65  93 128 164 207 257 310 372
#     4  12  25  39  65  95 123 171 209 249 319 373
#
# _framework density 20.661753000000001
#
# number of rings (size 3 to 8) (size 9 to 14) (size 15 to 20)
#    0.000    1.333    5.556    0.000    0.000    4.444 
#    0.000   10.000    0.000    0.000    0.000    0.000 
#    0.000    0.000    0.000    0.000    0.000    0.000 
#
# Total GULP energy -223131.731256 kJ/mol
# GULP energy per Si atom -12396.207292 kJ/mol
# Density = 2.061473 g / cm^3
# Si number density = 20.661753 Si / 1000 Ang^3
#
#
#
# Elastic Constant Matrix: (Units=GPa)
#
#
# Indices 1 2 3 4 5 6 
#
# 1 89.9061 30.7155 29.4153 0.0000 -7.0170 0.0000
# 2 30.7155 118.8916 51.9469 0.0000 9.0532 0.0000
# 3 29.4153 51.9469 108.5524 0.0000 5.7285 0.0000
# 4 0.0000 0.0000 0.0000 10.5078 0.0000 -2.6029
# 5 -7.0170 9.0532 5.7285 0.0000 38.7868 0.0000
# 6 0.0000 0.0000 0.0000 -2.6029 0.0000 18.3002
#
#
#
# Elastic Compliance Matrix: (Units=1/GPa)
#
#
# Indices 1 2 3 4 5 6 
#
# 1 0.013067 -0.002536 -0.002503 0.000000 0.003326 0.000000
# 2 -0.002536 0.011245 -0.004567 0.000000 -0.002409 0.000000
# 3 -0.002503 -0.004567 0.012138 0.000000 -0.001180 0.000000
# 4 0.000000 0.000000 0.000000 0.098642 0.000000 0.014030
# 5 0.003326 -0.002409 -0.001180 0.000000 0.027120 0.000000
# 6 0.000000 0.000000 0.000000 0.014030 0.000000 0.056640
#
#
# Mechanical properties :
#
#
# Convention : Reuss Voigt Hill
#
# Bulk Modulus (GPa) = 58.00695 60.16727 59.08711
# Shear Modulus (GPa) = 20.50775 27.20381 23.85578
#
# Velocity S-wave (km/s) = 3.15389 3.63247 3.40161
# Velocity P-wave (km/s) = 6.43414 6.83933 6.63983
#
# Compressibility (1/GPa) = 0.01723931
#
# Stress axis : x y z
#
# Youngs Moduli (GPa) = 76.52584 88.92891 82.38467
#
# Poissons Ratio (x) = 0.22548 0.20622
# Poissons Ratio (y) = 0.19403 0.37625
# Poissons Ratio (z) = 0.19155 0.40614
#
# Static dielectric constant tensor:
#      x y z
#    x 3.887110 0.000000 0.293400 
#    y 0.000000 3.362750 0.000000 
#    z 0.293400 0.000000 4.492970 
# 
# 
# High freq. dielectric constant tensor:
#      x y z
#    x 1.813100 0.000000 0.001840 
#    y 0.000000 1.775090 0.000000 
#    z 0.001840 0.000000 1.840370 
# 
# From -- ./inp_files/226434.got.cif
#   From: 2010.06.25/outbox.cif.g09.slc.cpg/sg15_114_cif.got.tgz:226434.got - 2010.06.28 07:06:18.
