data_PCOD8144496
_publ_section_title
;
Structure prediction by ZEFSAII (Michael W. Deem and Ramdas Pophale) SiO2 
 PCOD8144496
Probable space group: C 2/C
;
_chemical_formula_sum "Si O2"
_cell_formula_units_Z 40
_cell_length_a 10.370487
_cell_length_b 9.144636
_cell_length_c 18.943729
_cell_angle_alpha 90.000000
_cell_angle_beta 85.109548
_cell_angle_gamma 90.000000
_cell_volume 1789.975638
_symmetry_space_group_name_H-M "C 2/C"
_symmetry_group_IT_number 15
_symmetry_cell_setting 'monoclinic'
loop_
_space_group_symop_operation_xyz
x,y,z
-x,y,1/2-z
-x,-y,-z
x,-y,1/2+z
1/2+x,1/2+y,z
1/2-x,1/2+y,1/2-z
1/2-x,1/2-y,-z
1/2+x,1/2-y,1/2+z
loop_
_atom_site_type_symbol
_atom_site_label
_atom_site_fract_x
_atom_site_fract_y
_atom_site_fract_z
Si Si1 0.203996 0.865999 0.405554
Si Si2 0.853606 0.309577 0.260766
Si Si3 0.079325 0.352988 0.003079
Si Si4 0.498273 0.426599 0.923352
Si Si5 0.872031 0.988205 0.290412
O O1 0.305752 0.824369 0.342363
O O2 0.101297 0.733328 0.427627
O O3 0.278651 0.897585 0.475354
O O4 0.132353 0.014272 0.383200
O O5 0.855963 0.136612 0.244852
O O6 0.755935 0.388725 0.211195
O O7 0.000000 0.374169 0.250000
O O8 0.000000 0.500000 0.000000
O O9 0.007902 0.247660 0.064196
O O10 0.386583 0.478114 0.873693
O O11 0.500000 0.500000 0.000000
O O12 0.000000 0.909405 0.250000
#
# Coordination Sequence:
#
# PCOD8144496 Si02
#       5
#     8   8   8   8   8
#     4  10  21  43  64  97 138 176 225 282 343 405
#     4  11  25  44  67  99 139 186 230 280 341 414
#     4  10  22  41  68 100 135 175 226 288 344 406
#     4  10  21  43  71  98 136 178 222 284 345 401
#     4  11  23  46  68  95 141 183 228 284 341 406
#
# _framework density 22.346672000000002
#
# number of rings (size 3 to 8) (size 9 to 14) (size 15 to 20)
#    0.000    1.600    4.000    0.000    0.000    3.200 
#    7.200    0.000    0.000    0.000    0.000    0.000 
#    0.000    0.000    0.000    0.000    0.000    0.000 
#
# Total GULP energy -247773.594325 kJ/mol
# GULP energy per Si atom -12388.679716 kJ/mol
# Density = 2.229581 g / cm^3
# Si number density = 22.346672 Si / 1000 Ang^3
#
#
#
# Elastic Constant Matrix: (Units=GPa)
#
#
# Indices 1 2 3 4 5 6 
#
# 1 149.8239 81.2900 44.5920 0.0000 4.1978 0.0000
# 2 81.2900 121.0171 45.9120 0.0000 17.4995 0.0000
# 3 44.5920 45.9120 110.4551 0.0000 7.7416 0.0000
# 4 0.0000 0.0000 0.0000 32.2400 0.0000 2.6296
# 5 4.1978 17.4995 7.7416 0.0000 45.5913 0.0000
# 6 0.0000 0.0000 0.0000 2.6296 0.0000 42.2492
#
#
#
# Elastic Compliance Matrix: (Units=1/GPa)
#
#
# Indices 1 2 3 4 5 6 
#
# 1 0.010893 -0.006980 -0.001633 0.000000 0.001954 0.000000
# 2 -0.006980 0.014739 -0.002993 0.000000 -0.004506 0.000000
# 3 -0.001633 -0.002993 0.010997 0.000000 -0.000568 0.000000
# 4 0.000000 0.000000 0.000000 0.031176 0.000000 -0.001940
# 5 0.001954 -0.004506 -0.000568 0.000000 0.023580 0.000000
# 6 0.000000 0.000000 0.000000 -0.001940 0.000000 0.023790
#
#
# Mechanical properties :
#
#
# Convention : Reuss Voigt Hill
#
# Bulk Modulus (GPa) = 74.53365 80.54267 77.53816
# Shear Modulus (GPa) = 34.99974 37.98290 36.49132
#
# Velocity S-wave (km/s) = 3.96184 4.12723 4.04538
# Velocity P-wave (km/s) = 7.37252 7.67024 7.52285
#
# Compressibility (1/GPa) = 0.01341676
#
# Stress axis : x y z
#
# Youngs Moduli (GPa) = 91.80238 67.84777 90.93736
#
# Poissons Ratio (x) = 0.47357 0.14852
# Poissons Ratio (y) = 0.64077 0.27215
# Poissons Ratio (z) = 0.14994 0.20305
#
# Static dielectric constant tensor:
#      x y z
#    x 4.466000 0.000000 -0.161200 
#    y 0.000000 4.208910 0.000000 
#    z -0.161200 0.000000 4.108120 
# 
# 
# High freq. dielectric constant tensor:
#      x y z
#    x 1.878880 0.000000 -0.001520 
#    y 0.000000 1.860630 0.000000 
#    z -0.001520 0.000000 1.890720 
# 
# From -- ./inp_files/195165.got.cif
#   From: 2010.06.25/outbox.cif.g09.slc.cpg/sg15_98_cif.got.tgz:195165.got - 2010.06.28 07:06:18.
