data_PCOD8144478
_publ_section_title
;
Structure prediction by ZEFSAII (Michael W. Deem and Ramdas Pophale) SiO2 
 PCOD8144478
Probable space group: C 2/C
;
_chemical_formula_sum "Si O2"
_cell_formula_units_Z 40
_cell_length_a 5.054984
_cell_length_b 13.213809
_cell_length_c 30.364148
_cell_angle_alpha 90.000000
_cell_angle_beta 77.979887
_cell_angle_gamma 90.000000
_cell_volume 1983.722279
_symmetry_space_group_name_H-M "C 2/C"
_symmetry_group_IT_number 15
_symmetry_cell_setting 'monoclinic'
loop_
_space_group_symop_operation_xyz
x,y,z
-x,y,1/2-z
-x,-y,-z
x,-y,1/2+z
1/2+x,1/2+y,z
1/2-x,1/2+y,1/2-z
1/2-x,1/2-y,-z
1/2+x,1/2-y,1/2+z
loop_
_atom_site_type_symbol
_atom_site_label
_atom_site_fract_x
_atom_site_fract_y
_atom_site_fract_z
Si Si1 0.818604 0.458392 0.443486
Si Si2 0.544867 0.623868 0.799204
Si Si3 0.266699 0.366467 0.486825
Si Si4 0.486747 0.969476 0.160876
Si Si5 0.795318 0.348576 0.719481
O O1 0.553543 0.390219 0.455446
O O2 0.782540 0.566714 0.467988
O O3 0.880284 0.481682 0.391026
O O4 0.049783 0.391541 0.457301
O O5 0.500000 0.590729 0.750000
O O6 0.776694 0.554433 0.812430
O O7 0.642393 0.738073 0.801416
O O8 0.250823 0.614869 0.832498
O O9 0.250000 0.250000 0.500000
O O10 0.332282 0.073379 0.178263
O O11 0.500000 0.352236 0.750000
O O12 0.000000 0.380542 0.750000
#
# Coordination Sequence:
#
# PCOD8144478 Si02
#       5
#     8   8   8   8   8
#     4  10  23  38  61  94 115 148 202 238 289 364
#     4  11  23  40  59  84 121 162 200 239 291 347
#     4  10  21  43  64  83 121 158 186 238 302 356
#     4  12  23  38  61  89 120 151 196 253 291 334
#     4  11  23  39  59  84 116 159 201 235 287 347
#
# _framework density 20.164110999999998
#
# number of rings (size 3 to 8) (size 9 to 14) (size 15 to 20)
#    0.000    1.200    0.000    7.800    0.000    3.200 
#    0.000    0.000    0.000    0.000    0.000    0.000 
#    0.000    0.000    0.000    0.000    0.000    0.000 
#
# Total GULP energy -248076.938633 kJ/mol
# GULP energy per Si atom -12403.846932 kJ/mol
# Density = 2.011822 g / cm^3
# Si number density = 20.164111 Si / 1000 Ang^3
#
#
#
# Elastic Constant Matrix: (Units=GPa)
#
#
# Indices 1 2 3 4 5 6 
#
# 1 175.7123 55.4183 62.5733 0.0000 -13.4220 0.0000
# 2 55.4183 121.4550 71.1388 0.0000 -3.0711 0.0000
# 3 62.5733 71.1388 144.0481 0.0000 -18.8742 0.0000
# 4 0.0000 0.0000 0.0000 19.6199 0.0000 -6.0306
# 5 -13.4220 -3.0711 -18.8742 0.0000 35.5801 0.0000
# 6 0.0000 0.0000 0.0000 -6.0306 0.0000 24.5086
#
#
#
# Elastic Compliance Matrix: (Units=1/GPa)
#
#
# Indices 1 2 3 4 5 6 
#
# 1 0.007139 -0.002138 -0.001845 0.000000 0.001530 0.000000
# 2 -0.002138 0.012385 -0.005538 0.000000 -0.002676 0.000000
# 3 -0.001845 -0.005538 0.011096 0.000000 0.004712 0.000000
# 4 0.000000 0.000000 0.000000 0.055139 0.000000 0.013568
# 5 0.001530 -0.002676 0.004712 0.000000 0.030952 0.000000
# 6 0.000000 0.000000 0.000000 0.013568 0.000000 0.044141
#
#
# Mechanical properties :
#
#
# Convention : Reuss Voigt Hill
#
# Bulk Modulus (GPa) = 86.37092 91.05291 88.71191
# Shear Modulus (GPa) = 27.21028 32.74737 29.97883
#
# Velocity S-wave (km/s) = 3.67746 4.03431 3.86001
# Velocity P-wave (km/s) = 7.80760 8.18260 7.99729
#
# Compressibility (1/GPa) = 0.01157797
#
# Stress axis : x y z
#
# Youngs Moduli (GPa) = 140.06841 80.73984 90.12267
#
# Poissons Ratio (x) = 0.17265 0.16625
# Poissons Ratio (y) = 0.29952 0.49912
# Poissons Ratio (z) = 0.25839 0.44716
#
# Static dielectric constant tensor:
#      x y z
#    x 3.922820 0.000000 -0.093950 
#    y 0.000000 3.647560 0.000000 
#    z -0.093950 0.000000 3.527890 
# 
# 
# High freq. dielectric constant tensor:
#      x y z
#    x 1.814160 0.000000 -0.008380 
#    y 0.000000 1.792170 0.000000 
#    z -0.008380 0.000000 1.778830 
# 
# From -- ./inp_files/285172.got.cif
#   From: 2010.06.25/outbox.cif.g09.slc.cpg/sg15_143_cif.got.tgz:285172.got - 2010.06.28 07:06:18.
