data_PCOD8144046
_publ_section_title
;
Structure prediction by ZEFSAII (Michael W. Deem and Ramdas Pophale) SiO2 
 PCOD8144046
Probable space group: C 2/C
;
_chemical_formula_sum "Si O2"
_cell_formula_units_Z 52
_cell_length_a 10.953318
_cell_length_b 25.083866
_cell_length_c 9.494508
_cell_angle_alpha 90.000000
_cell_angle_beta 77.163728
_cell_angle_gamma 90.000000
_cell_volume 2543.438349
_symmetry_space_group_name_H-M "C 2/C"
_symmetry_group_IT_number 15
_symmetry_cell_setting 'monoclinic'
loop_
_space_group_symop_operation_xyz
x,y,z
-x,y,1/2-z
-x,-y,-z
x,-y,1/2+z
1/2+x,1/2+y,z
1/2-x,1/2+y,1/2-z
1/2-x,1/2-y,-z
1/2+x,1/2-y,1/2+z
loop_
_atom_site_type_symbol
_atom_site_label
_atom_site_fract_x
_atom_site_fract_y
_atom_site_fract_z
Si Si1 0.600209 0.109354 0.846220
Si Si2 0.743466 0.009801 0.890595
Si Si3 0.751167 0.180486 0.370813
Si Si4 0.500000 0.375106 0.750000
Si Si5 0.075916 0.588976 0.364166
Si Si6 0.852560 0.288973 0.300460
Si Si7 0.602398 0.531845 0.389208
O O1 0.500000 0.103744 0.750000
O O2 0.689713 0.058812 0.816634
O O3 0.679535 0.163832 0.801875
O O4 0.529647 0.113460 0.010636
O O5 0.646881 0.960321 0.920802
O O6 0.867361 0.992789 0.772488
O O7 0.774597 0.029712 0.041568
O O8 0.892773 0.159501 0.353019
O O9 0.672874 0.136761 0.301238
O O10 0.765799 0.237573 0.287851
O O11 0.681260 0.188767 0.536314
O O12 0.443336 0.408691 0.633213
O O13 0.000000 0.567393 0.250000
O O14 0.000000 0.274460 0.250000
O O15 0.500000 0.500000 0.500000
#
# Coordination Sequence:
#
# PCOD8144046 Si02
#       7
#     8   8   8   4   8   8   8
#     4  11  22  39  63  94 123 162 217 262 320 372
#     4  12  24  39  63  91 131 172 209 264 321 389
#     4  11  22  42  68  95 126 171 220 263 332 382
#     4  12  24  40  68  92 130 176 218 262 324 390
#     4  12  23  41  64  97 133 169 209 272 328 384
#     4  10  21  41  70  95 122 166 223 275 312 385
#     4  12  23  40  58  90 128 171 210 257 315 381
#
# _framework density 20.444766000000001
#
# number of rings (size 3 to 8) (size 9 to 14) (size 15 to 20)
#    0.000    0.615    6.923    2.769    2.154    0.000 
#    0.000    0.769    6.769    0.000    0.000    0.000 
#    0.000    0.000    0.000    0.000    0.000    0.000 
#
# Total GULP energy -322270.853315 kJ/mol
# GULP energy per Si atom -12395.032820 kJ/mol
# Density = 2.039823 g / cm^3
# Si number density = 20.444766 Si / 1000 Ang^3
#
#
#
# Elastic Constant Matrix: (Units=GPa)
#
#
# Indices 1 2 3 4 5 6 
#
# 1 74.7845 38.0012 33.2048 0.0000 -8.7129 0.0000
# 2 38.0012 145.1864 24.0328 0.0000 0.3426 0.0000
# 3 33.2048 24.0328 88.6566 0.0000 -5.4624 0.0000
# 4 0.0000 0.0000 0.0000 54.9112 0.0000 -23.7030
# 5 -8.7129 0.3426 -5.4624 0.0000 47.7308 0.0000
# 6 0.0000 0.0000 0.0000 -23.7030 0.0000 58.0000
#
#
#
# Elastic Compliance Matrix: (Units=1/GPa)
#
#
# Indices 1 2 3 4 5 6 
#
# 1 0.018105 -0.003822 -0.005579 0.000000 0.002694 0.000000
# 2 -0.003822 0.008022 -0.000795 0.000000 -0.000846 0.000000
# 3 -0.005579 -0.000795 0.013618 0.000000 0.000546 0.000000
# 4 0.000000 0.000000 0.000000 0.022112 0.000000 0.009037
# 5 0.002694 -0.000846 0.000546 0.000000 0.021511 0.000000
# 6 0.000000 0.000000 0.000000 0.009037 0.000000 0.020934
#
#
# Mechanical properties :
#
#
# Convention : Reuss Voigt Hill
#
# Bulk Modulus (GPa) = 51.67192 55.45612 53.56402
# Shear Modulus (GPa) = 38.12599 46.35431 42.24015
#
# Velocity S-wave (km/s) = 4.32305 4.76678 4.55033
# Velocity P-wave (km/s) = 7.08852 7.58155 7.33918
#
# Compressibility (1/GPa) = 0.01935287
#
# Stress axis : x y z
#
# Youngs Moduli (GPa) = 55.23475 124.66333 73.43141
#
# Poissons Ratio (x) = 0.47641 0.40966
# Poissons Ratio (y) = 0.21108 0.05840
# Poissons Ratio (z) = 0.30814 0.09915
#
# Static dielectric constant tensor:
#      x y z
#    x 3.901280 0.000000 -0.244290 
#    y 0.000000 4.073990 0.000000 
#    z -0.244290 0.000000 3.558110 
# 
# 
# High freq. dielectric constant tensor:
#      x y z
#    x 1.796950 0.000000 -0.027990 
#    y 0.000000 1.809530 0.000000 
#    z -0.027990 0.000000 1.791610 
# 
# From -- ./inp_files/33546.got.cif
#   From: 2010.06.25/outbox.cif.g09.slc.cpg/sg15_17_cif.got.tgz:33546.got - 2010.06.28 07:06:18.
