data_PCOD8144056
_publ_section_title
;
Structure prediction by ZEFSAII (Michael W. Deem and Ramdas Pophale) SiO2 
 PCOD8144056
Probable space group: C 2/C
;
_chemical_formula_sum "Si O2"
_cell_formula_units_Z 44
_cell_length_a 25.308617
_cell_length_b 11.560781
_cell_length_c 13.087030
_cell_angle_alpha 90.000000
_cell_angle_beta 32.716066
_cell_angle_gamma 90.000000
_cell_volume 2069.537550
_symmetry_space_group_name_H-M "C 2/C"
_symmetry_group_IT_number 15
_symmetry_cell_setting 'monoclinic'
loop_
_space_group_symop_operation_xyz
x,y,z
-x,y,1/2-z
-x,-y,-z
x,-y,1/2+z
1/2+x,1/2+y,z
1/2-x,1/2+y,1/2-z
1/2-x,1/2-y,-z
1/2+x,1/2-y,1/2+z
loop_
_atom_site_type_symbol
_atom_site_label
_atom_site_fract_x
_atom_site_fract_y
_atom_site_fract_z
Si Si1 0.137066 0.701723 0.289529
Si Si2 0.401758 0.105926 0.944881
Si Si3 0.216683 0.379479 0.062378
Si Si4 0.444471 0.120762 0.501366
Si Si5 0.334296 0.405823 0.390106
Si Si6 0.000000 0.807372 0.250000
O O1 0.150740 0.691426 0.389181
O O2 0.127438 0.837089 0.273448
O O3 0.043781 0.623505 0.407051
O O4 0.229538 0.646776 0.085649
O O5 0.500000 0.172136 0.750000
O O6 0.334317 0.078552 0.958471
O O7 0.437178 0.987233 0.938487
O O8 0.148375 0.386467 0.272891
O O9 0.250000 0.250000 0.000000
O O10 0.315193 0.457597 0.908825
O O11 0.447288 0.232950 0.423996
O O12 0.414542 0.389283 0.346989
#
# Coordination Sequence:
#
# PCOD8144056 Si02
#       6
#     8   8   8   8   8   4
#     4  10  21  41  71 101 130 163 221 281 334 395
#     4  12  22  38  71 102 131 171 217 288 341 385
#     4  12  28  43  62 100 140 177 227 281 334 403
#     4  11  22  41  67 105 132 165 231 282 328 403
#     4  10  23  44  69  98 131 176 223 272 334 411
#     4  10  24  42  74  98 134 184 220 276 348 414
#
# _framework density 21.260788999999999
#
# number of rings (size 3 to 8) (size 9 to 14) (size 15 to 20)
#    0.000    1.091    4.545    1.636    7.636    0.000 
#    1.636    3.636    0.000    0.000    0.000    0.000 
#    0.000    0.000    0.000    0.000    0.000    0.000 
#
# Total GULP energy -272709.457544 kJ/mol
# GULP energy per Si atom -12395.884434 kJ/mol
# Density = 2.121240 g / cm^3
# Si number density = 21.260789 Si / 1000 Ang^3
#
#
#
# Elastic Constant Matrix: (Units=GPa)
#
#
# Indices 1 2 3 4 5 6 
#
# 1 128.7341 50.0670 38.7604 0.0000 4.4582 0.0000
# 2 50.0670 119.8022 36.5704 0.0000 -3.8112 0.0000
# 3 38.7604 36.5704 72.2695 0.0000 8.4235 0.0000
# 4 0.0000 0.0000 0.0000 30.1252 0.0000 -7.9528
# 5 4.4582 -3.8112 8.4235 0.0000 40.5897 0.0000
# 6 0.0000 0.0000 0.0000 -7.9528 0.0000 19.8892
#
#
#
# Elastic Compliance Matrix: (Units=1/GPa)
#
#
# Indices 1 2 3 4 5 6 
#
# 1 0.010137 -0.003097 -0.003798 0.000000 -0.000616 0.000000
# 2 -0.003097 0.010981 -0.004156 0.000000 0.002234 0.000000
# 3 -0.003798 -0.004156 0.018420 0.000000 -0.003796 0.000000
# 4 0.000000 0.000000 0.000000 0.037112 0.000000 0.014840
# 5 -0.000616 0.002234 -0.003796 0.000000 0.025702 0.000000
# 6 0.000000 0.000000 0.000000 0.014840 0.000000 0.056212
#
#
# Mechanical properties :
#
#
# Convention : Reuss Voigt Hill
#
# Bulk Modulus (GPa) = 57.35278 63.51127 60.43202
# Shear Modulus (GPa) = 26.81278 31.14801 28.98040
#
# Velocity S-wave (km/s) = 3.55510 3.83174 3.69601
# Velocity P-wave (km/s) = 6.62466 7.03660 6.83373
#
# Compressibility (1/GPa) = 0.01743595
#
# Stress axis : x y z
#
# Youngs Moduli (GPa) = 98.64653 91.06631 54.28969
#
# Poissons Ratio (x) = 0.28200 0.20620
# Poissons Ratio (y) = 0.30548 0.22564
# Poissons Ratio (z) = 0.37467 0.37849
#
# Static dielectric constant tensor:
#      x y z
#    x 6.665080 0.000000 -1.973770 
#    y 0.000000 3.991210 0.000000 
#    z -1.973770 0.000000 6.501440 
# 
# 
# High freq. dielectric constant tensor:
#      x y z
#    x 1.844850 0.000000 0.005470 
#    y 0.000000 1.819230 0.000000 
#    z 0.005470 0.000000 1.836660 
# 
# From -- ./inp_files/152258.got.cif
#   From: 2010.06.25/outbox.cif.g09.slc.cpg/sg15_77_cif.got.tgz:152258.got - 2010.06.28 07:06:18.
