data_PCOD8144173
_publ_section_title
;
Structure prediction by ZEFSAII (Michael W. Deem and Ramdas Pophale) SiO2 
 PCOD8144173
Probable space group: C 2/C
;
_chemical_formula_sum "Si O2"
_cell_formula_units_Z 44
_cell_length_a 16.027795
_cell_length_b 17.838732
_cell_length_c 7.779033
_cell_angle_alpha 90.000000
_cell_angle_beta 94.327447
_cell_angle_gamma 90.000000
_cell_volume 2217.805601
_symmetry_space_group_name_H-M "C 2/C"
_symmetry_group_IT_number 15
_symmetry_cell_setting 'monoclinic'
loop_
_space_group_symop_operation_xyz
x,y,z
-x,y,1/2-z
-x,-y,-z
x,-y,1/2+z
1/2+x,1/2+y,z
1/2-x,1/2+y,1/2-z
1/2-x,1/2-y,-z
1/2+x,1/2-y,1/2+z
loop_
_atom_site_type_symbol
_atom_site_label
_atom_site_fract_x
_atom_site_fract_y
_atom_site_fract_z
Si Si1 0.277673 0.083893 0.532476
Si Si2 0.888469 0.357051 0.354257
Si Si3 0.500000 0.271673 0.750000
Si Si4 0.087666 0.900423 0.957896
Si Si5 0.000000 0.479594 0.250000
Si Si6 0.161734 0.567133 0.339274
Si Si7 0.000000 0.021435 0.750000
O O1 0.330971 0.132411 0.676158
O O2 0.183597 0.113629 0.519055
O O3 0.317487 0.094929 0.348969
O O4 0.273660 0.996697 0.587308
O O5 0.935579 0.277998 0.351817
O O6 0.956290 0.424188 0.380636
O O7 0.834697 0.363499 0.523585
O O8 0.553514 0.321412 0.887734
O O9 0.077199 0.967203 0.816701
O O10 0.031410 0.923302 0.109411
O O11 0.929940 0.531514 0.156664
#
# Coordination Sequence:
#
# PCOD8144173 Si02
#       7
#     8   8   4   8   4   8   4
#     4  11  21  35  62  92 123 152 201 262 305 338
#     4  10  22  37  56  86 126 167 196 244 292 366
#     4  10  24  44  58  82 128 164 204 236 292 376
#     4  10  21  42  64  91 118 150 203 255 303 358
#     4   9  18  31  55  84 121 156 208 238 283 346
#     4  11  20  33  58  95 120 160 199 252 302 346
#     4   9  20  39  71  90 107 156 204 260 299 344
#
# _framework density 19.83943
#
# number of rings (size 3 to 8) (size 9 to 14) (size 15 to 20)
#    0.000    1.818    3.636    1.636    5.091    0.727 
#    3.273    0.909    0.000    0.000    0.000    0.000 
#    0.000    0.000    0.000    0.000    0.000    0.000 
#
# Total GULP energy -272688.432034 kJ/mol
# GULP energy per Si atom -12394.928729 kJ/mol
# Density = 1.979427 g / cm^3
# Si number density = 19.839430 Si / 1000 Ang^3
#
#
#
# Elastic Constant Matrix: (Units=GPa)
#
#
# Indices 1 2 3 4 5 6 
#
# 1 112.0209 49.2881 32.0298 0.0000 16.0395 0.0000
# 2 49.2881 101.9726 46.7090 0.0000 1.7508 0.0000
# 3 32.0298 46.7090 115.4721 0.0000 -4.8974 0.0000
# 4 0.0000 0.0000 0.0000 -8.0006 0.0000 12.8174
# 5 16.0395 1.7508 -4.8974 0.0000 15.6602 0.0000
# 6 0.0000 0.0000 0.0000 12.8174 0.0000 8.1456
#
#
#
# Elastic Compliance Matrix: (Units=1/GPa)
#
#
# Indices 1 2 3 4 5 6 
#
# 1 0.014087 -0.005508 -0.002296 0.000000 -0.014531 0.000000
# 2 -0.005508 0.014322 -0.004149 0.000000 0.002743 0.000000
# 3 -0.002296 -0.004149 0.011244 0.000000 0.006332 0.000000
# 4 0.000000 0.000000 0.000000 -0.035500 0.000000 0.055860
# 5 -0.014531 0.002743 0.006332 0.000000 0.080412 0.000000
# 6 0.000000 0.000000 0.000000 0.055860 0.000000 0.034868
#
#
# Mechanical properties :
#
#
# Convention : Reuss Voigt Hill
#
# Bulk Modulus (GPa) = 63.50297 65.05771 64.28034
# Shear Modulus (GPa) = 33.64974 16.59028 25.12001
#
# Velocity S-wave (km/s) = 4.12285 2.89490 3.56218
# Velocity P-wave (km/s) = 7.39877 6.63605 7.02777
#
# Compressibility (1/GPa) = 0.01574729
#
# Stress axis : x y z
#
# Youngs Moduli (GPa) = 70.98561 69.82094 88.93727
#
# Poissons Ratio (x) = 0.38457 0.20419
# Poissons Ratio (y) = 0.39099 0.36903
# Poissons Ratio (z) = 0.16297 0.28971
#
# Static dielectric constant tensor:
#      x y z
#    x 3.552020 0.000000 -0.017550 
#    y 0.000000 3.337870 0.000000 
#    z -0.017550 0.000000 4.249500 
# 
# 
# High freq. dielectric constant tensor:
#      x y z
#    x 1.769040 0.000000 0.004310 
#    y 0.000000 1.743490 0.000000 
#    z 0.004310 0.000000 1.785440 
# 
# From -- ./inp_files/39182.got.cif
#   From: 2010.06.25/outbox.cif.g09.slc.cpg/sg15_20_cif.got.tgz:39182.got - 2010.06.28 07:06:18.
