data_PCOD8144133
_publ_section_title
;
Structure prediction by ZEFSAII (Michael W. Deem and Ramdas Pophale) SiO2 
 PCOD8144133
Probable space group: C 2/C
;
_chemical_formula_sum "Si O2"
_cell_formula_units_Z 56
_cell_length_a 16.794953
_cell_length_b 14.030826
_cell_length_c 14.163821
_cell_angle_alpha 90.000000
_cell_angle_beta 56.804373
_cell_angle_gamma 90.000000
_cell_volume 2792.976619
_symmetry_space_group_name_H-M "C 2/C"
_symmetry_group_IT_number 15
_symmetry_cell_setting 'monoclinic'
loop_
_space_group_symop_operation_xyz
x,y,z
-x,y,1/2-z
-x,-y,-z
x,-y,1/2+z
1/2+x,1/2+y,z
1/2-x,1/2+y,1/2-z
1/2-x,1/2-y,-z
1/2+x,1/2-y,1/2+z
loop_
_atom_site_type_symbol
_atom_site_label
_atom_site_fract_x
_atom_site_fract_y
_atom_site_fract_z
Si Si1 0.752211 0.796580 0.397692
Si Si2 0.436714 0.876348 0.013094
Si Si3 0.538581 0.050204 0.621014
Si Si4 0.790278 0.671191 0.039019
Si Si5 0.989953 0.048650 0.606378
Si Si6 0.608477 0.752955 0.848671
Si Si7 0.652079 0.507310 0.645887
O O1 0.750000 0.750000 0.500000
O O2 0.644584 0.795161 0.426382
O O3 0.828891 0.738367 0.286811
O O4 0.775524 0.907882 0.382111
O O5 0.532920 0.837127 0.903689
O O6 0.407565 0.959360 0.958826
O O7 0.452391 0.918335 0.107841
O O8 0.500000 0.028386 0.750000
O O9 0.615766 0.133592 0.574296
O O10 0.816292 0.728808 0.117002
O O11 0.710125 0.590131 0.100322
O O12 0.750000 0.750000 0.000000
O O13 0.915353 0.992169 0.719767
O O14 0.091872 0.040852 0.592776
O O15 0.951387 0.155078 0.612384
O O16 0.000000 0.000000 0.500000
#
# Coordination Sequence:
#
# PCOD8144133 Si02
#       7
#     8   8   8   8   8   8   8
#     4  11  23  39  65  95 125 170 214 266 321 387
#     4  10  22  42  63  92 132 161 217 263 322 389
#     4  10  23  42  65  90 126 173 203 265 329 384
#     4  11  23  42  62  95 129 165 216 267 323 390
#     4  10  21  42  63  87 126 171 208 262 321 377
#     4  10  24  40  62  95 127 165 216 267 315 392
#     4  10  22  40  62  93 127 162 216 263 315 383
#
# _framework density 20.050294000000001
#
# number of rings (size 3 to 8) (size 9 to 14) (size 15 to 20)
#    0.000    1.714    1.429    1.714    4.000    3.429 
#    5.143    0.000    0.000    0.000    0.000    0.000 
#    0.000    0.000    0.000    0.000    0.000    0.000 
#
# Total GULP energy -347056.697341 kJ/mol
# GULP energy per Si atom -12394.882048 kJ/mol
# Density = 2.000466 g / cm^3
# Si number density = 20.050294 Si / 1000 Ang^3
#
#
#
# Elastic Constant Matrix: (Units=GPa)
#
#
# Indices 1 2 3 4 5 6 
#
# 1 109.2069 31.6118 47.5772 0.0000 8.9635 0.0000
# 2 31.6118 63.3748 26.0213 0.0000 12.7254 0.0000
# 3 47.5772 26.0213 128.7072 0.0000 15.7727 0.0000
# 4 0.0000 0.0000 0.0000 32.1098 0.0000 -1.2253
# 5 8.9635 12.7254 15.7727 0.0000 27.3845 0.0000
# 6 0.0000 0.0000 0.0000 -1.2253 0.0000 48.8868
#
#
#
# Elastic Compliance Matrix: (Units=1/GPa)
#
#
# Indices 1 2 3 4 5 6 
#
# 1 0.012007 -0.004583 -0.003541 0.000000 0.000239 0.000000
# 2 -0.004583 0.020084 -0.001513 0.000000 -0.006961 0.000000
# 3 -0.003541 -0.001513 0.009852 0.000000 -0.003812 0.000000
# 4 0.000000 0.000000 0.000000 0.031173 0.000000 0.000781
# 5 0.000239 -0.006961 -0.003812 0.000000 0.041869 0.000000
# 6 0.000000 0.000000 0.000000 0.000781 0.000000 0.020475
#
#
# Mechanical properties :
#
#
# Convention : Reuss Voigt Hill
#
# Bulk Modulus (GPa) = 44.11551 56.85661 50.48606
# Shear Modulus (GPa) = 30.80891 34.74811 32.77851
#
# Velocity S-wave (km/s) = 3.92418 4.16750 4.04767
# Velocity P-wave (km/s) = 6.52552 7.18164 6.86143
#
# Compressibility (1/GPa) = 0.02266776
#
# Stress axis : x y z
#
# Youngs Moduli (GPa) = 83.28720 49.78996 101.50605
#
# Poissons Ratio (x) = 0.22819 0.35944
# Poissons Ratio (y) = 0.38171 0.15361
# Poissons Ratio (z) = 0.29492 0.07535
#
# Static dielectric constant tensor:
#      x y z
#    x 4.046460 0.000000 0.038340 
#    y 0.000000 3.494920 0.000000 
#    z 0.038340 0.000000 3.726190 
# 
# 
# High freq. dielectric constant tensor:
#      x y z
#    x 1.796830 0.000000 -0.006410 
#    y 0.000000 1.782400 0.000000 
#    z -0.006410 0.000000 1.784390 
# 
# From -- ./inp_files/161229.got.cif
#   From: 2010.06.25/outbox.cif.g09.slc.cpg/sg15_81_cif.got.tgz:161229.got - 2010.06.28 07:06:18.
