data_PCOD8144048
_publ_section_title
;
Structure prediction by ZEFSAII (Michael W. Deem and Ramdas Pophale) SiO2 
 PCOD8144048
Probable space group: C 2/C
;
_chemical_formula_sum "Si O2"
_cell_formula_units_Z 44
_cell_length_a 14.358612
_cell_length_b 17.424206
_cell_length_c 8.735569
_cell_angle_alpha 90.000000
_cell_angle_beta 110.822881
_cell_angle_gamma 90.000000
_cell_volume 2042.778915
_symmetry_space_group_name_H-M "C 2/C"
_symmetry_group_IT_number 15
_symmetry_cell_setting 'monoclinic'
loop_
_space_group_symop_operation_xyz
x,y,z
-x,y,1/2-z
-x,-y,-z
x,-y,1/2+z
1/2+x,1/2+y,z
1/2-x,1/2+y,1/2-z
1/2-x,1/2-y,-z
1/2+x,1/2-y,1/2+z
loop_
_atom_site_type_symbol
_atom_site_label
_atom_site_fract_x
_atom_site_fract_y
_atom_site_fract_z
Si Si1 0.779338 0.290618 0.863292
Si Si2 0.069703 0.835528 0.147020
Si Si3 0.500000 0.986317 0.750000
Si Si4 0.388179 0.389045 0.869205
Si Si5 0.328986 0.473154 0.147861
Si Si6 0.871027 0.553158 0.428114
O O1 0.858914 0.237725 0.823220
O O2 0.686992 0.316700 0.700307
O O3 0.828902 0.366761 0.955332
O O4 0.750000 0.250000 0.000000
O O5 0.137814 0.910171 0.209050
O O6 0.000000 0.819087 0.250000
O O7 0.997800 0.852410 0.958777
O O8 0.590014 0.938130 0.725454
O O9 0.462991 0.040142 0.592991
O O10 0.386338 0.446409 0.721041
O O11 0.354176 0.442019 0.993401
O O12 0.210943 0.485869 0.102083
#
# Coordination Sequence:
#
# PCOD8144048 Si02
#       6
#     8   8   4   8   8   8
#     4  11  26  42  65  97 139 175 218 279 343 402
#     4  10  24  43  66  99 132 179 221 280 343 402
#     4  10  22  40  64  92 120 176 228 268 318 398
#     4  10  23  44  70 101 131 177 222 280 338 397
#     4  10  21  41  70  97 130 170 226 284 334 387
#     4  10  22  40  64  92 128 170 223 273 329 390
#
# _framework density 21.539287999999999
#
# number of rings (size 3 to 8) (size 9 to 14) (size 15 to 20)
#    0.000    1.818    0.000    2.727    8.909    5.091 
#    3.273    0.000    0.000    0.000    0.000    0.000 
#    0.000    0.000    0.000    0.000    0.000    0.000 
#
# Total GULP energy -272648.626844 kJ/mol
# GULP energy per Si atom -12393.119402 kJ/mol
# Density = 2.149026 g / cm^3
# Si number density = 21.539288 Si / 1000 Ang^3
#
#
#
# Elastic Constant Matrix: (Units=GPa)
#
#
# Indices 1 2 3 4 5 6 
#
# 1 100.4759 70.0500 40.9396 0.0000 6.9416 0.0000
# 2 70.0500 122.3079 55.1656 0.0000 14.1021 0.0000
# 3 40.9396 55.1656 107.9913 0.0000 15.7720 0.0000
# 4 0.0000 0.0000 0.0000 32.8410 0.0000 -4.4595
# 5 6.9416 14.1021 15.7720 0.0000 40.2005 0.0000
# 6 0.0000 0.0000 0.0000 -4.4595 0.0000 26.4399
#
#
#
# Elastic Compliance Matrix: (Units=1/GPa)
#
#
# Indices 1 2 3 4 5 6 
#
# 1 0.016898 -0.008885 -0.002012 0.000000 0.000988 0.000000
# 2 -0.008885 0.015405 -0.004175 0.000000 -0.002232 0.000000
# 3 -0.002012 -0.004175 0.012614 0.000000 -0.003137 0.000000
# 4 0.000000 0.000000 0.000000 0.031163 0.000000 0.005256
# 5 0.000988 -0.002232 -0.003137 0.000000 0.026718 0.000000
# 6 0.000000 0.000000 0.000000 0.005256 0.000000 0.038708
#
#
# Mechanical properties :
#
#
# Convention : Reuss Voigt Hill
#
# Bulk Modulus (GPa) = 67.68931 73.67619 70.68275
# Shear Modulus (GPa) = 28.31642 30.87095 29.59369
#
# Velocity S-wave (km/s) = 3.62973 3.78992 3.71069
# Velocity P-wave (km/s) = 7.00434 7.30966 7.15863
#
# Compressibility (1/GPa) = 0.01477338
#
# Stress axis : x y z
#
# Youngs Moduli (GPa) = 59.17689 64.91262 79.27876
#
# Poissons Ratio (x) = 0.57674 0.15950
# Poissons Ratio (y) = 0.52578 0.33102
# Poissons Ratio (z) = 0.11906 0.27103
#
# Static dielectric constant tensor:
#      x y z
#    x 4.250410 0.000000 0.131300 
#    y 0.000000 3.922210 0.000000 
#    z 0.131300 0.000000 4.060160 
# 
# 
# High freq. dielectric constant tensor:
#      x y z
#    x 1.856430 0.000000 0.007380 
#    y 0.000000 1.833930 0.000000 
#    z 0.007380 0.000000 1.854430 
# 
# From -- ./inp_files/39322.got.cif
#   From: 2010.06.25/outbox.cif.g09.slc.cpg/sg15_20_cif.got.tgz:39322.got - 2010.06.28 07:06:18.
