data_PCOD8144468
_publ_section_title
;
Structure prediction by ZEFSAII (Michael W. Deem and Ramdas Pophale) SiO2 
 PCOD8144468
Probable space group: C 2/C
;
_chemical_formula_sum "Si O2"
_cell_formula_units_Z 44
_cell_length_a 26.270063
_cell_length_b 6.466581
_cell_length_c 13.949035
_cell_angle_alpha 90.000000
_cell_angle_beta 69.978258
_cell_angle_gamma 90.000000
_cell_volume 2226.413355
_symmetry_space_group_name_H-M "C 2/C"
_symmetry_group_IT_number 15
_symmetry_cell_setting 'monoclinic'
loop_
_space_group_symop_operation_xyz
x,y,z
-x,y,1/2-z
-x,-y,-z
x,-y,1/2+z
1/2+x,1/2+y,z
1/2-x,1/2+y,1/2-z
1/2-x,1/2-y,-z
1/2+x,1/2-y,1/2+z
loop_
_atom_site_type_symbol
_atom_site_label
_atom_site_fract_x
_atom_site_fract_y
_atom_site_fract_z
Si Si1 0.000000 0.854869 0.750000
Si Si2 0.882219 0.999191 0.304183
Si Si3 0.965547 0.635067 0.949861
Si Si4 0.187774 0.726494 0.516681
Si Si5 0.619585 0.457635 0.417876
Si Si6 0.625419 0.161292 0.045386
O O1 0.945621 0.988899 0.790424
O O2 0.006237 0.725520 0.844177
O O3 0.849448 0.192074 0.370760
O O4 0.870331 0.982212 0.200449
O O5 0.863699 0.785660 0.364198
O O6 0.925133 0.492916 0.915224
O O7 0.933606 0.818429 0.026168
O O8 0.000000 0.500000 0.000000
O O9 0.250000 0.750000 0.500000
O O10 0.172717 0.855252 0.430984
O O11 0.178056 0.484421 0.500218
O O12 0.613771 0.687907 0.463575
#
# Coordination Sequence:
#
# PCOD8144468 Si02
#       6
#     4   8   8   8   8   8
#     4  12  22  40  60  94 138 164 224 266 330 400
#     4  11  24  40  64  97 125 170 217 265 330 395
#     4  11  24  37  60  94 129 178 218 266 322 394
#     4  10  23  48  65  93 130 164 220 272 331 398
#     4  10  23  43  61  99 126 166 225 266 328 400
#     4  10  21  43  63  88 131 166 207 272 328 375
#
# _framework density 19.762727000000002
#
# number of rings (size 3 to 8) (size 9 to 14) (size 15 to 20)
#    0.000    1.455    5.455    1.091    5.091    7.273 
#    6.545    0.000    0.000    0.000    0.000    0.000 
#    0.000    0.000    0.000    0.000    0.000    0.000 
#
# Total GULP energy -272760.842373 kJ/mol
# GULP energy per Si atom -12398.220108 kJ/mol
# Density = 1.971775 g / cm^3
# Si number density = 19.762727 Si / 1000 Ang^3
#
#
#
# Elastic Constant Matrix: (Units=GPa)
#
#
# Indices 1 2 3 4 5 6 
#
# 1 121.4488 33.9521 41.7740 0.0000 -4.3041 0.0000
# 2 33.9521 117.1220 37.1996 0.0000 4.1143 0.0000
# 3 41.7740 37.1996 118.4140 0.0000 35.1498 0.0000
# 4 0.0000 0.0000 0.0000 17.7263 0.0000 6.5353
# 5 -4.3041 4.1143 35.1498 0.0000 37.6867 0.0000
# 6 0.0000 0.0000 0.0000 6.5353 0.0000 29.0319
#
#
#
# Elastic Compliance Matrix: (Units=1/GPa)
#
#
# Indices 1 2 3 4 5 6 
#
# 1 0.010659 -0.001705 -0.005035 0.000000 0.006100 0.000000
# 2 -0.001705 0.009918 -0.002953 0.000000 0.001476 0.000000
# 3 -0.005035 -0.002953 0.015521 0.000000 -0.014729 0.000000
# 4 0.000000 0.000000 0.000000 0.061519 0.000000 -0.013848
# 5 0.006100 0.001476 -0.014729 0.000000 0.040807 0.000000
# 6 0.000000 0.000000 0.000000 -0.013848 0.000000 0.037562
#
#
# Mechanical properties :
#
#
# Convention : Reuss Voigt Hill
#
# Bulk Modulus (GPa) = 59.83545 64.75959 62.29752
# Shear Modulus (GPa) = 24.88277 33.15958 29.02117
#
# Velocity S-wave (km/s) = 3.55220 4.10064 3.83623
# Velocity P-wave (km/s) = 6.86781 7.43371 7.15635
#
# Compressibility (1/GPa) = 0.01671250
#
# Stress axis : x y z
#
# Youngs Moduli (GPa) = 93.82088 100.82432 64.42937
#
# Poissons Ratio (x) = 0.17189 0.32441
# Poissons Ratio (y) = 0.15995 0.19024
# Poissons Ratio (z) = 0.47240 0.29770
#
# Static dielectric constant tensor:
#      x y z
#    x 3.669130 0.000000 -0.042590 
#    y 0.000000 3.913010 0.000000 
#    z -0.042590 0.000000 3.640430 
# 
# 
# High freq. dielectric constant tensor:
#      x y z
#    x 1.766780 0.000000 0.014530 
#    y 0.000000 1.785150 0.000000 
#    z 0.014530 0.000000 1.759930 
# 
# From -- ./inp_files/170818.got.cif
#   From: 2010.06.25/outbox.cif.g09.slc.cpg/sg15_86_cif.got.tgz:170818.got - 2010.06.28 07:06:18.
