data_PCOD8144547
_publ_section_title
;
Structure prediction by ZEFSAII (Michael W. Deem and Ramdas Pophale) SiO2 
 PCOD8144547
Probable space group: C 2/C
;
_chemical_formula_sum "Si O2"
_cell_formula_units_Z 40
_cell_length_a 18.381016
_cell_length_b 13.952111
_cell_length_c 14.643683
_cell_angle_alpha 90.000000
_cell_angle_beta 150.346290
_cell_angle_gamma 90.000000
_cell_volume 1858.024617
_symmetry_space_group_name_H-M "C 2/C"
_symmetry_group_IT_number 15
_symmetry_cell_setting 'monoclinic'
loop_
_space_group_symop_operation_xyz
x,y,z
-x,y,1/2-z
-x,-y,-z
x,-y,1/2+z
1/2+x,1/2+y,z
1/2-x,1/2+y,1/2-z
1/2-x,1/2-y,-z
1/2+x,1/2-y,1/2+z
loop_
_atom_site_type_symbol
_atom_site_label
_atom_site_fract_x
_atom_site_fract_y
_atom_site_fract_z
Si Si1 0.179178 0.986280 0.593899
Si Si2 0.432523 0.629491 0.268475
Si Si3 0.954097 0.205545 0.482752
Si Si4 0.332775 0.010632 0.575070
Si Si5 0.732763 0.127030 0.653127
O O1 0.148098 0.877962 0.588626
O O2 0.295008 0.986652 0.638335
O O3 0.248500 0.040768 0.755218
O O4 0.024854 0.034515 0.396635
O O5 0.500000 0.675854 0.250000
O O6 0.440218 0.707346 0.357205
O O7 0.265257 0.598415 0.068663
O O8 0.903027 0.307673 0.463659
O O9 0.121954 0.191681 0.695602
O O10 0.500000 0.044924 0.750000
O O11 0.305747 0.914509 0.487671
#
# Coordination Sequence:
#
# PCOD8144547 Si02
#       5
#     8   8   8   8   8
#     4  10  21  43  67  84 128 173 204 253 312 374
#     4   9  18  41  68  88 119 171 214 245 313 372
#     4  11  22  41  67  92 127 165 205 262 309 372
#     4  11  23  38  63  95 125 163 209 258 306 365
#     4  11  24  42  63  97 124 164 213 251 316 369
#
# _framework density 21.52824
#
# number of rings (size 3 to 8) (size 9 to 14) (size 15 to 20)
#    0.000    1.600    4.000    1.200    2.800    3.200 
#    0.000   10.000    0.000    0.000    0.000    0.000 
#    0.000    0.000    0.000    0.000    0.000    0.000 
#
# Total GULP energy -248120.041148 kJ/mol
# GULP energy per Si atom -12406.002057 kJ/mol
# Density = 2.147924 g / cm^3
# Si number density = 21.528240 Si / 1000 Ang^3
#
#
#
# Elastic Constant Matrix: (Units=GPa)
#
#
# Indices 1 2 3 4 5 6 
#
# 1 115.1351 14.2809 36.2921 0.0000 14.2608 0.0000
# 2 14.2809 32.9297 7.9123 0.0000 4.6709 0.0000
# 3 36.2921 7.9123 104.4219 0.0000 22.3130 0.0000
# 4 0.0000 0.0000 0.0000 15.6028 0.0000 10.1462
# 5 14.2608 4.6709 22.3130 0.0000 26.8114 0.0000
# 6 0.0000 0.0000 0.0000 10.1462 0.0000 24.2674
#
#
#
# Elastic Compliance Matrix: (Units=1/GPa)
#
#
# Indices 1 2 3 4 5 6 
#
# 1 0.010304 -0.003438 -0.002770 0.000000 -0.002576 0.000000
# 2 -0.003438 0.032468 -0.000544 0.000000 -0.003375 0.000000
# 3 -0.002770 -0.000544 0.012461 0.000000 -0.008802 0.000000
# 4 0.000000 0.000000 0.000000 0.088023 0.000000 -0.036802
# 5 -0.002576 -0.003375 -0.008802 0.000000 0.046582 0.000000
# 6 0.000000 0.000000 0.000000 -0.036802 0.000000 0.056595
#
#
# Mechanical properties :
#
#
# Convention : Reuss Voigt Hill
#
# Bulk Modulus (GPa) = 23.96390 41.05080 32.50735
# Shear Modulus (GPa) = 18.25839 26.26974 22.26407
#
# Velocity S-wave (km/s) = 2.91540 3.49699 3.21936
# Velocity P-wave (km/s) = 4.74218 5.95105 5.38067
#
# Compressibility (1/GPa) = 0.04172943
#
# Stress axis : x y z
#
# Youngs Moduli (GPa) = 97.04809 30.79956 80.24721
#
# Poissons Ratio (x) = 0.10588 0.22230
# Poissons Ratio (y) = 0.33361 0.04368
# Poissons Ratio (z) = 0.26885 0.01676
#
# Static dielectric constant tensor:
#      x y z
#    x 4.209190 0.000000 -0.096310 
#    y 0.000000 3.432360 0.000000 
#    z -0.096310 0.000000 3.881460 
# 
# 
# High freq. dielectric constant tensor:
#      x y z
#    x 1.863660 0.000000 -0.001680 
#    y 0.000000 1.815720 0.000000 
#    z -0.001680 0.000000 1.846340 
# 
# From -- ./inp_files/46903.got.cif
#   From: 2010.06.25/outbox.cif.g09.slc.cpg/sg15_24_cif.got.tgz:46903.got - 2010.06.28 07:06:18.
