data_PCOD8144908
_publ_section_title
;
Structure prediction by ZEFSAII (Michael W. Deem and Ramdas Pophale) SiO2 
 PCOD8144908
Probable space group: C 2/C
;
_chemical_formula_sum "Si O2"
_cell_formula_units_Z 60
_cell_length_a 16.967897
_cell_length_b 28.403753
_cell_length_c 7.797018
_cell_angle_alpha 90.000000
_cell_angle_beta 118.446717
_cell_angle_gamma 90.000000
_cell_volume 3304.074516
_symmetry_space_group_name_H-M "C 2/C"
_symmetry_group_IT_number 15
_symmetry_cell_setting 'monoclinic'
loop_
_space_group_symop_operation_xyz
x,y,z
-x,y,1/2-z
-x,-y,-z
x,-y,1/2+z
1/2+x,1/2+y,z
1/2-x,1/2+y,1/2-z
1/2-x,1/2-y,-z
1/2+x,1/2-y,1/2+z
loop_
_atom_site_type_symbol
_atom_site_label
_atom_site_fract_x
_atom_site_fract_y
_atom_site_fract_z
Si Si1 0.401440 0.972004 0.075531
Si Si2 0.514497 0.886578 0.468660
Si Si3 0.838713 0.434405 0.347637
Si Si4 0.815729 0.293074 0.081344
Si Si5 0.931195 0.790287 0.331185
Si Si6 0.357917 0.186417 0.263760
Si Si7 0.243443 0.847852 0.329034
Si Si8 0.000000 0.757478 0.750000
O O1 0.500000 0.986110 0.250000
O O2 0.419338 0.932421 0.947607
O O3 0.336295 0.947996 0.146054
O O4 0.348096 0.017274 0.959565
O O5 0.500000 0.874747 0.250000
O O6 0.421944 0.899164 0.466465
O O7 0.551177 0.843457 0.618882
O O8 0.750876 0.404834 0.315944
O O9 0.790518 0.326330 0.210807
O O10 0.917331 0.276014 0.211870
O O11 0.750000 0.250000 0.000000
O O12 0.805875 0.320151 0.890422
O O13 0.882026 0.740563 0.250206
O O14 0.859393 0.832492 0.261354
O O15 0.980790 0.790394 0.566138
O O16 0.000000 0.800754 0.250000
O O17 0.294092 0.168389 0.050690
#
# Coordination Sequence:
#
# PCOD8144908 Si02
#       8
#     8   8   8   8   8   8   8   4
#     4   9  18  36  53  79 120 153 189 230 292 353
#     4   9  19  35  53  85 118 161 197 228 275 360
#     4  10  22  33  58  79 120 145 197 235 286 351
#     4  11  22  40  58  82 120 158 206 241 287 344
#     4  11  25  40  57  83 115 156 205 243 293 348
#     4  11  24  35  60  82 122 159 197 236 293 329
#     4  12  25  39  56  90 115 153 202 253 284 352
#     4  10  22  38  64  74 114 174 186 242 304 324
#
# _framework density 18.159397999999999
#
# number of rings (size 3 to 8) (size 9 to 14) (size 15 to 20)
#    0.000    1.867    2.667    4.400   14.933    0.000 
#    0.000    0.000    0.000    0.000    0.000    0.933 
#    0.000    0.000    0.000    0.000    0.000    0.000 
#
# Total GULP energy -371864.201213 kJ/mol
# GULP energy per Si atom -12395.473374 kJ/mol
# Density = 1.811807 g / cm^3
# Si number density = 18.159398 Si / 1000 Ang^3
#
#
#
# Elastic Constant Matrix: (Units=GPa)
#
#
# Indices 1 2 3 4 5 6 
#
# 1 102.1277 34.4140 40.7517 0.0000 -7.6307 0.0000
# 2 34.4140 92.8858 22.8778 0.0000 2.8743 0.0000
# 3 40.7517 22.8778 69.5451 0.0000 -16.9415 0.0000
# 4 0.0000 0.0000 0.0000 26.7959 0.0000 4.3135
# 5 -7.6307 2.8743 -16.9415 0.0000 20.5773 0.0000
# 6 0.0000 0.0000 0.0000 4.3135 0.0000 20.5841
#
#
#
# Elastic Compliance Matrix: (Units=1/GPa)
#
#
# Indices 1 2 3 4 5 6 
#
# 1 0.013685 -0.003349 -0.006964 0.000000 -0.000191 0.000000
# 2 -0.003349 0.013162 -0.003900 0.000000 -0.006291 0.000000
# 3 -0.006964 -0.003900 0.024075 0.000000 0.017783 0.000000
# 4 0.000000 0.000000 0.000000 0.038622 0.000000 -0.008094
# 5 -0.000191 -0.006291 0.017783 0.000000 0.064047 0.000000
# 6 0.000000 0.000000 0.000000 -0.008094 0.000000 0.050277
#
#
# Mechanical properties :
#
#
# Convention : Reuss Voigt Hill
#
# Bulk Modulus (GPa) = 44.45211 51.18284 47.81748
# Shear Modulus (GPa) = 20.85151 24.69246 22.77198
#
# Velocity S-wave (km/s) = 3.39226 3.69150 3.54504
# Velocity P-wave (km/s) = 6.31468 6.81293 6.56853
#
# Compressibility (1/GPa) = 0.02249612
#
# Stress axis : x y z
#
# Youngs Moduli (GPa) = 73.07485 75.97652 41.53748
#
# Poissons Ratio (x) = 0.25445 0.28925
# Poissons Ratio (y) = 0.24473 0.16199
# Poissons Ratio (z) = 0.50886 0.29630
#
# Static dielectric constant tensor:
#      x y z
#    x 3.366840 0.000000 -0.196720 
#    y 0.000000 15.541410 0.000000 
#    z -0.196720 0.000000 3.334410 
# 
# 
# High freq. dielectric constant tensor:
#      x y z
#    x 1.687360 0.000000 -0.030850 
#    y 0.000000 1.693940 0.000000 
#    z -0.030850 0.000000 1.693120 
# 
# From -- ./inp_files/52563.got.cif
#   From: 2010.06.25/outbox.cif.g09.slc.cpg/sg15_27_cif.got.tgz:52563.got - 2010.06.28 07:06:18.
