data_PCOD8144685
_publ_section_title
;
Structure prediction by ZEFSAII (Michael W. Deem and Ramdas Pophale) SiO2 
 PCOD8144685
Probable space group: C 2/C
;
_chemical_formula_sum "Si O2"
_cell_formula_units_Z 44
_cell_length_a 8.301177
_cell_length_b 22.210446
_cell_length_c 13.724436
_cell_angle_alpha 90.000000
_cell_angle_beta 64.146653
_cell_angle_gamma 90.000000
_cell_volume 2277.152185
_symmetry_space_group_name_H-M "C 2/C"
_symmetry_group_IT_number 15
_symmetry_cell_setting 'monoclinic'
loop_
_space_group_symop_operation_xyz
x,y,z
-x,y,1/2-z
-x,-y,-z
x,-y,1/2+z
1/2+x,1/2+y,z
1/2-x,1/2+y,1/2-z
1/2-x,1/2-y,-z
1/2+x,1/2-y,1/2+z
loop_
_atom_site_type_symbol
_atom_site_label
_atom_site_fract_x
_atom_site_fract_y
_atom_site_fract_z
Si Si1 0.788389 0.869409 0.072290
Si Si2 0.302592 0.928334 0.762916
Si Si3 0.472526 0.532011 0.645124
Si Si4 0.176406 0.462024 0.959594
Si Si5 0.948031 0.173439 0.158856
Si Si6 0.000000 0.712138 0.750000
O O1 0.926172 0.906041 0.103392
O O2 0.666906 0.826599 0.170082
O O3 0.900951 0.832112 0.963376
O O4 0.652872 0.913486 0.051311
O O5 0.500000 0.938975 0.750000
O O6 0.228743 0.864447 0.824833
O O7 0.183078 0.983482 0.832646
O O8 0.294712 0.926942 0.648381
O O9 0.500000 0.548436 0.750000
O O10 0.655864 0.504067 0.555305
O O11 0.000000 0.500000 0.000000
O O12 0.920236 0.245158 0.184098
O O13 0.000000 0.143511 0.250000
#
# Coordination Sequence:
#
# PCOD8144685 Si02
#       6
#     8   8   8   8   8   4
#     4  12  22  41  69  91 131 170 215 270 322 385
#     4  11  21  38  63  93 133 168 214 262 323 387
#     4  10  23  39  58 100 136 163 206 268 334 387
#     4  11  22  35  61  96 132 165 209 254 329 393
#     4  10  21  44  63  88 122 172 221 266 304 379
#     4  10  26  40  68  96 122 176 230 252 322 378
#
# _framework density 19.322379000000002
#
# number of rings (size 3 to 8) (size 9 to 14) (size 15 to 20)
#    0.545    0.727    3.636    2.727    8.909    0.000 
#    0.000    0.909    0.000    3.273    0.000    0.000 
#    0.000    0.000    0.000    0.000    0.000    0.000 
#
# Total GULP energy -272717.241077 kJ/mol
# GULP energy per Si atom -12396.238231 kJ/mol
# Density = 1.927840 g / cm^3
# Si number density = 19.322379 Si / 1000 Ang^3
#
#
#
# Elastic Constant Matrix: (Units=GPa)
#
#
# Indices 1 2 3 4 5 6 
#
# 1 127.0293 64.8577 45.2514 0.0000 -22.7854 0.0000
# 2 64.8577 129.0355 65.6310 0.0000 -10.2695 0.0000
# 3 45.2514 65.6310 111.0795 0.0000 -17.5028 0.0000
# 4 0.0000 0.0000 0.0000 13.6589 0.0000 9.2816
# 5 -22.7854 -10.2695 -17.5028 0.0000 32.7760 0.0000
# 6 0.0000 0.0000 0.0000 9.2816 0.0000 19.6732
#
#
#
# Elastic Compliance Matrix: (Units=1/GPa)
#
#
# Indices 1 2 3 4 5 6 
#
# 1 0.011863 -0.005015 -0.000893 0.000000 0.006199 0.000000
# 2 -0.005015 0.013200 -0.006173 0.000000 -0.002647 0.000000
# 3 -0.000893 -0.006173 0.013770 0.000000 0.004798 0.000000
# 4 0.000000 0.000000 0.000000 0.107759 0.000000 -0.050839
# 5 0.006199 -0.002647 0.004798 0.000000 0.036552 0.000000
# 6 0.000000 0.000000 0.000000 -0.050839 0.000000 0.074816
#
#
# Mechanical properties :
#
#
# Convention : Reuss Voigt Hill
#
# Bulk Modulus (GPa) = 68.16540 79.84717 74.00628
# Shear Modulus (GPa) = 17.42094 25.98191 21.70142
#
# Velocity S-wave (km/s) = 3.00591 3.67093 3.35494
# Velocity P-wave (km/s) = 6.88490 7.70591 7.30695
#
# Compressibility (1/GPa) = 0.01467020
#
# Stress axis : x y z
#
# Youngs Moduli (GPa) = 84.29782 75.75912 72.62367
#
# Poissons Ratio (x) = 0.37995 0.06483
# Poissons Ratio (y) = 0.42277 0.44831
# Poissons Ratio (z) = 0.07525 0.46766
#
# Static dielectric constant tensor:
#      x y z
#    x 3.451860 0.000000 -0.132940 
#    y 0.000000 3.418550 0.000000 
#    z -0.132940 0.000000 4.110440 
# 
# 
# High freq. dielectric constant tensor:
#      x y z
#    x 1.738180 0.000000 -0.005420 
#    y 0.000000 1.740820 0.000000 
#    z -0.005420 0.000000 1.768280 
# 
# From -- ./inp_files/135386.got.cif
#   From: 2010.06.25/outbox.cif.g09.slc.cpg/sg15_68_cif.got.tgz:135386.got - 2010.06.28 07:06:18.
