data_PCOD8144183
_publ_section_title
;
Structure prediction by ZEFSAII (Michael W. Deem and Ramdas Pophale) SiO2 
 PCOD8144183
Probable space group: C 2/C
;
_chemical_formula_sum "Si O2"
_cell_formula_units_Z 52
_cell_length_a 7.255245
_cell_length_b 13.497877
_cell_length_c 24.220542
_cell_angle_alpha 90.000000
_cell_angle_beta 79.892679
_cell_angle_gamma 90.000000
_cell_volume 2335.116977
_symmetry_space_group_name_H-M "C 2/C"
_symmetry_group_IT_number 15
_symmetry_cell_setting 'monoclinic'
loop_
_space_group_symop_operation_xyz
x,y,z
-x,y,1/2-z
-x,-y,-z
x,-y,1/2+z
1/2+x,1/2+y,z
1/2-x,1/2+y,1/2-z
1/2-x,1/2-y,-z
1/2+x,1/2-y,1/2+z
loop_
_atom_site_type_symbol
_atom_site_label
_atom_site_fract_x
_atom_site_fract_y
_atom_site_fract_z
Si Si1 0.796702 0.127752 0.143315
Si Si2 0.576583 0.027128 0.326465
Si Si3 0.483992 0.949377 0.441409
Si Si4 0.439002 0.534762 0.563106
Si Si5 0.714074 0.795223 0.756514
Si Si6 0.771037 0.207943 0.938658
Si Si7 0.000000 0.640542 0.750000
O O1 0.854149 0.186622 0.195670
O O2 0.699469 0.201374 0.104252
O O3 0.633393 0.059935 0.176975
O O4 0.953708 0.057611 0.105943
O O5 0.601335 0.015414 0.391342
O O6 0.593467 0.922695 0.294480
O O7 0.720619 0.109571 0.296645
O O8 0.275593 0.933383 0.430603
O O9 0.571220 0.840869 0.437134
O O10 0.500000 0.000000 0.500000
O O11 0.500000 0.500000 0.500000
O O12 0.562544 0.627476 0.576596
O O13 0.500000 0.767458 0.750000
O O14 0.820924 0.704962 0.781139
O O15 0.750000 0.250000 0.000000
#
# Coordination Sequence:
#
# PCOD8144183 Si02
#       7
#     8   8   8   8   8   8   4
#     4  10  21  42  64  93 133 168 215 277 326 389
#     4  10  22  45  67  94 140 165 219 290 311 397
#     4  11  23  41  67  96 128 175 217 267 336 389
#     4  11  22  42  64  90 131 174 212 273 332 381
#     4  10  23  44  67  97 132 170 220 277 333 393
#     4  12  23  40  64  95 131 170 221 268 327 398
#     4  12  22  44  72  96 130 180 222 264 346 386
#
# _framework density 22.268691
#
# number of rings (size 3 to 8) (size 9 to 14) (size 15 to 20)
#    0.000    1.231    5.385    1.846    0.000    6.769 
#    1.385    0.000    0.000    0.000    0.000    0.000 
#    0.000    0.000    0.000    0.000    0.000    0.000 
#
# Total GULP energy -322205.358630 kJ/mol
# GULP energy per Si atom -12392.513793 kJ/mol
# Density = 2.221801 g / cm^3
# Si number density = 22.268691 Si / 1000 Ang^3
#
#
#
# Elastic Constant Matrix: (Units=GPa)
#
#
# Indices 1 2 3 4 5 6 
#
# 1 79.3153 49.0440 9.6024 0.0000 -12.0638 0.0000
# 2 49.0440 137.5016 44.9574 0.0000 -9.9424 0.0000
# 3 9.6024 44.9574 132.1509 0.0000 -9.1067 0.0000
# 4 0.0000 0.0000 0.0000 31.5855 0.0000 -2.8724
# 5 -12.0638 -9.9424 -9.1067 0.0000 23.8707 0.0000
# 6 0.0000 0.0000 0.0000 -2.8724 0.0000 52.5151
#
#
#
# Elastic Compliance Matrix: (Units=1/GPa)
#
#
# Indices 1 2 3 4 5 6 
#
# 1 0.017226 -0.006080 0.001276 0.000000 0.006660 0.000000
# 2 -0.006080 0.010466 -0.003112 0.000000 0.000099 0.000000
# 3 0.001276 -0.003112 0.008717 0.000000 0.002674 0.000000
# 4 0.000000 0.000000 0.000000 0.031818 0.000000 0.001740
# 5 0.006660 0.000099 0.002674 0.000000 0.046320 0.000000
# 6 0.000000 0.000000 0.000000 0.001740 0.000000 0.019137
#
#
# Mechanical properties :
#
#
# Convention : Reuss Voigt Hill
#
# Bulk Modulus (GPa) = 48.59766 61.79726 55.19746
# Shear Modulus (GPa) = 31.97444 37.95186 34.96315
#
# Velocity S-wave (km/s) = 3.79337 4.13276 3.96670
# Velocity P-wave (km/s) = 6.40756 7.11224 6.76908
#
# Compressibility (1/GPa) = 0.02057712
#
# Stress axis : x y z
#
# Youngs Moduli (GPa) = 58.05282 95.55008 114.71396
#
# Poissons Ratio (x) = 0.58090 -0.14632
# Poissons Ratio (y) = 0.35293 0.35697
# Poissons Ratio (z) = -0.07405 0.29733
#
# Static dielectric constant tensor:
#      x y z
#    x 3.942270 0.000000 -0.174950 
#    y 0.000000 4.388950 0.000000 
#    z -0.174950 0.000000 4.375630 
# 
# 
# High freq. dielectric constant tensor:
#      x y z
#    x 1.854600 0.000000 -0.004260 
#    y 0.000000 1.883090 0.000000 
#    z -0.004260 0.000000 1.893530 
# 
# From -- ./inp_files/287645.got.cif
#   From: 2010.06.25/outbox.cif.g09.slc.cpg/sg15_144_cif.got.tgz:287645.got - 2010.06.28 07:06:18.
