data_PCOD8144023
_publ_section_title
;
Structure prediction by ZEFSAII (Michael W. Deem and Ramdas Pophale) SiO2 
 PCOD8144023
Probable space group: C 2/C
;
_chemical_formula_sum "Si O2"
_cell_formula_units_Z 56
_cell_length_a 16.403830
_cell_length_b 19.635673
_cell_length_c 13.059343
_cell_angle_alpha 90.000000
_cell_angle_beta 36.546673
_cell_angle_gamma 90.000000
_cell_volume 2504.826618
_symmetry_space_group_name_H-M "C 2/C"
_symmetry_group_IT_number 15
_symmetry_cell_setting 'monoclinic'
loop_
_space_group_symop_operation_xyz
x,y,z
-x,y,1/2-z
-x,-y,-z
x,-y,1/2+z
1/2+x,1/2+y,z
1/2-x,1/2+y,1/2-z
1/2-x,1/2-y,-z
1/2+x,1/2-y,1/2+z
loop_
_atom_site_type_symbol
_atom_site_label
_atom_site_fract_x
_atom_site_fract_y
_atom_site_fract_z
Si Si1 0.506697 0.603673 0.979894
Si Si2 0.946943 0.306668 0.417820
Si Si3 0.824623 0.775692 0.701651
Si Si4 0.500360 0.919439 0.506793
Si Si5 0.643448 0.928078 0.651007
Si Si6 0.764874 0.656547 0.626050
Si Si7 0.100065 0.986734 0.554434
O O1 0.369962 0.647042 0.137585
O O2 0.589824 0.584375 0.001166
O O3 0.605243 0.644970 0.805299
O O4 0.453659 0.539687 0.972645
O O5 0.796367 0.275739 0.591326
O O6 0.952684 0.385474 0.448617
O O7 0.000000 0.301163 0.250000
O O8 0.045593 0.262747 0.386744
O O9 0.789982 0.735931 0.629795
O O10 0.390664 0.895939 0.703814
O O11 0.651747 0.894375 0.383557
O O12 0.500000 0.000000 0.500000
O O13 0.500000 0.957493 0.750000
O O14 0.700586 0.864824 0.525812
O O15 0.749275 0.991710 0.555787
O O16 0.000000 0.979870 0.750000
#
# Coordination Sequence:
#
# PCOD8144023 Si02
#       7
#     8   8   8   8   8   8   8
#     4  11  23  43  70 101 142 184 236 287 350 424
#     4  11  24  43  69  97 133 182 232 282 344 411
#     4  11  23  45  69  99 138 181 236 290 343 416
#     4  10  22  41  65  99 139 173 223 282 348 417
#     4  10  21  42  71 100 141 176 226 285 355 422
#     4  10  21  41  69  95 136 177 225 289 342 410
#     4  11  23  42  69 102 140 181 229 291 354 414
#
# _framework density 22.356836000000001
#
# number of rings (size 3 to 8) (size 9 to 14) (size 15 to 20)
#    0.000    1.429    2.857    2.143    0.000    3.429 
#    7.714    6.429    0.000    0.000    0.000    0.000 
#    0.000    0.000    0.000    0.000    0.000    0.000 
#
# Total GULP energy -347018.475362 kJ/mol
# GULP energy per Si atom -12393.516977 kJ/mol
# Density = 2.230595 g / cm^3
# Si number density = 22.356836 Si / 1000 Ang^3
#
#
#
# Elastic Constant Matrix: (Units=GPa)
#
#
# Indices 1 2 3 4 5 6 
#
# 1 65.7332 23.8711 38.8813 0.0047 3.7609 -0.0030
# 2 23.8711 106.7810 32.5300 0.0027 -6.1135 -0.0023
# 3 38.8813 32.5300 161.9151 0.0050 0.7028 -0.0044
# 4 0.0047 0.0027 0.0050 25.1510 -0.0022 -0.9163
# 5 3.7609 -6.1135 0.7028 -0.0022 55.6282 0.0022
# 6 -0.0030 -0.0023 -0.0044 -0.9163 0.0022 12.9231
#
#
#
# Elastic Compliance Matrix: (Units=1/GPa)
#
#
# Indices 1 2 3 4 5 6 
#
# 1 0.018712 -0.003095 -0.003865 -0.000002 -0.001556 0.000003
# 2 -0.003095 0.010558 -0.001384 0.000000 0.001387 0.000000
# 3 -0.003865 -0.001384 0.007382 -0.000001 0.000016 0.000001
# 4 -0.000002 0.000000 -0.000001 0.039863 0.000002 0.002826
# 5 -0.001556 0.001387 0.000016 0.000002 0.018234 -0.000003
# 6 0.000003 0.000000 0.000001 0.002826 -0.000003 0.077581
#
#
# Mechanical properties :
#
#
# Convention : Reuss Voigt Hill
#
# Bulk Modulus (GPa) = 50.08851 58.33268 54.21060
# Shear Modulus (GPa) = 25.55290 34.68357 30.11823
#
# Velocity S-wave (km/s) = 3.38443 3.94301 3.67435
# Velocity P-wave (km/s) = 6.14209 6.84675 6.50397
#
# Compressibility (1/GPa) = 0.01996466
#
# Stress axis : x y z
#
# Youngs Moduli (GPa) = 53.44156 94.71617 135.46192
#
# Poissons Ratio (x) = 0.29313 0.52354
# Poissons Ratio (y) = 0.16539 0.18748
# Poissons Ratio (z) = 0.20654 0.13109
#
# Static dielectric constant tensor:
#      x y z
#    x 4.270400 -0.000010 -0.046960 
#    y -0.000010 4.092220 0.000000 
#    z -0.046960 0.000000 4.250850 
# 
# 
# High freq. dielectric constant tensor:
#      x y z
#    x 1.872950 0.000000 -0.004680 
#    y 0.000000 1.866740 0.000000 
#    z -0.004680 0.000000 1.899880 
# 
# From -- ./inp_files/163756.got.cif
#   From: 2010.06.25/outbox.cif.g09.slc.cpg/sg15_82_cif.got.tgz:163756.got - 2010.06.28 07:06:18.
