data_PCOD8144708
_publ_section_title
;
Structure prediction by ZEFSAII (Michael W. Deem and Ramdas Pophale) SiO2 
 PCOD8144708
Probable space group: C 2/C
;
_chemical_formula_sum "Si O2"
_cell_formula_units_Z 32
_cell_length_a 9.406704
_cell_length_b 9.878082
_cell_length_c 15.220444
_cell_angle_alpha 90.000000
_cell_angle_beta 135.178746
_cell_angle_gamma 90.000000
_cell_volume 996.926917
_symmetry_space_group_name_H-M "C 2/C"
_symmetry_group_IT_number 15
_symmetry_cell_setting 'monoclinic'
loop_
_space_group_symop_operation_xyz
x,y,z
-x,y,1/2-z
-x,-y,-z
x,-y,1/2+z
1/2+x,1/2+y,z
1/2-x,1/2+y,1/2-z
1/2-x,1/2-y,-z
1/2+x,1/2-y,1/2+z
loop_
_atom_site_type_symbol
_atom_site_label
_atom_site_fract_x
_atom_site_fract_y
_atom_site_fract_z
Si Si1 0.903165 0.212599 0.487348
Si Si2 0.492411 0.678195 0.150731
Si Si3 0.115736 0.500419 0.960787
Si Si4 0.249561 0.029363 0.685955
O O1 0.805785 0.338537 0.503033
O O2 0.779210 0.065772 0.416803
O O3 0.932078 0.271720 0.399334
O O4 0.126454 0.171533 0.621977
O O5 0.500000 0.751174 0.250000
O O6 0.646211 0.550583 0.222218
O O7 0.275986 0.620527 0.030375
O O8 0.982443 0.545497 0.816737
O O9 0.000000 0.500000 0.000000
#
# Coordination Sequence:
#
# PCOD8144708 Si02
#       4
#     8   8   8   8
#     4   9  23  45  64  98 149 168 231 309 326 418
#     4  10  21  44  66 103 137 179 234 279 351 418
#     4  12  23  38  73  96 130 194 231 274 363 412
#     4   9  22  45  61  98 146 172 232 301 341 409
#
# _framework density 32.098638999999999
#
# number of rings (size 3 to 8) (size 9 to 14) (size 15 to 20)
#    1.500    0.500    2.500    0.000    3.500    3.000 
#    0.000    0.000    0.000    0.000    0.000    0.000 
#    0.000    0.000    0.000    0.000    0.000    0.000 
#
# Total GULP energy -198339.791962 kJ/mol
# GULP energy per Si atom -12396.236998 kJ/mol
# Density = 3.202558 g / cm^3
# Si number density = 32.098639 Si / 1000 Ang^3
#
#
#
# Elastic Constant Matrix: (Units=GPa)
#
#
# Indices 1 2 3 4 5 6 
#
# 1 115.2976 82.2986 65.2722 0.0000 -19.2794 0.0000
# 2 82.2986 195.7611 69.3016 0.0000 -12.0007 0.0000
# 3 65.2722 69.3016 216.1139 0.0000 6.4925 0.0000
# 4 0.0000 0.0000 0.0000 47.2391 0.0000 -7.2557
# 5 -19.2794 -12.0007 6.4925 0.0000 64.3059 0.0000
# 6 0.0000 0.0000 0.0000 -7.2557 0.0000 83.3652
#
#
#
# Elastic Compliance Matrix: (Units=1/GPa)
#
#
# Indices 1 2 3 4 5 6 
#
# 1 0.014351 -0.004774 -0.002915 0.000000 0.003706 0.000000
# 2 -0.004774 0.007455 -0.000950 0.000000 0.000056 0.000000
# 3 -0.002915 -0.000950 0.005862 0.000000 -0.001643 0.000000
# 4 0.000000 0.000000 0.000000 0.021456 0.000000 0.001867
# 5 0.003706 0.000056 -0.001643 0.000000 0.016838 0.000000
# 6 0.000000 0.000000 0.000000 0.001867 0.000000 0.012158
#
#
# Mechanical properties :
#
#
# Convention : Reuss Voigt Hill
#
# Bulk Modulus (GPa) = 96.25512 106.76861 101.51187
# Shear Modulus (GPa) = 50.57631 59.66873 55.12252
#
# Velocity S-wave (km/s) = 3.97376 4.31619 4.14851
# Velocity P-wave (km/s) = 7.14890 7.62720 7.39192
#
# Compressibility (1/GPa) = 0.01038906
#
# Stress axis : x y z
#
# Youngs Moduli (GPa) = 69.68351 134.13470 170.60030
#
# Poissons Ratio (x) = 0.64036 0.49725
# Poissons Ratio (y) = 0.33267 0.16215
# Poissons Ratio (z) = 0.20311 0.12749
#
# Static dielectric constant tensor:
#      x y z
#    x 5.379060 0.000000 -0.120140 
#    y 0.000000 9.387860 0.000000 
#    z -0.120140 0.000000 5.703000 
# 
# 
# High freq. dielectric constant tensor:
#      x y z
#    x 2.420590 0.000000 -0.026280 
#    y 0.000000 2.379960 0.000000 
#    z -0.026280 0.000000 2.314590 
# 
# From -- ./inp_files/196405.got.cif
#   From: 2010.06.25/outbox.cif.g09.slc.cpg/sg15_99_cif.got.tgz:196405.got - 2010.06.28 07:06:18.
