data_PCOD8144694
_publ_section_title
;
Structure prediction by ZEFSAII (Michael W. Deem and Ramdas Pophale) SiO2 
 PCOD8144694
Probable space group: C 2/C
;
_chemical_formula_sum "Si O2"
_cell_formula_units_Z 48
_cell_length_a 13.291785
_cell_length_b 29.106332
_cell_length_c 13.605453
_cell_angle_alpha 90.000000
_cell_angle_beta 157.275319
_cell_angle_gamma 90.000000
_cell_volume 2033.350877
_symmetry_space_group_name_H-M "C 2/C"
_symmetry_group_IT_number 15
_symmetry_cell_setting 'monoclinic'
loop_
_space_group_symop_operation_xyz
x,y,z
-x,y,1/2-z
-x,-y,-z
x,-y,1/2+z
1/2+x,1/2+y,z
1/2-x,1/2+y,1/2-z
1/2-x,1/2-y,-z
1/2+x,1/2-y,1/2+z
loop_
_atom_site_type_symbol
_atom_site_label
_atom_site_fract_x
_atom_site_fract_y
_atom_site_fract_z
Si Si1 0.097043 0.368533 0.634269
Si Si2 0.613609 0.459185 0.959732
Si Si3 0.683413 0.634918 0.593792
Si Si4 0.675474 0.031387 0.225499
Si Si5 0.557225 0.226750 0.189066
Si Si6 0.872893 0.732288 0.734493
O O1 0.068708 0.418558 0.660184
O O2 0.077522 0.328118 0.695984
O O3 0.840731 0.366580 0.336481
O O4 0.370678 0.362829 0.823661
O O5 0.500000 0.467016 0.750000
O O6 0.426244 0.458203 0.885209
O O7 0.758704 0.409697 0.094882
O O8 0.792608 0.503415 0.143470
O O9 0.781655 0.680718 0.628873
O O10 0.500000 0.000000 0.000000
O O11 0.500000 0.238183 0.250000
O O12 0.833309 0.252054 0.415464
O O13 0.613292 0.762565 0.530517
O O14 0.000000 0.753464 0.750000
#
# Coordination Sequence:
#
# PCOD8144694 Si02
#       6
#     8   8   8   8   8   8
#     4  11  23  40  66  93 125 172 212 266 336 382
#     4  10  23  42  65  94 127 176 217 268 343 400
#     4  11  23  39  63  92 126 165 216 267 316 397
#     4  10  21  44  64  91 137 165 217 286 323 402
#     4  10  22  42  64  94 133 171 217 276 333 403
#     4  10  22  38  56  83 123 162 203 258 312 363
#
# _framework density 23.606354
#
# number of rings (size 3 to 8) (size 9 to 14) (size 15 to 20)
#    0.000    1.667    1.667    2.000    0.000    9.333 
#    3.000    0.833    0.000    0.000    0.000    0.000 
#    0.000    0.000    0.000    0.000    0.000    0.000 
#
# Total GULP energy -297356.560749 kJ/mol
# GULP energy per Si atom -12389.856698 kJ/mol
# Density = 2.355263 g / cm^3
# Si number density = 23.606354 Si / 1000 Ang^3
#
#
#
# Elastic Constant Matrix: (Units=GPa)
#
#
# Indices 1 2 3 4 5 6 
#
# 1 35.3405 22.0352 24.9943 -0.0004 -1.3082 -0.0003
# 2 22.0352 213.4789 67.3362 0.0000 -7.6176 0.0001
# 3 24.9943 67.3362 156.0984 -0.0024 -5.5664 -0.0007
# 4 -0.0004 0.0000 -0.0024 39.3125 -0.0005 -13.1670
# 5 -1.3082 -7.6176 -5.5664 -0.0005 28.3812 -0.0002
# 6 -0.0003 0.0001 -0.0007 -13.1670 -0.0002 22.5868
#
#
#
# Elastic Compliance Matrix: (Units=1/GPa)
#
#
# Indices 1 2 3 4 5 6 
#
# 1 0.032625 -0.001987 -0.004362 0.000000 0.000115 0.000000
# 2 -0.001987 0.005572 -0.002049 0.000000 0.001002 0.000000
# 3 -0.004362 -0.002049 0.008018 0.000001 0.000821 0.000001
# 4 0.000000 0.000000 0.000001 0.031609 0.000001 0.018426
# 5 0.000115 0.001002 0.000821 0.000001 0.035670 0.000001
# 6 0.000000 0.000000 0.000001 0.018426 0.000001 0.055015
#
#
# Mechanical properties :
#
#
# Convention : Reuss Voigt Hill
#
# Bulk Modulus (GPa) = 33.99516 70.40548 52.20032
# Shear Modulus (GPa) = 25.62621 37.42624 31.52622
#
# Velocity S-wave (km/s) = 3.29836 3.98607 3.65841
# Velocity P-wave (km/s) = 5.37938 7.14664 6.32504
#
# Compressibility (1/GPa) = 0.02941595
#
# Stress axis : x y z
#
# Youngs Moduli (GPa) = 30.65140 179.47994 124.71759
#
# Poissons Ratio (x) = 0.35670 0.54408
# Poissons Ratio (y) = 0.06092 0.25561
# Poissons Ratio (z) = 0.13372 0.36784
#
# Static dielectric constant tensor:
#      x y z
#    x 3.599070 -0.000010 0.115890 
#    y -0.000010 4.799710 0.000020 
#    z 0.115890 0.000020 4.737990 
# 
# 
# High freq. dielectric constant tensor:
#      x y z
#    x 1.903650 0.000000 0.001220 
#    y 0.000000 1.956320 0.000000 
#    z 0.001220 0.000000 1.954110 
# 
# From -- ./inp_files/157735.got.cif
#   From: 2010.06.25/outbox.cif.g09.slc.cpg/sg15_79_cif.got.tgz:157735.got - 2010.06.28 07:06:18.
