data_PCOD8144472
_publ_section_title
;
Structure prediction by ZEFSAII (Michael W. Deem and Ramdas Pophale) SiO2 
 PCOD8144472
Probable space group: C 2/C
;
_chemical_formula_sum "Si O2"
_cell_formula_units_Z 52
_cell_length_a 12.362784
_cell_length_b 13.689191
_cell_length_c 21.486919
_cell_angle_alpha 90.000000
_cell_angle_beta 46.528591
_cell_angle_gamma 90.000000
_cell_volume 2638.979224
_symmetry_space_group_name_H-M "C 2/C"
_symmetry_group_IT_number 15
_symmetry_cell_setting 'monoclinic'
loop_
_space_group_symop_operation_xyz
x,y,z
-x,y,1/2-z
-x,-y,-z
x,-y,1/2+z
1/2+x,1/2+y,z
1/2-x,1/2+y,1/2-z
1/2-x,1/2-y,-z
1/2+x,1/2-y,1/2+z
loop_
_atom_site_type_symbol
_atom_site_label
_atom_site_fract_x
_atom_site_fract_y
_atom_site_fract_z
Si Si1 0.191872 0.036065 0.250486
Si Si2 0.500000 0.615823 0.750000
Si Si3 0.287975 0.757780 0.666012
Si Si4 0.774360 0.668345 0.942539
Si Si5 0.456840 0.508072 0.446265
Si Si6 0.574582 0.905408 0.287555
Si Si7 0.900603 0.200940 0.914529
O O1 0.208955 0.137007 0.205407
O O2 0.089196 0.052460 0.351838
O O3 0.354417 0.003186 0.211383
O O4 0.123056 0.953871 0.232877
O O5 0.413712 0.685189 0.834286
O O6 0.276380 0.715401 0.601807
O O7 0.203851 0.676077 0.739609
O O8 0.459406 0.766393 0.618995
O O9 0.944474 0.635901 0.881412
O O10 0.750000 0.750000 0.000000
O O11 0.684396 0.576018 0.001336
O O12 0.500000 0.500000 0.500000
O O13 0.407368 0.403651 0.442790
O O14 0.500000 0.927548 0.250000
O O15 0.750000 0.250000 0.000000
#
# Coordination Sequence:
#
# PCOD8144472 Si02
#       7
#     8   4   8   8   8   8   8
#     4  11  24  41  69  94 130 178 213 275 336 388
#     4  10  24  46  66  94 136 178 220 270 340 392
#     4  11  23  44  62  95 131 169 221 271 327 399
#     4  11  24  38  65  97 123 168 219 275 328 390
#     4  11  21  44  65  91 132 171 215 271 332 391
#     4  10  21  43  63  92 127 163 222 265 319 400
#     4  11  25  44  66  97 136 178 221 270 336 404
#
# _framework density 19.704588000000001
#
# number of rings (size 3 to 8) (size 9 to 14) (size 15 to 20)
#    0.000    1.231    4.615    1.846    9.692    2.462 
#    1.385    1.538    0.000    0.000    0.000    0.000 
#    0.000    0.000    0.000    0.000    0.000    0.000 
#
# Total GULP energy -322288.324834 kJ/mol
# GULP energy per Si atom -12395.704801 kJ/mol
# Density = 1.965974 g / cm^3
# Si number density = 19.704588 Si / 1000 Ang^3
#
#
#
# Elastic Constant Matrix: (Units=GPa)
#
#
# Indices 1 2 3 4 5 6 
#
# 1 82.1267 24.1170 54.7600 0.0000 -17.2482 0.0000
# 2 24.1170 90.2450 49.2577 0.0000 2.5435 0.0000
# 3 54.7600 49.2577 148.6893 0.0000 0.2370 0.0000
# 4 0.0000 0.0000 0.0000 45.8010 0.0000 -0.9362
# 5 -17.2482 2.5435 0.2370 0.0000 25.6169 0.0000
# 6 0.0000 0.0000 0.0000 -0.9362 0.0000 24.3647
#
#
#
# Elastic Compliance Matrix: (Units=1/GPa)
#
#
# Indices 1 2 3 4 5 6 
#
# 1 0.020229 -0.002098 -0.006777 0.000000 0.013891 0.000000
# 2 -0.002098 0.013788 -0.003791 0.000000 -0.002747 0.000000
# 3 -0.006777 -0.003791 0.010484 0.000000 -0.004284 0.000000
# 4 0.000000 0.000000 0.000000 0.021851 0.000000 0.000840
# 5 0.013891 -0.002747 -0.004284 0.000000 0.048702 0.000000
# 6 0.000000 0.000000 0.000000 0.000840 0.000000 0.041075
#
#
# Mechanical properties :
#
#
# Convention : Reuss Voigt Hill
#
# Bulk Modulus (GPa) = 52.16785 64.14783 58.15784
# Shear Modulus (GPa) = 26.61698 32.01828 29.31763
#
# Velocity S-wave (km/s) = 3.67931 4.03540 3.86146
# Velocity P-wave (km/s) = 6.67699 7.37143 7.03279
#
# Compressibility (1/GPa) = 0.01916889
#
# Stress axis : x y z
#
# Youngs Moduli (GPa) = 49.43488 72.52639 95.38523
#
# Poissons Ratio (x) = 0.15219 0.64641
# Poissons Ratio (y) = 0.10374 0.36156
# Poissons Ratio (z) = 0.33501 0.27491
#
# Static dielectric constant tensor:
#      x y z
#    x 3.479510 0.000000 -0.028480 
#    y 0.000000 3.544170 0.000000 
#    z -0.028480 0.000000 3.964770 
# 
# 
# High freq. dielectric constant tensor:
#      x y z
#    x 1.770940 0.000000 -0.001970 
#    y 0.000000 1.770180 0.000000 
#    z -0.001970 0.000000 1.779980 
# 
# From -- ./inp_files/269191.got.cif
#   From: 2010.06.25/outbox.cif.g09.slc.cpg/sg15_135_cif.got.tgz:269191.got - 2010.06.28 07:06:18.
