data_PCOD8144200
_publ_section_title
;
Structure prediction by ZEFSAII (Michael W. Deem and Ramdas Pophale) SiO2 
 PCOD8144200
Probable space group: C 2/C
;
_chemical_formula_sum "Si O2"
_cell_formula_units_Z 52
_cell_length_a 14.300429
_cell_length_b 9.469931
_cell_length_c 19.023711
_cell_angle_alpha 90.000000
_cell_angle_beta 82.948322
_cell_angle_gamma 90.000000
_cell_volume 2556.781144
_symmetry_space_group_name_H-M "C 2/C"
_symmetry_group_IT_number 15
_symmetry_cell_setting 'monoclinic'
loop_
_space_group_symop_operation_xyz
x,y,z
-x,y,1/2-z
-x,-y,-z
x,-y,1/2+z
1/2+x,1/2+y,z
1/2-x,1/2+y,1/2-z
1/2-x,1/2-y,-z
1/2+x,1/2-y,1/2+z
loop_
_atom_site_type_symbol
_atom_site_label
_atom_site_fract_x
_atom_site_fract_y
_atom_site_fract_z
Si Si1 0.638731 0.409170 0.987544
Si Si2 0.322853 0.749624 0.781131
Si Si3 0.647078 0.944951 0.267685
Si Si4 0.038560 0.399633 0.135417
Si Si5 0.500000 0.434369 0.250000
Si Si6 0.974791 0.914866 0.897754
Si Si7 0.655344 0.864179 0.567409
O O1 0.573022 0.447204 0.927696
O O2 0.745861 0.442760 0.956565
O O3 0.610894 0.504844 0.056638
O O4 0.628889 0.243364 0.007495
O O5 0.228383 0.662505 0.780213
O O6 0.411076 0.664554 0.741727
O O7 0.339603 0.775192 0.861560
O O8 0.313249 0.895969 0.739442
O O9 0.604953 0.900228 0.197196
O O10 0.568702 0.935192 0.335282
O O11 0.047461 0.250132 0.096883
O O12 0.074193 0.518203 0.077768
O O13 0.517694 0.536140 0.182889
#
# Coordination Sequence:
#
# PCOD8144200 Si02
#       7
#     8   8   8   8   4   8   8
#     4  10  23  42  64  91 126 175 212 259 317 380
#     4  11  23  39  64  94 125 168 212 262 325 375
#     4  10  23  38  62  96 130 162 207 271 325 374
#     4  10  22  40  61  94 131 164 211 266 315 378
#     4  12  24  40  68  92 128 170 212 266 316 378
#     4  11  24  40  65  94 128 168 217 262 314 376
#     4  10  21  42  65  87 130 170 214 258 315 383
#
# _framework density 20.338073000000001
#
# number of rings (size 3 to 8) (size 9 to 14) (size 15 to 20)
#    0.000    1.538    1.538    3.692    8.615    1.231 
#    0.000    0.000    0.000    0.000    0.000    0.000 
#    0.000    0.000    0.000    0.000    0.000    0.000 
#
# Total GULP energy -322557.396878 kJ/mol
# GULP energy per Si atom -12406.053726 kJ/mol
# Density = 2.029178 g / cm^3
# Si number density = 20.338073 Si / 1000 Ang^3
#
#
#
# Elastic Constant Matrix: (Units=GPa)
#
#
# Indices 1 2 3 4 5 6 
#
# 1 105.2228 51.7422 14.8236 0.0000 -22.5535 0.0000
# 2 51.7422 119.2932 32.4846 0.0000 -10.9790 0.0000
# 3 14.8236 32.4846 55.7031 0.0000 -13.5479 0.0000
# 4 0.0000 0.0000 0.0000 14.2114 0.0000 -1.7529
# 5 -22.5535 -10.9790 -13.5479 0.0000 29.1714 0.0000
# 6 0.0000 0.0000 0.0000 -1.7529 0.0000 42.9928
#
#
#
# Elastic Compliance Matrix: (Units=1/GPa)
#
#
# Indices 1 2 3 4 5 6 
#
# 1 0.014141 -0.005776 0.001957 0.000000 0.009667 0.000000
# 2 -0.005776 0.012361 -0.006343 0.000000 -0.002759 0.000000
# 3 0.001957 -0.006343 0.023582 0.000000 0.010078 0.000000
# 4 0.000000 0.000000 0.000000 0.070722 0.000000 0.002883
# 5 0.009667 -0.002759 0.010078 0.000000 0.045396 0.000000
# 6 0.000000 0.000000 0.000000 0.002883 0.000000 0.023377
#
#
# Mechanical properties :
#
#
# Convention : Reuss Voigt Hill
#
# Bulk Modulus (GPa) = 33.60345 53.14664 43.37504
# Shear Modulus (GPa) = 22.74559 29.35304 26.04932
#
# Velocity S-wave (km/s) = 3.34784 3.80314 3.58273
# Velocity P-wave (km/s) = 5.61269 6.74341 6.20386
#
# Compressibility (1/GPa) = 0.02975885
#
# Stress axis : x y z
#
# Youngs Moduli (GPa) = 70.71833 80.89674 42.40609
#
# Poissons Ratio (x) = 0.46730 -0.08298
# Poissons Ratio (y) = 0.40850 0.26897
# Poissons Ratio (z) = -0.13839 0.51311
#
# Static dielectric constant tensor:
#      x y z
#    x 3.691740 0.000000 -0.175070 
#    y 0.000000 3.822160 0.000000 
#    z -0.175070 0.000000 3.669970 
# 
# 
# High freq. dielectric constant tensor:
#      x y z
#    x 1.796960 0.000000 -0.011600 
#    y 0.000000 1.803160 0.000000 
#    z -0.011600 0.000000 1.792870 
# 
# From -- ./inp_files/242387.got.cif
#   From: 2010.06.25/outbox.cif.g09.slc.cpg/sg15_122_cif.got.tgz:242387.got - 2010.06.28 07:06:18.
