data_PCOD8144178
_publ_section_title
;
Structure prediction by ZEFSAII (Michael W. Deem and Ramdas Pophale) SiO2 
 PCOD8144178
Probable space group: C 2/C
;
_chemical_formula_sum "Si O2"
_cell_formula_units_Z 44
_cell_length_a 24.674614
_cell_length_b 11.492646
_cell_length_c 19.045207
_cell_angle_alpha 90.000000
_cell_angle_beta 22.648371
_cell_angle_gamma 90.000000
_cell_volume 2079.701267
_symmetry_space_group_name_H-M "C 2/C"
_symmetry_group_IT_number 15
_symmetry_cell_setting 'monoclinic'
loop_
_space_group_symop_operation_xyz
x,y,z
-x,y,1/2-z
-x,-y,-z
x,-y,1/2+z
1/2+x,1/2+y,z
1/2-x,1/2+y,1/2-z
1/2-x,1/2-y,-z
1/2+x,1/2-y,1/2+z
loop_
_atom_site_type_symbol
_atom_site_label
_atom_site_fract_x
_atom_site_fract_y
_atom_site_fract_z
Si Si1 0.258659 0.974012 0.903165
Si Si2 0.500000 0.627955 0.250000
Si Si3 0.436721 0.043197 0.436035
Si Si4 0.857154 0.348640 0.175464
Si Si5 0.423317 0.220202 0.975890
Si Si6 0.843805 0.260030 0.956001
O O1 0.398273 0.956056 0.786037
O O2 0.308891 0.036856 0.773443
O O3 0.203220 0.850133 0.940601
O O4 0.140201 0.047698 0.087223
O O5 0.489076 0.709113 0.331796
O O6 0.433285 0.108825 0.514591
O O7 0.334958 0.115942 0.505804
O O8 0.384293 0.911121 0.499852
O O9 0.720046 0.273006 0.322662
O O10 0.963855 0.275116 0.096259
O O11 0.000000 0.229983 0.750000
O O12 0.750000 0.250000 0.000000
#
# Coordination Sequence:
#
# PCOD8144178 Si02
#       6
#     8   4   8   8   8   8
#     4  10  21  42  64  92 129 168 208 262 319 381
#     4  10  22  38  70  96 130 162 212 272 314 374
#     4  11  25  40  68  90 135 170 211 267 322 382
#     4  10  24  42  67  92 128 174 211 267 320 376
#     4  10  23  43  65  98 127 166 219 260 320 384
#     4  12  25  41  63  94 127 171 214 260 324 380
#
# _framework density 21.156884000000002
#
# number of rings (size 3 to 8) (size 9 to 14) (size 15 to 20)
#    0.000    1.455    2.727    2.182    6.364    8.000 
#    0.000    0.909    0.000    0.000    0.000    0.000 
#    0.000    0.000    0.000    0.000    0.000    0.000 
#
# Total GULP energy -272677.316644 kJ/mol
# GULP energy per Si atom -12394.423484 kJ/mol
# Density = 2.110873 g / cm^3
# Si number density = 21.156884 Si / 1000 Ang^3
#
#
#
# Elastic Constant Matrix: (Units=GPa)
#
#
# Indices 1 2 3 4 5 6 
#
# 1 113.9111 48.3842 53.3500 0.0000 -9.8373 0.0000
# 2 48.3842 127.2942 60.0844 0.0001 -10.3339 0.0000
# 3 53.3500 60.0844 116.2758 -0.0003 -17.5503 0.0002
# 4 0.0000 0.0001 -0.0003 35.5645 0.0000 -9.3322
# 5 -9.8373 -10.3339 -17.5503 0.0000 28.9388 0.0000
# 6 0.0000 0.0000 0.0002 -9.3322 0.0000 28.9034
#
#
#
# Elastic Compliance Matrix: (Units=1/GPa)
#
#
# Indices 1 2 3 4 5 6 
#
# 1 0.011786 -0.002540 -0.003993 0.000000 0.000678 0.000000
# 2 -0.002540 0.010944 -0.004436 0.000000 0.000354 0.000000
# 3 -0.003993 -0.004436 0.013518 0.000000 0.005257 0.000000
# 4 0.000000 0.000000 0.000000 0.030721 0.000000 0.009919
# 5 0.000678 0.000354 0.005257 0.000000 0.038101 0.000000
# 6 0.000000 0.000000 0.000000 0.009919 0.000000 0.037801
#
#
# Mechanical properties :
#
#
# Convention : Reuss Voigt Hill
#
# Bulk Modulus (GPa) = 69.88245 75.67982 72.78114
# Shear Modulus (GPa) = 29.48478 31.72551 30.60514
#
# Velocity S-wave (km/s) = 3.73718 3.87659 3.80752
# Velocity P-wave (km/s) = 7.19196 7.47567 7.33519
#
# Compressibility (1/GPa) = 0.01430974
#
# Stress axis : x y z
#
# Youngs Moduli (GPa) = 84.84384 91.37359 73.97491
#
# Poissons Ratio (x) = 0.23211 0.29537
# Poissons Ratio (y) = 0.21552 0.32817
# Poissons Ratio (z) = 0.33877 0.40536
#
# Static dielectric constant tensor:
#      x y z
#    x 3.633330 0.000000 -0.145260 
#    y 0.000000 4.438030 0.000000 
#    z -0.145260 0.000000 4.125680 
# 
# 
# High freq. dielectric constant tensor:
#      x y z
#    x 1.812530 0.000000 -0.004320 
#    y 0.000000 1.849050 0.000000 
#    z -0.004320 0.000000 1.840960 
# 
# From -- ./inp_files/257469.got.cif
#   From: 2010.06.25/outbox.cif.g09.slc.cpg/sg15_129_cif.got.tgz:257469.got - 2010.06.28 07:06:18.
