data_PCOD8144441
_publ_section_title
;
Structure prediction by ZEFSAII (Michael W. Deem and Ramdas Pophale) SiO2 
 PCOD8144441
Probable space group: C 2/C
;
_chemical_formula_sum "Si O2"
_cell_formula_units_Z 44
_cell_length_a 16.515119
_cell_length_b 9.267920
_cell_length_c 13.996545
_cell_angle_alpha 90.000000
_cell_angle_beta 56.079091
_cell_angle_gamma 90.000000
_cell_volume 1777.717746
_symmetry_space_group_name_H-M "C 2/C"
_symmetry_group_IT_number 15
_symmetry_cell_setting 'monoclinic'
loop_
_space_group_symop_operation_xyz
x,y,z
-x,y,1/2-z
-x,-y,-z
x,-y,1/2+z
1/2+x,1/2+y,z
1/2-x,1/2+y,1/2-z
1/2-x,1/2-y,-z
1/2+x,1/2-y,1/2+z
loop_
_atom_site_type_symbol
_atom_site_label
_atom_site_fract_x
_atom_site_fract_y
_atom_site_fract_z
Si Si1 0.330337 0.231454 0.862447
Si Si2 0.500000 0.007764 0.750000
Si Si3 0.097371 0.913804 0.962458
Si Si4 0.110728 0.954312 0.166891
Si Si5 0.513358 0.854732 0.935222
Si Si6 0.310782 0.349496 0.200158
O O1 0.406787 0.106139 0.838743
O O2 0.388107 0.378217 0.805998
O O3 0.289411 0.196844 0.782877
O O4 0.250000 0.250000 0.000000
O O5 0.518347 0.895302 0.821940
O O6 0.142943 0.943705 0.036717
O O7 0.079325 0.742468 0.970841
O O8 0.175719 0.981098 0.838896
O O9 0.000000 0.000000 0.000000
O O10 0.182039 0.857308 0.188651
O O11 0.000000 0.896566 0.250000
O O12 0.609484 0.761405 0.896305
O O13 0.500000 0.000000 0.000000
#
# Coordination Sequence:
#
# PCOD8144441 Si02
#       6
#     8   4   8   8   8   8
#     4  12  27  47  73 111 149 193 255 314 371 450
#     4  12  28  46  70 106 152 194 234 316 388 416
#     4  10  21  42  73 104 140 193 244 296 362 449
#     4  12  22  43  77 103 142 201 249 296 370 455
#     4  11  24  42  72 108 149 186 244 312 373 441
#     4  11  25  45  72 105 147 194 251 301 371 454
#
# _framework density 24.750834000000001
#
# number of rings (size 3 to 8) (size 9 to 14) (size 15 to 20)
#    0.000    0.727    6.364    2.182    7.636    0.000 
#    0.000    0.909    0.000    0.000    0.000    0.000 
#    0.000    0.000    0.000    0.000    0.000    0.000 
#
# Total GULP energy -272568.943009 kJ/mol
# GULP energy per Si atom -12389.497409 kJ/mol
# Density = 2.469450 g / cm^3
# Si number density = 24.750834 Si / 1000 Ang^3
#
#
#
# Elastic Constant Matrix: (Units=GPa)
#
#
# Indices 1 2 3 4 5 6 
#
# 1 115.3950 26.6820 28.5452 0.0000 22.9621 0.0000
# 2 26.6820 153.6990 20.6902 0.0000 4.4026 0.0000
# 3 28.5452 20.6902 76.7499 0.0000 21.9162 0.0000
# 4 0.0000 0.0000 0.0000 26.3850 0.0000 11.4375
# 5 22.9621 4.4026 21.9162 0.0000 42.5591 0.0000
# 6 0.0000 0.0000 0.0000 11.4375 0.0000 39.6830
#
#
#
# Elastic Compliance Matrix: (Units=1/GPa)
#
#
# Indices 1 2 3 4 5 6 
#
# 1 0.010401 -0.001377 -0.002269 0.000000 -0.004301 0.000000
# 2 -0.001377 0.006936 -0.001600 0.000000 0.000850 0.000000
# 3 -0.002269 -0.001600 0.016306 0.000000 -0.007007 0.000000
# 4 0.000000 0.000000 0.000000 0.043312 0.000000 -0.012483
# 5 -0.004301 0.000850 -0.007007 0.000000 0.029338 0.000000
# 6 0.000000 0.000000 0.000000 -0.012483 0.000000 0.028798
#
#
# Mechanical properties :
#
#
# Convention : Reuss Voigt Hill
#
# Bulk Modulus (GPa) = 43.19604 55.29761 49.24682
# Shear Modulus (GPa) = 32.61572 39.72052 36.16812
#
# Velocity S-wave (km/s) = 3.63404 4.01036 3.82683
# Velocity P-wave (km/s) = 5.92440 6.62074 6.28223
#
# Compressibility (1/GPa) = 0.02315027
#
# Stress axis : x y z
#
# Youngs Moduli (GPa) = 96.14046 144.16768 61.32891
#
# Poissons Ratio (x) = 0.19852 0.13917
# Poissons Ratio (y) = 0.13239 0.09815
# Poissons Ratio (z) = 0.21816 0.23072
#
# Static dielectric constant tensor:
#      x y z
#    x 4.820750 0.000000 -0.031070 
#    y 0.000000 5.198160 0.000000 
#    z -0.031070 0.000000 4.314560 
# 
# 
# High freq. dielectric constant tensor:
#      x y z
#    x 1.984860 0.000000 0.029280 
#    y 0.000000 2.004200 0.000000 
#    z 0.029280 0.000000 1.965240 
# 
# From -- ./inp_files/159651.got.cif
#   From: 2010.06.25/outbox.cif.g09.slc.cpg/sg15_80_cif.got.tgz:159651.got - 2010.06.28 07:06:18.
