data_PCOD8144042
_publ_section_title
;
Structure prediction by ZEFSAII (Michael W. Deem and Ramdas Pophale) SiO2 
 PCOD8144042
Probable space group: C 2/C
;
_chemical_formula_sum "Si O2"
_cell_formula_units_Z 64
_cell_length_a 25.787857
_cell_length_b 15.162114
_cell_length_c 12.230759
_cell_angle_alpha 90.000000
_cell_angle_beta 143.964468
_cell_angle_gamma 90.000000
_cell_volume 2813.309815
_symmetry_space_group_name_H-M "C 2/C"
_symmetry_group_IT_number 15
_symmetry_cell_setting 'monoclinic'
loop_
_space_group_symop_operation_xyz
x,y,z
-x,y,1/2-z
-x,-y,-z
x,-y,1/2+z
1/2+x,1/2+y,z
1/2-x,1/2+y,1/2-z
1/2-x,1/2-y,-z
1/2+x,1/2-y,1/2+z
loop_
_atom_site_type_symbol
_atom_site_label
_atom_site_fract_x
_atom_site_fract_y
_atom_site_fract_z
Si Si1 0.365240 0.841464 0.216008
Si Si2 0.165028 0.860517 0.829356
Si Si3 0.990070 0.414123 0.614496
Si Si4 0.088460 0.996933 0.335165
Si Si5 0.851808 0.339905 0.744704
Si Si6 0.289480 0.501682 0.263897
Si Si7 0.662591 0.358127 0.318895
Si Si8 0.607712 0.074558 0.968153
O O1 0.373558 0.736792 0.244133
O O2 0.412553 0.881049 0.403526
O O3 0.262545 0.866420 0.048934
O O4 0.409950 0.872925 0.176842
O O5 0.092679 0.912871 0.775307
O O6 0.171719 0.909501 0.724764
O O7 0.974056 0.518130 0.618328
O O8 0.000000 0.363930 0.750000
O O9 0.083385 0.405020 0.711547
O O10 0.088249 0.911195 0.258001
O O11 0.000000 0.996357 0.250000
O O12 0.177098 0.994980 0.556686
O O13 0.752420 0.357303 0.540748
O O14 0.877161 0.238209 0.768313
O O15 0.860929 0.353991 0.889934
O O16 0.320833 0.409734 0.265309
O O17 0.183621 0.502077 0.078447
#
# Coordination Sequence:
#
# PCOD8144042 Si02
#       8
#     8   8   8   8   8   8   8   8
#     4  10  24  45  71 101 142 178 235 283 334 424
#     4   9  22  44  68 101 133 184 229 281 340 406
#     4  12  28  43  69 102 143 182 224 283 352 412
#     4  11  23  40  68  95 132 176 228 288 344 407
#     4  11  25  44  67 100 137 179 232 282 346 418
#     4  10  21  41  70  93 135 179 224 281 353 412
#     4  10  24  45  65  97 133 177 234 282 342 419
#     4  11  24  43  70 102 138 185 228 284 348 417
#
# _framework density 22.749005
#
# number of rings (size 3 to 8) (size 9 to 14) (size 15 to 20)
#    0.000    1.500    1.250    1.875    8.750    5.500 
#    6.750    0.000    0.000    0.000    0.000    0.000 
#    0.000    0.000    0.000    0.000    0.000    0.000 
#
# Total GULP energy -396639.800503 kJ/mol
# GULP energy per Si atom -12394.993766 kJ/mol
# Density = 2.269723 g / cm^3
# Si number density = 22.749005 Si / 1000 Ang^3
#
#
#
# Elastic Constant Matrix: (Units=GPa)
#
#
# Indices 1 2 3 4 5 6 
#
# 1 112.5224 52.8538 10.3594 0.0000 -6.8540 0.0000
# 2 52.8538 143.9255 19.9448 0.0000 -5.6765 0.0000
# 3 10.3594 19.9448 76.8805 0.0000 -26.8976 0.0000
# 4 0.0000 0.0000 0.0000 26.2903 0.0000 5.3519
# 5 -6.8540 -5.6765 -26.8976 0.0000 41.2174 0.0000
# 6 0.0000 0.0000 0.0000 5.3519 0.0000 6.6719
#
#
#
# Elastic Compliance Matrix: (Units=1/GPa)
#
#
# Indices 1 2 3 4 5 6 
#
# 1 0.010804 -0.003918 0.000001 0.000000 0.001257 0.000000
# 2 -0.003918 0.008631 -0.001974 0.000000 -0.000751 0.000000
# 3 0.000001 -0.001974 0.017396 0.000000 0.011080 0.000000
# 4 0.000000 0.000000 0.000000 0.045460 0.000000 -0.036467
# 5 0.001257 -0.000751 0.011080 0.000000 0.031598 0.000000
# 6 0.000000 0.000000 0.000000 -0.036467 0.000000 0.179135
#
#
# Mechanical properties :
#
#
# Convention : Reuss Voigt Hill
#
# Bulk Modulus (GPa) = 39.92354 55.51606 47.71980
# Shear Modulus (GPa) = 15.96646 31.51392 23.74019
#
# Velocity S-wave (km/s) = 2.65212 3.72598 3.23394
# Velocity P-wave (km/s) = 5.19288 6.55495 5.91326
#
# Compressibility (1/GPa) = 0.02504788
#
# Stress axis : x y z
#
# Youngs Moduli (GPa) = 92.55805 115.86450 57.48515
#
# Poissons Ratio (x) = 0.45396 -0.00003
# Poissons Ratio (y) = 0.36265 0.11347
# Poissons Ratio (z) = -0.00005 0.22870
#
# Static dielectric constant tensor:
#      x y z
#    x 4.201610 0.000000 -0.158180 
#    y 0.000000 4.163720 0.000000 
#    z -0.158180 0.000000 4.227900 
# 
# 
# High freq. dielectric constant tensor:
#      x y z
#    x 1.904850 0.000000 -0.005370 
#    y 0.000000 1.894250 0.000000 
#    z -0.005370 0.000000 1.907150 
# 
# From -- ./inp_files/123556.got.cif
#   From: 2010.06.25/outbox.cif.g09.slc.cpg/sg15_62_cif.got.tgz:123556.got - 2010.06.28 07:06:18.
