data_PCOD8144871
_publ_section_title
;
Structure prediction by ZEFSAII (Michael W. Deem and Ramdas Pophale) SiO2 
 PCOD8144871
Probable space group: C 2/C
;
_chemical_formula_sum "Si O2"
_cell_formula_units_Z 52
_cell_length_a 22.887143
_cell_length_b 12.020099
_cell_length_c 14.742487
_cell_angle_alpha 90.000000
_cell_angle_beta 141.288564
_cell_angle_gamma 90.000000
_cell_volume 2536.454973
_symmetry_space_group_name_H-M "C 2/C"
_symmetry_group_IT_number 15
_symmetry_cell_setting 'monoclinic'
loop_
_space_group_symop_operation_xyz
x,y,z
-x,y,1/2-z
-x,-y,-z
x,-y,1/2+z
1/2+x,1/2+y,z
1/2-x,1/2+y,1/2-z
1/2-x,1/2-y,-z
1/2+x,1/2-y,1/2+z
loop_
_atom_site_type_symbol
_atom_site_label
_atom_site_fract_x
_atom_site_fract_y
_atom_site_fract_z
Si Si1 0.150721 0.310192 0.890258
Si Si2 0.228076 0.938415 0.152304
Si Si3 0.500000 0.880468 0.250000
Si Si4 0.572342 0.986603 0.669413
Si Si5 0.692796 0.782793 0.517859
Si Si6 0.896624 0.075726 0.631481
Si Si7 0.261901 0.478491 0.129899
O O1 0.103158 0.361252 0.740460
O O2 0.088973 0.210308 0.856582
O O3 0.250000 0.250000 0.000000
O O4 0.169112 0.413845 0.980837
O O5 0.196429 0.814235 0.094598
O O6 0.210714 0.940558 0.237716
O O7 0.334389 0.950832 0.248667
O O8 0.165896 0.031549 0.027076
O O9 0.585096 0.797604 0.366103
O O10 0.480594 0.957401 0.312082
O O11 0.500000 0.000000 0.500000
O O12 0.750000 0.750000 0.500000
O O13 0.736817 0.893577 0.611765
O O14 0.849537 0.038815 0.669189
O O15 0.000000 0.022853 0.750000
#
# Coordination Sequence:
#
# PCOD8144871 Si02
#       7
#     8   8   4   8   8   8   8
#     4  10  21  46  70  95 144 185 226 297 364 414
#     4  12  26  45  69 103 139 182 235 297 362 433
#     4  12  24  42  70 102 136 184 246 292 346 430
#     4  12  25  43  71 107 133 182 246 297 348 433
#     4  12  23  46  71  97 143 186 229 296 361 416
#     4  11  25  43  69  98 143 188 231 286 364 438
#     4  11  24  45  71  98 138 183 236 293 362 420
#
# _framework density 20.501055000000001
#
# number of rings (size 3 to 8) (size 9 to 14) (size 15 to 20)
#    0.000    0.615    7.692    0.923    4.308    3.077 
#    0.000    0.000    0.000    0.000    0.000    0.000 
#    0.000    0.000    0.000    0.000    0.000    0.000 
#
# Total GULP energy -322250.861730 kJ/mol
# GULP energy per Si atom -12394.263913 kJ/mol
# Density = 2.045439 g / cm^3
# Si number density = 20.501055 Si / 1000 Ang^3
#
#
#
# Elastic Constant Matrix: (Units=GPa)
#
#
# Indices 1 2 3 4 5 6 
#
# 1 119.5598 25.7478 78.4239 0.0000 -1.9746 0.0000
# 2 25.7478 144.7170 67.0565 0.0000 -9.6747 0.0000
# 3 78.4239 67.0565 165.7164 0.0000 -6.3737 0.0000
# 4 0.0000 0.0000 0.0000 38.5898 0.0000 -2.3329
# 5 -1.9746 -9.6747 -6.3737 0.0000 49.3793 0.0000
# 6 0.0000 0.0000 0.0000 -2.3329 0.0000 22.4507
#
#
#
# Elastic Compliance Matrix: (Units=1/GPa)
#
#
# Indices 1 2 3 4 5 6 
#
# 1 0.012176 0.000610 -0.006015 0.000000 -0.000170 0.000000
# 2 0.000610 0.008610 -0.003725 0.000000 0.001230 0.000000
# 3 -0.006015 -0.003725 0.010403 0.000000 0.000372 0.000000
# 4 0.000000 0.000000 0.000000 0.026077 0.000000 0.002710
# 5 -0.000170 0.001230 0.000372 0.000000 0.020534 0.000000
# 6 0.000000 0.000000 0.000000 0.002710 0.000000 0.044824
#
#
# Mechanical properties :
#
#
# Convention : Reuss Voigt Hill
#
# Bulk Modulus (GPa) = 77.35911 85.82774 81.59343
# Shear Modulus (GPa) = 34.43688 39.33497 36.88592
#
# Velocity S-wave (km/s) = 4.10294 4.38503 4.24632
# Velocity P-wave (km/s) = 7.76283 8.22155 7.99548
#
# Compressibility (1/GPa) = 0.01292673
#
# Stress axis : x y z
#
# Youngs Moduli (GPa) = 82.13208 116.14504 96.12873
#
# Poissons Ratio (x) = -0.07080 0.57823
# Poissons Ratio (y) = -0.05007 0.35809
# Poissons Ratio (z) = 0.49404 0.43266
#
# Static dielectric constant tensor:
#      x y z
#    x 3.784130 0.000000 0.093180 
#    y 0.000000 3.584920 0.000000 
#    z 0.093180 0.000000 3.863060 
# 
# 
# High freq. dielectric constant tensor:
#      x y z
#    x 1.805020 0.000000 0.009330 
#    y 0.000000 1.814690 0.000000 
#    z 0.009330 0.000000 1.804210 
# 
# From -- ./inp_files/173207.got.cif
#   From: 2010.06.25/outbox.cif.g09.slc.cpg/sg15_87_cif.got.tgz:173207.got - 2010.06.28 07:06:18.
