data_PCOD8144309
_publ_section_title
;
Structure prediction by ZEFSAII (Michael W. Deem and Ramdas Pophale) SiO2 
 PCOD8144309
Probable space group: C 2/C
;
_chemical_formula_sum "Si O2"
_cell_formula_units_Z 44
_cell_length_a 7.045508
_cell_length_b 11.357666
_cell_length_c 25.404334
_cell_angle_alpha 90.000000
_cell_angle_beta 85.094981
_cell_angle_gamma 90.000000
_cell_volume 2025.423437
_symmetry_space_group_name_H-M "C 2/C"
_symmetry_group_IT_number 15
_symmetry_cell_setting 'monoclinic'
loop_
_space_group_symop_operation_xyz
x,y,z
-x,y,1/2-z
-x,-y,-z
x,-y,1/2+z
1/2+x,1/2+y,z
1/2-x,1/2+y,1/2-z
1/2-x,1/2-y,-z
1/2+x,1/2-y,1/2+z
loop_
_atom_site_type_symbol
_atom_site_label
_atom_site_fract_x
_atom_site_fract_y
_atom_site_fract_z
Si Si1 0.322527 0.180134 0.432253
Si Si2 0.451925 0.392666 0.887365
Si Si3 0.000000 0.487673 0.750000
Si Si4 0.335551 0.436235 0.472130
Si Si5 0.892945 0.683120 0.163162
Si Si6 0.384900 0.437289 0.201526
O O1 0.395471 0.309127 0.447423
O O2 0.336764 0.090067 0.482258
O O3 0.455445 0.134467 0.382624
O O4 0.099597 0.183235 0.419020
O O5 0.301968 0.474109 0.924500
O O6 0.317259 0.305908 0.857361
O O7 0.579875 0.472319 0.846294
O O8 0.887419 0.407880 0.710982
O O9 0.841007 0.568719 0.781155
O O10 0.500000 0.500000 0.500000
O O11 0.958238 0.809526 0.182495
O O12 0.500000 0.478393 0.250000
#
# Coordination Sequence:
#
# PCOD8144309 Si02
#       6
#     8   8   4   8   8   8
#     4  10  21  42  67  96 132 166 216 265 317 387
#     4  11  23  41  67  95 128 168 215 265 321 380
#     4  12  26  42  64  94 126 172 210 268 328 376
#     4   9  20  41  68  95 134 170 205 272 323 373
#     4  12  25  40  68  96 125 173 218 258 322 390
#     4  12  25  42  64  93 131 165 215 269 318 378
#
# _framework density 21.723852000000001
#
# number of rings (size 3 to 8) (size 9 to 14) (size 15 to 20)
#    0.000    1.091    6.364    0.000    0.000    5.091 
#    0.000    8.182    0.000    0.000    0.000    0.000 
#    0.000    0.000    0.000    0.000    0.000    0.000 
#
# Total GULP energy -272695.585882 kJ/mol
# GULP energy per Si atom -12395.253904 kJ/mol
# Density = 2.167441 g / cm^3
# Si number density = 21.723852 Si / 1000 Ang^3
#
#
#
# Elastic Constant Matrix: (Units=GPa)
#
#
# Indices 1 2 3 4 5 6 
#
# 1 89.3482 19.4969 29.5134 0.0000 3.6455 0.0000
# 2 19.4969 75.8257 28.4500 0.0000 2.9180 0.0000
# 3 29.5134 28.4500 115.8711 0.0000 -7.8068 0.0000
# 4 0.0000 0.0000 0.0000 24.1760 0.0000 4.9502
# 5 3.6455 2.9180 -7.8068 0.0000 35.2060 0.0000
# 6 0.0000 0.0000 0.0000 4.9502 0.0000 28.6392
#
#
#
# Elastic Compliance Matrix: (Units=1/GPa)
#
#
# Indices 1 2 3 4 5 6 
#
# 1 0.012660 -0.002129 -0.002820 0.000000 -0.001760 0.000000
# 2 -0.002129 0.015028 -0.003265 0.000000 -0.001749 0.000000
# 3 -0.002820 -0.003265 0.010343 0.000000 0.002856 0.000000
# 4 0.000000 0.000000 0.000000 0.042881 0.000000 -0.007412
# 5 -0.001760 -0.001749 0.002856 0.000000 0.029365 0.000000
# 6 0.000000 0.000000 0.000000 -0.007412 0.000000 0.036198
#
#
# Mechanical properties :
#
#
# Convention : Reuss Voigt Hill
#
# Bulk Modulus (GPa) = 46.29424 48.44063 47.36744
# Shear Modulus (GPa) = 29.39346 31.17656 30.28501
#
# Velocity S-wave (km/s) = 3.68237 3.79242 3.73780
# Velocity P-wave (km/s) = 6.27984 6.44386 6.36238
#
# Compressibility (1/GPa) = 0.02160096
#
# Stress axis : x y z
#
# Youngs Moduli (GPa) = 78.98731 66.54184 96.68505
#
# Poissons Ratio (x) = 0.14169 0.27269
# Poissons Ratio (y) = 0.16819 0.31571
# Poissons Ratio (z) = 0.22278 0.21728
#
# Static dielectric constant tensor:
#      x y z
#    x 3.591470 0.000000 -0.027100 
#    y 0.000000 3.702280 0.000000 
#    z -0.027100 0.000000 4.500420 
# 
# 
# High freq. dielectric constant tensor:
#      x y z
#    x 1.833390 0.000000 0.000610 
#    y 0.000000 1.836110 0.000000 
#    z 0.000610 0.000000 1.885620 
# 
# From -- ./inp_files/304932.got.cif
#   From: 2010.06.25/outbox.cif.g09.slc.cpg/sg15_153_cif.got.tgz:304932.got - 2010.06.28 07:06:18.
