data_PCOD8144213
_publ_section_title
;
Structure prediction by ZEFSAII (Michael W. Deem and Ramdas Pophale) SiO2 
 PCOD8144213
Probable space group: C 2/C
;
_chemical_formula_sum "Si O2"
_cell_formula_units_Z 44
_cell_length_a 17.393349
_cell_length_b 25.582038
_cell_length_c 5.413421
_cell_angle_alpha 90.000000
_cell_angle_beta 125.020443
_cell_angle_gamma 90.000000
_cell_volume 1972.632262
_symmetry_space_group_name_H-M "C 2/C"
_symmetry_group_IT_number 15
_symmetry_cell_setting 'monoclinic'
loop_
_space_group_symop_operation_xyz
x,y,z
-x,y,1/2-z
-x,-y,-z
x,-y,1/2+z
1/2+x,1/2+y,z
1/2-x,1/2+y,1/2-z
1/2-x,1/2-y,-z
1/2+x,1/2-y,1/2+z
loop_
_atom_site_type_symbol
_atom_site_label
_atom_site_fract_x
_atom_site_fract_y
_atom_site_fract_z
Si Si1 0.608257 0.525131 0.835971
Si Si2 0.673316 0.975221 0.760365
Si Si3 0.854582 0.736201 0.614071
Si Si4 0.000000 0.295021 0.750000
Si Si5 0.595306 0.135036 0.048458
Si Si6 0.000000 0.123497 0.750000
Si Si7 0.500000 0.688630 0.250000
O O1 0.564301 0.504525 0.495264
O O2 0.588830 0.586612 0.844004
O O3 0.717641 0.512419 0.029345
O O4 0.660922 0.913091 0.735545
O O5 0.627624 0.000753 0.427649
O O6 0.750000 0.750000 0.500000
O O7 0.850460 0.675588 0.528876
O O8 0.904655 0.776159 0.511910
O O9 0.932982 0.742820 0.971599
O O10 0.072419 0.332695 0.747840
O O11 0.500000 0.113735 0.750000
O O12 0.978852 0.155631 0.459824
#
# Coordination Sequence:
#
# PCOD8144213 Si02
#       7
#     8   8   8   4   8   4   4
#     4  10  21  42  65  92 133 176 221 273 342 410
#     4  10  24  41  63  98 132 166 227 286 332 415
#     4  11  25  45  70  96 141 188 227 289 353 404
#     4  10  21  46  66  95 137 172 240 283 338 430
#     4  10  23  42  67  93 129 179 223 279 346 417
#     4  12  25  39  70  96 138 175 222 289 334 402
#     4  12  26  45  62 111 139 165 244 288 322 426
#
# _framework density 22.305219999999998
#
# number of rings (size 3 to 8) (size 9 to 14) (size 15 to 20)
#    0.000    1.455    2.727    2.182    7.636    2.909 
#    0.000    0.000    0.000    0.000    0.000    0.000 
#    0.000    0.000    0.000    0.000    0.000    0.000 
#
# Total GULP energy -272613.816913 kJ/mol
# GULP energy per Si atom -12391.537132 kJ/mol
# Density = 2.225445 g / cm^3
# Si number density = 22.305220 Si / 1000 Ang^3
#
#
#
# Elastic Constant Matrix: (Units=GPa)
#
#
# Indices 1 2 3 4 5 6 
#
# 1 110.4948 36.1713 48.7746 0.0000 1.1090 0.0000
# 2 36.1713 130.6678 55.5658 0.0000 -5.3021 0.0000
# 3 48.7746 55.5658 110.9904 0.0000 -30.8996 0.0000
# 4 0.0000 0.0000 0.0000 30.8192 0.0000 4.2167
# 5 1.1090 -5.3021 -30.8996 0.0000 26.2484 0.0000
# 6 0.0000 0.0000 0.0000 4.2167 0.0000 37.5034
#
#
#
# Elastic Compliance Matrix: (Units=1/GPa)
#
#
# Indices 1 2 3 4 5 6 
#
# 1 0.013034 -0.000442 -0.008456 0.000000 -0.010594 0.000000
# 2 -0.000442 0.010325 -0.006529 0.000000 -0.005581 0.000000
# 3 -0.008456 -0.006529 0.023393 0.000000 0.026577 0.000000
# 4 0.000000 0.000000 0.000000 0.032954 0.000000 -0.003705
# 5 -0.010594 -0.005581 0.026577 0.000000 0.068704 0.000000
# 6 0.000000 0.000000 0.000000 -0.003705 0.000000 0.027081
#
#
# Mechanical properties :
#
#
# Convention : Reuss Voigt Hill
#
# Bulk Modulus (GPa) = 62.89689 70.35292 66.62491
# Shear Modulus (GPa) = 23.62462 33.02363 28.32413
#
# Velocity S-wave (km/s) = 3.25799 3.85194 3.56735
# Velocity P-wave (km/s) = 6.51246 7.16888 6.84854
#
# Compressibility (1/GPa) = 0.01589904
#
# Stress axis : x y z
#
# Youngs Moduli (GPa) = 76.72381 96.85036 42.74777
#
# Poissons Ratio (x) = 0.04282 0.36146
# Poissons Ratio (y) = 0.03392 0.27909
# Poissons Ratio (z) = 0.64875 0.63231
#
# Static dielectric constant tensor:
#      x y z
#    x 4.070960 0.000000 -0.369720 
#    y 0.000000 3.945490 0.000000 
#    z -0.369720 0.000000 4.205400 
# 
# 
# High freq. dielectric constant tensor:
#      x y z
#    x 1.886990 0.000000 -0.017190 
#    y 0.000000 1.881300 0.000000 
#    z -0.017190 0.000000 1.878250 
# 
# From -- ./inp_files/7590.got.cif
#   From: 2010.06.25/outbox.cif.g09.slc.cpg/sg15_4_cif.got.tgz:7590.got - 2010.06.28 07:06:18.
