data_PCOD8144451
_publ_section_title
;
Structure prediction by ZEFSAII (Michael W. Deem and Ramdas Pophale) SiO2 
 PCOD8144451
Probable space group: C 2/C
;
_chemical_formula_sum "Si O2"
_cell_formula_units_Z 48
_cell_length_a 16.745963
_cell_length_b 13.928262
_cell_length_c 17.948376
_cell_angle_alpha 90.000000
_cell_angle_beta 146.139516
_cell_angle_gamma 90.000000
_cell_volume 2332.501385
_symmetry_space_group_name_H-M "C 2/C"
_symmetry_group_IT_number 15
_symmetry_cell_setting 'monoclinic'
loop_
_space_group_symop_operation_xyz
x,y,z
-x,y,1/2-z
-x,-y,-z
x,-y,1/2+z
1/2+x,1/2+y,z
1/2-x,1/2+y,1/2-z
1/2-x,1/2-y,-z
1/2+x,1/2-y,1/2+z
loop_
_atom_site_type_symbol
_atom_site_label
_atom_site_fract_x
_atom_site_fract_y
_atom_site_fract_z
Si Si1 0.345578 0.917147 0.808564
Si Si2 0.860013 0.049263 0.926421
Si Si3 0.875505 0.989327 0.602963
Si Si4 0.676525 0.948819 0.071923
Si Si5 0.844701 0.794183 0.294799
Si Si6 0.092099 0.791588 0.388879
O O1 0.274275 0.810807 0.752666
O O2 0.275215 0.978210 0.687605
O O3 0.303449 0.968082 0.852567
O O4 0.516059 0.916369 0.932162
O O5 0.834057 0.149712 0.864338
O O6 0.865936 0.072187 0.019345
O O7 0.000000 0.000000 0.000000
O O8 0.729685 0.002264 0.536582
O O9 0.921627 0.094945 0.615429
O O10 0.000000 0.941601 0.750000
O O11 0.768845 0.854709 0.168774
O O12 0.008870 0.764539 0.400461
O O13 0.250000 0.750000 0.500000
O O14 0.000000 0.748186 0.250000
#
# Coordination Sequence:
#
# PCOD8144451 Si02
#       6
#     8   8   8   8   8   8
#     4  10  24  39  63  91 124 167 206 261 317 376
#     4  11  23  39  63  93 121 165 213 253 315 375
#     4  11  20  39  58  85 126 160 203 258 306 367
#     4  10  21  43  59  88 131 165 205 261 321 367
#     4  11  22  39  61  91 126 163 210 256 311 383
#     4  11  22  34  55  91 127 157 199 255 318 378
#
# _framework density 20.578766000000002
#
# number of rings (size 3 to 8) (size 9 to 14) (size 15 to 20)
#    0.000    1.333    5.000    2.000    4.667    0.667 
#    0.000    0.833    0.000    0.000    0.000    0.000 
#    0.000    0.000    0.000    0.000    0.000    0.000 
#
# Total GULP energy -297401.634631 kJ/mol
# GULP energy per Si atom -12391.734776 kJ/mol
# Density = 2.053193 g / cm^3
# Si number density = 20.578766 Si / 1000 Ang^3
#
#
#
# Elastic Constant Matrix: (Units=GPa)
#
#
# Indices 1 2 3 4 5 6 
#
# 1 112.3400 50.9366 49.0972 0.0000 -22.4901 0.0000
# 2 50.9366 90.7268 39.0264 -0.0001 8.5264 0.0000
# 3 49.0972 39.0264 117.8552 -0.0003 -7.0977 -0.0002
# 4 0.0000 -0.0001 -0.0003 14.3091 -0.0002 -0.6202
# 5 -22.4901 8.5264 -7.0977 -0.0002 28.5298 -0.0001
# 6 0.0000 0.0000 -0.0002 -0.6202 -0.0001 15.4186
#
#
#
# Elastic Compliance Matrix: (Units=1/GPa)
#
#
# Indices 1 2 3 4 5 6 
#
# 1 0.018496 -0.010616 -0.003168 0.000000 0.016965 0.000000
# 2 -0.010616 0.019681 -0.002998 0.000000 -0.014996 0.000000
# 3 -0.003168 -0.002998 0.010864 0.000000 0.001101 0.000000
# 4 0.000000 0.000000 0.000000 0.070008 0.000001 0.002816
# 5 0.016965 -0.014996 0.001101 0.000001 0.053180 0.000000
# 6 0.000000 0.000000 0.000000 0.002816 0.000000 0.064970
#
#
# Mechanical properties :
#
#
# Convention : Reuss Voigt Hill
#
# Bulk Modulus (GPa) = 64.61145 66.56027 65.58586
# Shear Modulus (GPa) = 18.12118 23.77562 20.94840
#
# Velocity S-wave (km/s) = 2.97067 3.40273 3.19401
# Velocity P-wave (km/s) = 6.57509 6.91755 6.74849
#
# Compressibility (1/GPa) = 0.01547713
#
# Stress axis : x y z
#
# Youngs Moduli (GPa) = 54.06660 50.81096 92.04828
#
# Poissons Ratio (x) = 0.53938 0.29163
# Poissons Ratio (y) = 0.57394 0.27595
# Poissons Ratio (z) = 0.17130 0.15232
#
# Static dielectric constant tensor:
#      x y z
#    x 3.814340 0.000000 -0.104040 
#    y 0.000000 3.649950 0.000000 
#    z -0.104040 0.000000 4.015000 
# 
# 
# High freq. dielectric constant tensor:
#      x y z
#    x 1.805750 0.000000 0.001090 
#    y 0.000000 1.781090 0.000000 
#    z 0.001090 0.000000 1.811170 
# 
# From -- ./inp_files/66474.got.cif
#   From: 2010.06.25/outbox.cif.g09.slc.cpg/sg15_34_cif.got.tgz:66474.got - 2010.06.28 07:06:18.
