data_PCOD8144417
_publ_section_title
;
Structure prediction by ZEFSAII (Michael W. Deem and Ramdas Pophale) SiO2 
 PCOD8144417
Probable space group: C 2/C
;
_chemical_formula_sum "Si O2"
_cell_formula_units_Z 60
_cell_length_a 25.661382
_cell_length_b 8.041914
_cell_length_c 12.380619
_cell_angle_alpha 90.000000
_cell_angle_beta 87.471162
_cell_angle_gamma 90.000000
_cell_volume 2552.458427
_symmetry_space_group_name_H-M "C 2/C"
_symmetry_group_IT_number 15
_symmetry_cell_setting 'monoclinic'
loop_
_space_group_symop_operation_xyz
x,y,z
-x,y,1/2-z
-x,-y,-z
x,-y,1/2+z
1/2+x,1/2+y,z
1/2-x,1/2+y,1/2-z
1/2-x,1/2-y,-z
1/2+x,1/2-y,1/2+z
loop_
_atom_site_type_symbol
_atom_site_label
_atom_site_fract_x
_atom_site_fract_y
_atom_site_fract_z
Si Si1 0.626746 0.108550 0.778194
Si Si2 0.785604 0.423089 0.846050
Si Si3 0.000000 0.082804 0.750000
Si Si4 0.563784 0.903702 0.090406
Si Si5 0.192271 0.849042 0.323009
Si Si6 0.163688 0.421351 0.971475
Si Si7 0.527763 0.744185 0.523338
Si Si8 0.593687 0.554224 0.350589
O O1 0.679183 0.065091 0.710313
O O2 0.571408 0.076556 0.719762
O O3 0.631413 0.299418 0.810115
O O4 0.625761 0.997171 0.884342
O O5 0.796839 0.240104 0.794775
O O6 0.726515 0.485086 0.833691
O O7 0.801870 0.434126 0.971614
O O8 0.995339 0.190554 0.859682
O O9 0.948864 0.971378 0.739755
O O10 0.558223 0.085028 0.037464
O O11 0.621074 0.832356 0.052558
O O12 0.518814 0.776462 0.058749
O O13 0.203926 0.711923 0.415214
O O14 0.131241 0.893324 0.348384
O O15 0.565017 0.601976 0.467219
#
# Coordination Sequence:
#
# PCOD8144417 Si02
#       8
#     8   8   4   8   8   8   8   8
#     4  10  22  41  70  96 138 179 237 283 355 414
#     4  10  23  44  70 106 137 182 238 285 354 423
#     4  12  28  40  68  98 146 182 240 288 348 414
#     4  10  22  41  70  95 137 182 235 291 344 422
#     4  11  24  43  72 100 145 186 231 296 353 418
#     4  10  21  42  70  99 137 180 238 288 355 416
#     4  11  25  42  64 101 135 185 240 286 349 414
#     4  12  25  43  65 101 147 185 231 290 355 414
#
# _framework density 23.506748999999999
#
# number of rings (size 3 to 8) (size 9 to 14) (size 15 to 20)
#    0.000    1.333    1.333    3.200    7.467    2.133 
#    0.000   10.000    0.000    0.000    0.000    0.000 
#    0.000    0.000    0.000    0.000    0.000    0.000 
#
# Total GULP energy -371738.088200 kJ/mol
# GULP energy per Si atom -12391.269607 kJ/mol
# Density = 2.345325 g / cm^3
# Si number density = 23.506749 Si / 1000 Ang^3
#
#
#
# Elastic Constant Matrix: (Units=GPa)
#
#
# Indices 1 2 3 4 5 6 
#
# 1 106.1531 34.3238 48.6902 0.0000 11.6337 0.0000
# 2 34.3238 78.4549 33.8721 0.0000 1.3248 0.0000
# 3 48.6902 33.8721 117.7802 0.0000 22.6766 0.0000
# 4 0.0000 0.0000 0.0000 32.5228 0.0000 -7.1842
# 5 11.6337 1.3248 22.6766 0.0000 26.3791 0.0000
# 6 0.0000 0.0000 0.0000 -7.1842 0.0000 45.0221
#
#
#
# Elastic Compliance Matrix: (Units=1/GPa)
#
#
# Indices 1 2 3 4 5 6 
#
# 1 0.012603 -0.003894 -0.003664 0.000000 -0.002213 0.000000
# 2 -0.003894 0.016021 -0.003803 0.000000 0.004182 0.000000
# 3 -0.003664 -0.003803 0.012883 0.000000 -0.009268 0.000000
# 4 0.000000 0.000000 0.000000 0.031871 0.000000 0.005086
# 5 -0.002213 0.004182 -0.009268 0.000000 0.046642 0.000000
# 6 0.000000 0.000000 0.000000 0.005086 0.000000 0.023023
#
#
# Mechanical properties :
#
#
# Convention : Reuss Voigt Hill
#
# Bulk Modulus (GPa) = 53.23438 59.57336 56.40387
# Shear Modulus (GPa) = 29.06536 33.15161 31.10848
#
# Velocity S-wave (km/s) = 3.52016 3.75947 3.64178
# Velocity P-wave (km/s) = 6.26240 6.65154 6.45990
#
# Compressibility (1/GPa) = 0.01878485
#
# Stress axis : x y z
#
# Youngs Moduli (GPa) = 79.34850 62.41761 77.62147
#
# Poissons Ratio (x) = 0.24308 0.28440
# Poissons Ratio (y) = 0.30901 0.29517
# Poissons Ratio (z) = 0.29072 0.23735
#
# Static dielectric constant tensor:
#      x y z
#    x 4.101750 0.000000 0.134410 
#    y 0.000000 4.040710 0.000000 
#    z 0.134410 0.000000 4.632870 
# 
# 
# High freq. dielectric constant tensor:
#      x y z
#    x 1.929000 0.000000 0.002310 
#    y 0.000000 1.914040 0.000000 
#    z 0.002310 0.000000 1.938280 
# 
# From -- ./inp_files/121985.got.cif
#   From: 2010.06.25/outbox.cif.g09.slc.cpg/sg15_61_cif.got.tgz:121985.got - 2010.06.28 07:06:18.
