data_PCOD8144646
_publ_section_title
;
Structure prediction by ZEFSAII (Michael W. Deem and Ramdas Pophale) SiO2 
 PCOD8144646
Probable space group: C 2/C
;
_chemical_formula_sum "Si O2"
_cell_formula_units_Z 56
_cell_length_a 11.234617
_cell_length_b 14.068989
_cell_length_c 19.613713
_cell_angle_alpha 90.000000
_cell_angle_beta 59.456009
_cell_angle_gamma 90.000000
_cell_volume 2669.960147
_symmetry_space_group_name_H-M "C 2/C"
_symmetry_group_IT_number 15
_symmetry_cell_setting 'monoclinic'
loop_
_space_group_symop_operation_xyz
x,y,z
-x,y,1/2-z
-x,-y,-z
x,-y,1/2+z
1/2+x,1/2+y,z
1/2-x,1/2+y,1/2-z
1/2-x,1/2-y,-z
1/2+x,1/2-y,1/2+z
loop_
_atom_site_type_symbol
_atom_site_label
_atom_site_fract_x
_atom_site_fract_y
_atom_site_fract_z
Si Si1 0.365967 0.443467 0.870940
Si Si2 0.640319 0.357697 0.777593
Si Si3 0.117726 0.658373 0.834574
Si Si4 0.404519 0.956573 0.714101
Si Si5 0.694135 0.344693 0.095426
Si Si6 0.547545 0.180138 0.068943
Si Si7 0.856686 0.674984 0.998816
O O1 0.508817 0.398725 0.857859
O O2 0.347508 0.401153 0.801029
O O3 0.381356 0.556348 0.867071
O O4 0.233121 0.417036 0.954715
O O5 0.625395 0.243393 0.777171
O O6 0.779185 0.389500 0.775958
O O7 0.158606 0.557803 0.790500
O O8 0.226503 0.689700 0.860432
O O9 0.963371 0.646148 0.909032
O O10 0.500000 0.975929 0.750000
O O11 0.484993 0.907693 0.628539
O O12 0.574021 0.270259 0.110524
O O13 0.805752 0.355469 0.002612
O O14 0.441239 0.212416 0.040348
O O15 0.750000 0.750000 0.000000
#
# Coordination Sequence:
#
# PCOD8144646 Si02
#       7
#     8   8   8   8   8   8   8
#     4  11  22  42  64  92 130 174 216 271 332 400
#     4  11  24  41  60  94 134 168 219 268 329 397
#     4  11  23  41  68  93 128 176 221 269 331 391
#     4  12  25  42  64  96 133 175 218 275 331 400
#     4  10  21  43  71  92 126 172 218 273 331 388
#     4  10  22  42  68  99 129 167 225 270 325 402
#     4  11  21  41  69  95 129 173 217 274 333 384
#
# _framework density 20.974098000000001
#
# number of rings (size 3 to 8) (size 9 to 14) (size 15 to 20)
#    0.000    1.143    4.286    1.714    2.000    3.429 
#    5.143    0.714    0.000    0.000    0.000    0.000 
#    0.000    0.000    0.000    0.000    0.000    0.000 
#
# Total GULP energy -347210.844208 kJ/mol
# GULP energy per Si atom -12400.387293 kJ/mol
# Density = 2.092636 g / cm^3
# Si number density = 20.974098 Si / 1000 Ang^3
#
#
#
# Elastic Constant Matrix: (Units=GPa)
#
#
# Indices 1 2 3 4 5 6 
#
# 1 93.7658 34.3093 24.7447 0.0000 -1.2191 0.0000
# 2 34.3093 161.0477 43.9181 0.0000 -1.4682 0.0000
# 3 24.7447 43.9181 60.5597 0.0000 -0.7489 0.0000
# 4 0.0000 0.0000 0.0000 32.4413 0.0000 -1.0431
# 5 -1.2191 -1.4682 -0.7489 0.0000 34.1833 0.0000
# 6 0.0000 0.0000 0.0000 -1.0431 0.0000 32.2239
#
#
#
# Elastic Compliance Matrix: (Units=1/GPa)
#
#
# Indices 1 2 3 4 5 6 
#
# 1 0.012260 -0.001551 -0.003881 0.000000 0.000286 0.000000
# 2 -0.001551 0.007938 -0.005121 0.000000 0.000173 0.000000
# 3 -0.003881 -0.005121 0.021814 0.000000 0.000120 0.000000
# 4 0.000000 0.000000 0.000000 0.030857 0.000000 0.000999
# 5 0.000286 0.000173 0.000120 0.000000 0.029274 0.000000
# 6 0.000000 0.000000 0.000000 0.000999 0.000000 0.031065
#
#
# Mechanical properties :
#
#
# Convention : Reuss Voigt Hill
#
# Bulk Modulus (GPa) = 47.83340 57.92415 52.87878
# Shear Modulus (GPa) = 31.00150 33.92976 32.46563
#
# Velocity S-wave (km/s) = 3.84876 4.02643 3.93859
# Velocity P-wave (km/s) = 6.52733 7.02090 6.77861
#
# Compressibility (1/GPa) = 0.02090589
#
# Stress axis : x y z
#
# Youngs Moduli (GPa) = 81.56391 125.98066 45.84309
#
# Poissons Ratio (x) = 0.19538 0.17793
# Poissons Ratio (y) = 0.12649 0.23475
# Poissons Ratio (z) = 0.31658 0.64510
#
# Static dielectric constant tensor:
#      x y z
#    x 4.211830 0.000000 -0.291830 
#    y 0.000000 3.748410 0.000000 
#    z -0.291830 0.000000 3.931860 
# 
# 
# High freq. dielectric constant tensor:
#      x y z
#    x 1.832520 0.000000 -0.012160 
#    y 0.000000 1.823110 0.000000 
#    z -0.012160 0.000000 1.809260 
# 
# From -- ./inp_files/198219.got.cif
#   From: 2010.06.25/outbox.cif.g09.slc.cpg/sg15_100_cif.got.tgz:198219.got - 2010.06.28 07:06:18.
