data_PCOD8144313
_publ_section_title
;
Structure prediction by ZEFSAII (Michael W. Deem and Ramdas Pophale) SiO2 
 PCOD8144313
Probable space group: C 2/C
;
_chemical_formula_sum "Si O2"
_cell_formula_units_Z 48
_cell_length_a 12.956672
_cell_length_b 6.471574
_cell_length_c 27.707637
_cell_angle_alpha 90.000000
_cell_angle_beta 97.192862
_cell_angle_gamma 90.000000
_cell_volume 2305.003516
_symmetry_space_group_name_H-M "C 2/C"
_symmetry_group_IT_number 15
_symmetry_cell_setting 'monoclinic'
loop_
_space_group_symop_operation_xyz
x,y,z
-x,y,1/2-z
-x,-y,-z
x,-y,1/2+z
1/2+x,1/2+y,z
1/2-x,1/2+y,1/2-z
1/2-x,1/2-y,-z
1/2+x,1/2-y,1/2+z
loop_
_atom_site_type_symbol
_atom_site_label
_atom_site_fract_x
_atom_site_fract_y
_atom_site_fract_z
Si Si1 0.137986 0.868829 0.892998
Si Si2 0.104878 0.484193 0.229171
Si Si3 0.805460 0.676673 0.939755
Si Si4 0.088573 0.828813 0.643302
Si Si5 0.266354 0.319563 0.315693
Si Si6 0.195525 0.561309 0.971420
O O1 0.199164 0.818663 0.847721
O O2 0.124560 0.662097 0.925422
O O3 0.021451 0.940381 0.873403
O O4 0.197258 0.055995 0.922798
O O5 0.078653 0.296966 0.192022
O O6 0.193208 0.415684 0.271086
O O7 0.143737 0.683975 0.203060
O O8 0.000000 0.550530 0.250000
O O9 0.881806 0.672795 0.898513
O O10 0.780309 0.912668 0.951543
O O11 0.862765 0.568183 0.989333
O O12 0.178601 0.998261 0.651663
O O13 0.250000 0.750000 0.000000
#
# Coordination Sequence:
#
# PCOD8144313 Si02
#       6
#     8   8   8   8   8   8
#     4  11  23  41  67  97 130 168 218 266 318 386
#     4  12  26  43  66  94 128 171 212 269 332 382
#     4  10  21  42  67  97 133 170 212 269 320 377
#     4  12  25  40  69  97 124 172 222 260 325 390
#     4  12  25  42  65  94 131 166 217 271 319 385
#     4   9  20  41  68  95 137 172 208 267 322 379
#
# _framework density 20.824262999999998
#
# number of rings (size 3 to 8) (size 9 to 14) (size 15 to 20)
#    0.000    1.000    6.667    0.000    0.000    5.333 
#    0.000    7.500    0.000    0.000    0.000    0.000 
#    0.000    0.000    0.000    0.000    0.000    0.000 
#
# Total GULP energy -297581.370405 kJ/mol
# GULP energy per Si atom -12399.223767 kJ/mol
# Density = 2.077687 g / cm^3
# Si number density = 20.824263 Si / 1000 Ang^3
#
#
#
# Elastic Constant Matrix: (Units=GPa)
#
#
# Indices 1 2 3 4 5 6 
#
# 1 109.2243 26.0252 37.6936 0.0000 -5.4862 0.0000
# 2 26.0252 82.8985 29.4262 0.0000 -3.8928 0.0000
# 3 37.6936 29.4262 108.5553 0.0000 -12.8673 0.0000
# 4 0.0000 0.0000 0.0000 37.5330 0.0000 -1.1978
# 5 -5.4862 -3.8928 -12.8673 0.0000 20.7033 0.0000
# 6 0.0000 0.0000 0.0000 -1.1978 0.0000 32.3183
#
#
#
# Elastic Compliance Matrix: (Units=1/GPa)
#
#
# Indices 1 2 3 4 5 6 
#
# 1 0.010781 -0.002272 -0.003066 0.000000 0.000524 0.000000
# 2 -0.002272 0.013827 -0.002939 0.000000 0.000171 0.000000
# 3 -0.003066 -0.002939 0.011779 0.000000 0.005956 0.000000
# 4 0.000000 0.000000 0.000000 0.026675 0.000000 0.000989
# 5 0.000524 0.000171 0.005956 0.000000 0.052174 0.000000
# 6 0.000000 0.000000 0.000000 0.000989 0.000000 0.030979
#
#
# Mechanical properties :
#
#
# Convention : Reuss Voigt Hill
#
# Bulk Modulus (GPa) = 50.41673 54.10755 52.26214
# Shear Modulus (GPa) = 29.51947 31.94647 30.73297
#
# Velocity S-wave (km/s) = 3.76912 3.92101 3.84581
# Velocity P-wave (km/s) = 6.57304 6.82191 6.69863
#
# Compressibility (1/GPa) = 0.01983469
#
# Stress axis : x y z
#
# Youngs Moduli (GPa) = 92.75541 72.31975 84.89696
#
# Poissons Ratio (x) = 0.16430 0.26025
# Poissons Ratio (y) = 0.21072 0.24952
# Poissons Ratio (z) = 0.28434 0.21255
#
# Static dielectric constant tensor:
#      x y z
#    x 3.453920 0.000000 0.041030 
#    y 0.000000 3.842090 0.000000 
#    z 0.041030 0.000000 4.274570 
# 
# 
# High freq. dielectric constant tensor:
#      x y z
#    x 1.791390 0.000000 -0.002740 
#    y 0.000000 1.816580 0.000000 
#    z -0.002740 0.000000 1.845110 
# 
# From -- ./inp_files/294434.got.cif
#   From: 2010.06.25/outbox.cif.g09.slc.cpg/sg15_148_cif.got.tgz:294434.got - 2010.06.28 07:06:18.
