data_PCOD8144138
_publ_section_title
;
Structure prediction by ZEFSAII (Michael W. Deem and Ramdas Pophale) SiO2 
 PCOD8144138
Probable space group: C 2/C
;
_chemical_formula_sum "Si O2"
_cell_formula_units_Z 52
_cell_length_a 8.514264
_cell_length_b 21.491441
_cell_length_c 16.921698
_cell_angle_alpha 90.000000
_cell_angle_beta 47.925474
_cell_angle_gamma 90.000000
_cell_volume 2298.374235
_symmetry_space_group_name_H-M "C 2/C"
_symmetry_group_IT_number 15
_symmetry_cell_setting 'monoclinic'
loop_
_space_group_symop_operation_xyz
x,y,z
-x,y,1/2-z
-x,-y,-z
x,-y,1/2+z
1/2+x,1/2+y,z
1/2-x,1/2+y,1/2-z
1/2-x,1/2-y,-z
1/2+x,1/2-y,1/2+z
loop_
_atom_site_type_symbol
_atom_site_label
_atom_site_fract_x
_atom_site_fract_y
_atom_site_fract_z
Si Si1 0.000000 0.663672 0.750000
Si Si2 0.097651 0.666817 0.302178
Si Si3 0.466596 0.632618 0.082298
Si Si4 0.185053 0.555079 0.070184
Si Si5 0.833958 0.892672 0.370180
Si Si6 0.595053 0.915321 0.072437
Si Si7 0.551859 0.708434 0.894963
O O1 0.101484 0.620803 0.650825
O O2 0.200432 0.702584 0.712743
O O3 0.349546 0.662308 0.198272
O O4 0.020468 0.717716 0.392953
O O5 0.000000 0.682786 0.250000
O O6 0.012488 0.602269 0.366790
O O7 0.329529 0.573246 0.096826
O O8 0.685262 0.605186 0.042960
O O9 0.493799 0.684772 0.003007
O O10 0.085711 0.486919 0.102058
O O11 0.335876 0.559855 0.942625
O O12 0.597909 0.892432 0.415465
O O13 0.000000 0.917800 0.250000
O O14 0.907570 0.825587 0.377903
#
# Coordination Sequence:
#
# PCOD8144138 Si02
#       7
#     4   8   8   8   8   8   8
#     4  10  22  38  64  90 116 168 208 264 306 372
#     4  10  22  40  67  92 127 169 212 262 319 373
#     4   9  22  41  64  96 125 172 208 266 317 367
#     4  10  23  40  63  95 127 168 211 259 316 383
#     4  11  22  39  64  92 125 170 205 263 320 371
#     4  11  22  40  64  95 130 161 220 258 317 383
#     4  10  21  42  63  91 122 161 221 252 317 383
#
# _framework density 22.624690000000001
#
# number of rings (size 3 to 8) (size 9 to 14) (size 15 to 20)
#    0.000    1.846    1.538    1.385    3.231    8.000 
#    2.769    1.538    0.000    0.000    0.000    0.000 
#    0.000    0.000    0.000    0.000    0.000    0.000 
#
# Total GULP energy -322181.324071 kJ/mol
# GULP energy per Si atom -12391.589387 kJ/mol
# Density = 2.257320 g / cm^3
# Si number density = 22.624690 Si / 1000 Ang^3
#
#
#
# Elastic Constant Matrix: (Units=GPa)
#
#
# Indices 1 2 3 4 5 6 
#
# 1 111.5846 33.6936 14.8134 0.0000 -33.0411 0.0000
# 2 33.6936 89.8304 9.9802 0.0000 -14.6643 0.0000
# 3 14.8134 9.9802 85.2443 0.0000 -16.0192 0.0000
# 4 0.0000 0.0000 0.0000 49.5096 0.0000 8.7338
# 5 -33.0411 -14.6643 -16.0192 0.0000 38.5959 0.0000
# 6 0.0000 0.0000 0.0000 8.7338 0.0000 21.9574
#
#
#
# Elastic Compliance Matrix: (Units=1/GPa)
#
#
# Indices 1 2 3 4 5 6 
#
# 1 0.012821 -0.003216 -0.000020 0.000000 0.009746 0.000000
# 2 -0.003216 0.012702 -0.000584 0.000000 0.001831 0.000000
# 3 -0.000020 -0.000584 0.012753 0.000000 0.005054 0.000000
# 4 0.000000 0.000000 0.000000 0.021722 0.000000 -0.008640
# 5 0.009746 0.001831 0.005054 0.000000 0.037046 0.000000
# 6 0.000000 0.000000 0.000000 -0.008640 0.000000 0.048980
#
#
# Mechanical properties :
#
#
# Convention : Reuss Voigt Hill
#
# Bulk Modulus (GPa) = 32.64182 44.84818 38.74500
# Shear Modulus (GPa) = 30.51090 37.22405 33.86747
#
# Velocity S-wave (km/s) = 3.67627 4.06061 3.87321
# Velocity P-wave (km/s) = 5.69901 6.46919 6.09628
#
# Compressibility (1/GPa) = 0.03063555
#
# Stress axis : x y z
#
# Youngs Moduli (GPa) = 77.99490 78.72758 78.41543
#
# Poissons Ratio (x) = 0.25318 0.00157
# Poissons Ratio (y) = 0.25082 0.04582
# Poissons Ratio (z) = 0.00157 0.04600
#
# Static dielectric constant tensor:
#      x y z
#    x 4.018290 0.000000 0.168600 
#    y 0.000000 3.820730 0.000000 
#    z 0.168600 0.000000 2.114720 
# 
# 
# High freq. dielectric constant tensor:
#      x y z
#    x 1.881120 0.000000 -0.018100 
#    y 0.000000 1.875170 0.000000 
#    z -0.018100 0.000000 1.906470 
# 
# From -- ./inp_files/192461.got.cif
#   From: 2010.06.25/outbox.cif.g09.slc.cpg/sg15_97_cif.got.tgz:192461.got - 2010.06.28 07:06:18.
