data_PCOD8144616
_publ_section_title
;
Structure prediction by ZEFSAII (Michael W. Deem and Ramdas Pophale) SiO2 
 PCOD8144616
Probable space group: C 2/C
;
_chemical_formula_sum "Si O2"
_cell_formula_units_Z 48
_cell_length_a 13.584731
_cell_length_b 29.012582
_cell_length_c 13.307240
_cell_angle_alpha 90.000000
_cell_angle_beta 157.453999
_cell_angle_gamma 90.000000
_cell_volume 2010.971480
_symmetry_space_group_name_H-M "C 2/C"
_symmetry_group_IT_number 15
_symmetry_cell_setting 'monoclinic'
loop_
_space_group_symop_operation_xyz
x,y,z
-x,y,1/2-z
-x,-y,-z
x,-y,1/2+z
1/2+x,1/2+y,z
1/2-x,1/2+y,1/2-z
1/2-x,1/2-y,-z
1/2+x,1/2-y,1/2+z
loop_
_atom_site_type_symbol
_atom_site_label
_atom_site_fract_x
_atom_site_fract_y
_atom_site_fract_z
Si Si1 0.000000 0.091704 0.750000
Si Si2 0.676582 0.222500 0.267698
Si Si3 0.000000 0.862804 0.750000
Si Si4 0.794201 0.030475 0.706134
Si Si5 0.000000 0.647596 0.250000
Si Si6 0.112879 0.055008 0.495480
Si Si7 0.000000 0.502132 0.250000
Si Si8 0.720976 0.279053 0.866358
O O1 0.970382 0.058910 0.623270
O O2 0.739313 0.119598 0.519225
O O3 0.614878 0.175875 0.266197
O O4 0.715022 0.210324 0.188152
O O5 0.936945 0.243342 0.559255
O O6 0.939854 0.893410 0.594097
O O7 0.768996 0.828394 0.566346
O O8 0.721137 0.054684 0.743767
O O9 0.558047 0.033161 0.403635
O O10 0.863344 0.976226 0.787487
O O11 0.258847 0.031052 0.541135
O O12 0.431103 0.257299 0.605425
#
# Coordination Sequence:
#
# PCOD8144616 Si02
#       8
#     4   8   4   8   4   8   4   8
#     4  12  25  43  66 100 147 183 228 289 369 416
#     4  10  21  43  69  97 135 184 230 286 361 429
#     4  12  23  46  69 108 140 182 260 301 355 444
#     4  11  24  46  67  94 150 188 238 293 376 422
#     4  12  25  39  68 108 134 178 240 295 340 433
#     4  11  25  43  70 102 134 190 248 299 354 430
#     4  12  19  46  69 100 131 197 244 299 362 441
#     4  10  24  45  73 102 148 196 230 298 383 438
#
# _framework density 23.869060999999999
#
# number of rings (size 3 to 8) (size 9 to 14) (size 15 to 20)
#    0.000    1.000    3.333    3.000    2.333    1.333 
#    3.000    0.000    0.000    0.000    0.000    0.000 
#    0.000    0.000    0.000    0.000    0.000    0.000 
#
# Total GULP energy -297474.267957 kJ/mol
# GULP energy per Si atom -12394.761165 kJ/mol
# Density = 2.381473 g / cm^3
# Si number density = 23.869061 Si / 1000 Ang^3
#
#
#
# Elastic Constant Matrix: (Units=GPa)
#
#
# Indices 1 2 3 4 5 6 
#
# 1 121.4704 72.9037 47.6688 -0.0008 -13.2810 0.0003
# 2 72.9037 156.9695 48.5507 -0.0007 -2.4742 0.0001
# 3 47.6688 48.5507 111.7456 0.0015 0.9685 -0.0005
# 4 -0.0008 -0.0007 0.0015 15.4797 0.0004 4.6219
# 5 -13.2810 -2.4742 0.9685 0.0004 49.5697 0.0008
# 6 0.0003 0.0001 -0.0005 4.6219 0.0008 47.9153
#
#
#
# Elastic Compliance Matrix: (Units=1/GPa)
#
#
# Indices 1 2 3 4 5 6 
#
# 1 0.012839 -0.004862 -0.003393 0.000001 0.003263 0.000000
# 2 -0.004862 0.009210 -0.001921 0.000000 -0.000805 0.000000
# 3 -0.003393 -0.001921 0.011241 -0.000001 -0.001224 0.000000
# 4 0.000001 0.000000 -0.000001 0.066516 0.000000 -0.006416
# 5 0.003263 -0.000805 -0.001224 0.000000 0.021032 0.000000
# 6 0.000000 0.000000 0.000000 -0.006416 0.000000 0.021489
#
#
# Mechanical properties :
#
#
# Convention : Reuss Voigt Hill
#
# Bulk Modulus (GPa) = 77.28217 80.93689 79.10953
# Shear Modulus (GPa) = 29.94173 37.33044 33.63609
#
# Velocity S-wave (km/s) = 3.54562 3.95899 3.75799
# Velocity P-wave (km/s) = 7.01496 7.40814 7.21423
#
# Compressibility (1/GPa) = 0.01293960
#
# Stress axis : x y z
#
# Youngs Moduli (GPa) = 77.88902 108.57564 88.95885
#
# Poissons Ratio (x) = 0.52791 0.30180
# Poissons Ratio (y) = 0.37871 0.17085
# Poissons Ratio (z) = 0.26425 0.20852
#
# Static dielectric constant tensor:
#      x y z
#    x 4.716400 0.000000 -0.155410 
#    y 0.000000 4.236900 0.000000 
#    z -0.155410 0.000000 4.305590 
# 
# 
# High freq. dielectric constant tensor:
#      x y z
#    x 1.974120 0.000000 -0.006880 
#    y 0.000000 1.935930 0.000000 
#    z -0.006880 0.000000 1.939290 
# 
# From -- ./inp_files/157777.got.cif
#   From: 2010.06.25/outbox.cif.g09.slc.cpg/sg15_79_cif.got.tgz:157777.got - 2010.06.28 07:06:18.
