data_PCOD8144315
_publ_section_title
;
Structure prediction by ZEFSAII (Michael W. Deem and Ramdas Pophale) SiO2 
 PCOD8144315
Probable space group: C 2/C
;
_chemical_formula_sum "Si O2"
_cell_formula_units_Z 52
_cell_length_a 12.921374
_cell_length_b 13.762309
_cell_length_c 15.220679
_cell_angle_alpha 90.000000
_cell_angle_beta 120.586755
_cell_angle_gamma 90.000000
_cell_volume 2330.056194
_symmetry_space_group_name_H-M "C 2/C"
_symmetry_group_IT_number 15
_symmetry_cell_setting 'monoclinic'
loop_
_space_group_symop_operation_xyz
x,y,z
-x,y,1/2-z
-x,-y,-z
x,-y,1/2+z
1/2+x,1/2+y,z
1/2-x,1/2+y,1/2-z
1/2-x,1/2-y,-z
1/2+x,1/2-y,1/2+z
loop_
_atom_site_type_symbol
_atom_site_label
_atom_site_fract_x
_atom_site_fract_y
_atom_site_fract_z
Si Si1 0.225964 0.679526 0.742865
Si Si2 0.939625 0.860420 0.569106
Si Si3 0.587699 0.795453 0.581102
Si Si4 0.169997 0.326547 0.017578
Si Si5 0.269011 0.952245 0.943714
Si Si6 0.600684 0.510148 0.725396
Si Si7 0.500000 0.779508 0.250000
O O1 0.298996 0.775304 0.806433
O O2 0.176579 0.699343 0.623863
O O3 0.322665 0.593184 0.788836
O O4 0.109944 0.657322 0.755182
O O5 0.952326 0.803551 0.484600
O O6 0.806398 0.906951 0.508914
O O7 0.041159 0.943744 0.623810
O O8 0.942328 0.787089 0.651247
O O9 0.465591 0.822195 0.579408
O O10 0.614941 0.884777 0.525392
O O11 0.207222 0.437415 0.018933
O O12 0.250000 0.250000 0.000000
O O13 0.190028 0.944730 0.821087
O O14 0.500000 0.553283 0.750000
#
# Coordination Sequence:
#
# PCOD8144315 Si02
#       7
#     8   8   8   8   8   8   4
#     4  11  25  41  70 103 140 179 233 280 358 401
#     4  11  20  39  69  99 133 177 232 273 348 411
#     4  12  24  40  72 101 135 184 227 288 349 415
#     4  11  27  47  67  98 141 186 235 286 341 422
#     4  10  21  42  67  97 139 184 221 285 355 399
#     4   9  20  40  67  95 139 185 225 283 343 413
#     4  12  20  44  66 102 136 176 222 292 330 416
#
# _framework density 22.317057999999999
#
# number of rings (size 3 to 8) (size 9 to 14) (size 15 to 20)
#    0.000    1.231    5.385    0.923    6.462    0.615 
#    0.000    0.000    0.000    1.846    0.000    0.000 
#    0.000    0.000    0.000    0.000    0.000    0.000 
#
# Total GULP energy -322238.911409 kJ/mol
# GULP energy per Si atom -12393.804285 kJ/mol
# Density = 2.226626 g / cm^3
# Si number density = 22.317058 Si / 1000 Ang^3
#
#
#
# Elastic Constant Matrix: (Units=GPa)
#
#
# Indices 1 2 3 4 5 6 
#
# 1 163.6626 69.9548 19.4895 0.0000 17.4812 0.0000
# 2 69.9548 116.6869 12.2614 0.0000 7.1905 0.0000
# 3 19.4895 12.2614 46.6426 0.0000 4.5817 0.0000
# 4 0.0000 0.0000 0.0000 24.0746 0.0000 2.4527
# 5 17.4812 7.1905 4.5817 0.0000 26.0416 0.0000
# 6 0.0000 0.0000 0.0000 2.4527 0.0000 36.5496
#
#
#
# Elastic Compliance Matrix: (Units=1/GPa)
#
#
# Indices 1 2 3 4 5 6 
#
# 1 0.008878 -0.004848 -0.002016 0.000000 -0.004266 0.000000
# 2 -0.004848 0.011570 -0.001040 0.000000 0.000242 0.000000
# 3 -0.002016 -0.001040 0.022788 0.000000 -0.002369 0.000000
# 4 0.000000 0.000000 0.000000 0.041823 0.000000 -0.002807
# 5 -0.004266 0.000242 -0.002369 0.000000 0.041614 0.000000
# 6 0.000000 0.000000 0.000000 -0.002807 0.000000 0.027548
#
#
# Mechanical properties :
#
#
# Convention : Reuss Voigt Hill
#
# Bulk Modulus (GPa) = 36.45760 58.93373 47.69566
# Shear Modulus (GPa) = 27.90601 32.35226 30.12913
#
# Velocity S-wave (km/s) = 3.53998 3.81158 3.67829
# Velocity P-wave (km/s) = 5.75155 6.77020 6.28156
#
# Compressibility (1/GPa) = 0.02742913
#
# Stress axis : x y z
#
# Youngs Moduli (GPa) = 112.63828 86.42675 43.88253
#
# Poissons Ratio (x) = 0.41897 0.08848
# Poissons Ratio (y) = 0.54603 0.04563
# Poissons Ratio (z) = 0.22710 0.08987
#
# Static dielectric constant tensor:
#      x y z
#    x 4.228800 0.000000 0.184430 
#    y 0.000000 4.022560 0.000000 
#    z 0.184430 0.000000 4.205320 
# 
# 
# High freq. dielectric constant tensor:
#      x y z
#    x 1.887770 0.000000 0.020410 
#    y 0.000000 1.874870 0.000000 
#    z 0.020410 0.000000 1.859470 
# 
# From -- ./inp_files/144320.got.cif
#   From: 2010.06.25/outbox.cif.g09.slc.cpg/sg15_73_cif.got.tgz:144320.got - 2010.06.28 07:06:18.
