data_PCOD8144181
_publ_section_title
;
Structure prediction by ZEFSAII (Michael W. Deem and Ramdas Pophale) SiO2 
 PCOD8144181
Probable space group: C 2/C
;
_chemical_formula_sum "Si O2"
_cell_formula_units_Z 56
_cell_length_a 14.296088
_cell_length_b 18.315643
_cell_length_c 15.803159
_cell_angle_alpha 90.000000
_cell_angle_beta 40.079821
_cell_angle_gamma 90.000000
_cell_volume 2664.224515
_symmetry_space_group_name_H-M "C 2/C"
_symmetry_group_IT_number 15
_symmetry_cell_setting 'monoclinic'
loop_
_space_group_symop_operation_xyz
x,y,z
-x,y,1/2-z
-x,-y,-z
x,-y,1/2+z
1/2+x,1/2+y,z
1/2-x,1/2+y,1/2-z
1/2-x,1/2-y,-z
1/2+x,1/2-y,1/2+z
loop_
_atom_site_type_symbol
_atom_site_label
_atom_site_fract_x
_atom_site_fract_y
_atom_site_fract_z
Si Si1 0.423354 0.239482 0.883346
Si Si2 0.936930 0.101323 0.410297
Si Si3 0.603518 0.659688 0.878951
Si Si4 0.378996 0.692856 0.898311
Si Si5 0.218153 0.056239 0.142146
Si Si6 0.703204 0.897213 0.401020
Si Si7 0.581071 0.822275 0.942805
O O1 0.500000 0.202040 0.750000
O O2 0.495356 0.319033 0.843367
O O3 0.473087 0.186458 0.923648
O O4 0.250000 0.250000 0.000000
O O5 0.901938 0.106770 0.534689
O O6 0.799911 0.078980 0.444978
O O7 0.064142 0.044062 0.297339
O O8 0.447689 0.665000 0.939044
O O9 0.728751 0.626220 0.735191
O O10 0.644380 0.743997 0.869953
O O11 0.500000 0.726648 0.750000
O O12 0.312589 0.621129 0.901118
O O13 0.250000 0.750000 0.000000
O O14 0.317599 0.984246 0.080761
O O15 0.292026 0.118931 0.146907
O O16 0.552854 0.853280 0.519787
#
# Coordination Sequence:
#
# PCOD8144181 Si02
#       7
#     8   8   8   8   8   8   8
#     4  11  20  36  61  96 125 162 207 266 316 374
#     4  10  22  38  63  91 123 162 214 257 318 384
#     4  10  24  39  67  94 117 160 224 264 308 375
#     4  10  21  42  64  93 124 165 216 271 309 366
#     4  11  23  42  61  91 133 168 199 260 334 392
#     4  11  25  41  64  90 129 169 208 262 325 379
#     4  11  23  37  66  91 126 160 211 256 321 383
#
# _framework density 21.019251000000001
#
# number of rings (size 3 to 8) (size 9 to 14) (size 15 to 20)
#    0.000    1.429    4.286    0.429   14.000    0.571 
#    0.000    0.000    0.000    0.000    0.000    0.000 
#    0.000    0.000    0.000    0.000    0.000    0.000 
#
# Total GULP energy -347018.008898 kJ/mol
# GULP energy per Si atom -12393.500318 kJ/mol
# Density = 2.097141 g / cm^3
# Si number density = 21.019251 Si / 1000 Ang^3
#
#
#
# Elastic Constant Matrix: (Units=GPa)
#
#
# Indices 1 2 3 4 5 6 
#
# 1 116.6325 24.5883 34.4785 -0.0009 7.1654 0.0002
# 2 24.5883 88.8535 16.8587 -0.0010 4.1126 0.0003
# 3 34.4785 16.8587 65.0366 -0.0039 3.1791 0.0014
# 4 -0.0009 -0.0010 -0.0039 22.0498 0.0012 -2.9979
# 5 7.1654 4.1126 3.1791 0.0012 33.7710 -0.0003
# 6 0.0002 0.0003 0.0014 -2.9979 -0.0003 29.2335
#
#
#
# Elastic Compliance Matrix: (Units=1/GPa)
#
#
# Indices 1 2 3 4 5 6 
#
# 1 0.010555 -0.001895 -0.005029 0.000000 -0.001535 0.000000
# 2 -0.001895 0.012222 -0.002120 0.000000 -0.000887 0.000000
# 3 -0.005029 -0.002120 0.018612 0.000003 -0.000427 -0.000001
# 4 0.000000 0.000000 0.000003 0.045993 -0.000002 0.004717
# 5 -0.001535 -0.000887 -0.000427 -0.000002 0.030085 0.000000
# 6 0.000000 0.000000 -0.000001 0.004717 0.000000 0.034691
#
#
# Mechanical properties :
#
#
# Convention : Reuss Voigt Hill
#
# Bulk Modulus (GPa) = 42.91799 46.93038 44.92418
# Shear Modulus (GPa) = 28.08764 29.98400 29.03582
#
# Velocity S-wave (km/s) = 3.65948 3.78100 3.72074
# Velocity P-wave (km/s) = 6.19020 6.43717 6.31489
#
# Compressibility (1/GPa) = 0.02330026
#
# Stress axis : x y z
#
# Youngs Moduli (GPa) = 94.74620 81.81761 53.72749
#
# Poissons Ratio (x) = 0.15509 0.27019
# Poissons Ratio (y) = 0.17959 0.11390
# Poissons Ratio (z) = 0.47648 0.17346
#
# Static dielectric constant tensor:
#      x y z
#    x 4.100070 0.000000 0.066720 
#    y 0.000000 3.642510 0.000000 
#    z 0.066720 0.000000 3.614040 
# 
# 
# High freq. dielectric constant tensor:
#      x y z
#    x 1.837870 0.000000 -0.002540 
#    y 0.000000 1.807200 0.000000 
#    z -0.002540 0.000000 1.802410 
# 
# From -- ./inp_files/206259.got.cif
#   From: 2010.06.25/outbox.cif.g09.slc.cpg/sg15_104_cif.got.tgz:206259.got - 2010.06.28 07:06:18.
