data_PCOD8144602
_publ_section_title
;
Structure prediction by ZEFSAII (Michael W. Deem and Ramdas Pophale) SiO2 
 PCOD8144602
Probable space group: C 2/C
;
_chemical_formula_sum "Si O2"
_cell_formula_units_Z 44
_cell_length_a 9.981218
_cell_length_b 20.076325
_cell_length_c 10.752952
_cell_angle_alpha 90.000000
_cell_angle_beta 75.275751
_cell_angle_gamma 90.000000
_cell_volume 2083.981760
_symmetry_space_group_name_H-M "C 2/C"
_symmetry_group_IT_number 15
_symmetry_cell_setting 'monoclinic'
loop_
_space_group_symop_operation_xyz
x,y,z
-x,y,1/2-z
-x,-y,-z
x,-y,1/2+z
1/2+x,1/2+y,z
1/2-x,1/2+y,1/2-z
1/2-x,1/2-y,-z
1/2+x,1/2-y,1/2+z
loop_
_atom_site_type_symbol
_atom_site_label
_atom_site_fract_x
_atom_site_fract_y
_atom_site_fract_z
Si Si1 0.537345 0.397611 0.460878
Si Si2 0.795280 0.326729 0.490282
Si Si3 0.115819 0.018878 0.313876
Si Si4 0.000000 0.711934 0.750000
Si Si5 0.352536 0.111300 0.228341
Si Si6 0.160554 0.792967 0.928205
O O1 0.665242 0.376370 0.517694
O O2 0.603479 0.437830 0.327968
O O3 0.423327 0.447263 0.546226
O O4 0.451676 0.329817 0.454920
O O5 0.750000 0.250000 0.500000
O O6 0.877265 0.347847 0.595054
O O7 0.893149 0.336230 0.346932
O O8 0.268034 0.041590 0.231480
O O9 0.000000 0.047579 0.250000
O O10 0.919928 0.755727 0.664795
O O11 0.500000 0.092550 0.250000
O O12 0.265465 0.156213 0.341652
O O13 0.250000 0.750000 0.000000
#
# Coordination Sequence:
#
# PCOD8144602 Si02
#       6
#     8   8   8   4   8   8
#     4  10  22  40  67  95 123 176 228 268 326 406
#     4  12  22  41  68  95 137 177 215 280 352 410
#     4  10  21  43  69  89 124 179 231 270 319 401
#     4  12  24  38  62 102 134 180 214 266 352 414
#     4  11  23  41  66  95 133 178 222 280 343 401
#     4  11  22  38  65 100 138 169 222 277 341 413
#
# _framework density 21.113430000000001
#
# number of rings (size 3 to 8) (size 9 to 14) (size 15 to 20)
#    0.000    1.091    5.455    1.091    2.545    1.455 
#    1.636    2.727    0.000    0.000    0.000    0.000 
#    0.000    0.000    0.000    0.000    0.000    0.000 
#
# Total GULP energy -272550.024899 kJ/mol
# GULP energy per Si atom -12388.637495 kJ/mol
# Density = 2.106538 g / cm^3
# Si number density = 21.113430 Si / 1000 Ang^3
#
#
#
# Elastic Constant Matrix: (Units=GPa)
#
#
# Indices 1 2 3 4 5 6 
#
# 1 153.9202 57.3978 47.2390 0.0000 11.3950 0.0000
# 2 57.3978 91.9028 53.3389 0.0000 3.7262 0.0000
# 3 47.2390 53.3389 93.5032 0.0000 -3.5570 0.0000
# 4 0.0000 0.0000 0.0000 30.5439 0.0000 -1.9399
# 5 11.3950 3.7262 -3.5570 0.0000 37.3370 0.0000
# 6 0.0000 0.0000 0.0000 -1.9399 0.0000 27.4870
#
#
#
# Elastic Compliance Matrix: (Units=1/GPa)
#
#
# Indices 1 2 3 4 5 6 
#
# 1 0.008924 -0.004185 -0.002217 0.000000 -0.002517 0.000000
# 2 -0.004185 0.018468 -0.008473 0.000000 -0.001373 0.000000
# 3 -0.002217 -0.008473 0.016767 0.000000 0.003120 0.000000
# 4 0.000000 0.000000 0.000000 0.032887 0.000000 0.002321
# 5 -0.002517 -0.001373 0.003120 0.000000 0.027986 0.000000
# 6 0.000000 0.000000 0.000000 0.002321 0.000000 0.036545
#
#
# Mechanical properties :
#
#
# Convention : Reuss Voigt Hill
#
# Bulk Modulus (GPa) = 69.39992 72.80862 71.10427
# Shear Modulus (GPa) = 28.38815 31.16361 29.77588
#
# Velocity S-wave (km/s) = 3.67079 3.84605 3.75945
# Velocity P-wave (km/s) = 7.13496 7.36765 7.25224
#
# Compressibility (1/GPa) = 0.01440924
#
# Stress axis : x y z
#
# Youngs Moduli (GPa) = 112.05469 54.14790 59.64048
#
# Poissons Ratio (x) = 0.22659 0.13224
# Poissons Ratio (y) = 0.46892 0.50534
# Poissons Ratio (z) = 0.24845 0.45880
#
# Static dielectric constant tensor:
#      x y z
#    x 3.338160 0.000000 0.286730 
#    y 0.000000 4.093420 0.000000 
#    z 0.286730 0.000000 3.470670 
# 
# 
# High freq. dielectric constant tensor:
#      x y z
#    x 1.834170 0.000000 -0.004950 
#    y 0.000000 1.818010 0.000000 
#    z -0.004950 0.000000 1.814580 
# 
# From -- ./inp_files/78179.got.cif
#   From: 2010.06.25/outbox.cif.g09.slc.cpg/sg15_40_cif.got.tgz:78179.got - 2010.06.28 07:06:18.
