data_PCOD8144598
_publ_section_title
;
Structure prediction by ZEFSAII (Michael W. Deem and Ramdas Pophale) SiO2 
 PCOD8144598
Probable space group: C 2/C
;
_chemical_formula_sum "Si O2"
_cell_formula_units_Z 52
_cell_length_a 31.344278
_cell_length_b 6.039369
_cell_length_c 14.292848
_cell_angle_alpha 90.000000
_cell_angle_beta 117.643135
_cell_angle_gamma 90.000000
_cell_volume 2396.795744
_symmetry_space_group_name_H-M "C 2/C"
_symmetry_group_IT_number 15
_symmetry_cell_setting 'monoclinic'
loop_
_space_group_symop_operation_xyz
x,y,z
-x,y,1/2-z
-x,-y,-z
x,-y,1/2+z
1/2+x,1/2+y,z
1/2-x,1/2+y,1/2-z
1/2-x,1/2-y,-z
1/2+x,1/2-y,1/2+z
loop_
_atom_site_type_symbol
_atom_site_label
_atom_site_fract_x
_atom_site_fract_y
_atom_site_fract_z
Si Si1 0.730799 0.816560 0.582163
Si Si2 0.853781 0.612493 0.959887
Si Si3 0.483965 0.921654 0.883429
Si Si4 0.935021 0.915416 0.081546
Si Si5 0.000000 0.223843 0.250000
Si Si6 0.399190 0.264583 0.391970
Si Si7 0.694701 0.513446 0.198498
O O1 0.750000 0.750000 0.500000
O O2 0.718769 0.599575 0.631474
O O3 0.769017 0.963980 0.678169
O O4 0.683237 0.966886 0.516495
O O5 0.892161 0.451211 0.949667
O O6 0.824392 0.745865 0.850687
O O7 0.885231 0.784043 0.055345
O O8 0.521060 0.751482 0.878605
O O9 0.431542 0.804323 0.836040
O O10 0.480571 0.135394 0.816110
O O11 0.500000 0.000000 0.000000
O O12 0.951430 0.085962 0.177823
O O13 0.927410 0.044500 0.976756
O O14 0.347714 0.355941 0.305709
#
# Coordination Sequence:
#
# PCOD8144598 Si02
#       7
#     8   8   8   8   4   8   8
#     4  11  23  44  74 100 133 188 231 284 364 423
#     4  10  21  43  68  99 140 175 227 296 345 415
#     4  12  23  44  69  94 141 184 233 284 346 408
#     4  11  22  42  69  98 137 185 230 287 346 404
#     4  12  26  38  66 108 140 188 236 284 340 422
#     4  10  22  41  72  96 130 187 226 286 356 405
#     4  10  22  43  71 100 139 172 232 298 346 416
#
# _framework density 21.695633000000001
#
# number of rings (size 3 to 8) (size 9 to 14) (size 15 to 20)
#    0.000    1.231    4.615    0.923    0.000    0.615 
#    0.000   20.000    0.000    0.000    0.000    0.000 
#    0.000    0.000    0.000    0.000    0.000    0.000 
#
# Total GULP energy -322379.664758 kJ/mol
# GULP energy per Si atom -12399.217875 kJ/mol
# Density = 2.164625 g / cm^3
# Si number density = 21.695633 Si / 1000 Ang^3
#
#
#
# Elastic Constant Matrix: (Units=GPa)
#
#
# Indices 1 2 3 4 5 6 
#
# 1 136.9908 57.4939 65.1406 0.0000 7.6830 0.0000
# 2 57.4939 120.3221 52.9952 0.0000 4.2552 0.0000
# 3 65.1406 52.9952 106.9981 0.0000 -0.9530 0.0000
# 4 0.0000 0.0000 0.0000 43.5965 0.0000 14.3583
# 5 7.6830 4.2552 -0.9530 0.0000 27.7520 0.0000
# 6 0.0000 0.0000 0.0000 14.3583 0.0000 33.6128
#
#
#
# Elastic Compliance Matrix: (Units=1/GPa)
#
#
# Indices 1 2 3 4 5 6 
#
# 1 0.011263 -0.002877 -0.005458 0.000000 -0.002864 0.000000
# 2 -0.002877 0.011456 -0.003933 0.000000 -0.001095 0.000000
# 3 -0.005458 -0.003933 0.014640 0.000000 0.002617 0.000000
# 4 0.000000 0.000000 0.000000 0.026693 0.000000 -0.011402
# 5 -0.002864 -0.001095 0.002617 0.000000 0.037084 0.000000
# 6 0.000000 0.000000 0.000000 -0.011402 0.000000 0.034621
#
#
# Mechanical properties :
#
#
# Convention : Reuss Voigt Hill
#
# Bulk Modulus (GPa) = 77.97226 79.50783 78.74004
# Shear Modulus (GPa) = 30.38285 33.57100 31.97692
#
# Velocity S-wave (km/s) = 3.74627 3.93792 3.84329
# Velocity P-wave (km/s) = 7.39796 7.57646 7.48774
#
# Compressibility (1/GPa) = 0.01282507
#
# Stress axis : x y z
#
# Youngs Moduli (GPa) = 88.78737 87.28671 68.30765
#
# Poissons Ratio (x) = 0.25110 0.37279
# Poissons Ratio (y) = 0.25542 0.26863
# Poissons Ratio (z) = 0.48456 0.34327
#
# Static dielectric constant tensor:
#      x y z
#    x 4.161070 0.000000 0.236550 
#    y 0.000000 4.225380 0.000000 
#    z 0.236550 0.000000 3.795480 
# 
# 
# High freq. dielectric constant tensor:
#      x y z
#    x 1.851310 0.000000 0.027710 
#    y 0.000000 1.877210 0.000000 
#    z 0.027710 0.000000 1.829650 
# 
# From -- ./inp_files/180155.got.cif
#   From: 2010.06.25/outbox.cif.g09.slc.cpg/sg15_91_cif.got.tgz:180155.got - 2010.06.28 07:06:18.
