data_PCOD8144954
_publ_section_title
;
Structure prediction by ZEFSAII (Michael W. Deem and Ramdas Pophale) SiO2 
 PCOD8144954
Probable space group: C 2/C
;
_chemical_formula_sum "Si O2"
_cell_formula_units_Z 48
_cell_length_a 23.431914
_cell_length_b 5.383572
_cell_length_c 17.436892
_cell_angle_alpha 90.000000
_cell_angle_beta 88.428864
_cell_angle_gamma 90.000000
_cell_volume 2198.791585
_symmetry_space_group_name_H-M "C 2/C"
_symmetry_group_IT_number 15
_symmetry_cell_setting 'monoclinic'
loop_
_space_group_symop_operation_xyz
x,y,z
-x,y,1/2-z
-x,-y,-z
x,-y,1/2+z
1/2+x,1/2+y,z
1/2-x,1/2+y,1/2-z
1/2-x,1/2-y,-z
1/2+x,1/2-y,1/2+z
loop_
_atom_site_type_symbol
_atom_site_label
_atom_site_fract_x
_atom_site_fract_y
_atom_site_fract_z
Si Si1 0.358312 0.648809 0.616835
Si Si2 0.889713 0.505480 0.910683
Si Si3 0.708380 0.970153 0.984062
Si Si4 0.157179 0.420462 0.743438
Si Si5 0.767907 0.774620 0.655676
Si Si6 0.934105 0.013469 0.984283
O O1 0.346551 0.885932 0.564054
O O2 0.380926 0.742597 0.699004
O O3 0.295045 0.541599 0.637644
O O4 0.400651 0.467874 0.567878
O O5 0.886942 0.524311 0.818103
O O6 0.915023 0.768552 0.938082
O O7 0.925754 0.266420 0.936566
O O8 0.823429 0.449001 0.936647
O O9 0.741147 0.175513 0.932049
O O10 0.750000 0.750000 0.000000
O O11 0.185530 0.632667 0.794380
O O12 0.208153 0.265810 0.701551
O O13 0.000000 0.000000 0.000000
#
# Coordination Sequence:
#
# PCOD8144954 Si02
#       6
#     8   8   8   8   8   8
#     4  10  22  40  60  90 130 174 213 271 323 395
#     4  11  25  42  69 100 128 169 225 284 319 405
#     4  10  22  35  59  95 131 173 220 260 320 401
#     4  11  24  35  61  95 139 173 213 253 337 397
#     4  11  21  37  57  92 137 182 205 256 327 407
#     4  11  25  49  74  93 122 173 232 290 343 375
#
# _framework density 21.830171
#
# number of rings (size 3 to 8) (size 9 to 14) (size 15 to 20)
#    0.000    1.333    3.333    1.500    9.333    1.333 
#    0.000    0.833    0.000    0.000    0.000    0.000 
#    0.000    0.000    0.000    0.000    0.000    0.000 
#
# Total GULP energy -297355.344668 kJ/mol
# GULP energy per Si atom -12389.806028 kJ/mol
# Density = 2.178048 g / cm^3
# Si number density = 21.830171 Si / 1000 Ang^3
#
#
#
# Elastic Constant Matrix: (Units=GPa)
#
#
# Indices 1 2 3 4 5 6 
#
# 1 63.1083 3.6124 18.5951 0.0000 6.7995 0.0000
# 2 3.6124 82.8901 20.9982 0.0000 13.3604 0.0000
# 3 18.5951 20.9982 138.0725 0.0000 17.2663 0.0000
# 4 0.0000 0.0000 0.0000 33.6449 0.0000 5.3220
# 5 6.7995 13.3604 17.2663 0.0000 24.0288 0.0000
# 6 0.0000 0.0000 0.0000 5.3220 0.0000 31.4876
#
#
#
# Elastic Compliance Matrix: (Units=1/GPa)
#
#
# Indices 1 2 3 4 5 6 
#
# 1 0.016761 0.000318 -0.001857 0.000000 -0.003585 0.000000
# 2 0.000318 0.013442 -0.001254 0.000000 -0.006663 0.000000
# 3 -0.001857 -0.001254 0.008274 0.000000 -0.004723 0.000000
# 4 0.000000 0.000000 0.000000 0.030539 0.000000 -0.005162
# 5 -0.003585 -0.006663 -0.004723 0.000000 0.049729 0.000000
# 6 0.000000 0.000000 0.000000 -0.005162 0.000000 0.032631
#
#
# Mechanical properties :
#
#
# Convention : Reuss Voigt Hill
#
# Bulk Modulus (GPa) = 30.40402 41.16471 35.78437
# Shear Modulus (GPa) = 29.77499 33.88991 31.83245
#
# Velocity S-wave (km/s) = 3.69716 3.94437 3.82276
# Velocity P-wave (km/s) = 5.67301 6.29617 5.99270
#
# Compressibility (1/GPa) = 0.03289038
#
# Stress axis : x y z
#
# Youngs Moduli (GPa) = 59.66183 74.39428 120.86084
#
# Poissons Ratio (x) = -0.02365 0.22448
# Poissons Ratio (y) = -0.01897 0.15154
# Poissons Ratio (z) = 0.11081 0.09328
#
# Static dielectric constant tensor:
#      x y z
#    x 3.457570 0.000000 0.023890 
#    y 0.000000 3.898900 0.000000 
#    z 0.023890 0.000000 4.667600 
# 
# 
# High freq. dielectric constant tensor:
#      x y z
#    x 1.812580 0.000000 0.009450 
#    y 0.000000 1.862510 0.000000 
#    z 0.009450 0.000000 1.888870 
# 
# From -- ./inp_files/217483.got.cif
#   From: 2010.06.25/outbox.cif.g09.slc.cpg/sg15_109_cif.got.tgz:217483.got - 2010.06.28 07:06:18.
