data_PCOD8144594
_publ_section_title
;
Structure prediction by ZEFSAII (Michael W. Deem and Ramdas Pophale) SiO2 
 PCOD8144594
Probable space group: C 2/C
;
_chemical_formula_sum "Si O2"
_cell_formula_units_Z 40
_cell_length_a 14.179172
_cell_length_b 15.371021
_cell_length_c 7.928260
_cell_angle_alpha 90.000000
_cell_angle_beta 63.457470
_cell_angle_gamma 90.000000
_cell_volume 1545.830159
_symmetry_space_group_name_H-M "C 2/C"
_symmetry_group_IT_number 15
_symmetry_cell_setting 'monoclinic'
loop_
_space_group_symop_operation_xyz
x,y,z
-x,y,1/2-z
-x,-y,-z
x,-y,1/2+z
1/2+x,1/2+y,z
1/2-x,1/2+y,1/2-z
1/2-x,1/2-y,-z
1/2+x,1/2-y,1/2+z
loop_
_atom_site_type_symbol
_atom_site_label
_atom_site_fract_x
_atom_site_fract_y
_atom_site_fract_z
Si Si1 0.807265 0.121467 0.019219
Si Si2 0.622413 0.808657 0.479023
Si Si3 0.763614 0.350228 0.447299
Si Si4 0.382840 0.464680 0.120367
Si Si5 0.044181 0.590997 0.531218
O O1 0.686117 0.150946 0.086904
O O2 0.868951 0.081765 0.810005
O O3 0.873456 0.204757 0.028605
O O4 0.806951 0.049741 0.167071
O O5 0.676095 0.856304 0.277774
O O6 0.499401 0.836996 0.569358
O O7 0.750000 0.250000 0.500000
O O8 0.651655 0.398883 0.505000
O O9 0.829193 0.398498 0.546459
O O10 0.500000 0.500000 0.000000
O O11 0.000000 0.612634 0.750000
O O12 0.000000 0.500000 0.500000
#
# Coordination Sequence:
#
# PCOD8144594 Si02
#       5
#     8   8   8   8   8
#     4  10  22  42  65  95 133 178 221 284 345 404
#     4   9  21  43  68  93 135 174 225 280 338 411
#     4  10  23  41  66  98 132 177 221 276 338 398
#     4  11  24  41  63  97 137 173 224 274 340 410
#     4  10  21  43  68  97 128 172 220 273 333 399
#
# _framework density 25.876065000000001
#
# number of rings (size 3 to 8) (size 9 to 14) (size 15 to 20)
#    0.000    2.000    0.000    1.800    5.600    0.000 
#   10.800    0.000    0.000    0.000    0.000    0.000 
#    0.000    0.000    0.000    0.000    0.000    0.000 
#
# Total GULP energy -247850.996750 kJ/mol
# GULP energy per Si atom -12392.549837 kJ/mol
# Density = 2.581717 g / cm^3
# Si number density = 25.876065 Si / 1000 Ang^3
#
#
#
# Elastic Constant Matrix: (Units=GPa)
#
#
# Indices 1 2 3 4 5 6 
#
# 1 195.4721 94.9461 35.9495 0.0000 13.1880 0.0000
# 2 94.9461 192.2608 2.2067 0.0000 19.3195 0.0000
# 3 35.9495 2.2067 32.6753 0.0000 9.3748 0.0000
# 4 0.0000 0.0000 0.0000 41.2050 0.0000 13.2826
# 5 13.1880 19.3195 9.3748 0.0000 33.2558 0.0000
# 6 0.0000 0.0000 0.0000 13.2826 0.0000 63.2643
#
#
#
# Elastic Compliance Matrix: (Units=1/GPa)
#
#
# Indices 1 2 3 4 5 6 
#
# 1 0.009086 -0.004564 -0.010244 0.000000 0.001936 0.000000
# 2 -0.004564 0.007827 0.005742 0.000000 -0.004356 0.000000
# 3 -0.010244 0.005742 0.044910 0.000000 -0.011934 0.000000
# 4 0.000000 0.000000 0.000000 0.026031 0.000000 -0.005465
# 5 0.001936 -0.004356 -0.011934 0.000000 0.035197 0.000000
# 6 0.000000 0.000000 0.000000 -0.005465 0.000000 0.016954
#
#
# Mechanical properties :
#
#
# Convention : Reuss Voigt Hill
#
# Bulk Modulus (GPa) = 22.88699 76.29033 49.58866
# Shear Modulus (GPa) = 28.95201 46.69876 37.82538
#
# Velocity S-wave (km/s) = 3.34858 4.25279 3.82748
# Velocity P-wave (km/s) = 4.88003 7.32543 6.22402
#
# Compressibility (1/GPa) = 0.04369295
#
# Stress axis : x y z
#
# Youngs Moduli (GPa) = 110.05966 127.76388 22.26657
#
# Poissons Ratio (x) = 0.58311 0.22809
# Poissons Ratio (y) = 0.50231 -0.12786
# Poissons Ratio (z) = 1.12741 -0.73368
#
# Static dielectric constant tensor:
#      x y z
#    x 5.550800 0.000000 0.528290 
#    y 0.000000 4.605360 0.000000 
#    z 0.528290 0.000000 4.458360 
# 
# 
# High freq. dielectric constant tensor:
#      x y z
#    x 2.053870 0.000000 0.023600 
#    y 0.000000 2.040000 0.000000 
#    z 0.023600 0.000000 2.022910 
# 
# From -- ./inp_files/37871.got.cif
#   From: 2010.06.25/outbox.cif.g09.slc.cpg/sg15_19_cif.got.tgz:37871.got - 2010.06.28 07:06:18.
