data_PCOD8144328
_publ_section_title
;
Structure prediction by ZEFSAII (Michael W. Deem and Ramdas Pophale) SiO2 
 PCOD8144328
Probable space group: C 2/C
;
_chemical_formula_sum "Si O2"
_cell_formula_units_Z 64
_cell_length_a 23.912127
_cell_length_b 9.581446
_cell_length_c 13.819946
_cell_angle_alpha 90.000000
_cell_angle_beta 93.176575
_cell_angle_gamma 90.000000
_cell_volume 3161.460832
_symmetry_space_group_name_H-M "C 2/C"
_symmetry_group_IT_number 15
_symmetry_cell_setting 'monoclinic'
loop_
_space_group_symop_operation_xyz
x,y,z
-x,y,1/2-z
-x,-y,-z
x,-y,1/2+z
1/2+x,1/2+y,z
1/2-x,1/2+y,1/2-z
1/2-x,1/2-y,-z
1/2+x,1/2-y,1/2+z
loop_
_atom_site_type_symbol
_atom_site_label
_atom_site_fract_x
_atom_site_fract_y
_atom_site_fract_z
Si Si1 0.618728 0.492586 0.086763
Si Si2 0.837055 0.259407 0.518440
Si Si3 0.481633 0.898720 0.138411
Si Si4 0.503605 0.540685 0.859688
Si Si5 0.042073 0.321469 0.957690
Si Si6 0.397865 0.327202 0.592751
Si Si7 0.745917 0.175570 0.650139
Si Si8 0.693564 0.578647 0.264641
O O1 0.555270 0.524302 0.112037
O O2 0.657863 0.486138 0.184895
O O3 0.642357 0.612599 0.020827
O O4 0.619864 0.350791 0.021807
O O5 0.891822 0.347240 0.547896
O O6 0.804105 0.235312 0.614674
O O7 0.798646 0.344865 0.440189
O O8 0.500000 0.869047 0.250000
O O9 0.419978 0.830801 0.112324
O O10 0.483648 0.063061 0.116015
O O11 0.526593 0.833730 0.069033
O O12 0.500000 0.593214 0.750000
O O13 0.520046 0.671029 0.926063
O O14 0.550077 0.423550 0.873926
O O15 0.345027 0.364636 0.653326
O O16 0.722181 0.283788 0.725111
O O17 0.756927 0.022975 0.695212
#
# Coordination Sequence:
#
# PCOD8144328 Si02
#       8
#     8   8   8   8   8   8   8   8
#     4  11  21  38  66  98 125 158 208 259 311 365
#     4  10  21  42  68  83 122 171 207 260 314 362
#     4  11  26  40  59  93 133 166 200 245 313 389
#     4  12  21  35  67 101 126 164 205 249 303 380
#     4  11  23  43  60  90 133 167 202 248 310 380
#     4  12  22  39  65  94 129 158 209 255 307 373
#     4  10  23  43  64  91 120 159 220 263 313 368
#     4  11  24  42  65  95 122 164 211 269 314 372
#
# _framework density 20.243805999999999
#
# number of rings (size 3 to 8) (size 9 to 14) (size 15 to 20)
#    0.000    1.000    5.000    1.875    3.500    1.000 
#    2.250    0.625    0.000    0.000    0.000    0.000 
#    0.000    0.000    0.000    0.000    0.000    0.000 
#
# Total GULP energy -396778.379704 kJ/mol
# GULP energy per Si atom -12399.324366 kJ/mol
# Density = 2.019773 g / cm^3
# Si number density = 20.243806 Si / 1000 Ang^3
#
#
#
# Elastic Constant Matrix: (Units=GPa)
#
#
# Indices 1 2 3 4 5 6 
#
# 1 96.8675 16.0278 7.6136 0.0000 -17.4458 0.0000
# 2 16.0278 53.5310 2.6643 0.0000 -2.6954 0.0000
# 3 7.6136 2.6643 62.9337 0.0000 -17.0759 0.0000
# 4 0.0000 0.0000 0.0000 14.8725 0.0000 -0.9830
# 5 -17.4458 -2.6954 -17.0759 0.0000 30.5582 0.0000
# 6 0.0000 0.0000 0.0000 -0.9830 0.0000 30.2668
#
#
#
# Elastic Compliance Matrix: (Units=1/GPa)
#
#
# Indices 1 2 3 4 5 6 
#
# 1 0.012069 -0.003293 0.000554 0.000000 0.006909 0.000000
# 2 -0.003293 0.019672 -0.000558 0.000000 -0.000457 0.000000
# 3 0.000554 -0.000558 0.018764 0.000000 0.010752 0.000000
# 4 0.000000 0.000000 0.000000 0.067383 0.000000 0.002189
# 5 0.006909 -0.000457 0.010752 0.000000 0.042637 0.000000
# 6 0.000000 0.000000 0.000000 0.002189 0.000000 0.033111
#
#
# Mechanical properties :
#
#
# Convention : Reuss Voigt Hill
#
# Bulk Modulus (GPa) = 22.77424 29.54929 26.16176
# Shear Modulus (GPa) = 23.27023 27.60793 25.43908
#
# Velocity S-wave (km/s) = 3.39410 3.69693 3.54875
# Velocity P-wave (km/s) = 5.16085 5.73162 5.45371
#
# Compressibility (1/GPa) = 0.04390926
#
# Stress axis : x y z
#
# Youngs Moduli (GPa) = 82.85606 50.83472 53.29419
#
# Poissons Ratio (x) = 0.16741 -0.02953
# Poissons Ratio (y) = 0.27287 0.02976
# Poissons Ratio (z) = -0.04591 0.02839
#
# Static dielectric constant tensor:
#      x y z
#    x 3.937370 0.000000 -0.017370 
#    y 0.000000 3.566960 0.000000 
#    z -0.017370 0.000000 3.906540 
# 
# 
# High freq. dielectric constant tensor:
#      x y z
#    x 1.794000 0.000000 -0.011030 
#    y 0.000000 1.776400 0.000000 
#    z -0.011030 0.000000 1.803510 
# 
# From -- ./inp_files/172374.got.cif
#   From: 2010.06.25/outbox.cif.g09.slc.cpg/sg15_87_cif.got.tgz:172374.got - 2010.06.28 07:06:18.
