data_PCOD8144343
_publ_section_title
;
Structure prediction by ZEFSAII (Michael W. Deem and Ramdas Pophale) SiO2 
 PCOD8144343
Probable space group: C 2/C
;
_chemical_formula_sum "Si O2"
_cell_formula_units_Z 56
_cell_length_a 9.073612
_cell_length_b 22.690083
_cell_length_c 13.553646
_cell_angle_alpha 90.000000
_cell_angle_beta 74.244957
_cell_angle_gamma 90.000000
_cell_volume 2685.605295
_symmetry_space_group_name_H-M "C 2/C"
_symmetry_group_IT_number 15
_symmetry_cell_setting 'monoclinic'
loop_
_space_group_symop_operation_xyz
x,y,z
-x,y,1/2-z
-x,-y,-z
x,-y,1/2+z
1/2+x,1/2+y,z
1/2-x,1/2+y,1/2-z
1/2-x,1/2-y,-z
1/2+x,1/2-y,1/2+z
loop_
_atom_site_type_symbol
_atom_site_label
_atom_site_fract_x
_atom_site_fract_y
_atom_site_fract_z
Si Si1 0.258519 0.138513 0.536531
Si Si2 0.821795 0.501485 0.539835
Si Si3 0.135368 0.019138 0.905651
Si Si4 0.324297 0.426148 0.760281
Si Si5 0.159938 0.703883 0.780458
Si Si6 0.329396 0.818968 0.808205
Si Si7 0.063502 0.142416 0.843876
O O1 0.259337 0.068032 0.547918
O O2 0.343020 0.163027 0.620101
O O3 0.335592 0.161008 0.421836
O O4 0.078483 0.158638 0.558210
O O5 0.774706 0.464348 0.451841
O O6 0.751349 0.466969 0.643970
O O7 0.000000 0.500000 0.500000
O O8 0.101379 0.073458 0.841364
O O9 0.182355 0.962157 0.837891
O O10 0.000000 0.000000 0.000000
O O11 0.500000 0.408234 0.750000
O O12 0.219581 0.369630 0.759614
O O13 0.207199 0.767570 0.812564
O O14 0.281696 0.680908 0.674896
O O15 0.000000 0.705563 0.750000
O O16 0.500000 0.797691 0.750000
O O17 0.000000 0.157846 0.750000
#
# Coordination Sequence:
#
# PCOD8144343 Si02
#       7
#     8   8   8   8   8   8   8
#     4  11  22  46  70  96 132 179 218 265 333 393
#     4  12  26  40  64 103 137 171 218 264 332 393
#     4  12  21  40  66  97 132 175 217 260 328 398
#     4  12  23  40  66  95 136 174 216 274 321 390
#     4  11  26  46  69  99 128 169 226 280 328 385
#     4  12  25  46  68  96 131 177 221 274 328 391
#     4  10  21  42  68  95 131 174 218 264 326 397
#
# _framework density 20.85191
#
# number of rings (size 3 to 8) (size 9 to 14) (size 15 to 20)
#    0.000    0.571    4.286    5.143    2.000    0.000 
#    0.000    1.429    0.000    0.000    0.000    0.000 
#    0.000    0.000    0.000    0.000    0.000    0.000 
#
# Total GULP energy -346984.822887 kJ/mol
# GULP energy per Si atom -12392.315103 kJ/mol
# Density = 2.080445 g / cm^3
# Si number density = 20.851910 Si / 1000 Ang^3
#
#
#
# Elastic Constant Matrix: (Units=GPa)
#
#
# Indices 1 2 3 4 5 6 
#
# 1 155.6185 24.9389 47.1932 0.0000 -6.7480 0.0000
# 2 24.9389 89.6021 22.6083 0.0000 4.6885 0.0000
# 3 47.1932 22.6083 84.8046 0.0000 1.2575 0.0000
# 4 0.0000 0.0000 0.0000 28.0698 0.0000 5.4186
# 5 -6.7480 4.6885 1.2575 0.0000 27.7421 0.0000
# 6 0.0000 0.0000 0.0000 5.4186 0.0000 50.6135
#
#
#
# Elastic Compliance Matrix: (Units=1/GPa)
#
#
# Indices 1 2 3 4 5 6 
#
# 1 0.007991 -0.001304 -0.004134 0.000000 0.002351 0.000000
# 2 -0.001304 0.012277 -0.002513 0.000000 -0.002278 0.000000
# 3 -0.004134 -0.002513 0.014781 0.000000 -0.001251 0.000000
# 4 0.000000 0.000000 0.000000 0.036377 0.000000 -0.003895
# 5 0.002351 -0.002278 -0.001251 0.000000 0.037060 0.000000
# 6 0.000000 0.000000 0.000000 -0.003895 0.000000 0.020175
#
#
# Mechanical properties :
#
#
# Convention : Reuss Voigt Hill
#
# Bulk Modulus (GPa) = 52.23149 57.72287 54.97718
# Shear Modulus (GPa) = 33.12471 36.97072 35.04771
#
# Velocity S-wave (km/s) = 3.99001 4.21528 4.10419
# Velocity P-wave (km/s) = 6.80662 7.17174 6.99156
#
# Compressibility (1/GPa) = 0.01914554
#
# Stress axis : x y z
#
# Youngs Moduli (GPa) = 125.14750 81.45455 67.65475
#
# Poissons Ratio (x) = 0.10622 0.27968
# Poissons Ratio (y) = 0.16319 0.17005
# Poissons Ratio (z) = 0.51735 0.20473
#
# Static dielectric constant tensor:
#      x y z
#    x 3.907110 0.000000 -0.393230 
#    y 0.000000 3.802980 0.000000 
#    z -0.393230 0.000000 4.111420 
# 
# 
# High freq. dielectric constant tensor:
#      x y z
#    x 1.825290 0.000000 -0.003130 
#    y 0.000000 1.819140 0.000000 
#    z -0.003130 0.000000 1.821360 
# 
# From -- ./inp_files/137273.got.cif
#   From: 2010.06.25/outbox.cif.g09.slc.cpg/sg15_69_cif.got.tgz:137273.got - 2010.06.28 07:06:18.
