data_PCOD8144212
_publ_section_title
;
Structure prediction by ZEFSAII (Michael W. Deem and Ramdas Pophale) SiO2 
 PCOD8144212
Probable space group: C 2/C
;
_chemical_formula_sum "Si O2"
_cell_formula_units_Z 60
_cell_length_a 11.496205
_cell_length_b 8.891406
_cell_length_c 29.429578
_cell_angle_alpha 90.000000
_cell_angle_beta 110.417629
_cell_angle_gamma 90.000000
_cell_volume 2819.223645
_symmetry_space_group_name_H-M "C 2/C"
_symmetry_group_IT_number 15
_symmetry_cell_setting 'monoclinic'
loop_
_space_group_symop_operation_xyz
x,y,z
-x,y,1/2-z
-x,-y,-z
x,-y,1/2+z
1/2+x,1/2+y,z
1/2-x,1/2+y,1/2-z
1/2-x,1/2-y,-z
1/2+x,1/2-y,1/2+z
loop_
_atom_site_type_symbol
_atom_site_label
_atom_site_fract_x
_atom_site_fract_y
_atom_site_fract_z
Si Si1 0.806293 0.651406 0.687220
Si Si2 0.126450 0.678126 0.330643
Si Si3 0.588014 0.923691 0.548275
Si Si4 0.296714 0.588066 0.729693
Si Si5 0.500000 0.648218 0.250000
Si Si6 0.769309 0.830298 0.067586
Si Si7 0.949255 0.155356 0.511061
Si Si8 0.386817 0.111624 0.349475
O O1 0.816668 0.488756 0.666013
O O2 0.774182 0.645517 0.736043
O O3 0.936402 0.745064 0.702822
O O4 0.698714 0.745698 0.647474
O O5 0.136739 0.769005 0.285008
O O6 0.197845 0.770482 0.378642
O O7 0.982416 0.663517 0.323849
O O8 0.577262 0.750186 0.531978
O O9 0.543474 0.943925 0.594995
O O10 0.500000 0.000000 0.500000
O O11 0.724257 0.995735 0.563494
O O12 0.396058 0.460548 0.758107
O O13 0.196920 0.521954 0.681119
O O14 0.658109 0.722874 0.035545
O O15 0.891216 0.840879 0.053497
O O16 0.000000 0.000000 0.500000
#
# Coordination Sequence:
#
# PCOD8144212 Si02
#       8
#     8   8   8   8   4   8   8   8
#     4  11  25  40  63  94 127 161 216 263 315 378
#     4  12  23  39  67  94 124 168 212 257 320 377
#     4  10  21  42  65  92 131 169 209 265 324 380
#     4  11  23  42  64  89 127 169 209 259 323 378
#     4  10  22  42  58  86 120 162 204 256 308 368
#     4  10  22  40  63  93 127 164 205 259 313 379
#     4  10  22  41  66  91 125 163 210 258 318 376
#     4  11  23  41  64  94 129 166 212 266 316 384
#
# _framework density 21.282453
#
# number of rings (size 3 to 8) (size 9 to 14) (size 15 to 20)
#    0.000    1.333    2.667    3.200    1.867    2.133 
#    0.000    2.667    0.000    0.000    0.000    0.000 
#    0.000    0.000    0.000    0.000    0.000    0.000 
#
# Total GULP energy -371800.562668 kJ/mol
# GULP energy per Si atom -12393.352089 kJ/mol
# Density = 2.123401 g / cm^3
# Si number density = 21.282453 Si / 1000 Ang^3
#
#
#
# Elastic Constant Matrix: (Units=GPa)
#
#
# Indices 1 2 3 4 5 6 
#
# 1 91.0774 54.9961 32.3200 0.0000 8.3415 0.0000
# 2 54.9961 125.2256 30.9021 0.0000 -2.1344 0.0000
# 3 32.3200 30.9021 98.4004 0.0000 -5.1228 0.0000
# 4 0.0000 0.0000 0.0000 25.9665 0.0000 -7.6117
# 5 8.3415 -2.1344 -5.1228 0.0000 16.6717 0.0000
# 6 0.0000 0.0000 0.0000 -7.6117 0.0000 33.5229
#
#
#
# Elastic Compliance Matrix: (Units=1/GPa)
#
#
# Indices 1 2 3 4 5 6 
#
# 1 0.017645 -0.006900 -0.004201 0.000000 -0.011003 0.000000
# 2 -0.006900 0.011356 -0.001062 0.000000 0.004580 0.000000
# 3 -0.004201 -0.001062 0.012173 0.000000 0.005707 0.000000
# 4 0.000000 0.000000 0.000000 0.041257 0.000000 0.009368
# 5 -0.011003 0.004580 0.005707 0.000000 0.067827 0.000000
# 6 0.000000 0.000000 0.000000 0.009368 0.000000 0.031957
#
#
# Mechanical properties :
#
#
# Convention : Reuss Voigt Hill
#
# Bulk Modulus (GPa) = 59.35446 61.23777 60.29611
# Shear Modulus (GPa) = 23.56749 28.33123 25.94936
#
# Velocity S-wave (km/s) = 3.33132 3.65252 3.49561
# Velocity P-wave (km/s) = 6.53807 6.82819 6.68471
#
# Compressibility (1/GPa) = 0.01684793
#
# Stress axis : x y z
#
# Youngs Moduli (GPa) = 56.67422 88.06024 82.14906
#
# Poissons Ratio (x) = 0.60761 0.34514
# Poissons Ratio (y) = 0.39105 0.08720
# Poissons Ratio (z) = 0.23811 0.09348
#
# Static dielectric constant tensor:
#      x y z
#    x 4.100640 0.000000 0.241420 
#    y 0.000000 4.227800 0.000000 
#    z 0.241420 0.000000 3.887400 
# 
# 
# High freq. dielectric constant tensor:
#      x y z
#    x 1.825970 0.000000 0.010150 
#    y 0.000000 1.846760 0.000000 
#    z 0.010150 0.000000 1.834560 
# 
# From -- ./inp_files/291581.got.cif
#   From: 2010.06.25/outbox.cif.g09.slc.cpg/sg15_146_cif.got.tgz:291581.got - 2010.06.28 07:06:18.
