data_PCOD8144341
_publ_section_title
;
Structure prediction by ZEFSAII (Michael W. Deem and Ramdas Pophale) SiO2 
 PCOD8144341
Probable space group: C 2/C
;
_chemical_formula_sum "Si O2"
_cell_formula_units_Z 40
_cell_length_a 19.388622
_cell_length_b 6.879023
_cell_length_c 18.250742
_cell_angle_alpha 90.000000
_cell_angle_beta 46.859207
_cell_angle_gamma 90.000000
_cell_volume 1776.168103
_symmetry_space_group_name_H-M "C 2/C"
_symmetry_group_IT_number 15
_symmetry_cell_setting 'monoclinic'
loop_
_space_group_symop_operation_xyz
x,y,z
-x,y,1/2-z
-x,-y,-z
x,-y,1/2+z
1/2+x,1/2+y,z
1/2-x,1/2+y,1/2-z
1/2-x,1/2-y,-z
1/2+x,1/2-y,1/2+z
loop_
_atom_site_type_symbol
_atom_site_label
_atom_site_fract_x
_atom_site_fract_y
_atom_site_fract_z
Si Si1 0.111180 0.716653 0.812413
Si Si2 0.796298 0.988736 0.159016
Si Si3 0.733438 0.167556 0.932722
Si Si4 0.102612 0.887482 0.671028
Si Si5 0.602511 0.813728 0.016481
O O1 0.135532 0.929905 0.827085
O O2 0.196567 0.569255 0.770415
O O3 0.103789 0.712446 0.729262
O O4 0.008948 0.658914 0.919063
O O5 0.777975 0.156884 0.114208
O O6 0.845881 0.801645 0.086464
O O7 0.824866 0.041023 0.849320
O O8 0.750000 0.250000 0.000000
O O9 0.641264 0.031465 0.995114
O O10 0.125636 0.805766 0.574006
O O11 0.000000 0.988378 0.750000
#
# Coordination Sequence:
#
# PCOD8144341 Si02
#       5
#     8   8   8   8   8
#     4  11  25  44  69  99 136 181 224 281 343 398
#     4  12  25  46  67  97 140 176 226 286 336 409
#     4  12  23  40  70  97 132 177 223 278 340 403
#     4  10  21  42  68  94 133 176 224 277 333 404
#     4  11  24  46  70  98 136 178 228 282 337 407
#
# _framework density 22.520389999999999
#
# number of rings (size 3 to 8) (size 9 to 14) (size 15 to 20)
#    0.000    0.800    4.000    3.600    0.000    2.400 
#    3.600    0.000    0.000    0.000    0.000    0.000 
#    0.000    0.000    0.000    0.000    0.000    0.000 
#
# Total GULP energy -247968.852674 kJ/mol
# GULP energy per Si atom -12398.442634 kJ/mol
# Density = 2.246913 g / cm^3
# Si number density = 22.520390 Si / 1000 Ang^3
#
#
#
# Elastic Constant Matrix: (Units=GPa)
#
#
# Indices 1 2 3 4 5 6 
#
# 1 103.5631 30.3497 47.5635 0.0008 -31.8047 -0.0006
# 2 30.3497 98.2782 49.0909 -0.0023 -19.8767 0.0031
# 3 47.5635 49.0909 93.3025 -0.0011 -30.2541 0.0000
# 4 0.0008 -0.0023 -0.0011 19.8045 0.0012 5.9034
# 5 -31.8047 -19.8767 -30.2541 0.0012 58.2620 -0.0001
# 6 -0.0006 0.0031 0.0000 5.9034 -0.0001 39.0261
#
#
#
# Elastic Compliance Matrix: (Units=1/GPa)
#
#
# Indices 1 2 3 4 5 6 
#
# 1 0.013595 -0.000751 -0.005065 -0.000001 0.004535 0.000000
# 2 -0.000751 0.013906 -0.006648 0.000002 0.000882 -0.000001
# 3 -0.005065 -0.006648 0.018236 0.000000 0.004437 0.000000
# 4 -0.000001 0.000002 0.000000 0.052878 -0.000001 -0.007999
# 5 0.004535 0.000882 0.004437 -0.000001 0.022244 0.000000
# 6 0.000000 -0.000001 0.000000 -0.007999 0.000000 0.026834
#
#
# Mechanical properties :
#
#
# Convention : Reuss Voigt Hill
#
# Bulk Modulus (GPa) = 48.05369 61.01688 54.53529
# Shear Modulus (GPa) = 27.84633 34.62783 31.23708
#
# Velocity S-wave (km/s) = 3.52020 3.92551 3.72836
# Velocity P-wave (km/s) = 6.15683 6.90645 6.54238
#
# Compressibility (1/GPa) = 0.02081006
#
# Stress axis : x y z
#
# Youngs Moduli (GPa) = 73.55718 71.91039 54.83668
#
# Poissons Ratio (x) = 0.05402 0.27772
# Poissons Ratio (y) = 0.05526 0.36454
# Poissons Ratio (z) = 0.37253 0.47804
#
# Static dielectric constant tensor:
#      x y z
#    x 4.456990 0.000010 0.188050 
#    y 0.000010 3.947020 0.000000 
#    z 0.188050 0.000000 4.256330 
# 
# 
# High freq. dielectric constant tensor:
#      x y z
#    x 1.908470 0.000000 0.001290 
#    y 0.000000 1.872140 0.000000 
#    z 0.001290 0.000000 1.899580 
# 
# From -- ./inp_files/251005.got.cif
#   From: 2010.06.25/outbox.cif.g09.slc.cpg/sg15_126_cif.got.tgz:251005.got - 2010.06.28 07:06:18.
