data_PCOD8144507
_publ_section_title
;
Structure prediction by ZEFSAII (Michael W. Deem and Ramdas Pophale) SiO2 
 PCOD8144507
Probable space group: C 2/C
;
_chemical_formula_sum "Si O2"
_cell_formula_units_Z 56
_cell_length_a 18.228652
_cell_length_b 11.652566
_cell_length_c 13.926977
_cell_angle_alpha 90.000000
_cell_angle_beta 63.355633
_cell_angle_gamma 90.000000
_cell_volume 2644.093784
_symmetry_space_group_name_H-M "C 2/C"
_symmetry_group_IT_number 15
_symmetry_cell_setting 'monoclinic'
loop_
_space_group_symop_operation_xyz
x,y,z
-x,y,1/2-z
-x,-y,-z
x,-y,1/2+z
1/2+x,1/2+y,z
1/2-x,1/2+y,1/2-z
1/2-x,1/2-y,-z
1/2+x,1/2-y,1/2+z
loop_
_atom_site_type_symbol
_atom_site_label
_atom_site_fract_x
_atom_site_fract_y
_atom_site_fract_z
Si Si1 0.228477 0.494359 0.225270
Si Si2 0.145618 0.952410 0.196084
Si Si3 0.564035 0.877078 0.363295
Si Si4 0.037252 0.590897 0.095272
Si Si5 0.120106 0.686612 0.232667
Si Si6 0.961341 0.881142 0.619745
Si Si7 0.373890 0.497224 0.008345
O O1 0.268554 0.491839 0.307530
O O2 0.147603 0.417319 0.263439
O O3 0.204723 0.626874 0.216806
O O4 0.294915 0.446382 0.109853
O O5 0.128617 0.821621 0.231330
O O6 0.070969 0.030627 0.279807
O O7 0.155062 0.957897 0.076983
O O8 0.578449 0.886220 0.468985
O O9 0.548375 0.748067 0.337685
O O10 0.486481 0.955988 0.377199
O O11 0.098657 0.634416 0.140913
O O12 0.951928 0.660409 0.149479
O O13 0.057553 0.899487 0.543527
O O14 0.911048 0.898621 0.550181
#
# Coordination Sequence:
#
# PCOD8144507 Si02
#       7
#     8   8   8   8   8   8   8
#     4  10  25  41  62  96 130 164 214 272 328 382
#     4  11  24  40  67  94 128 173 216 264 334 388
#     4  10  21  43  65  96 131 167 217 271 329 382
#     4   9  21  39  70  93 121 174 218 271 321 382
#     4  10  22  41  65  94 127 165 226 270 313 396
#     4  10  23  41  67  94 132 166 222 266 319 397
#     4  10  23  42  63  99 124 173 216 260 330 385
#
# _framework density 21.179278
#
# number of rings (size 3 to 8) (size 9 to 14) (size 15 to 20)
#    0.000    2.000    0.000    1.286   16.000    0.571 
#   10.286    0.714    0.000    0.000    0.000    0.000 
#    0.000    0.000    0.000    0.000    0.000    0.000 
#
# Total GULP energy -347222.158979 kJ/mol
# GULP energy per Si atom -12400.791392 kJ/mol
# Density = 2.113107 g / cm^3
# Si number density = 21.179278 Si / 1000 Ang^3
#
#
#
# Elastic Constant Matrix: (Units=GPa)
#
#
# Indices 1 2 3 4 5 6 
#
# 1 86.5904 43.0453 27.0153 0.0000 -2.8851 0.0000
# 2 43.0453 164.2180 35.0631 0.0000 -4.1079 0.0000
# 3 27.0153 35.0631 88.0964 0.0000 -4.5043 0.0000
# 4 0.0000 0.0000 0.0000 21.0481 0.0000 -1.8307
# 5 -2.8851 -4.1079 -4.5043 0.0000 38.7870 0.0000
# 6 0.0000 0.0000 0.0000 -1.8307 0.0000 18.6035
#
#
#
# Elastic Compliance Matrix: (Units=1/GPa)
#
#
# Indices 1 2 3 4 5 6 
#
# 1 0.014017 -0.003007 -0.003083 0.000000 0.000366 0.000000
# 2 -0.003007 0.007306 -0.001969 0.000000 0.000321 0.000000
# 3 -0.003083 -0.001969 0.013136 0.000000 0.001088 0.000000
# 4 0.000000 0.000000 0.000000 0.047920 0.000000 0.004716
# 5 0.000366 0.000321 0.001088 0.000000 0.025969 0.000000
# 6 0.000000 0.000000 0.000000 0.004716 0.000000 0.054218
#
#
# Mechanical properties :
#
#
# Convention : Reuss Voigt Hill
#
# Bulk Modulus (GPa) = 54.52247 61.01691 57.76969
# Shear Modulus (GPa) = 27.05635 31.27310 29.16473
#
# Velocity S-wave (km/s) = 3.57808 3.84681 3.71488
# Velocity P-wave (km/s) = 6.54747 6.97158 6.76285
#
# Compressibility (1/GPa) = 0.01834106
#
# Stress axis : x y z
#
# Youngs Moduli (GPa) = 71.33961 136.87053 76.12613
#
# Poissons Ratio (x) = 0.41155 0.23470
# Poissons Ratio (y) = 0.21451 0.14992
# Poissons Ratio (z) = 0.21994 0.26956
#
# Static dielectric constant tensor:
#      x y z
#    x 3.855390 0.000000 0.009250 
#    y 0.000000 3.736490 0.000000 
#    z 0.009250 0.000000 3.882890 
# 
# 
# High freq. dielectric constant tensor:
#      x y z
#    x 1.827490 0.000000 0.000300 
#    y 0.000000 1.821100 0.000000 
#    z 0.000300 0.000000 1.834950 
# 
# From -- ./inp_files/160816.got.cif
#   From: 2010.06.25/outbox.cif.g09.slc.cpg/sg15_81_cif.got.tgz:160816.got - 2010.06.28 07:06:18.
