data_PCOD8144778
_publ_section_title
;
Structure prediction by ZEFSAII (Michael W. Deem and Ramdas Pophale) SiO2 
 PCOD8144778
Probable space group: C 2/C
;
_chemical_formula_sum "Si O2"
_cell_formula_units_Z 64
_cell_length_a 17.292101
_cell_length_b 15.100449
_cell_length_c 17.817118
_cell_angle_alpha 90.000000
_cell_angle_beta 139.662935
_cell_angle_gamma 90.000000
_cell_volume 3011.405883
_symmetry_space_group_name_H-M "C 2/C"
_symmetry_group_IT_number 15
_symmetry_cell_setting 'monoclinic'
loop_
_space_group_symop_operation_xyz
x,y,z
-x,y,1/2-z
-x,-y,-z
x,-y,1/2+z
1/2+x,1/2+y,z
1/2-x,1/2+y,1/2-z
1/2-x,1/2-y,-z
1/2+x,1/2-y,1/2+z
loop_
_atom_site_type_symbol
_atom_site_label
_atom_site_fract_x
_atom_site_fract_y
_atom_site_fract_z
Si Si1 0.681825 0.039776 0.654226
Si Si2 0.568107 0.623212 0.877842
Si Si3 0.151966 0.771177 0.036060
Si Si4 0.625509 0.836455 0.375729
Si Si5 0.420843 0.580177 0.912608
Si Si6 0.955048 0.634110 0.438236
Si Si7 0.935494 0.314539 0.624391
Si Si8 0.274709 0.016039 0.981283
O O1 0.782408 0.058572 0.791290
O O2 0.587564 0.121311 0.574262
O O3 0.746912 0.013327 0.624163
O O4 0.601716 0.959717 0.625420
O O5 0.500000 0.620679 0.750000
O O6 0.478006 0.617817 0.879805
O O7 0.634520 0.719681 0.931858
O O8 0.657460 0.539801 0.942969
O O9 0.289471 0.802620 0.128844
O O10 0.074254 0.848909 0.016104
O O11 0.138319 0.684585 0.077488
O O12 0.105445 0.745219 0.918508
O O13 0.500000 0.866511 0.250000
O O14 0.679594 0.921631 0.457466
O O15 0.500000 0.500000 0.000000
O O16 0.966917 0.688771 0.370238
O O17 0.861309 0.402658 0.559789
O O18 0.000000 0.322765 0.750000
#
# Coordination Sequence:
#
# PCOD8144778 Si02
#       8
#     8   8   8   8   8   8   8   8
#     4  10  23  41  71  98 131 181 222 281 343 394
#     4  11  22  41  64  94 140 180 221 274 338 408
#     4  11  25  46  66 102 134 174 231 278 342 411
#     4  11  26  46  72  99 134 177 226 289 348 409
#     4  12  26  45  65 100 140 181 229 280 343 412
#     4  10  21  44  71  97 133 173 230 279 336 406
#     4  10  22  38  66 100 133 174 222 274 335 403
#     4  11  21  42  68  98 135 174 226 278 338 405
#
# _framework density 21.252531000000001
#
# number of rings (size 3 to 8) (size 9 to 14) (size 15 to 20)
#    0.000    1.250    3.750    1.500    1.750    3.000 
#    0.000    0.625    0.000    0.000    0.000    0.000 
#    0.000    0.000    0.000    0.000    0.000    0.000 
#
# Total GULP energy -396609.904314 kJ/mol
# GULP energy per Si atom -12394.059510 kJ/mol
# Density = 2.120416 g / cm^3
# Si number density = 21.252531 Si / 1000 Ang^3
#
#
#
# Elastic Constant Matrix: (Units=GPa)
#
#
# Indices 1 2 3 4 5 6 
#
# 1 129.8888 48.2083 35.4409 -0.0001 -7.5853 0.0000
# 2 48.2083 116.8921 51.5594 -0.0001 -1.9377 0.0000
# 3 35.4409 51.5594 87.1853 -0.0003 -2.9952 -0.0001
# 4 -0.0001 -0.0001 -0.0003 220.9605 -0.0002 47.6296
# 5 -7.5853 -1.9377 -2.9952 -0.0002 27.9266 0.0000
# 6 0.0000 0.0000 -0.0001 47.6296 0.0000 53.3693
#
#
#
# Elastic Compliance Matrix: (Units=1/GPa)
#
#
# Indices 1 2 3 4 5 6 
#
# 1 0.009483 -0.002987 -0.002015 0.000000 0.002152 0.000000
# 2 -0.002987 0.012515 -0.006208 0.000000 -0.000609 0.000000
# 3 -0.002015 -0.006208 0.015985 0.000000 0.000737 0.000000
# 4 0.000000 0.000000 0.000000 0.005604 0.000000 -0.005001
# 5 0.002152 -0.000609 0.000737 0.000000 0.036430 0.000000
# 6 0.000000 0.000000 0.000000 -0.005001 0.000000 0.023201
#
#
# Mechanical properties :
#
#
# Convention : Reuss Voigt Hill
#
# Bulk Modulus (GPa) = 64.24778 67.15372 65.70075
# Shear Modulus (GPa) = 38.21972 73.70178 55.96075
#
# Velocity S-wave (km/s) = 4.24531 5.89528 5.13697
# Velocity P-wave (km/s) = 7.37065 8.83208 8.13425
#
# Compressibility (1/GPa) = 0.01556474
#
# Stress axis : x y z
#
# Youngs Moduli (GPa) = 105.45464 79.90626 62.55788
#
# Poissons Ratio (x) = 0.23864 0.12603
# Poissons Ratio (y) = 0.31495 0.38834
# Poissons Ratio (z) = 0.21245 0.49604
#
# Static dielectric constant tensor:
#      x y z
#    x 4.001150 0.000000 -0.100480 
#    y 0.000000 4.092390 0.000000 
#    z -0.100480 0.000000 3.537140 
# 
# 
# High freq. dielectric constant tensor:
#      x y z
#    x 1.853750 0.000000 -0.010030 
#    y 0.000000 1.845780 0.000000 
#    z -0.010030 0.000000 1.804640 
# 
# From -- ./inp_files/211408.got.cif
#   From: 2010.06.25/outbox.cif.g09.slc.cpg/sg15_106_cif.got.tgz:211408.got - 2010.06.28 07:06:18.
