data_PCOD8144188
_publ_section_title
;
Structure prediction by ZEFSAII (Michael W. Deem and Ramdas Pophale) SiO2 
 PCOD8144188
Probable space group: C 2/C
;
_chemical_formula_sum "Si O2"
_cell_formula_units_Z 56
_cell_length_a 11.360967
_cell_length_b 21.927251
_cell_length_c 11.006895
_cell_angle_alpha 90.000000
_cell_angle_beta 108.718949
_cell_angle_gamma 90.000000
_cell_volume 2596.940915
_symmetry_space_group_name_H-M "C 2/C"
_symmetry_group_IT_number 15
_symmetry_cell_setting 'monoclinic'
loop_
_space_group_symop_operation_xyz
x,y,z
-x,y,1/2-z
-x,-y,-z
x,-y,1/2+z
1/2+x,1/2+y,z
1/2-x,1/2+y,1/2-z
1/2-x,1/2-y,-z
1/2+x,1/2-y,1/2+z
loop_
_atom_site_type_symbol
_atom_site_label
_atom_site_fract_x
_atom_site_fract_y
_atom_site_fract_z
Si Si1 0.162480 0.437393 0.923662
Si Si2 0.481348 0.111452 0.552266
Si Si3 0.366525 0.582453 0.685427
Si Si4 0.173951 0.436876 0.311750
Si Si5 0.424061 0.290697 0.077416
Si Si6 0.788734 0.690656 0.168296
Si Si7 0.645285 0.769945 0.558541
O O1 0.150564 0.490827 0.820459
O O2 0.190856 0.379510 0.852144
O O3 0.031479 0.424758 0.950171
O O4 0.275167 0.450184 0.057679
O O5 0.346947 0.087959 0.557112
O O6 0.579633 0.097159 0.690227
O O7 0.461721 0.183600 0.525871
O O8 0.500000 0.549257 0.750000
O O9 0.308238 0.579090 0.801679
O O10 0.392067 0.651314 0.649909
O O11 0.400728 0.230855 0.151183
O O12 0.567988 0.289017 0.081181
O O13 0.340809 0.287220 0.930022
O O14 0.779342 0.697569 0.309122
O O15 0.750000 0.750000 0.500000
#
# Coordination Sequence:
#
# PCOD8144188 Si02
#       7
#     8   8   8   8   8   8   8
#     4  10  21  42  64  95 126 178 229 274 342 394
#     4  10  23  40  61  99 128 172 217 275 341 390
#     4  10  22  39  67  93 129 178 226 278 339 408
#     4  10  23  40  66  93 134 171 223 286 326 403
#     4  10  22  42  66  94 129 173 224 266 339 404
#     4  10  22  40  67  91 128 173 216 275 327 412
#     4  12  26  39  65 100 134 171 219 276 339 403
#
# _framework density 21.563832999999999
#
# number of rings (size 3 to 8) (size 9 to 14) (size 15 to 20)
#    0.000    1.714    1.429    1.714    6.000    6.857 
#    0.000    0.000    6.286    0.000    0.000    0.000 
#    0.000    0.000    0.000    0.000    0.000    0.000 
#
# Total GULP energy -346914.374407 kJ/mol
# GULP energy per Si atom -12389.799086 kJ/mol
# Density = 2.151475 g / cm^3
# Si number density = 21.563833 Si / 1000 Ang^3
#
#
#
# Elastic Constant Matrix: (Units=GPa)
#
#
# Indices 1 2 3 4 5 6 
#
# 1 158.9707 36.6436 66.7670 0.0000 -32.9203 0.0000
# 2 36.6436 94.9832 42.5583 0.0000 -14.2127 0.0000
# 3 66.7670 42.5583 120.0992 0.0000 -10.9531 0.0000
# 4 0.0000 0.0000 0.0000 20.0918 0.0000 -9.5104
# 5 -32.9203 -14.2127 -10.9531 0.0000 37.7533 0.0000
# 6 0.0000 0.0000 0.0000 -9.5104 0.0000 27.5839
#
#
#
# Elastic Compliance Matrix: (Units=1/GPa)
#
#
# Indices 1 2 3 4 5 6 
#
# 1 0.009815 -0.000694 -0.004575 0.000000 0.006970 0.000000
# 2 -0.000694 0.013036 -0.003946 0.000000 0.003158 0.000000
# 3 -0.004575 -0.003946 0.012089 0.000000 -0.001968 0.000000
# 4 0.000000 0.000000 0.000000 0.059478 0.000000 0.020507
# 5 0.006970 0.003158 -0.001968 0.000000 0.033184 0.000000
# 6 0.000000 0.000000 0.000000 0.020507 0.000000 0.043323
#
#
# Mechanical properties :
#
#
# Convention : Reuss Voigt Hill
#
# Bulk Modulus (GPa) = 60.56596 73.99899 67.28248
# Shear Modulus (GPa) = 25.65956 32.29142 28.97549
#
# Velocity S-wave (km/s) = 3.45329 3.87393 3.66964
# Velocity P-wave (km/s) = 6.63687 7.37567 7.01600
#
# Compressibility (1/GPa) = 0.01651092
#
# Stress axis : x y z
#
# Youngs Moduli (GPa) = 101.88108 76.70857 82.72163
#
# Poissons Ratio (x) = 0.05321 0.37846
# Poissons Ratio (y) = 0.07068 0.32641
# Poissons Ratio (z) = 0.46612 0.30268
#
# Static dielectric constant tensor:
#      x y z
#    x 4.595740 0.000000 -0.308330 
#    y 0.000000 3.733210 0.000000 
#    z -0.308330 0.000000 4.288410 
# 
# 
# High freq. dielectric constant tensor:
#      x y z
#    x 1.846310 0.000000 -0.007950 
#    y 0.000000 1.830970 0.000000 
#    z -0.007950 0.000000 1.850500 
# 
# From -- ./inp_files/89053.got.cif
#   From: 2010.06.25/outbox.cif.g09.slc.cpg/sg15_45_cif.got.tgz:89053.got - 2010.06.28 07:06:18.
