data_PCOD8144166
_publ_section_title
;
Structure prediction by ZEFSAII (Michael W. Deem and Ramdas Pophale) SiO2 
 PCOD8144166
Probable space group: C 2/C
;
_chemical_formula_sum "Si O2"
_cell_formula_units_Z 52
_cell_length_a 7.295022
_cell_length_b 12.699214
_cell_length_c 27.384268
_cell_angle_alpha 90.000000
_cell_angle_beta 82.346247
_cell_angle_gamma 90.000000
_cell_volume 2514.305976
_symmetry_space_group_name_H-M "C 2/C"
_symmetry_group_IT_number 15
_symmetry_cell_setting 'monoclinic'
loop_
_space_group_symop_operation_xyz
x,y,z
-x,y,1/2-z
-x,-y,-z
x,-y,1/2+z
1/2+x,1/2+y,z
1/2-x,1/2+y,1/2-z
1/2-x,1/2-y,-z
1/2+x,1/2-y,1/2+z
loop_
_atom_site_type_symbol
_atom_site_label
_atom_site_fract_x
_atom_site_fract_y
_atom_site_fract_z
Si Si1 0.757029 0.713707 0.944698
Si Si2 0.451733 0.963699 0.055301
Si Si3 0.920176 0.874993 0.409628
Si Si4 0.308479 0.124996 0.133038
Si Si5 0.144689 0.720695 0.170193
Si Si6 0.435129 0.529292 0.170192
Si Si7 0.500000 0.625010 0.750000
O O1 0.545297 0.680824 0.944851
O O2 0.799009 0.801603 0.902301
O O3 0.909466 0.624998 0.931041
O O4 0.750000 0.750000 0.000000
O O5 0.240165 0.930798 0.055144
O O6 0.451295 0.051591 0.097700
O O7 0.500000 0.000000 0.000000
O O8 0.811763 0.792930 0.378225
O O9 0.059981 0.957065 0.378229
O O10 0.433383 0.181703 0.169361
O O11 0.147257 0.068295 0.169365
O O12 0.289094 0.624990 0.171809
O O13 0.145627 0.798331 0.217024
O O14 0.387360 0.451649 0.217021
#
# Coordination Sequence:
#
# PCOD8144166 Si02
#       7
#     8   8   8   8   8   8   4
#     4  11  21  37  56  88 121 160 211 252 294 359
#     4  11  21  37  56  88 121 160 211 252 294 359
#     4   9  22  39  58  86 123 162 204 250 307 362
#     4  10  22  40  62  88 121 168 197 247 319 360
#     4  10  21  42  64  88 124 157 198 256 314 368
#     4  10  21  42  64  88 124 157 198 256 314 368
#     4  10  24  40  66 102 116 150 218 252 302 402
#
# _framework density 20.681650999999999
#
# number of rings (size 3 to 8) (size 9 to 14) (size 15 to 20)
#    0.000    1.846    1.538    1.846    2.154    1.231 
#    2.769    1.538    0.000    0.000    0.000    0.000 
#    0.000    0.000    0.000    0.000    0.000    0.000 
#
# Total GULP energy -322192.055039 kJ/mol
# GULP energy per Si atom -12392.002117 kJ/mol
# Density = 2.063458 g / cm^3
# Si number density = 20.681651 Si / 1000 Ang^3
#
#
#
# Elastic Constant Matrix: (Units=GPa)
#
#
# Indices 1 2 3 4 5 6 
#
# 1 72.9106 51.5926 61.8514 0.0000 1.6024 0.0000
# 2 51.5926 135.9232 57.4057 0.0000 0.8497 0.0000
# 3 61.8514 57.4057 110.5482 0.0000 3.9123 0.0000
# 4 0.0000 0.0000 0.0000 4.2806 0.0000 -8.1866
# 5 1.6024 0.8497 3.9123 0.0000 11.3377 0.0000
# 6 0.0000 0.0000 0.0000 -8.1866 0.0000 60.0740
#
#
#
# Elastic Compliance Matrix: (Units=1/GPa)
#
#
# Indices 1 2 3 4 5 6 
#
# 1 0.028803 -0.005275 -0.013409 0.000000 0.000952 0.000000
# 2 -0.005275 0.010401 -0.002479 0.000000 0.000821 0.000000
# 3 -0.013409 -0.002479 0.017981 0.000000 -0.004124 0.000000
# 4 0.000000 0.000000 0.000000 0.315957 0.000000 0.043057
# 5 0.000952 0.000821 -0.004124 0.000000 0.089428 0.000000
# 6 0.000000 0.000000 0.000000 0.043057 0.000000 0.022514
#
#
# Mechanical properties :
#
#
# Convention : Reuss Voigt Hill
#
# Bulk Modulus (GPa) = 67.30110 73.45349 70.37730
# Shear Modulus (GPa) = 9.39207 25.04061 17.21634
#
# Velocity S-wave (km/s) = 2.13333 3.48338 2.88834
# Velocity P-wave (km/s) = 6.21935 7.19527 6.72504
#
# Compressibility (1/GPa) = 0.01485860
#
# Stress axis : x y z
#
# Youngs Moduli (GPa) = 34.71874 96.14289 55.61301
#
# Poissons Ratio (x) = 0.50719 0.74574
# Poissons Ratio (y) = 0.18316 0.13784
# Poissons Ratio (z) = 0.46556 0.23830
#
# Static dielectric constant tensor:
#      x y z
#    x 3.065210 0.000000 0.078490 
#    y 0.000000 3.701690 0.000000 
#    z 0.078490 0.000000 3.601270 
# 
# 
# High freq. dielectric constant tensor:
#      x y z
#    x 1.794880 0.000000 0.001750 
#    y 0.000000 1.829740 0.000000 
#    z 0.001750 0.000000 1.806800 
# 
# From -- ./inp_files/305330.got.cif
#   From: 2010.06.25/outbox.cif.g09.slc.cpg/sg15_153_cif.got.tgz:305330.got - 2010.06.28 07:06:18.
