data_PCOD8144821
_publ_section_title
;
Structure prediction by ZEFSAII (Michael W. Deem and Ramdas Pophale) SiO2 
 PCOD8144821
Probable space group: C 2/C
;
_chemical_formula_sum "Si O2"
_cell_formula_units_Z 52
_cell_length_a 5.137454
_cell_length_b 30.010432
_cell_length_c 19.485090
_cell_angle_alpha 90.000000
_cell_angle_beta 122.691440
_cell_angle_gamma 90.000000
_cell_volume 2528.272856
_symmetry_space_group_name_H-M "C 2/C"
_symmetry_group_IT_number 15
_symmetry_cell_setting 'monoclinic'
loop_
_space_group_symop_operation_xyz
x,y,z
-x,y,1/2-z
-x,-y,-z
x,-y,1/2+z
1/2+x,1/2+y,z
1/2-x,1/2+y,1/2-z
1/2-x,1/2-y,-z
1/2+x,1/2-y,1/2+z
loop_
_atom_site_type_symbol
_atom_site_label
_atom_site_fract_x
_atom_site_fract_y
_atom_site_fract_z
Si Si1 0.597457 0.137663 0.620333
Si Si2 0.338353 0.436525 0.800864
Si Si3 0.565719 0.716201 0.886604
Si Si4 0.000000 0.923001 0.250000
Si Si5 0.500000 0.828305 0.250000
Si Si6 0.000000 0.520330 0.750000
Si Si7 0.773487 0.130455 0.059753
Si Si8 0.251105 0.686979 0.444472
O O1 0.642663 0.188552 0.600972
O O2 0.914850 0.108313 0.671503
O O3 0.478001 0.139350 0.681273
O O4 0.364504 0.114533 0.533495
O O5 0.500000 0.439242 0.750000
O O6 0.579931 0.413004 0.885372
O O7 0.000000 0.411374 0.750000
O O8 0.262062 0.486637 0.819427
O O9 0.288605 0.704971 0.795635
O O10 0.608777 0.768854 0.890854
O O11 0.524502 0.699582 0.959567
O O12 0.312439 0.950766 0.278964
O O13 0.515057 0.152272 0.071741
O O14 0.042638 0.166222 0.085901
#
# Coordination Sequence:
#
# PCOD8144821 Si02
#       8
#     8   8   8   4   4   4   8   8
#     4  11  24  37  64  94 132 169 211 261 317 368
#     4  10  21  45  69  88 123 163 206 265 333 378
#     4  10  22  38  57  87 132 173 212 260 309 361
#     4  12  22  40  66  98 124 165 211 250 316 408
#     4  12  19  40  56  87 130 176 211 252 318 363
#     4  10  23  42  68  89 126 167 198 262 338 383
#     4  11  23  43  66  96 124 169 218 262 316 378
#     4  10  23  38  63  89 127 172 215 258 309 361
#
# _framework density 20.567401
#
# number of rings (size 3 to 8) (size 9 to 14) (size 15 to 20)
#    0.462    0.923    3.846    1.385    2.154    1.846 
#    4.154    1.538    0.000    0.000    0.000    0.000 
#    0.000    0.000    0.000    0.000    0.000    0.000 
#
# Total GULP energy -322123.681273 kJ/mol
# GULP energy per Si atom -12389.372357 kJ/mol
# Density = 2.052059 g / cm^3
# Si number density = 20.567401 Si / 1000 Ang^3
#
#
#
# Elastic Constant Matrix: (Units=GPa)
#
#
# Indices 1 2 3 4 5 6 
#
# 1 99.0561 24.6780 33.1345 0.0000 5.4698 0.0000
# 2 24.6780 101.9680 53.7170 0.0000 3.3415 0.0000
# 3 33.1345 53.7170 119.8853 0.0000 5.9124 0.0000
# 4 0.0000 0.0000 0.0000 17.6894 0.0000 1.0401
# 5 5.4698 3.3415 5.9124 0.0000 26.4312 0.0000
# 6 0.0000 0.0000 0.0000 1.0401 0.0000 26.5373
#
#
#
# Elastic Compliance Matrix: (Units=1/GPa)
#
#
# Indices 1 2 3 4 5 6 
#
# 1 0.011348 -0.001418 -0.002421 0.000000 -0.001628 0.000000
# 2 -0.001418 0.013017 -0.005434 0.000000 -0.000137 0.000000
# 3 -0.002421 -0.005434 0.011514 0.000000 -0.001388 0.000000
# 4 0.000000 0.000000 0.000000 0.056661 0.000000 -0.002221
# 5 -0.001628 -0.000137 -0.001388 0.000000 0.038499 0.000000
# 6 0.000000 0.000000 0.000000 -0.002221 0.000000 0.037770
#
#
# Mechanical properties :
#
#
# Convention : Reuss Voigt Hill
#
# Bulk Modulus (GPa) = 57.69131 60.44094 59.06612
# Shear Modulus (GPa) = 25.88897 28.09025 26.98961
#
# Velocity S-wave (km/s) = 3.55172 3.69964 3.62643
# Velocity P-wave (km/s) = 6.70301 6.90654 6.80554
#
# Compressibility (1/GPa) = 0.01733363
#
# Stress axis : x y z
#
# Youngs Moduli (GPa) = 88.11977 76.82094 86.85308
#
# Poissons Ratio (x) = 0.10891 0.21027
# Poissons Ratio (y) = 0.12493 0.47197
# Poissons Ratio (z) = 0.21333 0.41745
#
# Static dielectric constant tensor:
#      x y z
#    x 3.771140 0.000000 0.140850 
#    y 0.000000 3.744570 0.000000 
#    z 0.140850 0.000000 3.750820 
# 
# 
# High freq. dielectric constant tensor:
#      x y z
#    x 1.814870 0.000000 0.010320 
#    y 0.000000 1.792720 0.000000 
#    z 0.010320 0.000000 1.785790 
# 
# From -- ./inp_files/185822.got.cif
#   From: 2010.06.25/outbox.cif.g09.slc.cpg/sg15_93_cif.got.tgz:185822.got - 2010.06.28 07:06:18.
