data_PCOD8144501
_publ_section_title
;
Structure prediction by ZEFSAII (Michael W. Deem and Ramdas Pophale) SiO2 
 PCOD8144501
Probable space group: C 2/C
;
_chemical_formula_sum "Si O2"
_cell_formula_units_Z 56
_cell_length_a 8.262993
_cell_length_b 16.983617
_cell_length_c 23.174635
_cell_angle_alpha 90.000000
_cell_angle_beta 53.751338
_cell_angle_gamma 90.000000
_cell_volume 2622.783553
_symmetry_space_group_name_H-M "C 2/C"
_symmetry_group_IT_number 15
_symmetry_cell_setting 'monoclinic'
loop_
_space_group_symop_operation_xyz
x,y,z
-x,y,1/2-z
-x,-y,-z
x,-y,1/2+z
1/2+x,1/2+y,z
1/2-x,1/2+y,1/2-z
1/2-x,1/2-y,-z
1/2+x,1/2-y,1/2+z
loop_
_atom_site_type_symbol
_atom_site_label
_atom_site_fract_x
_atom_site_fract_y
_atom_site_fract_z
Si Si1 0.508512 0.868629 0.428202
Si Si2 0.477572 0.136997 0.068939
Si Si3 0.534993 0.404838 0.679263
Si Si4 0.176848 0.234183 0.328149
Si Si5 0.710993 0.507750 0.486746
Si Si6 0.591792 0.435981 0.134370
Si Si7 0.954488 0.766418 0.167843
O O1 0.526504 0.843078 0.491854
O O2 0.499040 0.791872 0.388644
O O3 0.322717 0.924762 0.453629
O O4 0.716937 0.911608 0.367131
O O5 0.269924 0.090571 0.115346
O O6 0.451572 0.218229 0.109099
O O7 0.649368 0.081701 0.062180
O O8 0.500000 0.369032 0.750000
O O9 0.417950 0.352819 0.656555
O O10 0.459126 0.496192 0.693788
O O11 0.254355 0.257193 0.248053
O O12 0.356186 0.235058 0.336043
O O13 0.500000 0.500000 0.500000
O O14 0.672125 0.519932 0.561481
O O15 0.462022 0.358355 0.149077
#
# Coordination Sequence:
#
# PCOD8144501 Si02
#       7
#     8   8   8   8   8   8   8
#     4  10  21  43  65  92 129 176 215 267 333 387
#     4  11  22  42  69  91 134 171 219 268 327 397
#     4  12  23  40  68  96 124 180 221 262 327 397
#     4  10  24  40  65  95 134 163 222 271 323 395
#     4  11  23  40  64 100 132 166 225 275 323 387
#     4  10  22  41  65  92 129 171 218 260 326 402
#     4  10  23  43  64  99 131 170 215 273 329 383
#
# _framework density 21.35136
#
# number of rings (size 3 to 8) (size 9 to 14) (size 15 to 20)
#    0.000    1.429    4.286    0.857    6.000    6.857 
#    0.000    0.000    0.000    1.714    0.000    0.000 
#    0.000    0.000    0.000    0.000    0.000    0.000 
#
# Total GULP energy -347061.049646 kJ/mol
# GULP energy per Si atom -12395.037487 kJ/mol
# Density = 2.130276 g / cm^3
# Si number density = 21.351360 Si / 1000 Ang^3
#
#
#
# Elastic Constant Matrix: (Units=GPa)
#
#
# Indices 1 2 3 4 5 6 
#
# 1 75.7437 59.4983 24.8685 0.0005 -7.2757 -0.0009
# 2 59.4983 180.2799 59.2998 0.0004 7.8876 -0.0006
# 3 24.8685 59.2998 91.5905 0.0014 -3.3539 -0.0011
# 4 0.0005 0.0004 0.0014 36.6286 -0.0007 -4.1933
# 5 -7.2757 7.8876 -3.3539 -0.0007 21.7310 0.0006
# 6 -0.0009 -0.0006 -0.0011 -4.1933 0.0006 29.7416
#
#
#
# Elastic Compliance Matrix: (Units=1/GPa)
#
#
# Indices 1 2 3 4 5 6 
#
# 1 0.019436 -0.006567 -0.000704 0.000000 0.008782 0.000000
# 2 -0.006567 0.009507 -0.004605 0.000000 -0.006360 0.000000
# 3 -0.000704 -0.004605 0.014224 0.000000 0.003631 0.000000
# 4 0.000000 0.000000 0.000000 0.027749 0.000001 0.003912
# 5 0.008782 -0.006360 0.003631 0.000001 0.051827 -0.000001
# 6 0.000000 0.000000 0.000000 0.003912 -0.000001 0.034175
#
#
# Mechanical properties :
#
#
# Convention : Reuss Voigt Hill
#
# Bulk Modulus (GPa) = 51.50747 70.54969 61.02858
# Shear Modulus (GPa) = 26.71778 31.21674 28.96726
#
# Velocity S-wave (km/s) = 3.54126 3.82782 3.68733
# Velocity P-wave (km/s) = 6.39506 7.25605 6.83912
#
# Compressibility (1/GPa) = 0.01941466
#
# Stress axis : x y z
#
# Youngs Moduli (GPa) = 51.45163 105.18066 70.30427
#
# Poissons Ratio (x) = 0.69074 0.04947
# Poissons Ratio (y) = 0.33789 0.32377
# Poissons Ratio (z) = 0.03620 0.48439
#
# Static dielectric constant tensor:
#      x y z
#    x 9.039590 -0.000450 0.880050 
#    y -0.000450 4.496100 -0.000080 
#    z 0.880050 -0.000080 4.159510 
# 
# 
# High freq. dielectric constant tensor:
#      x y z
#    x 1.810700 0.000000 -0.006820 
#    y 0.000000 1.849240 0.000000 
#    z -0.006820 0.000000 1.841350 
# 
# From -- ./inp_files/265163.got.cif
#   From: 2010.06.25/outbox.cif.g09.slc.cpg/sg15_133_cif.got.tgz:265163.got - 2010.06.28 07:06:18.
