data_PCOD8144061
_publ_section_title
;
Structure prediction by ZEFSAII (Michael W. Deem and Ramdas Pophale) SiO2 
 PCOD8144061
Probable space group: C 2/C
;
_chemical_formula_sum "Si O2"
_cell_formula_units_Z 52
_cell_length_a 9.684952
_cell_length_b 16.407376
_cell_length_c 20.104232
_cell_angle_alpha 90.000000
_cell_angle_beta 129.216905
_cell_angle_gamma 90.000000
_cell_volume 2475.085162
_symmetry_space_group_name_H-M "C 2/C"
_symmetry_group_IT_number 15
_symmetry_cell_setting 'monoclinic'
loop_
_space_group_symop_operation_xyz
x,y,z
-x,y,1/2-z
-x,-y,-z
x,-y,1/2+z
1/2+x,1/2+y,z
1/2-x,1/2+y,1/2-z
1/2-x,1/2-y,-z
1/2+x,1/2-y,1/2+z
loop_
_atom_site_type_symbol
_atom_site_label
_atom_site_fract_x
_atom_site_fract_y
_atom_site_fract_z
Si Si1 0.441848 0.856357 0.654360
Si Si2 0.652481 0.426990 0.248727
Si Si3 0.640233 0.292516 0.146089
Si Si4 0.967479 0.096615 0.481080
Si Si5 0.500000 0.712130 0.250000
Si Si6 0.389101 0.027788 0.402529
Si Si7 0.963938 0.914582 0.641114
O O1 0.500000 0.864727 0.750000
O O2 0.503645 0.771011 0.639484
O O3 0.232447 0.872620 0.590634
O O4 0.508872 0.924919 0.623985
O O5 0.500000 0.393564 0.250000
O O6 0.716475 0.353527 0.223842
O O7 0.821440 0.446816 0.345742
O O8 0.579735 0.502891 0.182401
O O9 0.823966 0.258971 0.171242
O O10 0.540688 0.346338 0.061127
O O11 0.072545 0.113237 0.444854
O O12 0.000000 0.000000 0.500000
O O13 0.427284 0.656922 0.288946
O O14 0.223057 0.080227 0.377593
O O15 0.500000 0.000000 0.500000
#
# Coordination Sequence:
#
# PCOD8144061 Si02
#       7
#     8   8   8   8   4   8   8
#     4  12  26  48  74 107 150 193 240 300 373 430
#     4  10  21  41  71  93 135 188 239 282 352 438
#     4  12  26  45  69 109 143 188 243 304 364 429
#     4  12  26  44  74 107 145 183 244 304 354 431
#     4  12  24  46  70  96 146 190 238 292 368 426
#     4  11  23  43  74 105 139 189 247 290 358 432
#     4  11  21  47  70  94 139 195 226 290 362 424
#
# _framework density 21.009378999999999
#
# number of rings (size 3 to 8) (size 9 to 14) (size 15 to 20)
#    0.000    0.615    5.385    3.692    2.154    3.077 
#    5.538    0.000    0.000    0.000    0.000    0.000 
#    0.000    0.000    0.000    0.000    0.000    0.000 
#
# Total GULP energy -322097.826793 kJ/mol
# GULP energy per Si atom -12388.377954 kJ/mol
# Density = 2.096156 g / cm^3
# Si number density = 21.009379 Si / 1000 Ang^3
#
#
#
# Elastic Constant Matrix: (Units=GPa)
#
#
# Indices 1 2 3 4 5 6 
#
# 1 90.1800 49.4378 47.5682 0.0000 -21.0579 0.0000
# 2 49.4378 110.5292 64.8979 0.0000 -7.2055 0.0000
# 3 47.5682 64.8979 152.6105 0.0000 -16.8476 0.0000
# 4 0.0000 0.0000 0.0000 45.1291 0.0000 13.1652
# 5 -21.0579 -7.2055 -16.8476 0.0000 45.4516 0.0000
# 6 0.0000 0.0000 0.0000 13.1652 0.0000 62.3379
#
#
#
# Elastic Compliance Matrix: (Units=1/GPa)
#
#
# Indices 1 2 3 4 5 6 
#
# 1 0.016851 -0.005932 -0.002056 0.000000 0.006105 0.000000
# 2 -0.005932 0.014146 -0.004403 0.000000 -0.002138 0.000000
# 3 -0.002056 -0.004403 0.009263 0.000000 0.001783 0.000000
# 4 0.000000 0.000000 0.000000 0.023613 0.000000 -0.004987
# 5 0.006105 -0.002138 0.001783 0.000000 0.025152 0.000000
# 6 0.000000 0.000000 0.000000 -0.004987 0.000000 0.017095
#
#
# Mechanical properties :
#
#
# Convention : Reuss Voigt Hill
#
# Bulk Modulus (GPa) = 64.60562 75.23639 69.92101
# Shear Modulus (GPa) = 36.74833 43.34476 40.04654
#
# Velocity S-wave (km/s) = 4.18681 4.54708 4.37066
# Velocity P-wave (km/s) = 7.36139 7.96596 7.66964
#
# Compressibility (1/GPa) = 0.01547853
#
# Stress axis : x y z
#
# Youngs Moduli (GPa) = 59.34421 70.68915 107.96162
#
# Poissons Ratio (x) = 0.41933 0.22195
# Poissons Ratio (y) = 0.35203 0.47533
# Poissons Ratio (z) = 0.12200 0.31123
#
# Static dielectric constant tensor:
#      x y z
#    x 3.962650 0.000000 -0.104190 
#    y 0.000000 4.151090 0.000000 
#    z -0.104190 0.000000 4.152630 
# 
# 
# High freq. dielectric constant tensor:
#      x y z
#    x 1.831910 0.000000 -0.010150 
#    y 0.000000 1.823510 0.000000 
#    z -0.010150 0.000000 1.836080 
# 
# From -- ./inp_files/233113.got.cif
#   From: 2010.06.25/outbox.cif.g09.slc.cpg/sg15_117_cif.got.tgz:233113.got - 2010.06.28 07:06:18.
