data_PCOD8144828
_publ_section_title
;
Structure prediction by ZEFSAII (Michael W. Deem and Ramdas Pophale) SiO2 
 PCOD8144828
Probable space group: C 2/C
;
_chemical_formula_sum "Si O2"
_cell_formula_units_Z 40
_cell_length_a 14.116062
_cell_length_b 11.844104
_cell_length_c 16.166977
_cell_angle_alpha 90.000000
_cell_angle_beta 137.151887
_cell_angle_gamma 90.000000
_cell_volume 1838.188449
_symmetry_space_group_name_H-M "C 2/C"
_symmetry_group_IT_number 15
_symmetry_cell_setting 'monoclinic'
loop_
_space_group_symop_operation_xyz
x,y,z
-x,y,1/2-z
-x,-y,-z
x,-y,1/2+z
1/2+x,1/2+y,z
1/2-x,1/2+y,1/2-z
1/2-x,1/2-y,-z
1/2+x,1/2-y,1/2+z
loop_
_atom_site_type_symbol
_atom_site_label
_atom_site_fract_x
_atom_site_fract_y
_atom_site_fract_z
Si Si1 0.160121 0.685246 0.197342
Si Si2 0.063441 0.920759 0.610826
Si Si3 0.579398 0.971315 0.967461
Si Si4 0.372282 0.599754 0.720806
Si Si5 0.135207 0.711287 0.990692
O O1 0.281821 0.613558 0.319430
O O2 0.165421 0.813163 0.231188
O O3 0.192404 0.686120 0.119632
O O4 0.014557 0.627241 0.133367
O O5 0.982297 0.805297 0.575770
O O6 0.070294 0.985687 0.701721
O O7 0.000000 0.000000 0.500000
O O8 0.735696 0.924132 0.078496
O O9 0.500000 0.000000 0.000000
O O10 0.580337 0.090779 0.918654
O O11 0.500000 0.650303 0.750000
O O12 0.250000 0.750000 0.000000
#
# Coordination Sequence:
#
# PCOD8144828 Si02
#       5
#     8   8   8   8   8
#     4  11  24  45  68  96 136 180 224 278 337 409
#     4  12  25  42  70 100 134 175 231 274 338 414
#     4  10  21  45  70  92 137 179 219 270 351 392
#     4  12  25  44  68 100 135 178 225 284 339 404
#     4  11  23  41  67  99 131 174 225 282 338 399
#
# _framework density 21.760555
#
# number of rings (size 3 to 8) (size 9 to 14) (size 15 to 20)
#    0.000    0.800    6.000    3.600    0.000    0.800 
#    3.600    0.000    0.000    0.000    0.000    0.000 
#    0.000    0.000    0.000    0.000    0.000    0.000 
#
# Total GULP energy -247909.489050 kJ/mol
# GULP energy per Si atom -12395.474453 kJ/mol
# Density = 2.171103 g / cm^3
# Si number density = 21.760555 Si / 1000 Ang^3
#
#
#
# Elastic Constant Matrix: (Units=GPa)
#
#
# Indices 1 2 3 4 5 6 
#
# 1 99.8950 36.9033 44.3052 0.0000 23.0144 0.0000
# 2 36.9033 154.1699 64.7600 0.0000 9.0726 0.0000
# 3 44.3052 64.7600 130.2007 0.0000 34.7397 0.0000
# 4 0.0000 0.0000 0.0000 44.5037 0.0000 9.9540
# 5 23.0144 9.0726 34.7397 0.0000 29.6691 0.0000
# 6 0.0000 0.0000 0.0000 9.9540 0.0000 36.0086
#
#
#
# Elastic Compliance Matrix: (Units=1/GPa)
#
#
# Indices 1 2 3 4 5 6 
#
# 1 0.013242 -0.002162 -0.001260 0.000000 -0.008135 0.000000
# 2 -0.002162 0.008780 -0.004891 0.000000 0.004718 0.000000
# 3 -0.001260 -0.004891 0.014372 0.000000 -0.014355 0.000000
# 4 0.000000 0.000000 0.000000 0.023951 0.000000 -0.006621
# 5 -0.008135 0.004718 -0.014355 0.000000 0.055381 0.000000
# 6 0.000000 0.000000 0.000000 -0.006621 0.000000 0.029601
#
#
# Mechanical properties :
#
#
# Convention : Reuss Voigt Hill
#
# Bulk Modulus (GPa) = 50.58259 75.13362 62.85811
# Shear Modulus (GPa) = 29.66598 37.92277 33.79437
#
# Velocity S-wave (km/s) = 3.69628 4.17913 3.94510
# Velocity P-wave (km/s) = 6.44300 7.60850 7.04987
#
# Compressibility (1/GPa) = 0.01976965
#
# Stress axis : x y z
#
# Youngs Moduli (GPa) = 75.51552 113.88948 69.57977
#
# Poissons Ratio (x) = 0.24619 0.08769
# Poissons Ratio (y) = 0.16324 0.34029
# Poissons Ratio (z) = 0.09517 0.55699
#
# Static dielectric constant tensor:
#      x y z
#    x 3.853590 0.000000 0.365410 
#    y 0.000000 5.913380 0.000000 
#    z 0.365410 0.000000 4.143890 
# 
# 
# High freq. dielectric constant tensor:
#      x y z
#    x 1.835640 0.000000 0.024990 
#    y 0.000000 1.885650 0.000000 
#    z 0.024990 0.000000 1.845720 
# 
# From -- ./inp_files/94655.got.cif
#   From: 2010.06.25/outbox.cif.g09.slc.cpg/sg15_48_cif.got.tgz:94655.got - 2010.06.28 07:06:18.
