data_PCOD8144570
_publ_section_title
;
Structure prediction by ZEFSAII (Michael W. Deem and Ramdas Pophale) SiO2 
 PCOD8144570
Probable space group: C 2/C
;
_chemical_formula_sum "Si O2"
_cell_formula_units_Z 40
_cell_length_a 9.286442
_cell_length_b 14.169738
_cell_length_c 15.740267
_cell_angle_alpha 90.000000
_cell_angle_beta 114.594010
_cell_angle_gamma 90.000000
_cell_volume 1883.305284
_symmetry_space_group_name_H-M "C 2/C"
_symmetry_group_IT_number 15
_symmetry_cell_setting 'monoclinic'
loop_
_space_group_symop_operation_xyz
x,y,z
-x,y,1/2-z
-x,-y,-z
x,-y,1/2+z
1/2+x,1/2+y,z
1/2-x,1/2+y,1/2-z
1/2-x,1/2-y,-z
1/2+x,1/2-y,1/2+z
loop_
_atom_site_type_symbol
_atom_site_label
_atom_site_fract_x
_atom_site_fract_y
_atom_site_fract_z
Si Si1 0.217917 0.682297 0.070053
Si Si2 0.423090 0.541299 0.855512
Si Si3 0.891900 0.694896 0.076221
Si Si4 0.500000 0.696950 0.750000
Si Si5 0.000000 0.119548 0.250000
Si Si6 0.245815 0.998476 0.521203
O O1 0.366249 0.683720 0.171913
O O2 0.061171 0.721089 0.077133
O O3 0.250000 0.750000 0.000000
O O4 0.188285 0.577061 0.026670
O O5 0.396406 0.630159 0.786859
O O6 0.412964 0.444633 0.799437
O O7 0.289402 0.543289 0.895043
O O8 0.592420 0.551229 0.942948
O O9 0.885245 0.732942 0.170785
O O10 0.875576 0.582365 0.066754
O O11 0.750000 0.750000 0.000000
#
# Coordination Sequence:
#
# PCOD8144570 Si02
#       6
#     8   8   8   4   4   8
#     4  11  25  44  70  98 135 182 226 280 337 400
#     4   9  19  40  70  91 126 182 222 276 332 398
#     4  12  26  41  67 102 141 174 223 280 339 406
#     4  11  22  40  63 100 130 184 221 268 341 400
#     4   9  22  40  69  94 132 170 235 270 333 396
#     4  10  21  43  67  95 135 175 224 280 337 391
#
# _framework density 21.239255
#
# number of rings (size 3 to 8) (size 9 to 14) (size 15 to 20)
#    0.000    1.600    2.000    1.800    8.400    0.000 
#    0.000    1.000    0.000    0.000    0.000    0.000 
#    0.000    0.000    0.000    0.000    0.000    0.000 
#
# Total GULP energy -248008.038106 kJ/mol
# GULP energy per Si atom -12400.401905 kJ/mol
# Density = 2.119091 g / cm^3
# Si number density = 21.239255 Si / 1000 Ang^3
#
#
#
# Elastic Constant Matrix: (Units=GPa)
#
#
# Indices 1 2 3 4 5 6 
#
# 1 100.9377 36.7497 54.7270 0.0000 2.2461 0.0000
# 2 36.7497 101.0243 58.1005 0.0000 13.0988 0.0000
# 3 54.7270 58.1005 160.9431 0.0000 6.5945 0.0000
# 4 0.0000 0.0000 0.0000 55.9523 0.0000 -0.2622
# 5 2.2461 13.0988 6.5945 0.0000 30.4181 0.0000
# 6 0.0000 0.0000 0.0000 -0.2622 0.0000 30.2961
#
#
#
# Elastic Compliance Matrix: (Units=1/GPa)
#
#
# Indices 1 2 3 4 5 6 
#
# 1 0.012732 -0.002838 -0.003346 0.000000 0.001007 0.000000
# 2 -0.002838 0.013749 -0.003798 0.000000 -0.004888 0.000000
# 3 -0.003346 -0.003798 0.008723 0.000000 -0.000008 0.000000
# 4 0.000000 0.000000 0.000000 0.017873 0.000000 0.000155
# 5 0.001007 -0.004888 -0.000008 0.000000 0.034907 0.000000
# 6 0.000000 0.000000 0.000000 0.000155 0.000000 0.033009
#
#
# Mechanical properties :
#
#
# Convention : Reuss Voigt Hill
#
# Bulk Modulus (GPa) = 65.61884 73.56219 69.59051
# Shear Modulus (GPa) = 34.23781 37.55517 35.89649
#
# Velocity S-wave (km/s) = 4.01934 4.20955 4.11554
# Velocity P-wave (km/s) = 7.24584 7.63789 7.44445
#
# Compressibility (1/GPa) = 0.01523953
#
# Stress axis : x y z
#
# Youngs Moduli (GPa) = 78.54128 72.73245 114.64274
#
# Poissons Ratio (x) = 0.20639 0.38363
# Poissons Ratio (y) = 0.22288 0.43544
# Poissons Ratio (z) = 0.26282 0.27625
#
# Static dielectric constant tensor:
#      x y z
#    x 3.569960 0.000000 -0.176770 
#    y 0.000000 3.953700 0.000000 
#    z -0.176770 0.000000 4.074150 
# 
# 
# High freq. dielectric constant tensor:
#      x y z
#    x 1.804280 0.000000 -0.017050 
#    y 0.000000 1.841410 0.000000 
#    z -0.017050 0.000000 1.846680 
# 
# From -- ./inp_files/133310.got.cif
#   From: 2010.06.25/outbox.cif.g09.slc.cpg/sg15_67_cif.got.tgz:133310.got - 2010.06.28 07:06:18.
