data_PCOD8144359
_publ_section_title
;
Structure prediction by ZEFSAII (Michael W. Deem and Ramdas Pophale) SiO2 
 PCOD8144359
Probable space group: C 2/C
;
_chemical_formula_sum "Si O2"
_cell_formula_units_Z 48
_cell_length_a 21.612834
_cell_length_b 9.642893
_cell_length_c 10.585399
_cell_angle_alpha 90.000000
_cell_angle_beta 80.121082
_cell_angle_gamma 90.000000
_cell_volume 2173.394621
_symmetry_space_group_name_H-M "C 2/C"
_symmetry_group_IT_number 15
_symmetry_cell_setting 'monoclinic'
loop_
_space_group_symop_operation_xyz
x,y,z
-x,y,1/2-z
-x,-y,-z
x,-y,1/2+z
1/2+x,1/2+y,z
1/2-x,1/2+y,1/2-z
1/2-x,1/2-y,-z
1/2+x,1/2-y,1/2+z
loop_
_atom_site_type_symbol
_atom_site_label
_atom_site_fract_x
_atom_site_fract_y
_atom_site_fract_z
Si Si1 0.500000 0.471781 0.750000
Si Si2 0.687728 0.104254 0.928284
Si Si3 0.387249 0.652994 0.415695
Si Si4 0.000000 0.444575 0.750000
Si Si5 0.133907 0.432959 0.178414
Si Si6 0.925065 0.786998 0.167349
Si Si7 0.330214 0.644286 0.909618
O O1 0.541802 0.370337 0.652522
O O2 0.539340 0.566663 0.832861
O O3 0.655272 0.035392 0.815849
O O4 0.761458 0.121598 0.876248
O O5 0.665455 0.262168 0.965305
O O6 0.674959 0.013009 0.058989
O O7 0.354203 0.767782 0.339339
O O8 0.386594 0.720380 0.553202
O O9 0.352189 0.508725 0.432907
O O10 0.059398 0.535728 0.683414
O O11 0.025607 0.340662 0.850104
O O12 0.874319 0.772424 0.296596
#
# Coordination Sequence:
#
# PCOD8144359 Si02
#       7
#     4   8   8   4   8   8   8
#     4   9  21  38  60 102 134 172 226 286 346 414
#     4  11  27  48  71 102 141 191 236 292 361 418
#     4  11  24  40  70 104 135 184 234 293 351 419
#     4  11  23  46  66 100 150 180 232 290 356 430
#     4  12  27  44  70 107 138 190 235 288 356 425
#     4  10  21  42  69 100 132 190 227 291 355 410
#     4  10  25  47  71  98 144 181 240 300 349 422
#
# _framework density 22.085265
#
# number of rings (size 3 to 8) (size 9 to 14) (size 15 to 20)
#    0.000    1.333    1.667    2.000    7.000    6.000 
#    0.000    0.000    0.000    0.000    0.000    0.000 
#    0.000    0.000    0.000    0.000    0.000    0.000 
#
# Total GULP energy -297514.378087 kJ/mol
# GULP energy per Si atom -12396.432420 kJ/mol
# Density = 2.203500 g / cm^3
# Si number density = 22.085265 Si / 1000 Ang^3
#
#
#
# Elastic Constant Matrix: (Units=GPa)
#
#
# Indices 1 2 3 4 5 6 
#
# 1 102.6297 35.5169 39.4646 0.0000 -5.3829 0.0000
# 2 35.5169 109.0229 45.4828 0.0000 -4.6302 0.0000
# 3 39.4646 45.4828 108.4085 0.0000 19.9956 0.0000
# 4 0.0000 0.0000 0.0000 9.0817 0.0000 8.8249
# 5 -5.3829 -4.6302 19.9956 0.0000 25.1063 0.0000
# 6 0.0000 0.0000 0.0000 8.8249 0.0000 16.5613
#
#
#
# Elastic Compliance Matrix: (Units=1/GPa)
#
#
# Indices 1 2 3 4 5 6 
#
# 1 0.012621 -0.001733 -0.005049 0.000000 0.006408 0.000000
# 2 -0.001733 0.012429 -0.005788 0.000000 0.006531 0.000000
# 3 -0.005049 -0.005788 0.016279 0.000000 -0.015115 0.000000
# 4 0.000000 0.000000 0.000000 0.228350 0.000000 -0.121680
# 5 0.006408 0.006531 -0.015115 0.000000 0.054448 0.000000
# 6 0.000000 0.000000 0.000000 -0.121680 0.000000 0.125220
#
#
# Mechanical properties :
#
#
# Convention : Reuss Voigt Hill
#
# Bulk Modulus (GPa) = 61.77471 62.33220 62.05346
# Shear Modulus (GPa) = 10.41916 23.45632 16.93774
#
# Velocity S-wave (km/s) = 2.17438 3.26249 2.77235
# Velocity P-wave (km/s) = 5.85966 6.51740 6.19726
#
# Compressibility (1/GPa) = 0.01618785
#
# Stress axis : x y z
#
# Youngs Moduli (GPa) = 79.23121 80.45615 61.42862
#
# Poissons Ratio (x) = 0.13943 0.31018
# Poissons Ratio (y) = 0.13731 0.35557
# Poissons Ratio (z) = 0.40008 0.46571
#
# Static dielectric constant tensor:
#      x y z
#    x 4.039240 0.000000 -0.287690 
#    y 0.000000 4.130690 0.000000 
#    z -0.287690 0.000000 3.987770 
# 
# 
# High freq. dielectric constant tensor:
#      x y z
#    x 1.864940 0.000000 -0.011140 
#    y 0.000000 1.888600 0.000000 
#    z -0.011140 0.000000 1.857670 
# 
# From -- ./inp_files/116313.got.cif
#   From: 2010.06.25/outbox.cif.g09.slc.cpg/sg15_59_cif.got.tgz:116313.got - 2010.06.28 07:06:18.
