data_PCOD8144131
_publ_section_title
;
Structure prediction by ZEFSAII (Michael W. Deem and Ramdas Pophale) SiO2 
 PCOD8144131
Probable space group: C 2/C
;
_chemical_formula_sum "Si O2"
_cell_formula_units_Z 52
_cell_length_a 14.852528
_cell_length_b 32.246965
_cell_length_c 5.077059
_cell_angle_alpha 90.000000
_cell_angle_beta 107.258744
_cell_angle_gamma 90.000000
_cell_volume 2322.166161
_symmetry_space_group_name_H-M "C 2/C"
_symmetry_group_IT_number 15
_symmetry_cell_setting 'monoclinic'
loop_
_space_group_symop_operation_xyz
x,y,z
-x,y,1/2-z
-x,-y,-z
x,-y,1/2+z
1/2+x,1/2+y,z
1/2-x,1/2+y,1/2-z
1/2-x,1/2-y,-z
1/2+x,1/2-y,1/2+z
loop_
_atom_site_type_symbol
_atom_site_label
_atom_site_fract_x
_atom_site_fract_y
_atom_site_fract_z
Si Si1 0.775682 0.840399 0.265507
Si Si2 0.880287 0.528295 0.970989
Si Si3 0.333720 0.524682 0.672365
Si Si4 0.058722 0.100945 0.564938
Si Si5 0.000000 0.602347 0.250000
Si Si6 0.147526 0.335583 0.653633
Si Si7 0.314427 0.252840 0.305409
O O1 0.840494 0.878707 0.390947
O O2 0.690740 0.840678 0.401405
O O3 0.849187 0.800694 0.340394
O O4 0.728787 0.844555 0.937856
O O5 0.906858 0.499358 0.747928
O O6 0.771353 0.542329 0.870650
O O7 0.935932 0.572035 0.014754
O O8 0.345263 0.515155 0.372669
O O9 0.417706 0.554698 0.824517
O O10 0.000000 0.122678 0.750000
O O11 0.000000 0.101738 0.250000
O O12 0.061203 0.632612 0.114472
O O13 0.113050 0.286514 0.642199
O O14 0.250000 0.250000 0.500000
O O15 0.250000 0.250000 0.000000
#
# Coordination Sequence:
#
# PCOD8144131 Si02
#       7
#     8   8   8   8   4   8   8
#     4  10  21  42  63  83 125 165 203 245 308 375
#     4  10  23  41  61  86 122 171 209 245 306 371
#     4  10  22  41  62  84 117 161 203 247 307 372
#     4  12  25  39  61  95 121 151 207 257 317 364
#     4  12  24  38  62  98 134 154 212 264 304 350
#     4  10  22  37  63  92 120 165 203 251 306 360
#     4   8  16  35  61  83 110 156 202 238 293 363
#
# _framework density 22.392886000000001
#
# number of rings (size 3 to 8) (size 9 to 14) (size 15 to 20)
#    0.000    1.846    0.000    3.231    0.000    8.615 
#    1.385    0.000    0.000    0.000    0.000    0.000 
#    0.000    0.000    0.000    0.000    0.000    0.000 
#
# Total GULP energy -322110.035934 kJ/mol
# GULP energy per Si atom -12388.847536 kJ/mol
# Density = 2.234192 g / cm^3
# Si number density = 22.392886 Si / 1000 Ang^3
#
#
#
# Elastic Constant Matrix: (Units=GPa)
#
#
# Indices 1 2 3 4 5 6 
#
# 1 67.7320 39.8742 17.9264 0.0000 -7.1656 0.0000
# 2 39.8742 96.4317 16.6815 0.0000 -4.3253 0.0000
# 3 17.9264 16.6815 120.6738 0.0000 -9.2909 0.0000
# 4 0.0000 0.0000 0.0000 26.1094 0.0000 4.7925
# 5 -7.1656 -4.3253 -9.2909 0.0000 22.7347 0.0000
# 6 0.0000 0.0000 0.0000 4.7925 0.0000 39.7194
#
#
#
# Elastic Compliance Matrix: (Units=1/GPa)
#
#
# Indices 1 2 3 4 5 6 
#
# 1 0.020302 -0.007929 -0.001593 0.000000 0.004239 0.000000
# 2 -0.007929 0.013768 -0.000739 0.000000 -0.000182 0.000000
# 3 -0.001593 -0.000739 0.008855 0.000000 0.002976 0.000000
# 4 0.000000 0.000000 0.000000 0.039168 0.000000 -0.004726
# 5 0.004239 -0.000182 0.002976 0.000000 0.046503 0.000000
# 6 0.000000 0.000000 0.000000 -0.004726 0.000000 0.025747
#
#
# Mechanical properties :
#
#
# Convention : Reuss Voigt Hill
#
# Bulk Modulus (GPa) = 44.63987 48.20021 46.42004
# Shear Modulus (GPa) = 27.42215 31.73641 29.57928
#
# Velocity S-wave (km/s) = 3.50321 3.76873 3.63839
# Velocity P-wave (km/s) = 6.02839 6.36469 6.19882
#
# Compressibility (1/GPa) = 0.02240150
#
# Stress axis : x y z
#
# Youngs Moduli (GPa) = 49.25576 72.62983 112.93263
#
# Poissons Ratio (x) = 0.57589 0.17996
# Poissons Ratio (y) = 0.39055 0.08350
# Poissons Ratio (z) = 0.07849 0.05370
#
# Static dielectric constant tensor:
#      x y z
#    x 3.716610 0.000000 -0.251790 
#    y 0.000000 4.659200 0.000000 
#    z -0.251790 0.000000 4.038970 
# 
# 
# High freq. dielectric constant tensor:
#      x y z
#    x 1.860630 0.000000 -0.013330 
#    y 0.000000 1.893950 0.000000 
#    z -0.013330 0.000000 1.893120 
# 
# From -- ./inp_files/9125.got.cif
#   From: 2010.06.25/outbox.cif.g09.slc.cpg/sg15_5_cif.got.tgz:9125.got - 2010.06.28 07:06:18.
