data_PCOD8144774
_publ_section_title
;
Structure prediction by ZEFSAII (Michael W. Deem and Ramdas Pophale) SiO2 
 PCOD8144774
Probable space group: C 2/C
;
_chemical_formula_sum "Si O2"
_cell_formula_units_Z 40
_cell_length_a 10.992356
_cell_length_b 17.906776
_cell_length_c 9.043941
_cell_angle_alpha 90.000000
_cell_angle_beta 92.581724
_cell_angle_gamma 90.000000
_cell_volume 1778.381242
_symmetry_space_group_name_H-M "C 2/C"
_symmetry_group_IT_number 15
_symmetry_cell_setting 'monoclinic'
loop_
_space_group_symop_operation_xyz
x,y,z
-x,y,1/2-z
-x,-y,-z
x,-y,1/2+z
1/2+x,1/2+y,z
1/2-x,1/2+y,1/2-z
1/2-x,1/2-y,-z
1/2+x,1/2-y,1/2+z
loop_
_atom_site_type_symbol
_atom_site_label
_atom_site_fract_x
_atom_site_fract_y
_atom_site_fract_z
Si Si1 0.355935 0.559542 0.747802
Si Si2 0.862824 0.765463 0.609410
Si Si3 0.704396 0.184068 0.600819
Si Si4 0.014543 0.339973 0.579207
Si Si5 0.730168 0.418653 0.927258
O O1 0.500000 0.548885 0.750000
O O2 0.318374 0.633890 0.657042
O O3 0.285559 0.489402 0.676572
O O4 0.312166 0.563391 0.911856
O O5 0.750000 0.750000 0.500000
O O6 0.861938 0.718189 0.758984
O O7 0.973707 0.738587 0.511302
O O8 0.858159 0.853679 0.644394
O O9 0.750000 0.250000 0.500000
O O10 0.611613 0.130368 0.500862
O O11 0.126890 0.395927 0.560760
O O12 0.000000 0.321339 0.750000
#
# Coordination Sequence:
#
# PCOD8144774 Si02
#       5
#     8   8   8   8   8
#     4  12  29  49  72 108 149 200 249 308 373 453
#     4  10  21  44  71 106 143 184 239 308 356 441
#     4  12  26  43  78 109 147 195 249 307 382 433
#     4  11  25  46  76 110 147 192 249 310 372 439
#     4  11  27  49  73 106 154 192 252 300 377 447
#
# _framework density 22.492363999999998
#
# number of rings (size 3 to 8) (size 9 to 14) (size 15 to 20)
#    0.000    0.800    4.000    3.600    8.400    2.400 
#    0.000    0.000    0.000    0.000    0.000    0.000 
#    0.000    0.000    0.000    0.000    0.000    0.000 
#
# Total GULP energy -247890.872463 kJ/mol
# GULP energy per Si atom -12394.543623 kJ/mol
# Density = 2.244117 g / cm^3
# Si number density = 22.492364 Si / 1000 Ang^3
#
#
#
# Elastic Constant Matrix: (Units=GPa)
#
#
# Indices 1 2 3 4 5 6 
#
# 1 125.6895 31.4528 60.8359 0.0000 2.7809 0.0000
# 2 31.4528 116.6644 37.8386 0.0000 1.0750 0.0000
# 3 60.8359 37.8386 140.1395 0.0000 4.2252 0.0000
# 4 0.0000 0.0000 0.0000 -44.9360 0.0000 -31.2049
# 5 2.7809 1.0750 4.2252 0.0000 43.8159 0.0000
# 6 0.0000 0.0000 0.0000 -31.2049 0.0000 4.2632
#
#
#
# Elastic Compliance Matrix: (Units=1/GPa)
#
#
# Indices 1 2 3 4 5 6 
#
# 1 0.010295 -0.001453 -0.004070 0.000000 -0.000225 0.000000
# 2 -0.001453 0.009599 -0.001962 0.000000 0.000046 0.000000
# 3 -0.004070 -0.001962 0.009451 0.000000 -0.000605 0.000000
# 4 0.000000 0.000000 0.000000 -0.003658 0.000000 -0.026778
# 5 -0.000225 0.000046 -0.000605 0.000000 0.022894 0.000000
# 6 0.000000 0.000000 0.000000 -0.026778 0.000000 0.038561
#
#
# Mechanical properties :
#
#
# Convention : Reuss Voigt Hill
#
# Bulk Modulus (GPa) = 69.57205 71.41646 70.49426
# Shear Modulus (GPa) = 46.77089 17.45302 32.11195
#
# Velocity S-wave (km/s) = 4.56500 2.78862 3.78257
# Velocity P-wave (km/s) = 7.66709 6.49529 7.10539
#
# Compressibility (1/GPa) = 0.01437359
#
# Stress axis : x y z
#
# Youngs Moduli (GPa) = 97.13780 104.17232 105.81367
#
# Poissons Ratio (x) = 0.15140 0.43064
# Poissons Ratio (y) = 0.14118 0.20765
# Poissons Ratio (z) = 0.39533 0.20443
#
# Static dielectric constant tensor:
#      x y z
#    x 6.280440 0.000000 0.009510 
#    y 0.000000 4.649790 0.000000 
#    z 0.009510 0.000000 5.116390 
# 
# 
# High freq. dielectric constant tensor:
#      x y z
#    x 1.898390 0.000000 0.006560 
#    y 0.000000 1.871850 0.000000 
#    z 0.006560 0.000000 1.912320 
# 
# From -- ./inp_files/29234.got.cif
#   From: 2010.06.25/outbox.cif.g09.slc.cpg/sg15_15_cif.got.tgz:29234.got - 2010.06.28 07:06:18.
