data_PCOD8144383
_publ_section_title
;
Structure prediction by ZEFSAII (Michael W. Deem and Ramdas Pophale) SiO2 
 PCOD8144383
Probable space group: C 2/C
;
_chemical_formula_sum "Si O2"
_cell_formula_units_Z 48
_cell_length_a 9.427748
_cell_length_b 15.792745
_cell_length_c 17.848331
_cell_angle_alpha 90.000000
_cell_angle_beta 121.429930
_cell_angle_gamma 90.000000
_cell_volume 2267.535065
_symmetry_space_group_name_H-M "C 2/C"
_symmetry_group_IT_number 15
_symmetry_cell_setting 'monoclinic'
loop_
_space_group_symop_operation_xyz
x,y,z
-x,y,1/2-z
-x,-y,-z
x,-y,1/2+z
1/2+x,1/2+y,z
1/2-x,1/2+y,1/2-z
1/2-x,1/2-y,-z
1/2+x,1/2-y,1/2+z
loop_
_atom_site_type_symbol
_atom_site_label
_atom_site_fract_x
_atom_site_fract_y
_atom_site_fract_z
Si Si1 0.107044 0.377886 0.847671
Si Si2 0.315059 0.801088 0.228893
Si Si3 0.321960 0.462812 0.375129
Si Si4 0.614420 0.583721 0.441567
Si Si5 0.603247 0.262035 0.592567
Si Si6 0.382757 0.158226 0.416409
O O1 0.182826 0.465184 0.838736
O O2 0.251392 0.311965 0.911704
O O3 0.000000 0.338945 0.750000
O O4 0.995698 0.394802 0.890033
O O5 0.500000 0.808739 0.250000
O O6 0.222325 0.890423 0.195413
O O7 0.313056 0.789443 0.317336
O O8 0.220858 0.726995 0.158653
O O9 0.499114 0.501255 0.397036
O O10 0.325656 0.417870 0.456647
O O11 0.516718 0.670437 0.400720
O O12 0.767274 0.588100 0.425446
O O13 0.500345 0.202651 0.509342
#
# Coordination Sequence:
#
# PCOD8144383 Si02
#       6
#     8   8   8   8   8   8
#     4  11  24  42  65  95 141 176 213 281 349 386
#     4  12  22  39  73 100 127 174 229 279 318 403
#     4  10  23  42  67  96 138 174 218 272 339 399
#     4  10  21  42  69  96 132 177 217 272 337 394
#     4  11  22  41  70 100 129 176 225 274 335 393
#     4  12  23  41  72  97 131 176 229 271 325 409
#
# _framework density 21.16836
#
# number of rings (size 3 to 8) (size 9 to 14) (size 15 to 20)
#    0.000    1.000    5.000    2.500    0.000    0.667 
#    0.000    0.000    7.333    0.000    0.000    0.000 
#    0.000    0.000    0.000    0.000    0.000    0.000 
#
# Total GULP energy -297639.512544 kJ/mol
# GULP energy per Si atom -12401.646356 kJ/mol
# Density = 2.112018 g / cm^3
# Si number density = 21.168360 Si / 1000 Ang^3
#
#
#
# Elastic Constant Matrix: (Units=GPa)
#
#
# Indices 1 2 3 4 5 6 
#
# 1 141.9150 24.2716 31.0905 0.0000 -10.8176 0.0000
# 2 24.2716 51.9306 27.1084 0.0000 -2.3237 0.0000
# 3 31.0905 27.1084 125.5707 0.0000 0.2337 0.0000
# 4 0.0000 0.0000 0.0000 31.7286 0.0000 -2.4390
# 5 -10.8176 -2.3237 0.2337 0.0000 30.1355 0.0000
# 6 0.0000 0.0000 0.0000 -2.4390 0.0000 10.0500
#
#
#
# Elastic Compliance Matrix: (Units=1/GPa)
#
#
# Indices 1 2 3 4 5 6 
#
# 1 0.008051 -0.002930 -0.001366 0.000000 0.002675 0.000000
# 2 -0.002930 0.022857 -0.004210 0.000000 0.000743 0.000000
# 3 -0.001366 -0.004210 0.009212 0.000000 -0.000886 0.000000
# 4 0.000000 0.000000 0.000000 0.032117 0.000000 0.007794
# 5 0.002675 0.000743 -0.000886 0.000000 0.034208 0.000000
# 6 0.000000 0.000000 0.000000 0.007794 0.000000 0.101394
#
#
# Mechanical properties :
#
#
# Convention : Reuss Voigt Hill
#
# Bulk Modulus (GPa) = 43.27556 53.81749 48.54653
# Shear Modulus (GPa) = 21.50043 30.17920 25.83981
#
# Velocity S-wave (km/s) = 3.19044 3.77991 3.49761
# Velocity P-wave (km/s) = 5.83608 6.67301 6.26852
#
# Compressibility (1/GPa) = 0.02310773
#
# Stress axis : x y z
#
# Youngs Moduli (GPa) = 124.21306 43.75017 108.54991
#
# Poissons Ratio (x) = 0.12820 0.14825
# Poissons Ratio (y) = 0.36397 0.45703
# Poissons Ratio (z) = 0.16964 0.18420
#
# Static dielectric constant tensor:
#      x y z
#    x 4.011960 0.000000 0.243630 
#    y 0.000000 3.693020 0.000000 
#    z 0.243630 0.000000 3.958030 
# 
# 
# High freq. dielectric constant tensor:
#      x y z
#    x 1.831840 0.000000 0.014540 
#    y 0.000000 1.819760 0.000000 
#    z 0.014540 0.000000 1.840290 
# 
# From -- ./inp_files/190271.got.cif
#   From: 2010.06.25/outbox.cif.g09.slc.cpg/sg15_96_cif.got.tgz:190271.got - 2010.06.28 07:06:18.
