data_PCOD8144476
_publ_section_title
;
Structure prediction by ZEFSAII (Michael W. Deem and Ramdas Pophale) SiO2 
 PCOD8144476
Probable space group: C 2/C
;
_chemical_formula_sum "Si O2"
_cell_formula_units_Z 48
_cell_length_a 9.158472
_cell_length_b 9.662465
_cell_length_c 25.684280
_cell_angle_alpha 90.000000
_cell_angle_beta 99.457814
_cell_angle_gamma 90.000000
_cell_volume 2241.993937
_symmetry_space_group_name_H-M "C 2/C"
_symmetry_group_IT_number 15
_symmetry_cell_setting 'monoclinic'
loop_
_space_group_symop_operation_xyz
x,y,z
-x,y,1/2-z
-x,-y,-z
x,-y,1/2+z
1/2+x,1/2+y,z
1/2-x,1/2+y,1/2-z
1/2-x,1/2-y,-z
1/2+x,1/2-y,1/2+z
loop_
_atom_site_type_symbol
_atom_site_label
_atom_site_fract_x
_atom_site_fract_y
_atom_site_fract_z
Si Si1 0.023597 0.806749 0.137086
Si Si2 0.475529 0.346178 0.521574
Si Si3 0.864183 0.997616 0.277872
Si Si4 0.712480 0.263957 0.299955
Si Si5 0.709324 0.835766 0.086240
Si Si6 0.811365 0.354787 0.932974
O O1 0.954542 0.744322 0.186766
O O2 0.888830 0.829902 0.087242
O O3 0.090092 0.953507 0.160224
O O4 0.153025 0.708911 0.121964
O O5 0.500000 0.500000 0.500000
O O6 0.633724 0.287813 0.549374
O O7 0.862685 0.847853 0.563938
O O8 0.408018 0.237661 0.477187
O O9 0.775613 0.875747 0.244624
O O10 0.000000 0.045946 0.250000
O O11 0.753452 0.122088 0.276286
O O12 0.820080 0.312158 0.353830
O O13 0.642028 0.983406 0.064100
#
# Coordination Sequence:
#
# PCOD8144476 Si02
#       6
#     8   8   8   8   8   8
#     4   9  23  40  69  91 132 165 210 268 317 377
#     4  11  26  43  67  93 130 173 218 266 327 380
#     4  10  21  43  63  96 132 168 210 263 323 376
#     4   9  23  41  67  92 129 168 209 262 318 379
#     4  10  24  42  64  95 128 170 213 264 323 374
#     4  11  24  42  67  93 129 169 217 269 315 387
#
# _framework density 21.409513
#
# number of rings (size 3 to 8) (size 9 to 14) (size 15 to 20)
#    1.000    1.000    0.000    1.500    7.000    6.667 
#    3.000    0.000    0.000    0.000    0.000    0.000 
#    0.000    0.000    0.000    0.000    0.000    0.000 
#
# Total GULP energy -297375.375560 kJ/mol
# GULP energy per Si atom -12390.640648 kJ/mol
# Density = 2.136078 g / cm^3
# Si number density = 21.409513 Si / 1000 Ang^3
#
#
#
# Elastic Constant Matrix: (Units=GPa)
#
#
# Indices 1 2 3 4 5 6 
#
# 1 72.1837 65.2125 35.5891 0.0000 -10.7734 0.0000
# 2 65.2125 168.9008 58.8735 0.0000 -12.3948 0.0000
# 3 35.5891 58.8735 60.7666 0.0000 -4.1237 0.0000
# 4 0.0000 0.0000 0.0000 35.0314 0.0000 1.6587
# 5 -10.7734 -12.3948 -4.1237 0.0000 35.1566 0.0000
# 6 0.0000 0.0000 0.0000 1.6587 0.0000 31.0486
#
#
#
# Elastic Compliance Matrix: (Units=1/GPa)
#
#
# Indices 1 2 3 4 5 6 
#
# 1 0.023907 -0.006251 -0.007659 0.000000 0.004224 0.000000
# 2 -0.006251 0.010739 -0.006669 0.000000 0.001088 0.000000
# 3 -0.007659 -0.006669 0.027302 0.000000 -0.001496 0.000000
# 4 0.000000 0.000000 0.000000 0.028618 0.000000 -0.001529
# 5 0.004224 0.001088 -0.001496 0.000000 0.029947 0.000000
# 6 0.000000 0.000000 0.000000 -0.001529 0.000000 0.032289
#
#
# Mechanical properties :
#
#
# Convention : Reuss Voigt Hill
#
# Bulk Modulus (GPa) = 48.10077 69.02239 58.56158
# Shear Modulus (GPa) = 24.88915 29.72570 27.30743
#
# Velocity S-wave (km/s) = 3.41328 3.73021 3.57526
# Velocity P-wave (km/s) = 6.16845 7.13174 6.66752
#
# Compressibility (1/GPa) = 0.02078969
#
# Stress axis : x y z
#
# Youngs Moduli (GPa) = 41.82803 93.12098 36.62733
#
# Poissons Ratio (x) = 0.58210 0.28053
# Poissons Ratio (y) = 0.26147 0.24428
# Poissons Ratio (z) = 0.32036 0.62105
#
# Static dielectric constant tensor:
#      x y z
#    x 3.746750 0.000000 -0.133110 
#    y 0.000000 3.711080 0.000000 
#    z -0.133110 0.000000 3.909410 
# 
# 
# High freq. dielectric constant tensor:
#      x y z
#    x 1.822570 0.000000 -0.007120 
#    y 0.000000 1.839640 0.000000 
#    z -0.007120 0.000000 1.845000 
# 
# From -- ./inp_files/312131.got.cif
#   From: 2010.06.25/outbox.cif.g09.slc.cpg/sg15_157_cif.got.tgz:312131.got - 2010.06.28 07:06:18.
