data_PCOD8144091
_publ_section_title
;
Structure prediction by ZEFSAII (Michael W. Deem and Ramdas Pophale) SiO2 
 PCOD8144091
Probable space group: C 2/C
;
_chemical_formula_sum "Si O2"
_cell_formula_units_Z 56
_cell_length_a 8.687751
_cell_length_b 11.228001
_cell_length_c 29.582635
_cell_angle_alpha 90.000000
_cell_angle_beta 114.721715
_cell_angle_gamma 90.000000
_cell_volume 2621.197588
_symmetry_space_group_name_H-M "C 2/C"
_symmetry_group_IT_number 15
_symmetry_cell_setting 'monoclinic'
loop_
_space_group_symop_operation_xyz
x,y,z
-x,y,1/2-z
-x,-y,-z
x,-y,1/2+z
1/2+x,1/2+y,z
1/2-x,1/2+y,1/2-z
1/2-x,1/2-y,-z
1/2+x,1/2-y,1/2+z
loop_
_atom_site_type_symbol
_atom_site_label
_atom_site_fract_x
_atom_site_fract_y
_atom_site_fract_z
Si Si1 0.593333 0.273043 0.405775
Si Si2 0.009969 0.663244 0.484221
Si Si3 0.000000 0.766678 0.250000
Si Si4 0.715600 0.503047 0.452261
Si Si5 0.000000 0.763366 0.750000
Si Si6 0.173476 0.864984 0.187996
Si Si7 0.333190 0.361006 0.817694
Si Si8 0.567420 0.678996 0.074430
O O1 0.550857 0.267692 0.453958
O O2 0.670771 0.406318 0.408030
O O3 0.425714 0.268626 0.355281
O O4 0.729295 0.169344 0.410367
O O5 0.828671 0.610916 0.446339
O O6 0.158450 0.563412 0.496701
O O7 0.998558 0.713627 0.534228
O O8 0.094887 0.855756 0.228031
O O9 0.139620 0.685370 0.292469
O O10 0.542393 0.560763 0.451457
O O11 0.134358 0.676542 0.789399
O O12 0.079286 0.843865 0.720138
O O13 0.166502 0.999644 0.169669
O O14 0.439178 0.297569 0.871784
#
# Coordination Sequence:
#
# PCOD8144091 Si02
#       8
#     8   8   4   8   4   8   8   8
#     4  11  23  39  62  92 124 158 203 245 300 359
#     4  10  24  40  60  91 125 162 203 248 293 362
#     4  10  22  42  66  84 122 156 198 254 306 356
#     4  10  21  42  60  85 127 162 204 246 296 354
#     4  10  26  42  64  90 118 156 204 254 300 360
#     4  11  22  42  63  91 119 158 199 251 302 363
#     4  11  22  42  64  90 120 157 200 250 306 361
#     4  11  21  39  64  90 122 162 200 244 302 358
#
# _framework density 21.364281999999999
#
# number of rings (size 3 to 8) (size 9 to 14) (size 15 to 20)
#    0.000    1.429    2.857    3.000    2.000    2.286 
#    0.000    2.857    0.000    0.000    0.000    0.000 
#    0.000    0.000    0.000    0.000    0.000    0.000 
#
# Total GULP energy -346883.604545 kJ/mol
# GULP energy per Si atom -12388.700162 kJ/mol
# Density = 2.131566 g / cm^3
# Si number density = 21.364282 Si / 1000 Ang^3
#
#
#
# Elastic Constant Matrix: (Units=GPa)
#
#
# Indices 1 2 3 4 5 6 
#
# 1 101.3381 44.6576 42.6927 0.0000 26.2192 0.0000
# 2 44.6576 82.7169 32.4823 0.0000 7.2149 0.0000
# 3 42.6927 32.4823 109.7436 0.0000 9.9312 0.0000
# 4 0.0000 0.0000 0.0000 20.7838 0.0000 2.8720
# 5 26.2192 7.2149 9.9312 0.0000 34.3849 0.0000
# 6 0.0000 0.0000 0.0000 2.8720 0.0000 30.5930
#
#
#
# Elastic Compliance Matrix: (Units=1/GPa)
#
#
# Indices 1 2 3 4 5 6 
#
# 1 0.017218 -0.006921 -0.003689 0.000000 -0.010611 0.000000
# 2 -0.006921 0.016565 -0.002437 0.000000 0.002506 0.000000
# 3 -0.003689 -0.002437 0.011262 0.000000 0.000072 0.000000
# 4 0.000000 0.000000 0.000000 0.048747 0.000000 -0.004576
# 5 -0.010611 0.002506 0.000072 0.000000 0.036627 0.000000
# 6 0.000000 0.000000 0.000000 -0.004576 0.000000 0.033117
#
#
# Mechanical properties :
#
#
# Convention : Reuss Voigt Hill
#
# Bulk Modulus (GPa) = 52.77253 59.27376 56.02315
# Shear Modulus (GPa) = 25.51713 28.75006 27.13360
#
# Velocity S-wave (km/s) = 3.45973 3.67237 3.56764
# Velocity P-wave (km/s) = 6.38080 6.76655 6.57651
#
# Compressibility (1/GPa) = 0.01894925
#
# Stress axis : x y z
#
# Youngs Moduli (GPa) = 58.08001 60.36971 88.79272
#
# Poissons Ratio (x) = 0.41784 0.32757
# Poissons Ratio (y) = 0.40199 0.21640
# Poissons Ratio (z) = 0.21427 0.14713
#
# Static dielectric constant tensor:
#      x y z
#    x 4.008000 0.000000 0.269820 
#    y 0.000000 3.654880 0.000000 
#    z 0.269820 0.000000 3.816010 
# 
# 
# High freq. dielectric constant tensor:
#      x y z
#    x 1.838400 0.000000 0.022940 
#    y 0.000000 1.821480 0.000000 
#    z 0.022940 0.000000 1.839790 
# 
# From -- ./inp_files/307278.got.cif
#   From: 2010.06.25/outbox.cif.g09.slc.cpg/sg15_154_cif.got.tgz:307278.got - 2010.06.28 07:06:18.
