data_PCOD8144682
_publ_section_title
;
Structure prediction by ZEFSAII (Michael W. Deem and Ramdas Pophale) SiO2 
 PCOD8144682
Probable space group: C 2/C
;
_chemical_formula_sum "Si O2"
_cell_formula_units_Z 48
_cell_length_a 13.035295
_cell_length_b 6.448136
_cell_length_c 32.233886
_cell_angle_alpha 90.000000
_cell_angle_beta 121.209542
_cell_angle_gamma 90.000000
_cell_volume 2317.261294
_symmetry_space_group_name_H-M "C 2/C"
_symmetry_group_IT_number 15
_symmetry_cell_setting 'monoclinic'
loop_
_space_group_symop_operation_xyz
x,y,z
-x,y,1/2-z
-x,-y,-z
x,-y,1/2+z
1/2+x,1/2+y,z
1/2-x,1/2+y,1/2-z
1/2-x,1/2-y,-z
1/2+x,1/2-y,1/2+z
loop_
_atom_site_type_symbol
_atom_site_label
_atom_site_fract_x
_atom_site_fract_y
_atom_site_fract_z
Si Si1 0.920558 0.225048 0.898037
Si Si2 0.022724 0.606231 0.641894
Si Si3 0.109352 0.658721 0.018286
Si Si4 0.624622 0.407573 0.939462
Si Si5 0.571618 0.828430 0.724392
Si Si6 0.317007 0.484008 0.805956
O O1 0.932667 0.463579 0.886850
O O2 0.880099 0.211677 0.937137
O O3 0.818534 0.109192 0.849767
O O4 0.049531 0.116557 0.917201
O O5 0.991887 0.463250 0.675295
O O6 0.132084 0.755396 0.676688
O O7 0.908327 0.738652 0.602947
O O8 0.234570 0.538585 0.035235
O O9 0.088104 0.819757 0.976814
O O10 0.000000 0.500000 0.000000
O O11 0.500000 0.768673 0.750000
O O12 0.604671 0.609963 0.710895
O O13 0.683946 0.969358 0.760615
#
# Coordination Sequence:
#
# PCOD8144682 Si02
#       6
#     8   8   8   8   8   8
#     4  10  22  42  64  91 128 168 205 258 313 365
#     4  10  21  44  62  90 131 160 208 263 307 371
#     4  11  22  42  66  93 127 169 209 259 316 369
#     4  10  23  42  63  95 128 163 214 259 304 379
#     4  11  23  40  65  91 119 167 205 254 321 368
#     4  10  22  43  61  92 129 155 211 263 299 383
#
# _framework density 20.714106999999998
#
# number of rings (size 3 to 8) (size 9 to 14) (size 15 to 20)
#    0.000    1.667    3.333    0.500    2.333    1.333 
#   12.000    0.000    0.000    0.000    0.000    0.000 
#    0.000    0.000    0.000    0.000    0.000    0.000 
#
# Total GULP energy -297620.464029 kJ/mol
# GULP energy per Si atom -12400.852668 kJ/mol
# Density = 2.066696 g / cm^3
# Si number density = 20.714107 Si / 1000 Ang^3
#
#
#
# Elastic Constant Matrix: (Units=GPa)
#
#
# Indices 1 2 3 4 5 6 
#
# 1 98.9353 47.0516 54.3594 0.0000 -13.3858 0.0000
# 2 47.0516 104.1151 45.3750 0.0000 -6.5322 0.0000
# 3 54.3594 45.3750 131.4466 0.0000 -17.1710 0.0000
# 4 0.0000 0.0000 0.0000 32.5774 0.0000 4.5106
# 5 -13.3858 -6.5322 -17.1710 0.0000 26.7559 0.0000
# 6 0.0000 0.0000 0.0000 4.5106 0.0000 21.6184
#
#
#
# Elastic Compliance Matrix: (Units=1/GPa)
#
#
# Indices 1 2 3 4 5 6 
#
# 1 0.015176 -0.004827 -0.004117 0.000000 0.003772 0.000000
# 2 -0.004827 0.012843 -0.002557 0.000000 -0.000921 0.000000
# 3 -0.004117 -0.002557 0.010743 0.000000 0.004210 0.000000
# 4 0.000000 0.000000 0.000000 0.031609 0.000000 -0.006595
# 5 0.003772 -0.000921 0.004210 0.000000 0.041739 0.000000
# 6 0.000000 0.000000 0.000000 -0.006595 0.000000 0.047633
#
#
# Mechanical properties :
#
#
# Convention : Reuss Voigt Hill
#
# Bulk Modulus (GPa) = 63.45682 69.78543 66.62112
# Shear Modulus (GPa) = 26.59589 28.70442 27.65016
#
# Velocity S-wave (km/s) = 3.58711 3.72659 3.65752
# Velocity P-wave (km/s) = 6.91792 7.23046 7.07592
#
# Compressibility (1/GPa) = 0.01575875
#
# Stress axis : x y z
#
# Youngs Moduli (GPa) = 65.89500 77.86283 93.08456
#
# Poissons Ratio (x) = 0.37587 0.38320
# Poissons Ratio (y) = 0.31810 0.23805
# Poissons Ratio (z) = 0.27127 0.19912
#
# Static dielectric constant tensor:
#      x y z
#    x 3.402190 0.000000 -0.035400 
#    y 0.000000 3.629800 0.000000 
#    z -0.035400 0.000000 4.229610 
# 
# 
# High freq. dielectric constant tensor:
#      x y z
#    x 1.779650 0.000000 -0.001930 
#    y 0.000000 1.809540 0.000000 
#    z -0.001930 0.000000 1.842060 
# 
# From -- ./inp_files/312451.got.cif
#   From: 2010.06.25/outbox.cif.g09.slc.cpg/sg15_157_cif.got.tgz:312451.got - 2010.06.28 07:06:18.
