data_PCOD8144671
_publ_section_title
;
Structure prediction by ZEFSAII (Michael W. Deem and Ramdas Pophale) SiO2 
 PCOD8144671
Probable space group: C 2/C
;
_chemical_formula_sum "Si O2"
_cell_formula_units_Z 40
_cell_length_a 9.312160
_cell_length_b 11.491914
_cell_length_c 17.877869
_cell_angle_alpha 90.000000
_cell_angle_beta 117.944757
_cell_angle_gamma 90.000000
_cell_volume 1690.113460
_symmetry_space_group_name_H-M "C 2/C"
_symmetry_group_IT_number 15
_symmetry_cell_setting 'monoclinic'
loop_
_space_group_symop_operation_xyz
x,y,z
-x,y,1/2-z
-x,-y,-z
x,-y,1/2+z
1/2+x,1/2+y,z
1/2-x,1/2+y,1/2-z
1/2-x,1/2-y,-z
1/2+x,1/2-y,1/2+z
loop_
_atom_site_type_symbol
_atom_site_label
_atom_site_fract_x
_atom_site_fract_y
_atom_site_fract_z
Si Si1 0.251653 0.729372 0.913178
Si Si2 0.258076 0.302445 0.890411
Si Si3 0.675073 0.470081 0.164436
Si Si4 0.534266 0.877989 0.967032
Si Si5 0.500000 0.859399 0.250000
Si Si6 0.000000 0.852367 0.250000
O O1 0.343785 0.608155 0.915502
O O2 0.355806 0.832155 0.899341
O O3 0.069180 0.723387 0.833750
O O4 0.250000 0.750000 0.000000
O O5 0.352010 0.395902 0.862557
O O6 0.151116 0.380402 0.923201
O O7 0.149752 0.228507 0.807755
O O8 0.389296 0.217174 0.958469
O O9 0.537009 0.435121 0.189133
O O10 0.854204 0.442747 0.244181
O O11 0.500000 0.000000 0.000000
#
# Coordination Sequence:
#
# PCOD8144671 Si02
#       6
#     8   8   8   8   4   4
#     4  10  21  43  73 112 147 200 263 312 396 465
#     4  11  25  47  77 103 152 199 249 318 393 455
#     4  10  23  46  74 106 150 200 256 320 387 464
#     4  11  25  47  72 109 152 198 254 322 385 463
#     4   8  21  42  73 108 144 199 253 324 380 460
#     4  12  25  48  69 116 150 197 261 316 396 458
#
# _framework density 23.66705
#
# number of rings (size 3 to 8) (size 9 to 14) (size 15 to 20)
#    1.200    0.400    2.000    1.800    2.800    2.400 
#    3.600    4.000    0.000    0.000    0.000    0.000 
#    0.000    0.000    0.000    0.000    0.000    0.000 
#
# Total GULP energy -247842.866792 kJ/mol
# GULP energy per Si atom -12392.143340 kJ/mol
# Density = 2.361318 g / cm^3
# Si number density = 23.667050 Si / 1000 Ang^3
#
#
#
# Elastic Constant Matrix: (Units=GPa)
#
#
# Indices 1 2 3 4 5 6 
#
# 1 56.3356 54.2536 20.5880 0.0000 -24.3178 0.0000
# 2 54.2536 163.5116 48.7335 0.0000 -15.1368 0.0000
# 3 20.5880 48.7335 112.8441 0.0000 -13.6063 0.0000
# 4 0.0000 0.0000 0.0000 13.8394 0.0000 0.6664
# 5 -24.3178 -15.1368 -13.6063 0.0000 42.7208 0.0000
# 6 0.0000 0.0000 0.0000 0.6664 0.0000 46.6160
#
#
#
# Elastic Compliance Matrix: (Units=1/GPa)
#
#
# Indices 1 2 3 4 5 6 
#
# 1 0.034103 -0.009824 -0.000061 0.000000 0.015912 0.000000
# 2 -0.009824 0.009954 -0.002865 0.000000 -0.002978 0.000000
# 3 -0.000061 -0.002865 0.010382 0.000000 0.002257 0.000000
# 4 0.000000 0.000000 0.000000 0.072307 0.000000 -0.001034
# 5 0.015912 -0.002978 0.002257 0.000000 0.032129 0.000000
# 6 0.000000 0.000000 0.000000 -0.001034 0.000000 0.021467
#
#
# Mechanical properties :
#
#
# Convention : Reuss Voigt Hill
#
# Bulk Modulus (GPa) = 34.55608 64.42682 49.49145
# Shear Modulus (GPa) = 23.20311 34.57631 28.88971
#
# Velocity S-wave (km/s) = 3.13453 3.82638 3.49760
# Velocity P-wave (km/s) = 5.26621 6.84126 6.10474
#
# Compressibility (1/GPa) = 0.02893847
#
# Stress axis : x y z
#
# Youngs Moduli (GPa) = 29.32325 100.46390 96.31653
#
# Poissons Ratio (x) = 0.98699 0.00583
# Poissons Ratio (y) = 0.28808 0.27598
# Poissons Ratio (z) = 0.00178 0.28787
#
# Static dielectric constant tensor:
#      x y z
#    x 4.624890 0.000000 0.115340 
#    y 0.000000 4.114380 0.000000 
#    z 0.115340 0.000000 4.132870 
# 
# 
# High freq. dielectric constant tensor:
#      x y z
#    x 1.942330 0.000000 0.000430 
#    y 0.000000 1.934690 0.000000 
#    z 0.000430 0.000000 1.927740 
# 
# From -- ./inp_files/230032.got.cif
#   From: 2010.06.25/outbox.cif.g09.slc.cpg/sg15_116_cif.got.tgz:230032.got - 2010.06.28 07:06:18.
