data_PCOD8144216
_publ_section_title
;
Structure prediction by ZEFSAII (Michael W. Deem and Ramdas Pophale) SiO2 
 PCOD8144216
Probable space group: C 2/C
;
_chemical_formula_sum "Si O2"
_cell_formula_units_Z 60
_cell_length_a 14.494742
_cell_length_b 9.193060
_cell_length_c 21.299254
_cell_angle_alpha 90.000000
_cell_angle_beta 86.492931
_cell_angle_gamma 90.000000
_cell_volume 2832.832479
_symmetry_space_group_name_H-M "C 2/C"
_symmetry_group_IT_number 15
_symmetry_cell_setting 'monoclinic'
loop_
_space_group_symop_operation_xyz
x,y,z
-x,y,1/2-z
-x,-y,-z
x,-y,1/2+z
1/2+x,1/2+y,z
1/2-x,1/2+y,1/2-z
1/2-x,1/2-y,-z
1/2+x,1/2-y,1/2+z
loop_
_atom_site_type_symbol
_atom_site_label
_atom_site_fract_x
_atom_site_fract_y
_atom_site_fract_z
Si Si1 0.870301 0.988293 0.572134
Si Si2 0.284485 0.067250 0.823140
Si Si3 0.708240 0.378912 0.042512
Si Si4 0.486745 0.975517 0.825227
Si Si5 0.139521 0.325509 0.377751
Si Si6 0.691577 0.671121 0.258858
Si Si7 0.027337 0.161741 0.626249
Si Si8 0.000000 0.975392 0.750000
O O1 0.792286 0.046705 0.621623
O O2 0.831749 0.003715 0.502235
O O3 0.894875 0.819251 0.583867
O O4 0.960416 0.087805 0.577492
O O5 0.382711 0.020841 0.846394
O O6 0.259676 0.966949 0.763164
O O7 0.283715 0.237502 0.804223
O O8 0.795255 0.429765 0.081718
O O9 0.627927 0.322647 0.091884
O O10 0.750000 0.250000 0.000000
O O11 0.500000 0.979934 0.750000
O O12 0.510529 0.819072 0.852747
O O13 0.550931 0.089533 0.857683
O O14 0.205149 0.276590 0.317726
O O15 0.584561 0.626243 0.265391
O O16 0.031870 0.069722 0.689699
#
# Coordination Sequence:
#
# PCOD8144216 Si02
#       8
#     8   8   8   8   8   8   8   4
#     4  10  23  45  66  93 125 177 231 266 320 391
#     4  11  24  39  66  93 137 169 217 266 334 395
#     4  10  23  46  70  89 128 182 229 270 322 384
#     4  12  24  37  62 102 138 166 209 270 340 394
#     4  10  21  42  65  93 132 174 217 266 335 390
#     4  11  23  39  63  96 134 173 209 269 337 399
#     4  12  24  41  69  99 135 171 222 274 328 398
#     4  12  24  40  66 104 134 172 216 268 344 396
#
# _framework density 21.180216000000001
#
# number of rings (size 3 to 8) (size 9 to 14) (size 15 to 20)
#    0.000    1.067    4.667    3.600    5.600    0.000 
#    0.000    6.667    0.000    0.000    0.000    0.000 
#    0.000    0.000    0.000    0.000    0.000    0.000 
#
# Total GULP energy -371961.166740 kJ/mol
# GULP energy per Si atom -12398.705558 kJ/mol
# Density = 2.113201 g / cm^3
# Si number density = 21.180216 Si / 1000 Ang^3
#
#
#
# Elastic Constant Matrix: (Units=GPa)
#
#
# Indices 1 2 3 4 5 6 
#
# 1 141.7711 47.2831 46.5126 0.0000 17.2310 0.0000
# 2 47.2831 82.4129 31.1919 0.0000 -1.8977 0.0000
# 3 46.5126 31.1919 83.9382 0.0000 3.7439 0.0000
# 4 0.0000 0.0000 0.0000 23.7352 0.0000 -1.1578
# 5 17.2310 -1.8977 3.7439 0.0000 32.0822 0.0000
# 6 0.0000 0.0000 0.0000 -1.1578 0.0000 19.9733
#
#
#
# Elastic Compliance Matrix: (Units=1/GPa)
#
#
# Indices 1 2 3 4 5 6 
#
# 1 0.010563 -0.004730 -0.003850 0.000000 -0.005504 0.000000
# 2 -0.004730 0.016306 -0.003613 0.000000 0.003927 0.000000
# 3 -0.003850 -0.003613 0.015387 0.000000 0.000059 0.000000
# 4 0.000000 0.000000 0.000000 0.042251 0.000000 0.002449
# 5 -0.005504 0.003927 0.000059 0.000000 0.034351 0.000000
# 6 0.000000 0.000000 0.000000 0.002449 0.000000 0.050209
#
#
# Mechanical properties :
#
#
# Convention : Reuss Voigt Hill
#
# Bulk Modulus (GPa) = 55.96293 62.01081 58.98687
# Shear Modulus (GPa) = 25.07383 27.36714 26.22049
#
# Velocity S-wave (km/s) = 3.44442 3.59849 3.52230
# Velocity P-wave (km/s) = 6.50372 6.82692 6.66727
#
# Compressibility (1/GPa) = 0.01786897
#
# Stress axis : x y z
#
# Youngs Moduli (GPa) = 94.66733 61.32776 64.98902
#
# Poissons Ratio (x) = 0.29008 0.25022
# Poissons Ratio (y) = 0.44778 0.23483
# Poissons Ratio (z) = 0.36449 0.22160
#
# Static dielectric constant tensor:
#      x y z
#    x 3.988480 0.000000 0.359180 
#    y 0.000000 3.826420 0.000000 
#    z 0.359180 0.000000 4.141000 
# 
# 
# High freq. dielectric constant tensor:
#      x y z
#    x 1.842300 0.000000 0.011450 
#    y 0.000000 1.815890 0.000000 
#    z 0.011450 0.000000 1.829070 
# 
# From -- ./inp_files/272760.got.cif
#   From: 2010.06.25/outbox.cif.g09.slc.cpg/sg15_137_cif.got.tgz:272760.got - 2010.06.28 07:06:18.
