data_PCOD8144937
_publ_section_title
;
Structure prediction by ZEFSAII (Michael W. Deem and Ramdas Pophale) SiO2 
 PCOD8144937
Probable space group: C 2/C
;
_chemical_formula_sum "Si O2"
_cell_formula_units_Z 36
_cell_length_a 21.634956
_cell_length_b 11.765714
_cell_length_c 9.057301
_cell_angle_alpha 90.000000
_cell_angle_beta 52.862313
_cell_angle_gamma 90.000000
_cell_volume 1837.948366
_symmetry_space_group_name_H-M "C 2/C"
_symmetry_group_IT_number 15
_symmetry_cell_setting 'monoclinic'
loop_
_space_group_symop_operation_xyz
x,y,z
-x,y,1/2-z
-x,-y,-z
x,-y,1/2+z
1/2+x,1/2+y,z
1/2-x,1/2+y,1/2-z
1/2-x,1/2-y,-z
1/2+x,1/2-y,1/2+z
loop_
_atom_site_type_symbol
_atom_site_label
_atom_site_fract_x
_atom_site_fract_y
_atom_site_fract_z
Si Si1 0.000000 0.122125 0.750000
Si Si2 0.773758 0.122658 0.428244
Si Si3 0.367974 0.709745 0.760944
Si Si4 0.736668 0.908420 0.642144
Si Si5 0.582363 0.595869 0.099066
O O1 0.955372 0.203416 0.699395
O O2 0.936721 0.036365 0.916361
O O3 0.750000 0.250000 0.500000
O O4 0.756567 0.092058 0.285196
O O5 0.865148 0.103311 0.329562
O O6 0.724512 0.037430 0.604593
O O7 0.342736 0.840376 0.776049
O O8 0.367518 0.650457 0.602725
O O9 0.307719 0.646855 0.952331
O O10 0.500000 0.659525 0.250000
#
# Coordination Sequence:
#
# PCOD8144937 Si02
#       5
#     4   8   8   8   8
#     4  10  22  34  70  90 134 162 220 276 328 382
#     4  12  24  42  66  95 135 175 220 272 332 386
#     4  11  22  40  60  99 129 168 214 277 333 385
#     4  11  25  39  63  95 136 169 224 267 330 400
#     4  10  22  37  63  98 129 163 219 275 331 392
#
# _framework density 19.587057000000001
#
# number of rings (size 3 to 8) (size 9 to 14) (size 15 to 20)
#    0.667    0.444    4.444    2.000    6.222    0.000 
#    0.000    0.000    2.444    2.667    0.000    0.000 
#    0.000    0.000    0.000    0.000    0.000    0.000 
#
# Total GULP energy -223080.211050 kJ/mol
# GULP energy per Si atom -12393.345058 kJ/mol
# Density = 1.954248 g / cm^3
# Si number density = 19.587057 Si / 1000 Ang^3
#
#
#
# Elastic Constant Matrix: (Units=GPa)
#
#
# Indices 1 2 3 4 5 6 
#
# 1 131.8366 81.4653 44.9962 0.0000 2.5161 0.0000
# 2 81.4653 150.7028 55.4834 0.0000 6.8008 0.0000
# 3 44.9962 55.4834 102.2132 0.0000 24.5593 0.0000
# 4 0.0000 0.0000 0.0000 25.1700 0.0000 -9.1212
# 5 2.5161 6.8008 24.5593 0.0000 32.2091 0.0000
# 6 0.0000 0.0000 0.0000 -9.1212 0.0000 41.6824
#
#
#
# Elastic Compliance Matrix: (Units=1/GPa)
#
#
# Indices 1 2 3 4 5 6 
#
# 1 0.011904 -0.005502 -0.002828 0.000000 0.002388 0.000000
# 2 -0.005502 0.010949 -0.003757 0.000000 0.000983 0.000000
# 3 -0.002828 -0.003757 0.015701 0.000000 -0.010957 0.000000
# 4 0.000000 0.000000 0.000000 0.043152 0.000000 0.009443
# 5 0.002388 0.000983 -0.010957 0.000000 0.039008 0.000000
# 6 0.000000 0.000000 0.000000 0.009443 0.000000 0.026057
#
#
# Mechanical properties :
#
#
# Convention : Reuss Voigt Hill
#
# Bulk Modulus (GPa) = 69.54183 83.18250 76.36216
# Shear Modulus (GPa) = 28.45142 33.33281 30.89211
#
# Velocity S-wave (km/s) = 3.81538 4.12974 3.97567
# Velocity P-wave (km/s) = 7.41556 8.08084 7.75534
#
# Compressibility (1/GPa) = 0.01437983
#
# Stress axis : x y z
#
# Youngs Moduli (GPa) = 84.00224 91.33539 63.69148
#
# Poissons Ratio (x) = 0.50251 0.18011
# Poissons Ratio (y) = 0.46217 0.23931
# Poissons Ratio (z) = 0.23754 0.34318
#
# Static dielectric constant tensor:
#      x y z
#    x 3.804190 0.000000 0.068430 
#    y 0.000000 3.690090 0.000000 
#    z 0.068430 0.000000 3.549840 
# 
# 
# High freq. dielectric constant tensor:
#      x y z
#    x 1.773950 0.000000 0.015160 
#    y 0.000000 1.743370 0.000000 
#    z 0.015160 0.000000 1.753880 
# 
# From -- ./inp_files/54025.got.cif
#   From: 2010.06.25/outbox.cif.g09.slc.cpg/sg15_28_cif.got.tgz:54025.got - 2010.06.28 07:06:18.
