data_PCOD8144325
_publ_section_title
;
Structure prediction by ZEFSAII (Michael W. Deem and Ramdas Pophale) SiO2 
 PCOD8144325
Probable space group: C 2/C
;
_chemical_formula_sum "Si O2"
_cell_formula_units_Z 48
_cell_length_a 14.346222
_cell_length_b 25.593193
_cell_length_c 7.823079
_cell_angle_alpha 90.000000
_cell_angle_beta 47.701243
_cell_angle_gamma 90.000000
_cell_volume 2124.532939
_symmetry_space_group_name_H-M "C 2/C"
_symmetry_group_IT_number 15
_symmetry_cell_setting 'monoclinic'
loop_
_space_group_symop_operation_xyz
x,y,z
-x,y,1/2-z
-x,-y,-z
x,-y,1/2+z
1/2+x,1/2+y,z
1/2-x,1/2+y,1/2-z
1/2-x,1/2-y,-z
1/2+x,1/2-y,1/2+z
loop_
_atom_site_type_symbol
_atom_site_label
_atom_site_fract_x
_atom_site_fract_y
_atom_site_fract_z
Si Si1 0.500000 0.877557 0.250000
Si Si2 0.516540 0.590486 0.423836
Si Si3 0.289057 0.943107 0.702164
Si Si4 0.325787 0.837282 0.187860
Si Si5 0.437542 0.292717 0.997832
Si Si6 0.761501 0.056900 0.850047
Si Si7 0.500000 0.776169 0.750000
O O1 0.406162 0.914089 0.472650
O O2 0.424187 0.837839 0.221930
O O3 0.500000 0.572382 0.250000
O O4 0.658277 0.579305 0.298663
O O5 0.498681 0.652012 0.471471
O O6 0.415233 0.557705 0.662836
O O7 0.295645 0.004513 0.657702
O O8 0.297756 0.933782 0.892543
O O9 0.208214 0.799966 0.373293
O O10 0.281428 0.896702 0.220413
O O11 0.385809 0.813941 0.941982
O O12 0.456216 0.257019 0.140545
O O13 0.500000 0.268462 0.750000
#
# Coordination Sequence:
#
# PCOD8144325 Si02
#       7
#     4   8   8   8   8   8   4
#     4  12  26  45  70  94 142 186 227 282 352 412
#     4  10  21  42  68 101 139 173 227 292 349 404
#     4  12  24  40  68 100 135 187 229 280 347 417
#     4  11  26  48  66 102 139 179 229 290 342 417
#     4  10  24  46  72 103 138 177 232 291 350 411
#     4  11  24  42  68  98 137 177 233 286 344 413
#     4  12  26  45  74 104 136 184 233 286 356 418
#
# _framework density 22.593201000000001
#
# number of rings (size 3 to 8) (size 9 to 14) (size 15 to 20)
#    0.000    1.000    0.000    7.500    5.833    4.000 
#    6.000    0.000    0.000    0.000    0.000    0.000 
#    0.000    0.000    0.000    0.000    0.000    0.000 
#
# Total GULP energy -297683.429899 kJ/mol
# GULP energy per Si atom -12403.476246 kJ/mol
# Density = 2.254178 g / cm^3
# Si number density = 22.593201 Si / 1000 Ang^3
#
#
#
# Elastic Constant Matrix: (Units=GPa)
#
#
# Indices 1 2 3 4 5 6 
#
# 1 119.1276 30.9524 52.2556 0.0000 -8.4269 0.0000
# 2 30.9524 73.3070 41.1978 0.0000 -5.5912 0.0000
# 3 52.2556 41.1978 179.5131 0.0000 -4.1386 0.0000
# 4 0.0000 0.0000 0.0000 34.1873 0.0000 18.6151
# 5 -8.4269 -5.5912 -4.1386 0.0000 39.2172 0.0000
# 6 0.0000 0.0000 0.0000 18.6151 0.0000 13.7237
#
#
#
# Elastic Compliance Matrix: (Units=1/GPa)
#
#
# Indices 1 2 3 4 5 6 
#
# 1 0.010266 -0.002936 -0.002279 0.000000 0.001547 0.000000
# 2 -0.002936 0.016637 -0.002930 0.000000 0.001432 0.000000
# 3 -0.002279 -0.002930 0.006902 0.000000 -0.000179 0.000000
# 4 0.000000 0.000000 0.000000 0.111890 0.000000 -0.151770
# 5 0.001547 0.001432 -0.000179 0.000000 0.026017 0.000000
# 6 0.000000 0.000000 0.000000 -0.151770 0.000000 0.278731
#
#
# Mechanical properties :
#
#
# Convention : Reuss Voigt Hill
#
# Bulk Modulus (GPa) = 57.09450 68.97325 63.03388
# Shear Modulus (GPa) = 10.58038 33.92842 22.25440
#
# Velocity S-wave (km/s) = 2.16637 3.87939 3.14188
# Velocity P-wave (km/s) = 5.61988 7.11764 6.41264
#
# Compressibility (1/GPa) = 0.01751482
#
# Stress axis : x y z
#
# Youngs Moduli (GPa) = 97.40578 60.10682 144.87604
#
# Poissons Ratio (x) = 0.17647 0.33018
# Poissons Ratio (y) = 0.28598 0.42456
# Poissons Ratio (z) = 0.22199 0.17614
#
# Static dielectric constant tensor:
#      x y z
#    x 4.156810 0.000000 0.135730 
#    y 0.000000 4.048870 0.000000 
#    z 0.135730 0.000000 4.596930 
# 
# 
# High freq. dielectric constant tensor:
#      x y z
#    x 1.888830 0.000000 0.000340 
#    y 0.000000 1.895410 0.000000 
#    z 0.000340 0.000000 1.913370 
# 
# From -- ./inp_files/43863.got.cif
#   From: 2010.06.25/outbox.cif.g09.slc.cpg/sg15_22_cif.got.tgz:43863.got - 2010.06.28 07:06:18.
