data_PCOD8144035
_publ_section_title
;
Structure prediction by ZEFSAII (Michael W. Deem and Ramdas Pophale) SiO2 
 PCOD8144035
Probable space group: C 2/C
;
_chemical_formula_sum "Si O2"
_cell_formula_units_Z 40
_cell_length_a 17.249280
_cell_length_b 22.947199
_cell_length_c 9.167513
_cell_angle_alpha 90.000000
_cell_angle_beta 24.291002
_cell_angle_gamma 90.000000
_cell_volume 1492.746617
_symmetry_space_group_name_H-M "C 2/C"
_symmetry_group_IT_number 15
_symmetry_cell_setting 'monoclinic'
loop_
_space_group_symop_operation_xyz
x,y,z
-x,y,1/2-z
-x,-y,-z
x,-y,1/2+z
1/2+x,1/2+y,z
1/2-x,1/2+y,1/2-z
1/2-x,1/2-y,-z
1/2+x,1/2-y,1/2+z
loop_
_atom_site_type_symbol
_atom_site_label
_atom_site_fract_x
_atom_site_fract_y
_atom_site_fract_z
Si Si1 0.673725 0.652486 0.203237
Si Si2 0.172851 0.558793 0.732768
Si Si3 0.683470 0.538943 0.692310
Si Si4 0.996073 0.259311 0.087112
Si Si5 0.199265 0.633067 0.195729
O O1 0.499541 0.698480 0.514164
O O2 0.744263 0.624484 0.233323
O O3 0.649167 0.596453 0.139304
O O4 0.820768 0.696521 0.870096
O O5 0.221854 0.548022 0.815651
O O6 0.160006 0.496431 0.672013
O O7 0.989358 0.597624 0.020898
O O8 0.643856 0.602463 0.680304
O O9 0.500000 0.500000 0.000000
O O10 0.000000 0.242122 0.250000
O O11 0.173347 0.297276 0.721945
#
# Coordination Sequence:
#
# PCOD8144035 Si02
#       5
#     8   8   8   8   8
#     4   9  18  36  66  99 133 173 227 282 333 400
#     4  11  23  41  67  96 134 181 231 282 345 418
#     4  12  26  43  64  97 138 179 228 291 353 408
#     4   8  16  33  64 101 134 176 223 276 337 401
#     4  10  21  41  70 100 133 182 237 282 336 414
#
# _framework density 26.796241999999999
#
# number of rings (size 3 to 8) (size 9 to 14) (size 15 to 20)
#    0.000    2.000    0.000    4.800    0.000    3.200 
#    0.000    0.000    0.000   55.200    0.000    0.000 
#    0.000    4.800    0.000    0.000    0.000    0.000 
#
# Total GULP energy -247764.887951 kJ/mol
# GULP energy per Si atom -12388.244398 kJ/mol
# Density = 2.673525 g / cm^3
# Si number density = 26.796242 Si / 1000 Ang^3
#
#
#
# Elastic Constant Matrix: (Units=GPa)
#
#
# Indices 1 2 3 4 5 6 
#
# 1 204.3140 108.8607 38.7301 -0.0367 26.3024 0.0350
# 2 108.8607 193.3409 36.1166 -0.0516 28.0079 -0.0344
# 3 38.7301 36.1166 59.7720 0.1825 10.6333 0.1120
# 4 -0.0367 -0.0516 0.1825 25.3541 -0.1273 -10.5989
# 5 26.3024 28.0079 10.6333 -0.1273 35.0655 -0.0862
# 6 0.0350 -0.0344 0.1120 -10.5989 -0.0862 50.3262
#
#
#
# Elastic Compliance Matrix: (Units=1/GPa)
#
#
# Indices 1 2 3 4 5 6 
#
# 1 0.007453 -0.003447 -0.002370 0.000008 -0.002119 -0.000004
# 2 -0.003447 0.007944 -0.002006 0.000014 -0.003151 0.000010
# 3 -0.002370 -0.002006 0.019954 -0.000203 -0.002672 -0.000091
# 4 0.000008 0.000014 -0.000203 0.043252 0.000223 0.009110
# 5 -0.002119 -0.003151 -0.002672 0.000223 0.033436 0.000110
# 6 -0.000004 0.000010 -0.000091 0.009110 0.000110 0.021789
#
#
# Mechanical properties :
#
#
# Convention : Reuss Voigt Hill
#
# Bulk Modulus (GPa) = 50.74630 91.64907 71.19768
# Shear Modulus (GPa) = 32.04258 40.39711 36.21984
#
# Velocity S-wave (km/s) = 3.46177 3.88695 3.68050
# Velocity P-wave (km/s) = 5.91248 7.37706 6.68500
#
# Compressibility (1/GPa) = 0.01970587
#
# Stress axis : x y z
#
# Youngs Moduli (GPa) = 134.17711 125.87780 50.11510
#
# Poissons Ratio (x) = 0.43387 0.11875
# Poissons Ratio (y) = 0.46247 0.10054
# Poissons Ratio (z) = 0.31795 0.25254
#
# Static dielectric constant tensor:
#      x y z
#    x 4.572340 -0.000810 0.032360 
#    y -0.000810 6.936140 0.001650 
#    z 0.032360 0.001650 6.107190 
# 
# 
# High freq. dielectric constant tensor:
#      x y z
#    x 2.054680 -0.000010 -0.009960 
#    y -0.000010 2.123930 0.000020 
#    z -0.009960 0.000020 2.087730 
# 
# From -- ./inp_files/52107.got.cif
#   From: 2010.06.25/outbox.cif.g09.slc.cpg/sg15_27_cif.got.tgz:52107.got - 2010.06.28 07:06:18.
