data_PCOD8144969
_publ_section_title
;
Structure prediction by ZEFSAII (Michael W. Deem and Ramdas Pophale) SiO2 
 PCOD8144969
Probable space group: C 2/C
;
_chemical_formula_sum "Si O2"
_cell_formula_units_Z 48
_cell_length_a 12.536524
_cell_length_b 22.837628
_cell_length_c 13.356977
_cell_angle_alpha 90.000000
_cell_angle_beta 136.700101
_cell_angle_gamma 90.000000
_cell_volume 2622.675744
_symmetry_space_group_name_H-M "C 2/C"
_symmetry_group_IT_number 15
_symmetry_cell_setting 'monoclinic'
loop_
_space_group_symop_operation_xyz
x,y,z
-x,y,1/2-z
-x,-y,-z
x,-y,1/2+z
1/2+x,1/2+y,z
1/2-x,1/2+y,1/2-z
1/2-x,1/2-y,-z
1/2+x,1/2-y,1/2+z
loop_
_atom_site_type_symbol
_atom_site_label
_atom_site_fract_x
_atom_site_fract_y
_atom_site_fract_z
Si Si1 0.238465 0.082005 0.623916
Si Si2 0.779720 0.787479 0.421537
Si Si3 0.828303 0.537071 0.103820
Si Si4 0.675018 0.975068 0.121133
Si Si5 0.869000 0.075042 0.350937
Si Si6 0.410209 0.305968 0.794405
O O1 0.289346 0.146543 0.620361
O O2 0.321236 0.033394 0.612036
O O3 0.301746 0.075758 0.780711
O O4 0.054063 0.070206 0.489203
O O5 0.750000 0.750000 0.500000
O O6 0.703970 0.749840 0.281050
O O7 0.964354 0.793157 0.532374
O O8 0.705992 0.570652 0.090361
O O9 0.000000 0.558997 0.250000
O O10 0.787896 0.552404 0.961704
O O11 0.800785 0.024945 0.232964
O O12 0.500000 0.000000 0.000000
O O13 0.819151 0.135451 0.262589
O O14 0.500000 0.315225 0.750000
#
# Coordination Sequence:
#
# PCOD8144969 Si02
#       6
#     8   8   8   8   8   8
#     4  10  22  37  54  85 118 142 187 231 280 345
#     4   9  19  34  53  81 109 143 177 225 282 327
#     4  11  21  36  54  82 115 143 190 230 274 339
#     4  11  21  35  55  82 110 154 187 228 286 325
#     4  10  22  36  53  82 113 148 183 226 282 333
#     4   9  19  35  53  80 110 139 179 223 278 335
#
# _framework density 18.301919999999999
#
# number of rings (size 3 to 8) (size 9 to 14) (size 15 to 20)
#    0.000    2.000    3.333    2.000    7.000    5.333 
#    0.000    0.000    0.000    1.000    0.000    0.000 
#    0.000    0.000    0.000    0.000    0.000    0.000 
#
# Total GULP energy -297426.393298 kJ/mol
# GULP energy per Si atom -12392.766387 kJ/mol
# Density = 1.826026 g / cm^3
# Si number density = 18.301920 Si / 1000 Ang^3
#
#
#
# Elastic Constant Matrix: (Units=GPa)
#
#
# Indices 1 2 3 4 5 6 
#
# 1 65.0338 19.3725 20.6159 0.0000 -9.6504 0.0000
# 2 19.3725 111.9400 28.7885 0.0000 -2.6662 0.0000
# 3 20.6159 28.7885 95.4684 0.0000 -6.3858 0.0000
# 4 0.0000 0.0000 0.0000 30.9365 0.0000 -2.4338
# 5 -9.6504 -2.6662 -6.3858 0.0000 28.9593 0.0000
# 6 0.0000 0.0000 0.0000 -2.4338 0.0000 22.7492
#
#
#
# Elastic Compliance Matrix: (Units=1/GPa)
#
#
# Indices 1 2 3 4 5 6 
#
# 1 0.017680 -0.002216 -0.002811 0.000000 0.005068 0.000000
# 2 -0.002216 0.009964 -0.002552 0.000000 -0.000384 0.000000
# 3 -0.002811 -0.002552 0.011949 0.000000 0.001463 0.000000
# 4 0.000000 0.000000 0.000000 0.032599 0.000000 0.003487
# 5 0.005068 -0.000384 0.001463 0.000000 0.036507 0.000000
# 6 0.000000 0.000000 0.000000 0.003487 0.000000 0.044331
#
#
# Mechanical properties :
#
#
# Convention : Reuss Voigt Hill
#
# Bulk Modulus (GPa) = 40.92370 45.55511 43.23941
# Shear Modulus (GPa) = 28.35569 30.10671 29.23120
#
# Velocity S-wave (km/s) = 3.94042 4.06026 4.00079
# Velocity P-wave (km/s) = 6.56593 6.85025 6.70960
#
# Compressibility (1/GPa) = 0.02443572
#
# Stress axis : x y z
#
# Youngs Moduli (GPa) = 56.56185 100.36132 83.68927
#
# Poissons Ratio (x) = 0.22242 0.23522
# Poissons Ratio (y) = 0.12535 0.21355
# Poissons Ratio (z) = 0.15897 0.25610
#
# Static dielectric constant tensor:
#      x y z
#    x 3.206620 0.000000 -0.000850 
#    y 0.000000 3.560550 0.000000 
#    z -0.000850 0.000000 4.045630 
# 
# 
# High freq. dielectric constant tensor:
#      x y z
#    x 1.676370 0.000000 0.005330 
#    y 0.000000 1.696770 0.000000 
#    z 0.005330 0.000000 1.733480 
# 
# From -- ./inp_files/147469.got.cif
#   From: 2010.06.25/outbox.cif.g09.slc.cpg/sg15_74_cif.got.tgz:147469.got - 2010.06.28 07:06:18.
