data_PCOD8144258
_publ_section_title
;
Structure prediction by ZEFSAII (Michael W. Deem and Ramdas Pophale) SiO2 
 PCOD8144258
Probable space group: C 2/C
;
_chemical_formula_sum "Si O2"
_cell_formula_units_Z 56
_cell_length_a 17.536236
_cell_length_b 9.708542
_cell_length_c 22.511228
_cell_angle_alpha 90.000000
_cell_angle_beta 44.316561
_cell_angle_gamma 90.000000
_cell_volume 2677.515022
_symmetry_space_group_name_H-M "C 2/C"
_symmetry_group_IT_number 15
_symmetry_cell_setting 'monoclinic'
loop_
_space_group_symop_operation_xyz
x,y,z
-x,y,1/2-z
-x,-y,-z
x,-y,1/2+z
1/2+x,1/2+y,z
1/2-x,1/2+y,1/2-z
1/2-x,1/2-y,-z
1/2+x,1/2-y,1/2+z
loop_
_atom_site_type_symbol
_atom_site_label
_atom_site_fract_x
_atom_site_fract_y
_atom_site_fract_z
Si Si1 0.220840 0.154619 0.093042
Si Si2 0.551445 0.976254 0.035572
Si Si3 0.459814 0.535368 0.839264
Si Si4 0.134106 0.315018 0.575332
Si Si5 0.124995 0.430853 0.168172
Si Si6 0.839396 0.599943 0.718900
Si Si7 0.169234 0.902994 0.755918
O O1 0.186618 0.311772 0.094959
O O2 0.178562 0.132838 0.182419
O O3 0.155653 0.045350 0.087849
O O4 0.350875 0.134799 0.018487
O O5 0.464657 0.925577 0.132137
O O6 0.596708 0.121882 0.033420
O O7 0.500000 0.000000 0.000000
O O8 0.500000 0.523514 0.750000
O O9 0.449990 0.695448 0.860765
O O10 0.549642 0.468738 0.833489
O O11 0.250000 0.250000 0.500000
O O12 0.136171 0.426688 0.627026
O O13 0.182027 0.443759 0.200943
O O14 0.000000 0.387154 0.250000
O O15 0.815360 0.759949 0.717464
O O16 0.761815 0.510624 0.720972
#
# Coordination Sequence:
#
# PCOD8144258 Si02
#       7
#     8   8   8   8   8   8   8
#     4  10  21  42  66  92 133 172 218 276 332 401
#     4  12  25  42  65  97 136 174 217 274 344 399
#     4  10  22  40  66  95 131 172 225 273 322 398
#     4  12  26  42  66 101 135 175 221 276 335 393
#     4  11  23  42  67 100 129 173 229 272 327 400
#     4  11  24  41  69  95 132 177 222 275 335 402
#     4  10  23  40  64  98 127 174 224 269 335 397
#
# _framework density 20.914915000000001
#
# number of rings (size 3 to 8) (size 9 to 14) (size 15 to 20)
#    0.000    1.143    4.286    2.571    2.000    4.000 
#    0.000    0.000    0.000    4.286    0.000    0.000 
#    0.000    0.000    0.000    0.000    0.000    0.000 
#
# Total GULP energy -347235.765768 kJ/mol
# GULP energy per Si atom -12401.277349 kJ/mol
# Density = 2.086731 g / cm^3
# Si number density = 20.914915 Si / 1000 Ang^3
#
#
#
# Elastic Constant Matrix: (Units=GPa)
#
#
# Indices 1 2 3 4 5 6 
#
# 1 62.0985 53.6409 34.2835 0.0000 -15.6358 0.0000
# 2 53.6409 174.3410 48.9310 0.0000 -13.9468 0.0000
# 3 34.2835 48.9310 79.6122 0.0000 -26.0917 0.0000
# 4 0.0000 0.0000 0.0000 42.1414 0.0000 -4.0401
# 5 -15.6358 -13.9468 -26.0917 0.0000 38.5097 0.0000
# 6 0.0000 0.0000 0.0000 -4.0401 0.0000 36.4608
#
#
#
# Elastic Compliance Matrix: (Units=1/GPa)
#
#
# Indices 1 2 3 4 5 6 
#
# 1 0.025517 -0.005821 -0.006050 0.000000 0.004154 0.000000
# 2 -0.005821 0.008266 -0.003043 0.000000 -0.001431 0.000000
# 3 -0.006050 -0.003043 0.020400 0.000000 0.010263 0.000000
# 4 0.000000 0.000000 0.000000 0.023984 0.000000 0.002658
# 5 0.004154 -0.001431 0.010263 0.000000 0.034089 0.000000
# 6 0.000000 0.000000 0.000000 0.002658 0.000000 0.027721
#
#
# Mechanical properties :
#
#
# Convention : Reuss Voigt Hill
#
# Bulk Modulus (GPa) = 41.05693 65.52917 53.29305
# Shear Modulus (GPa) = 28.10169 35.36879 31.73524
#
# Velocity S-wave (km/s) = 3.66952 4.11674 3.89954
# Velocity P-wave (km/s) = 6.13408 7.34820 6.76842
#
# Compressibility (1/GPa) = 0.02435642
#
# Stress axis : x y z
#
# Youngs Moduli (GPa) = 39.18900 120.97093 49.01935
#
# Poissons Ratio (x) = 0.70416 0.29655
# Poissons Ratio (y) = 0.22812 0.14917
# Poissons Ratio (z) = 0.23708 0.36813
#
# Static dielectric constant tensor:
#      x y z
#    x 3.749620 0.000000 -0.086050 
#    y 0.000000 4.193170 0.000000 
#    z -0.086050 0.000000 3.795130 
# 
# 
# High freq. dielectric constant tensor:
#      x y z
#    x 1.816230 0.000000 -0.010290 
#    y 0.000000 1.829590 0.000000 
#    z -0.010290 0.000000 1.819290 
# 
# From -- ./inp_files/298516.got.cif
#   From: 2010.06.25/outbox.cif.g09.slc.cpg/sg15_150_cif.got.tgz:298516.got - 2010.06.28 07:06:18.
