data_PCOD8144171
_publ_section_title
;
Structure prediction by ZEFSAII (Michael W. Deem and Ramdas Pophale) SiO2 
 PCOD8144171
Probable space group: C 2/C
;
_chemical_formula_sum "Si O2"
_cell_formula_units_Z 36
_cell_length_a 15.283470
_cell_length_b 11.085731
_cell_length_c 15.416595
_cell_angle_alpha 90.000000
_cell_angle_beta 43.381689
_cell_angle_gamma 90.000000
_cell_volume 1794.072562
_symmetry_space_group_name_H-M "C 2/C"
_symmetry_group_IT_number 15
_symmetry_cell_setting 'monoclinic'
loop_
_space_group_symop_operation_xyz
x,y,z
-x,y,1/2-z
-x,-y,-z
x,-y,1/2+z
1/2+x,1/2+y,z
1/2-x,1/2+y,1/2-z
1/2-x,1/2-y,-z
1/2+x,1/2-y,1/2+z
loop_
_atom_site_type_symbol
_atom_site_label
_atom_site_fract_x
_atom_site_fract_y
_atom_site_fract_z
Si Si1 0.000000 0.433614 0.750000
Si Si2 0.042290 0.828631 0.935790
Si Si3 0.166055 0.937535 0.296591
Si Si4 0.722431 0.759240 0.620102
Si Si5 0.045722 0.435172 0.380487
O O1 0.110458 0.353912 0.711717
O O2 0.962388 0.516023 0.859509
O O3 0.149699 0.808705 0.930207
O O4 0.019150 0.707542 0.898785
O O5 0.089976 0.936374 0.837678
O O6 0.910529 0.858526 0.078271
O O7 0.179817 0.867310 0.195049
O O8 0.304201 0.961007 0.238747
O O9 0.750000 0.750000 0.500000
O O10 0.000000 0.500000 0.500000
#
# Coordination Sequence:
#
# PCOD8144171 Si02
#       5
#     4   8   8   8   8
#     4  12  22  40  60  96 124 162 216 258 314 394
#     4  10  22  40  66  89 126 174 209 264 322 380
#     4  10  21  42  64  90 127 169 219 257 319 386
#     4  11  21  37  63  95 124 166 217 267 315 381
#     4  11  23  40  66  94 129 169 206 264 327 382
#
# _framework density 20.066078000000001
#
# number of rings (size 3 to 8) (size 9 to 14) (size 15 to 20)
#    0.000    1.333    2.222    5.333    3.111    0.000 
#    0.000    6.667    0.000    0.000    0.000    0.000 
#    0.000    0.000    0.000    0.000    0.000    0.000 
#
# Total GULP energy -223165.244986 kJ/mol
# GULP energy per Si atom -12398.069166 kJ/mol
# Density = 2.002041 g / cm^3
# Si number density = 20.066078 Si / 1000 Ang^3
#
#
#
# Elastic Constant Matrix: (Units=GPa)
#
#
# Indices 1 2 3 4 5 6 
#
# 1 86.4800 33.9404 30.7962 0.0000 12.0156 0.0000
# 2 33.9404 129.3530 46.3039 0.0000 13.5182 0.0000
# 3 30.7962 46.3039 116.7173 0.0000 2.2044 0.0000
# 4 0.0000 0.0000 0.0000 35.2468 0.0000 5.1891
# 5 12.0156 13.5182 2.2044 0.0000 43.0261 0.0000
# 6 0.0000 0.0000 0.0000 5.1891 0.0000 35.6147
#
#
#
# Elastic Compliance Matrix: (Units=1/GPa)
#
#
# Indices 1 2 3 4 5 6 
#
# 1 0.013856 -0.002372 -0.002659 0.000000 -0.002988 0.000000
# 2 -0.002372 0.009729 -0.003192 0.000000 -0.002231 0.000000
# 3 -0.002659 -0.003192 0.010513 0.000000 0.001207 0.000000
# 4 0.000000 0.000000 0.000000 0.028993 0.000000 -0.004224
# 5 -0.002988 -0.002231 0.001207 0.000000 0.024715 0.000000
# 6 0.000000 0.000000 0.000000 -0.004224 0.000000 0.028694
#
#
# Mechanical properties :
#
#
# Convention : Reuss Voigt Hill
#
# Bulk Modulus (GPa) = 56.64610 61.62571 59.13590
# Shear Modulus (GPa) = 36.01575 37.54484 36.78030
#
# Velocity S-wave (km/s) = 4.24117 4.33027 4.28595
# Velocity P-wave (km/s) = 7.23011 7.46858 7.35031
#
# Compressibility (1/GPa) = 0.01765347
#
# Stress axis : x y z
#
# Youngs Moduli (GPa) = 72.17038 102.78860 95.12387
#
# Poissons Ratio (x) = 0.24378 0.25290
# Poissons Ratio (y) = 0.17116 0.30360
# Poissons Ratio (z) = 0.19188 0.32807
#
# Static dielectric constant tensor:
#      x y z
#    x 3.547660 0.000000 -0.246710 
#    y 0.000000 4.027610 0.000000 
#    z -0.246710 0.000000 3.742670 
# 
# 
# High freq. dielectric constant tensor:
#      x y z
#    x 1.760880 0.000000 -0.010700 
#    y 0.000000 1.800080 0.000000 
#    z -0.010700 0.000000 1.794430 
# 
# From -- ./inp_files/94325.got.cif
#   From: 2010.06.25/outbox.cif.g09.slc.cpg/sg15_48_cif.got.tgz:94325.got - 2010.06.28 07:06:18.
