data_PCOD8144032
_publ_section_title
;
Structure prediction by ZEFSAII (Michael W. Deem and Ramdas Pophale) SiO2 
 PCOD8144032
Probable space group: C 2/C
;
_chemical_formula_sum "Si O2"
_cell_formula_units_Z 40
_cell_length_a 20.750894
_cell_length_b 9.466326
_cell_length_c 20.002513
_cell_angle_alpha 90.000000
_cell_angle_beta 155.100878
_cell_angle_gamma 90.000000
_cell_volume 1654.274331
_symmetry_space_group_name_H-M "C 2/C"
_symmetry_group_IT_number 15
_symmetry_cell_setting 'monoclinic'
loop_
_space_group_symop_operation_xyz
x,y,z
-x,y,1/2-z
-x,-y,-z
x,-y,1/2+z
1/2+x,1/2+y,z
1/2-x,1/2+y,1/2-z
1/2-x,1/2-y,-z
1/2+x,1/2-y,1/2+z
loop_
_atom_site_type_symbol
_atom_site_label
_atom_site_fract_x
_atom_site_fract_y
_atom_site_fract_z
Si Si1 0.992261 0.698791 0.316557
Si Si2 0.100730 0.607644 0.783059
Si Si3 0.261486 0.815902 0.344664
Si Si4 0.892507 0.218043 0.998853
Si Si5 0.678484 0.397117 0.706606
O O1 0.888998 0.560458 0.206688
O O2 0.911234 0.801955 0.292469
O O3 0.000000 0.770941 0.250000
O O4 0.148146 0.653931 0.500716
O O5 0.278774 0.658203 0.949748
O O6 0.000000 0.666356 0.750000
O O7 0.008538 0.662079 0.632349
O O8 0.321184 0.668684 0.367857
O O9 0.259190 0.949342 0.290877
O O10 0.785733 0.283821 0.843039
O O11 0.002869 0.097950 0.069231
#
# Coordination Sequence:
#
# PCOD8144032 Si02
#       5
#     8   8   8   8   8
#     4  11  26  47  72  99 142 185 239 291 350 413
#     4  10  21  41  69  98 139 187 234 288 347 412
#     4  12  27  47  72 106 140 188 236 291 349 423
#     4  10  22  42  66 103 143 179 234 288 353 418
#     4  11  26  43  72 103 142 185 232 290 355 412
#
# _framework density 24.179787000000001
#
# number of rings (size 3 to 8) (size 9 to 14) (size 15 to 20)
#    0.000    1.200    2.000    2.400    8.400    3.200 
#    0.000    1.000    0.000    0.000    0.000    0.000 
#    0.000    0.000    0.000    0.000    0.000    0.000 
#
# Total GULP energy -247789.162786 kJ/mol
# GULP energy per Si atom -12389.458139 kJ/mol
# Density = 2.412475 g / cm^3
# Si number density = 24.179787 Si / 1000 Ang^3
#
#
#
# Elastic Constant Matrix: (Units=GPa)
#
#
# Indices 1 2 3 4 5 6 
#
# 1 143.7256 40.3908 36.6717 0.0002 15.7571 0.0001
# 2 40.3908 74.9033 18.7596 0.0000 -4.8924 0.0000
# 3 36.6717 18.7596 108.6277 0.0003 12.0234 0.0001
# 4 0.0002 0.0000 0.0003 25.2106 0.0001 1.3490
# 5 15.7571 -4.8924 12.0234 0.0001 39.5069 0.0000
# 6 0.0001 0.0000 0.0001 1.3490 0.0000 31.6241
#
#
#
# Elastic Compliance Matrix: (Units=1/GPa)
#
#
# Indices 1 2 3 4 5 6 
#
# 1 0.009162 -0.004711 -0.001873 0.000000 -0.003667 0.000000
# 2 -0.004711 0.016628 -0.001777 0.000000 0.004479 0.000000
# 3 -0.001873 -0.001777 0.010438 0.000000 -0.002650 0.000000
# 4 0.000000 0.000000 0.000000 0.039757 0.000000 -0.001696
# 5 -0.003667 0.004479 -0.002650 0.000000 0.028136 0.000000
# 6 0.000000 0.000000 0.000000 -0.001696 0.000000 0.031694
#
#
# Mechanical properties :
#
#
# Convention : Reuss Voigt Hill
#
# Bulk Modulus (GPa) = 51.26650 57.65564 54.46107
# Shear Modulus (GPa) = 31.43888 34.69728 33.06808
#
# Velocity S-wave (km/s) = 3.60976 3.79221 3.70211
# Velocity P-wave (km/s) = 6.21466 6.56283 6.39112
#
# Compressibility (1/GPa) = 0.01950591
#
# Stress axis : x y z
#
# Youngs Moduli (GPa) = 109.15152 60.13837 95.80022
#
# Poissons Ratio (x) = 0.28329 0.17948
# Poissons Ratio (y) = 0.51417 0.17025
# Poissons Ratio (z) = 0.20449 0.10687
#
# Static dielectric constant tensor:
#      x y z
#    x 4.568020 0.000000 0.167040 
#    y 0.000000 3.974420 0.000000 
#    z 0.167040 0.000000 4.283810 
# 
# 
# High freq. dielectric constant tensor:
#      x y z
#    x 1.958330 0.000000 0.003470 
#    y 0.000000 1.943870 0.000000 
#    z 0.003470 0.000000 1.969540 
# 
# From -- ./inp_files/210833.got.cif
#   From: 2010.06.25/outbox.cif.g09.slc.cpg/sg15_106_cif.got.tgz:210833.got - 2010.06.28 07:06:18.
