data_PCOD8144661
_publ_section_title
;
Structure prediction by ZEFSAII (Michael W. Deem and Ramdas Pophale) SiO2 
 PCOD8144661
Probable space group: C 2/C
;
_chemical_formula_sum "Si O2"
_cell_formula_units_Z 56
_cell_length_a 19.724313
_cell_length_b 11.256358
_cell_length_c 16.092350
_cell_angle_alpha 90.000000
_cell_angle_beta 47.861633
_cell_angle_gamma 90.000000
_cell_volume 2649.391063
_symmetry_space_group_name_H-M "C 2/C"
_symmetry_group_IT_number 15
_symmetry_cell_setting 'monoclinic'
loop_
_space_group_symop_operation_xyz
x,y,z
-x,y,1/2-z
-x,-y,-z
x,-y,1/2+z
1/2+x,1/2+y,z
1/2-x,1/2+y,1/2-z
1/2-x,1/2-y,-z
1/2+x,1/2-y,1/2+z
loop_
_atom_site_type_symbol
_atom_site_label
_atom_site_fract_x
_atom_site_fract_y
_atom_site_fract_z
Si Si1 0.604789 0.997088 0.763712
Si Si2 0.594799 0.260714 0.514938
Si Si3 0.795637 0.287823 0.736907
Si Si4 0.267362 0.648266 0.918830
Si Si5 0.898411 0.499765 0.426488
Si Si6 0.604956 0.565386 0.152759
Si Si7 0.614937 0.265233 0.798070
O O1 0.667006 0.918125 0.772475
O O2 0.617875 0.969059 0.656352
O O3 0.499797 0.969050 0.874427
O O4 0.633275 0.131941 0.753858
O O5 0.652052 0.269658 0.383774
O O6 0.618391 0.138893 0.543095
O O7 0.624302 0.366915 0.550897
O O8 0.487438 0.274982 0.582039
O O9 0.814236 0.201899 0.798872
O O10 0.687367 0.300793 0.809326
O O11 0.335808 0.552939 0.901600
O O12 0.250000 0.750000 0.000000
O O13 0.173731 0.582946 0.966384
O O14 0.500000 0.528671 0.250000
O O15 0.633798 0.649369 0.204866
#
# Coordination Sequence:
#
# PCOD8144661 Si02
#       7
#     8   8   8   8   8   8   8
#     4  10  22  42  69  98 129 172 226 276 333 396
#     4  10  23  45  74  99 126 176 229 286 327 387
#     4  12  27  39  64 104 140 173 217 279 343 396
#     4  12  27  44  63  96 139 184 221 270 338 407
#     4  10  21  43  72  93 125 174 232 271 325 398
#     4  10  23  48  71  97 129 179 228 272 334 407
#     4  10  23  43  72 101 134 169 228 279 333 401
#
# _framework density 21.136932000000002
#
# number of rings (size 3 to 8) (size 9 to 14) (size 15 to 20)
#    0.000    1.429    2.857    0.857    8.000    3.429 
#    0.000    1.429    0.000    0.000    0.000    0.000 
#    0.000    0.000    0.000    0.000    0.000    0.000 
#
# Total GULP energy -347309.169747 kJ/mol
# GULP energy per Si atom -12403.898920 kJ/mol
# Density = 2.108882 g / cm^3
# Si number density = 21.136932 Si / 1000 Ang^3
#
#
#
# Elastic Constant Matrix: (Units=GPa)
#
#
# Indices 1 2 3 4 5 6 
#
# 1 119.9037 66.5608 33.5367 0.0000 -4.7419 0.0000
# 2 66.5608 139.6314 52.5620 0.0000 -8.2986 0.0000
# 3 33.5367 52.5620 118.2331 0.0000 5.7825 0.0000
# 4 0.0000 0.0000 0.0000 33.0343 0.0000 -2.6795
# 5 -4.7419 -8.2986 5.7825 0.0000 26.5918 0.0000
# 6 0.0000 0.0000 0.0000 -2.6795 0.0000 40.6023
#
#
#
# Elastic Compliance Matrix: (Units=1/GPa)
#
#
# Indices 1 2 3 4 5 6 
#
# 1 0.011448 -0.005020 -0.001050 0.000000 0.000703 0.000000
# 2 -0.005020 0.011148 -0.003698 0.000000 0.003388 0.000000
# 3 -0.001050 -0.003698 0.010578 0.000000 -0.003641 0.000000
# 4 0.000000 0.000000 0.000000 0.030435 0.000000 0.002009
# 5 0.000703 0.003388 -0.003641 0.000000 0.039580 0.000000
# 6 0.000000 0.000000 0.000000 0.002009 0.000000 0.024762
#
#
# Mechanical properties :
#
#
# Convention : Reuss Voigt Hill
#
# Bulk Modulus (GPa) = 73.32290 75.89857 74.61074
# Shear Modulus (GPa) = 32.88777 35.05293 33.97035
#
# Velocity S-wave (km/s) = 3.94882 4.07673 4.01328
# Velocity P-wave (km/s) = 7.45357 7.62533 7.53994
#
# Compressibility (1/GPa) = 0.01363830
#
# Stress axis : x y z
#
# Youngs Moduli (GPa) = 87.34890 89.70101 94.53928
#
# Poissons Ratio (x) = 0.45033 0.09925
# Poissons Ratio (y) = 0.43852 0.34958
# Poissons Ratio (z) = 0.09170 0.33169
#
# Static dielectric constant tensor:
#      x y z
#    x 3.924170 0.000000 -0.137090 
#    y 0.000000 3.761630 0.000000 
#    z -0.137090 0.000000 3.856400 
# 
# 
# High freq. dielectric constant tensor:
#      x y z
#    x 1.833950 0.000000 -0.007430 
#    y 0.000000 1.828580 0.000000 
#    z -0.007430 0.000000 1.830400 
# 
# From -- ./inp_files/161230.got.cif
#   From: 2010.06.25/outbox.cif.g09.slc.cpg/sg15_81_cif.got.tgz:161230.got - 2010.06.28 07:06:18.
