data_PCOD8144856
_publ_section_title
;
Structure prediction by ZEFSAII (Michael W. Deem and Ramdas Pophale) SiO2 
 PCOD8144856
Probable space group: C 2/C
;
_chemical_formula_sum "Si O2"
_cell_formula_units_Z 48
_cell_length_a 12.248149
_cell_length_b 7.226647
_cell_length_c 25.879254
_cell_angle_alpha 90.000000
_cell_angle_beta 108.296023
_cell_angle_gamma 90.000000
_cell_volume 2174.852987
_symmetry_space_group_name_H-M "C 2/C"
_symmetry_group_IT_number 15
_symmetry_cell_setting 'monoclinic'
loop_
_space_group_symop_operation_xyz
x,y,z
-x,y,1/2-z
-x,-y,-z
x,-y,1/2+z
1/2+x,1/2+y,z
1/2-x,1/2+y,1/2-z
1/2-x,1/2-y,-z
1/2+x,1/2-y,1/2+z
loop_
_atom_site_type_symbol
_atom_site_label
_atom_site_fract_x
_atom_site_fract_y
_atom_site_fract_z
Si Si1 0.095631 0.626206 0.227948
Si Si2 0.403761 0.653845 0.976448
Si Si3 0.140068 0.409400 0.439878
Si Si4 0.059444 0.874960 0.842901
Si Si5 0.491974 0.751730 0.610608
Si Si6 0.152891 0.038904 0.251097
O O1 0.105777 0.833482 0.250336
O O2 0.218039 0.525398 0.251606
O O3 0.000000 0.524713 0.250000
O O4 0.055425 0.626665 0.163175
O O5 0.276471 0.578107 0.966994
O O6 0.411872 0.714578 0.918279
O O7 0.500000 0.500000 0.000000
O O8 0.421555 0.824325 0.018604
O O9 0.097819 0.293744 0.384036
O O10 0.106760 0.623173 0.429165
O O11 0.066570 0.064985 0.876731
O O12 0.147092 0.874178 0.807376
O O13 0.928529 0.849526 0.801646
#
# Coordination Sequence:
#
# PCOD8144856 Si02
#       6
#     8   8   8   8   8   8
#     4  11  23  42  64  97 133 175 220 266 328 394
#     4  11  24  47  68  98 133 168 226 282 328 401
#     4  11  25  44  71  96 131 179 218 273 342 387
#     4  10  21  46  65 100 137 174 223 274 326 396
#     4  11  23  44  68  99 133 171 225 268 329 398
#     4  10  22  42  65  92 141 172 216 278 316 396
#
# _framework density 22.070459
#
# number of rings (size 3 to 8) (size 9 to 14) (size 15 to 20)
#    0.000    1.333    5.000    1.500    2.333    4.667 
#    6.000    0.000    0.000    0.000    0.000    0.000 
#    0.000    0.000    0.000    0.000    0.000    0.000 
#
# Total GULP energy -297611.666368 kJ/mol
# GULP energy per Si atom -12400.486099 kJ/mol
# Density = 2.202023 g / cm^3
# Si number density = 22.070459 Si / 1000 Ang^3
#
#
#
# Elastic Constant Matrix: (Units=GPa)
#
#
# Indices 1 2 3 4 5 6 
#
# 1 165.6667 27.8402 47.8940 0.0000 -4.5228 0.0000
# 2 27.8402 41.5881 16.4945 0.0000 3.9361 0.0000
# 3 47.8940 16.4945 105.3575 0.0000 -21.7764 0.0000
# 4 0.0000 0.0000 0.0000 17.5756 0.0000 9.3637
# 5 -4.5228 3.9361 -21.7764 0.0000 36.1933 0.0000
# 6 0.0000 0.0000 0.0000 9.3637 0.0000 27.5276
#
#
#
# Elastic Compliance Matrix: (Units=1/GPa)
#
#
# Indices 1 2 3 4 5 6 
#
# 1 0.007507 -0.003843 -0.002890 0.000000 -0.000383 0.000000
# 2 -0.003843 0.028775 -0.004002 0.000000 -0.006017 0.000000
# 3 -0.002890 -0.004002 0.013073 0.000000 0.007940 0.000000
# 4 0.000000 0.000000 0.000000 0.069491 0.000000 -0.023638
# 5 -0.000383 -0.006017 0.007940 0.000000 0.033013 0.000000
# 6 0.000000 0.000000 0.000000 -0.023638 0.000000 0.044368
#
#
# Mechanical properties :
#
#
# Convention : Reuss Voigt Hill
#
# Bulk Modulus (GPa) = 35.86151 55.22997 45.54574
# Shear Modulus (GPa) = 22.02741 30.95154 26.48947
#
# Velocity S-wave (km/s) = 3.16262 3.74892 3.46818
# Velocity P-wave (km/s) = 5.44244 6.61951 6.05962
#
# Compressibility (1/GPa) = 0.02788505
#
# Stress axis : x y z
#
# Youngs Moduli (GPa) = 133.20729 34.75299 76.49466
#
# Poissons Ratio (x) = 0.13355 0.22108
# Poissons Ratio (y) = 0.51191 0.30610
# Poissons Ratio (z) = 0.38498 0.13907
#
# Static dielectric constant tensor:
#      x y z
#    x 4.278910 0.000000 -0.041500 
#    y 0.000000 3.797910 0.000000 
#    z -0.041500 0.000000 4.181940 
# 
# 
# High freq. dielectric constant tensor:
#      x y z
#    x 1.870130 0.000000 -0.007100 
#    y 0.000000 1.862310 0.000000 
#    z -0.007100 0.000000 1.878920 
# 
# From -- ./inp_files/268075.got.cif
#   From: 2010.06.25/outbox.cif.g09.slc.cpg/sg15_135_cif.got.tgz:268075.got - 2010.06.28 07:06:18.
