data_PCOD8144052
_publ_section_title
;
Structure prediction by ZEFSAII (Michael W. Deem and Ramdas Pophale) SiO2 
 PCOD8144052
Probable space group: C 2/C
;
_chemical_formula_sum "Si O2"
_cell_formula_units_Z 56
_cell_length_a 22.229099
_cell_length_b 18.857925
_cell_length_c 19.267656
_cell_angle_alpha 90.000000
_cell_angle_beta 160.960737
_cell_angle_gamma 90.000000
_cell_volume 2634.813758
_symmetry_space_group_name_H-M "C 2/C"
_symmetry_group_IT_number 15
_symmetry_cell_setting 'monoclinic'
loop_
_space_group_symop_operation_xyz
x,y,z
-x,y,1/2-z
-x,-y,-z
x,-y,1/2+z
1/2+x,1/2+y,z
1/2-x,1/2+y,1/2-z
1/2-x,1/2-y,-z
1/2+x,1/2-y,1/2+z
loop_
_atom_site_type_symbol
_atom_site_label
_atom_site_fract_x
_atom_site_fract_y
_atom_site_fract_z
Si Si1 0.869822 0.078678 0.046666
Si Si2 0.824052 0.832592 0.861895
Si Si3 0.338482 0.736198 0.719685
Si Si4 0.640209 0.324380 0.753131
Si Si5 0.953262 0.317518 0.274900
Si Si6 0.365243 0.033113 0.294877
Si Si7 0.495396 0.138690 0.323100
O O1 0.000000 0.045919 0.250000
O O2 0.003177 0.125866 0.145219
O O3 0.704952 0.123152 0.902318
O O4 0.774666 0.021688 0.893337
O O5 0.661524 0.776620 0.704390
O O6 0.917403 0.823440 0.889372
O O7 0.763263 0.913179 0.803624
O O8 0.976917 0.810294 0.085783
O O9 0.336056 0.801131 0.660278
O O10 0.183016 0.678464 0.542813
O O11 0.628346 0.244671 0.767665
O O12 0.854987 0.349948 0.986963
O O13 0.000000 0.286852 0.250000
O O14 0.478043 0.072499 0.356724
O O15 0.500000 0.000000 0.500000
O O16 0.500000 0.108453 0.250000
#
# Coordination Sequence:
#
# PCOD8144052 Si02
#       7
#     8   8   8   8   8   8   8
#     4  12  27  46  68 100 140 186 239 287 342 422
#     4  10  22  41  64  98 125 175 218 278 341 407
#     4   9  20  39  69 100 130 154 222 285 353 403
#     4  12  23  39  71  96 136 180 229 288 349 406
#     4  12  23  41  65 100 137 174 226 288 355 396
#     4  11  27  48  65  93 145 189 231 279 336 423
#     4  10  21  41  70  99 131 171 220 285 347 406
#
# _framework density 21.253874
#
# number of rings (size 3 to 8) (size 9 to 14) (size 15 to 20)
#    0.000    1.143    2.857    3.000    2.000    3.429 
#    5.143    1.429    0.000    0.000    0.000    0.000 
#    0.000    0.000    0.000    0.000    0.000    0.000 
#
# Total GULP energy -346975.318599 kJ/mol
# GULP energy per Si atom -12391.975664 kJ/mol
# Density = 2.120550 g / cm^3
# Si number density = 21.253874 Si / 1000 Ang^3
#
#
#
# Elastic Constant Matrix: (Units=GPa)
#
#
# Indices 1 2 3 4 5 6 
#
# 1 124.1288 37.7181 33.1801 0.0739 -6.5968 0.0905
# 2 37.7181 105.9130 62.5198 0.1672 -8.8974 0.1851
# 3 33.1801 62.5198 121.5703 -0.1168 3.0846 -0.0991
# 4 0.0739 0.1672 -0.1168 -230.5351 0.0238 -273.6492
# 5 -6.5968 -8.8974 3.0846 0.0238 35.9921 0.0261
# 6 0.0905 0.1851 -0.0991 -273.6492 0.0261 -255.4559
#
#
#
# Elastic Compliance Matrix: (Units=1/GPa)
#
#
# Indices 1 2 3 4 5 6 
#
# 1 0.009200 -0.002405 -0.001305 0.000002 0.001203 0.000000
# 2 -0.002405 0.014773 -0.007038 0.000006 0.003814 0.000007
# 3 -0.001305 -0.007038 0.012278 -0.000002 -0.003031 -0.000008
# 4 0.000002 0.000006 -0.000002 0.015974 0.000004 -0.017111
# 5 0.001203 0.003814 -0.003031 0.000004 0.029207 0.000003
# 6 0.000000 0.000007 -0.000008 -0.017111 0.000003 0.014415
#
#
# Mechanical properties :
#
#
# Convention : Reuss Voigt Hill
#
# Bulk Modulus (GPa) = 67.76910 68.71646 68.24278
# Shear Modulus (GPa) = 40.89666 -75.45351 -17.27842
#
# Velocity S-wave (km/s) = 4.39133 -5.96474 -2.85433
# Velocity P-wave (km/s) = 7.59384 3.87764 4.61684
#
# Compressibility (1/GPa) = 0.01475599
#
# Stress axis : x y z
#
# Youngs Moduli (GPa) = 108.70025 67.69179 81.44758
#
# Poissons Ratio (x) = 0.16280 0.10625
# Poissons Ratio (y) = 0.26143 0.57319
# Poissons Ratio (z) = 0.14180 0.47639
#
# Static dielectric constant tensor:
#      x y z
#    x 4.135250 -0.000060 0.164190 
#    y -0.000060 3.712350 -0.000070 
#    z 0.164190 -0.000070 3.983860 
# 
# 
# High freq. dielectric constant tensor:
#      x y z
#    x 1.848560 0.000000 0.012590 
#    y 0.000000 1.819930 -0.000010 
#    z 0.012590 -0.000010 1.839180 
# 
# From -- ./inp_files/255938.got.cif
#   From: 2010.06.25/outbox.cif.g09.slc.cpg/sg15_128_cif.got.tgz:255938.got - 2010.06.28 07:06:18.
