data_PCOD8144807
_publ_section_title
;
Structure prediction by ZEFSAII (Michael W. Deem and Ramdas Pophale) SiO2 
 PCOD8144807
Probable space group: C 2/C
;
_chemical_formula_sum "Si O2"
_cell_formula_units_Z 52
_cell_length_a 16.173418
_cell_length_b 7.428806
_cell_length_c 15.991238
_cell_angle_alpha 90.000000
_cell_angle_beta 68.974876
_cell_angle_gamma 90.000000
_cell_volume 1793.417912
_symmetry_space_group_name_H-M "C 2/C"
_symmetry_group_IT_number 15
_symmetry_cell_setting 'monoclinic'
loop_
_space_group_symop_operation_xyz
x,y,z
-x,y,1/2-z
-x,-y,-z
x,-y,1/2+z
1/2+x,1/2+y,z
1/2-x,1/2+y,1/2-z
1/2-x,1/2-y,-z
1/2+x,1/2-y,1/2+z
loop_
_atom_site_type_symbol
_atom_site_label
_atom_site_fract_x
_atom_site_fract_y
_atom_site_fract_z
Si Si1 0.000000 0.403444 0.750000
Si Si2 0.261686 0.553464 0.451016
Si Si3 0.550936 0.479717 0.066893
Si Si4 0.315576 0.258175 0.301161
Si Si5 0.919247 0.613651 0.494047
Si Si6 0.560411 0.788414 0.334283
Si Si7 0.730364 0.137785 0.669936
O O1 0.918341 0.268765 0.779959
O O2 0.000888 0.534835 0.665804
O O3 0.344976 0.529411 0.483130
O O4 0.164198 0.489569 0.518012
O O5 0.254291 0.765106 0.425667
O O6 0.282228 0.432462 0.362220
O O7 0.501402 0.609140 0.151767
O O8 0.500000 0.500000 0.000000
O O9 0.549309 0.263735 0.085702
O O10 0.263829 0.075701 0.345596
O O11 0.305934 0.297106 0.205897
O O12 0.889978 0.705379 0.593729
O O13 0.000000 0.500000 0.500000
O O14 0.635348 0.792046 0.236508
#
# Coordination Sequence:
#
# PCOD8144807 Si02
#       7
#     4   8   8   8   8   8   8
#     4  10  22  38  68 102 142 166 228 290 364 420
#     4  12  24  46  72 101 142 187 233 292 364 415
#     4  10  24  45  70  98 136 190 242 288 338 418
#     4  11  22  39  65 104 137 179 217 283 356 430
#     4  11  25  46  67  96 141 188 239 287 340 421
#     4  10  21  45  66  99 138 176 229 295 348 420
#     4  11  22  43  72 104 144 175 226 295 363 424
#
# _framework density 28.994914000000001
#
# number of rings (size 3 to 8) (size 9 to 14) (size 15 to 20)
#    0.000    1.231    3.077    3.231    2.154    2.462 
#    5.538    3.077    0.000    0.000    0.000    0.000 
#    0.000    0.000    0.000    0.000    0.000    0.000 
#
# Total GULP energy -322342.896819 kJ/mol
# GULP energy per Si atom -12397.803724 kJ/mol
# Density = 2.892892 g / cm^3
# Si number density = 28.994914 Si / 1000 Ang^3
#
#
#
# Elastic Constant Matrix: (Units=GPa)
#
#
# Indices 1 2 3 4 5 6 
#
# 1 215.9292 45.3510 23.3917 0.0001 12.1961 0.0002
# 2 45.3510 172.4530 4.2214 0.0005 -12.1557 0.0006
# 3 23.3917 4.2214 59.6533 0.0001 7.9526 0.0002
# 4 0.0001 0.0005 0.0001 36.8255 0.0001 5.3797
# 5 12.1961 -12.1557 7.9526 0.0001 48.3861 0.0001
# 6 0.0002 0.0006 0.0002 5.3797 0.0001 49.9219
#
#
#
# Elastic Compliance Matrix: (Units=1/GPa)
#
#
# Indices 1 2 3 4 5 6 
#
# 1 0.005197 -0.001421 -0.001754 0.000000 -0.001379 0.000000
# 2 -0.001421 0.006315 -0.000152 0.000000 0.001970 0.000000
# 3 -0.001754 -0.000152 0.017798 0.000000 -0.002521 0.000000
# 4 0.000000 0.000000 0.000000 0.027589 0.000000 -0.002973
# 5 -0.001379 0.001970 -0.002521 0.000000 0.021924 0.000000
# 6 0.000000 0.000000 0.000000 -0.002973 0.000000 0.020352
#
#
# Mechanical properties :
#
#
# Convention : Reuss Voigt Hill
#
# Bulk Modulus (GPa) = 44.13730 65.99596 55.06663
# Shear Modulus (GPa) = 44.09882 52.03144 48.06513
#
# Velocity S-wave (km/s) = 3.90412 4.24075 4.07591
# Velocity P-wave (km/s) = 5.96476 6.84027 6.41746
#
# Compressibility (1/GPa) = 0.02265657
#
# Stress axis : x y z
#
# Youngs Moduli (GPa) = 192.40131 158.35439 56.18571
#
# Poissons Ratio (x) = 0.22503 0.09853
# Poissons Ratio (y) = 0.27342 0.00855
# Poissons Ratio (z) = 0.33741 0.02410
#
# Static dielectric constant tensor:
#      x y z
#    x 5.734400 0.000000 0.418770 
#    y 0.000000 6.206950 0.000000 
#    z 0.418770 0.000000 5.982290 
# 
# 
# High freq. dielectric constant tensor:
#      x y z
#    x 2.201000 0.000000 0.014860 
#    y 0.000000 2.196980 0.000000 
#    z 0.014860 0.000000 2.181500 
# 
# From -- ./inp_files/246908.got.cif
#   From: 2010.06.25/outbox.cif.g09.slc.cpg/sg15_124_cif.got.tgz:246908.got - 2010.06.28 07:06:18.
