data_PCOD8144272
_publ_section_title
;
Structure prediction by ZEFSAII (Michael W. Deem and Ramdas Pophale) SiO2 
 PCOD8144272
Probable space group: C 2/C
;
_chemical_formula_sum "Si O2"
_cell_formula_units_Z 48
_cell_length_a 22.139594
_cell_length_b 7.172021
_cell_length_c 16.523996
_cell_angle_alpha 90.000000
_cell_angle_beta 58.102787
_cell_angle_gamma 90.000000
_cell_volume 2227.576573
_symmetry_space_group_name_H-M "C 2/C"
_symmetry_group_IT_number 15
_symmetry_cell_setting 'monoclinic'
loop_
_space_group_symop_operation_xyz
x,y,z
-x,y,1/2-z
-x,-y,-z
x,-y,1/2+z
1/2+x,1/2+y,z
1/2-x,1/2+y,1/2-z
1/2-x,1/2-y,-z
1/2+x,1/2-y,1/2+z
loop_
_atom_site_type_symbol
_atom_site_label
_atom_site_fract_x
_atom_site_fract_y
_atom_site_fract_z
Si Si1 0.675653 0.344939 0.533200
Si Si2 0.460080 0.040879 0.201237
Si Si3 0.394496 0.015609 0.465864
Si Si4 0.653032 0.279949 0.134562
Si Si5 0.346738 0.890735 0.170522
Si Si6 0.272956 0.576255 0.146421
O O1 0.750000 0.250000 0.500000
O O2 0.615429 0.184624 0.571593
O O3 0.654124 0.498416 0.616344
O O4 0.683853 0.436427 0.440083
O O5 0.500000 0.948457 0.250000
O O6 0.523143 0.085187 0.093090
O O7 0.405518 0.896015 0.199633
O O8 0.416417 0.224609 0.262219
O O9 0.347911 0.169169 0.450433
O O10 0.370367 0.991360 0.575348
O O11 0.724723 0.221468 0.129940
O O12 0.334903 0.679084 0.152416
O O13 0.272610 0.966767 0.255707
#
# Coordination Sequence:
#
# PCOD8144272 Si02
#       6
#     8   8   8   8   8   8
#     4  12  22  37  71 103 132 174 223 277 336 404
#     4   9  22  43  67  90 130 184 225 267 328 393
#     4  11  21  41  68  97 134 177 224 273 334 397
#     4  10  21  42  66  96 135 176 220 273 334 401
#     4  11  22  39  68  94 139 171 220 282 338 397
#     4  11  22  40  62 102 131 176 216 280 346 393
#
# _framework density 21.548081
#
# number of rings (size 3 to 8) (size 9 to 14) (size 15 to 20)
#    0.000    1.333    3.333    3.000    0.000    0.000 
#    0.000    8.333    7.333    0.000    0.000    0.000 
#    0.000    0.000    0.000    0.000    0.000    0.000 
#
# Total GULP energy -297526.398853 kJ/mol
# GULP energy per Si atom -12396.933286 kJ/mol
# Density = 2.149904 g / cm^3
# Si number density = 21.548081 Si / 1000 Ang^3
#
#
#
# Elastic Constant Matrix: (Units=GPa)
#
#
# Indices 1 2 3 4 5 6 
#
# 1 100.0401 47.9662 22.2878 -0.0002 2.5279 -0.0013
# 2 47.9662 119.6967 28.5726 0.0001 -1.6690 -0.0015
# 3 22.2878 28.5726 95.9734 0.0008 -11.5114 -0.0007
# 4 -0.0002 0.0001 0.0008 35.1978 -0.0002 6.8424
# 5 2.5279 -1.6690 -11.5114 -0.0002 35.0094 -0.0002
# 6 -0.0013 -0.0015 -0.0007 6.8424 -0.0002 29.6190
#
#
#
# Elastic Compliance Matrix: (Units=1/GPa)
#
#
# Indices 1 2 3 4 5 6 
#
# 1 0.012677 -0.004685 -0.001755 0.000000 -0.001716 0.000000
# 2 -0.004685 0.010732 -0.002088 0.000000 0.000163 0.000000
# 3 -0.001755 -0.002088 0.011922 0.000000 0.003947 0.000000
# 4 0.000000 0.000000 0.000000 0.029747 0.000000 -0.006872
# 5 -0.001716 0.000163 0.003947 0.000000 0.029993 0.000000
# 6 0.000000 0.000000 0.000000 -0.006872 0.000000 0.035350
#
#
# Mechanical properties :
#
#
# Convention : Reuss Voigt Hill
#
# Bulk Modulus (GPa) = 54.71583 57.04036 55.87809
# Shear Modulus (GPa) = 32.55892 34.42415 33.49154
#
# Velocity S-wave (km/s) = 3.89136 4.00127 3.94670
# Velocity P-wave (km/s) = 6.75558 6.91922 6.83789
#
# Compressibility (1/GPa) = 0.01827625
#
# Stress axis : x y z
#
# Youngs Moduli (GPa) = 78.88554 93.17534 83.87815
#
# Poissons Ratio (x) = 0.43652 0.14720
# Poissons Ratio (y) = 0.36957 0.17510
# Poissons Ratio (z) = 0.13844 0.19451
#
# Static dielectric constant tensor:
#      x y z
#    x 3.915330 0.000000 -0.114770 
#    y 0.000000 3.802990 0.000000 
#    z -0.114770 0.000000 3.895470 
# 
# 
# High freq. dielectric constant tensor:
#      x y z
#    x 1.842450 0.000000 0.001050 
#    y 0.000000 1.821590 0.000000 
#    z 0.001050 0.000000 1.863300 
# 
# From -- ./inp_files/220843.got.cif
#   From: 2010.06.25/outbox.cif.g09.slc.cpg/sg15_111_cif.got.tgz:220843.got - 2010.06.28 07:06:18.
