data_PCOD8144427
_publ_section_title
;
Structure prediction by ZEFSAII (Michael W. Deem and Ramdas Pophale) SiO2 
 PCOD8144427
Probable space group: C 2/C
;
_chemical_formula_sum "Si O2"
_cell_formula_units_Z 60
_cell_length_a 10.992779
_cell_length_b 15.620052
_cell_length_c 16.891117
_cell_angle_alpha 90.000000
_cell_angle_beta 67.979430
_cell_angle_gamma 90.000000
_cell_volume 2688.754656
_symmetry_space_group_name_H-M "C 2/C"
_symmetry_group_IT_number 15
_symmetry_cell_setting 'monoclinic'
loop_
_space_group_symop_operation_xyz
x,y,z
-x,y,1/2-z
-x,-y,-z
x,-y,1/2+z
1/2+x,1/2+y,z
1/2-x,1/2+y,1/2-z
1/2-x,1/2-y,-z
1/2+x,1/2-y,1/2+z
loop_
_atom_site_type_symbol
_atom_site_label
_atom_site_fract_x
_atom_site_fract_y
_atom_site_fract_z
Si Si1 0.076203 0.710864 0.373446
Si Si2 0.312288 0.293944 0.910593
Si Si3 0.361725 0.449544 0.609434
Si Si4 0.653712 0.481932 0.551657
Si Si5 0.384752 0.965115 0.719000
Si Si6 0.235911 0.395753 0.355480
Si Si7 0.500000 0.327517 0.250000
Si Si8 0.436714 0.739449 0.069226
O O1 0.232055 0.733677 0.350653
O O2 0.066613 0.613915 0.345642
O O3 0.004234 0.769809 0.327519
O O4 0.003921 0.721652 0.474827
O O5 0.289352 0.395429 0.925347
O O6 0.465693 0.267770 0.877623
O O7 0.250000 0.250000 0.000000
O O8 0.498376 0.486257 0.610984
O O9 0.320900 0.514255 0.548905
O O10 0.251339 0.443773 0.703327
O O11 0.382901 0.355604 0.565586
O O12 0.734300 0.560646 0.567932
O O13 0.500000 0.990347 0.750000
O O14 0.365680 0.047627 0.668944
O O15 0.373519 0.387715 0.276598
O O16 0.182227 0.300369 0.379012
#
# Coordination Sequence:
#
# PCOD8144427 Si02
#       8
#     8   8   8   8   8   8   4   8
#     4  11  23  44  68  96 139 180 224 280 340 408
#     4   9  20  42  67  96 127 175 228 275 328 395
#     4  10  23  45  68 100 136 178 233 277 340 403
#     4  10  21  42  71  94 130 183 229 277 320 413
#     4  12  27  43  64 100 142 178 215 290 353 399
#     4  12  26  43  67 102 132 179 226 278 342 411
#     4  12  26  42  68  98 136 176 226 280 348 400
#     4  10  24  42  71 101 132 179 233 277 336 410
#
# _framework density 22.315165
#
# number of rings (size 3 to 8) (size 9 to 14) (size 15 to 20)
#    0.000    1.333    2.000    2.400    1.867    9.067 
#    0.000    1.333    0.000    0.000    0.000    0.000 
#    0.000    0.000    0.000    0.000    0.000    0.000 
#
# Total GULP energy -371924.310050 kJ/mol
# GULP energy per Si atom -12397.477002 kJ/mol
# Density = 2.226437 g / cm^3
# Si number density = 22.315165 Si / 1000 Ang^3
#
#
#
# Elastic Constant Matrix: (Units=GPa)
#
#
# Indices 1 2 3 4 5 6 
#
# 1 100.6924 26.1733 14.0709 0.0000 24.6230 0.0000
# 2 26.1733 65.5935 1.3636 0.0000 7.8868 0.0000
# 3 14.0709 1.3636 53.6064 0.0000 5.1106 0.0000
# 4 0.0000 0.0000 0.0000 30.2326 0.0000 -0.3191
# 5 24.6230 7.8868 5.1106 0.0000 35.9835 0.0000
# 6 0.0000 0.0000 0.0000 -0.3191 0.0000 39.9625
#
#
#
# Elastic Compliance Matrix: (Units=1/GPa)
#
#
# Indices 1 2 3 4 5 6 
#
# 1 0.013333 -0.004327 -0.002646 0.000000 -0.007799 0.000000
# 2 -0.004327 0.017063 0.000787 0.000000 -0.000890 0.000000
# 3 -0.002646 0.000787 0.019436 0.000000 -0.001122 0.000000
# 4 0.000000 0.000000 0.000000 0.033080 0.000000 0.000264
# 5 -0.007799 -0.000890 -0.001122 0.000000 0.033482 0.000000
# 6 0.000000 0.000000 0.000000 0.000264 0.000000 0.025026
#
#
# Mechanical properties :
#
#
# Convention : Reuss Voigt Hill
#
# Bulk Modulus (GPa) = 26.69630 33.67865 30.18748
# Shear Modulus (GPa) = 30.06994 33.12133 31.59563
#
# Velocity S-wave (km/s) = 3.67483 3.85678 3.76690
# Velocity P-wave (km/s) = 5.47678 5.91253 5.69882
#
# Compressibility (1/GPa) = 0.03745837
#
# Stress axis : x y z
#
# Youngs Moduli (GPa) = 75.00141 58.60681 51.45081
#
# Poissons Ratio (x) = 0.25362 0.13615
# Poissons Ratio (y) = 0.32456 -0.04048
# Poissons Ratio (z) = 0.19846 -0.04611
#
# Static dielectric constant tensor:
#      x y z
#    x 4.641270 0.000000 0.230370 
#    y 0.000000 3.926510 0.000000 
#    z 0.230370 0.000000 3.722380 
# 
# 
# High freq. dielectric constant tensor:
#      x y z
#    x 1.898020 0.000000 0.012290 
#    y 0.000000 1.884410 0.000000 
#    z 0.012290 0.000000 1.856810 
# 
# From -- ./inp_files/198291.got.cif
#   From: 2010.06.25/outbox.cif.g09.slc.cpg/sg15_100_cif.got.tgz:198291.got - 2010.06.28 07:06:18.
