data_PCOD8144634
_publ_section_title
;
Structure prediction by ZEFSAII (Michael W. Deem and Ramdas Pophale) SiO2 
 PCOD8144634
Probable space group: C 2/C
;
_chemical_formula_sum "Si O2"
_cell_formula_units_Z 52
_cell_length_a 17.202477
_cell_length_b 10.076638
_cell_length_c 15.588154
_cell_angle_alpha 90.000000
_cell_angle_beta 60.130919
_cell_angle_gamma 90.000000
_cell_volume 2343.167768
_symmetry_space_group_name_H-M "C 2/C"
_symmetry_group_IT_number 15
_symmetry_cell_setting 'monoclinic'
loop_
_space_group_symop_operation_xyz
x,y,z
-x,y,1/2-z
-x,-y,-z
x,-y,1/2+z
1/2+x,1/2+y,z
1/2-x,1/2+y,1/2-z
1/2-x,1/2-y,-z
1/2+x,1/2-y,1/2+z
loop_
_atom_site_type_symbol
_atom_site_label
_atom_site_fract_x
_atom_site_fract_y
_atom_site_fract_z
Si Si1 0.164009 0.493879 0.758608
Si Si2 0.000868 0.659914 0.407288
Si Si3 0.398774 0.258167 0.997027
Si Si4 0.145164 0.046701 0.114417
Si Si5 0.000000 0.154318 0.750000
Si Si6 0.160559 0.498918 0.558504
Si Si7 0.230211 0.776253 0.703996
O O1 0.071400 0.462078 0.859588
O O2 0.152122 0.477052 0.663952
O O3 0.188310 0.645324 0.771724
O O4 0.240786 0.389524 0.744645
O O5 0.013647 0.730092 0.492962
O O6 0.025039 0.760158 0.318504
O O7 0.898841 0.611364 0.457352
O O8 0.314561 0.278598 0.105241
O O9 0.410155 0.391769 0.935316
O O10 0.379310 0.142024 0.940511
O O11 0.158819 0.160030 0.178135
O O12 0.088465 0.929836 0.185471
O O13 0.238917 0.984930 0.031209
#
# Coordination Sequence:
#
# PCOD8144634 Si02
#       7
#     8   8   8   8   4   8   8
#     4  11  21  40  71 101 141 180 226 289 349 410
#     4  11  25  43  67  98 142 175 237 295 342 407
#     4  10  21  43  70  95 135 181 233 289 339 424
#     4  11  24  43  68  95 139 179 236 283 356 417
#     4  12  28  42  62 104 140 176 228 308 336 406
#     4  11  20  44  70  96 126 189 227 282 348 424
#     4  10  22  39  70 105 137 180 229 284 345 423
#
# _framework density 22.192181000000001
#
# number of rings (size 3 to 8) (size 9 to 14) (size 15 to 20)
#    0.000    1.231    4.615    1.385    4.308    2.462 
#    0.000    1.538    0.000    0.000    0.000    0.000 
#    0.000    0.000    0.000    0.000    0.000    0.000 
#
# Total GULP energy -322462.274480 kJ/mol
# GULP energy per Si atom -12402.395172 kJ/mol
# Density = 2.214167 g / cm^3
# Si number density = 22.192181 Si / 1000 Ang^3
#
#
#
# Elastic Constant Matrix: (Units=GPa)
#
#
# Indices 1 2 3 4 5 6 
#
# 1 128.5508 56.2620 47.6406 0.0000 17.7921 0.0000
# 2 56.2620 115.1623 39.3933 0.0000 -2.1603 0.0000
# 3 47.6406 39.3933 53.7840 0.0000 4.7466 0.0000
# 4 0.0000 0.0000 0.0000 41.4312 0.0000 7.3472
# 5 17.7921 -2.1603 4.7466 0.0000 27.5486 0.0000
# 6 0.0000 0.0000 0.0000 7.3472 0.0000 25.4695
#
#
#
# Elastic Compliance Matrix: (Units=1/GPa)
#
#
# Indices 1 2 3 4 5 6 
#
# 1 0.013760 -0.003910 -0.008645 0.000000 -0.007704 0.000000
# 2 -0.003910 0.012857 -0.006362 0.000000 0.004630 0.000000
# 3 -0.008645 -0.006362 0.030932 0.000000 -0.000245 0.000000
# 4 0.000000 0.000000 0.000000 0.025438 0.000000 -0.007338
# 5 -0.007704 0.004630 -0.000245 0.000000 0.041681 0.000000
# 6 0.000000 0.000000 0.000000 -0.007338 0.000000 0.041379
#
#
# Mechanical properties :
#
#
# Convention : Reuss Voigt Hill
#
# Bulk Modulus (GPa) = 50.72239 64.89877 57.81058
# Shear Modulus (GPa) = 23.75847 29.16993 26.46420
#
# Velocity S-wave (km/s) = 3.27552 3.62943 3.45701
# Velocity P-wave (km/s) = 6.10008 6.84625 6.48391
#
# Compressibility (1/GPa) = 0.01971516
#
# Stress axis : x y z
#
# Youngs Moduli (GPa) = 72.67267 77.78098 32.32936
#
# Poissons Ratio (x) = 0.30412 0.27948
# Poissons Ratio (y) = 0.28414 0.20568
# Poissons Ratio (z) = 0.62825 0.49483
#
# Static dielectric constant tensor:
#      x y z
#    x 4.194990 0.000000 0.172030 
#    y 0.000000 4.118970 0.000000 
#    z 0.172030 0.000000 3.816600 
# 
# 
# High freq. dielectric constant tensor:
#      x y z
#    x 1.882040 0.000000 0.016820 
#    y 0.000000 1.871990 0.000000 
#    z 0.016820 0.000000 1.863270 
# 
# From -- ./inp_files/209031.got.cif
#   From: 2010.06.25/outbox.cif.g09.slc.cpg/sg15_105_cif.got.tgz:209031.got - 2010.06.28 07:06:18.
