data_PCOD8144436
_publ_section_title
;
Structure prediction by ZEFSAII (Michael W. Deem and Ramdas Pophale) SiO2 
 PCOD8144436
Probable space group: C 2/C
;
_chemical_formula_sum "Si O2"
_cell_formula_units_Z 64
_cell_length_a 14.241648
_cell_length_b 14.924752
_cell_length_c 17.577283
_cell_angle_alpha 90.000000
_cell_angle_beta 125.949663
_cell_angle_gamma 90.000000
_cell_volume 3024.500880
_symmetry_space_group_name_H-M "C 2/C"
_symmetry_group_IT_number 15
_symmetry_cell_setting 'monoclinic'
loop_
_space_group_symop_operation_xyz
x,y,z
-x,y,1/2-z
-x,-y,-z
x,-y,1/2+z
1/2+x,1/2+y,z
1/2-x,1/2+y,1/2-z
1/2-x,1/2-y,-z
1/2+x,1/2-y,1/2+z
loop_
_atom_site_type_symbol
_atom_site_label
_atom_site_fract_x
_atom_site_fract_y
_atom_site_fract_z
Si Si1 0.151809 0.648556 0.512517
Si Si2 0.213538 0.931744 0.689980
Si Si3 0.474650 0.865808 0.400916
Si Si4 0.393477 0.289388 0.754439
Si Si5 0.156076 0.855338 0.502328
Si Si6 0.022909 0.447728 0.671809
Si Si7 0.683500 0.746777 0.547289
Si Si8 0.925335 0.920339 0.427178
O O1 0.122022 0.609338 0.581461
O O2 0.175855 0.752852 0.531642
O O3 0.272568 0.608631 0.537153
O O4 0.050132 0.629632 0.403469
O O5 0.125320 0.869925 0.695431
O O6 0.207722 0.908147 0.598529
O O7 0.343312 0.926778 0.782951
O O8 0.171476 0.035862 0.673929
O O9 0.423965 0.801352 0.312647
O O10 0.580401 0.818978 0.495842
O O11 0.516544 0.956646 0.381056
O O12 0.500000 0.315319 0.750000
O O13 0.273134 0.274015 0.654690
O O14 0.019161 0.867117 0.421226
O O15 0.000000 0.447593 0.750000
O O16 0.750000 0.750000 0.500000
O O17 0.632434 0.647301 0.538922
O O18 0.000000 0.000000 0.500000
#
# Coordination Sequence:
#
# PCOD8144436 Si02
#       8
#     8   8   8   8   8   8   8   8
#     4  11  22  43  69  98 135 179 232 285 350 417
#     4  11  23  45  67  98 138 179 232 287 352 427
#     4  12  24  45  68 104 141 179 239 291 355 423
#     4  12  25  45  70 101 143 183 235 301 360 431
#     4  10  21  42  72  95 127 179 228 282 345 425
#     4  12  26  43  67 102 142 186 230 293 357 421
#     4  12  25  42  73 104 136 191 236 291 364 437
#     4  10  22  42  69  96 131 176 230 285 350 414
#
# _framework density 21.160516000000001
#
# number of rings (size 3 to 8) (size 9 to 14) (size 15 to 20)
#    0.000    0.750    5.000    3.000    1.750    0.000 
#    2.250    0.000    0.000    0.000    0.000    0.000 
#    0.000    0.000    0.000    0.000    0.000    0.000 
#
# Total GULP energy -396748.002204 kJ/mol
# GULP energy per Si atom -12398.375069 kJ/mol
# Density = 2.111235 g / cm^3
# Si number density = 21.160516 Si / 1000 Ang^3
#
#
#
# Elastic Constant Matrix: (Units=GPa)
#
#
# Indices 1 2 3 4 5 6 
#
# 1 140.3394 18.5766 18.2597 0.0000 -5.5639 0.0000
# 2 18.5766 57.7995 7.8930 0.0000 5.2969 0.0000
# 3 18.2597 7.8930 67.3798 0.0000 10.4686 0.0000
# 4 0.0000 0.0000 0.0000 36.8475 0.0000 -2.6623
# 5 -5.5639 5.2969 10.4686 0.0000 37.7690 0.0000
# 6 0.0000 0.0000 0.0000 -2.6623 0.0000 28.1355
#
#
#
# Elastic Compliance Matrix: (Units=1/GPa)
#
#
# Indices 1 2 3 4 5 6 
#
# 1 0.007808 -0.002406 -0.002158 0.000000 0.002086 0.000000
# 2 -0.002406 0.018467 -0.001101 0.000000 -0.002639 0.000000
# 3 -0.002158 -0.001101 0.016282 0.000000 -0.004676 0.000000
# 4 0.000000 0.000000 0.000000 0.027326 0.000000 0.002586
# 5 0.002086 -0.002639 -0.004676 0.000000 0.028450 0.000000
# 6 0.000000 0.000000 0.000000 0.002586 0.000000 0.035787
#
#
# Mechanical properties :
#
#
# Convention : Reuss Voigt Hill
#
# Bulk Modulus (GPa) = 32.02494 39.44190 35.73342
# Shear Modulus (GPa) = 32.08065 35.26971 33.67518
#
# Velocity S-wave (km/s) = 3.89789 4.08704 3.99358
# Velocity P-wave (km/s) = 5.95191 6.39935 6.17968
#
# Compressibility (1/GPa) = 0.03122567
#
# Stress axis : x y z
#
# Youngs Moduli (GPa) = 128.08194 54.15177 61.41893
#
# Poissons Ratio (x) = 0.13028 0.13254
# Poissons Ratio (y) = 0.30813 0.06764
# Poissons Ratio (z) = 0.27641 0.05963
#
# Static dielectric constant tensor:
#      x y z
#    x 4.503690 0.000000 0.253660 
#    y 0.000000 3.969660 0.000000 
#    z 0.253660 0.000000 3.934210 
# 
# 
# High freq. dielectric constant tensor:
#      x y z
#    x 1.849950 0.000000 0.008020 
#    y 0.000000 1.829730 0.000000 
#    z 0.008020 0.000000 1.820190 
# 
# From -- ./inp_files/205756.got.cif
#   From: 2010.06.25/outbox.cif.g09.slc.cpg/sg15_103_cif.got.tgz:205756.got - 2010.06.28 07:06:18.
