data_PCOD8144380
_publ_section_title
;
Structure prediction by ZEFSAII (Michael W. Deem and Ramdas Pophale) SiO2 
 PCOD8144380
Probable space group: C 2/C
;
_chemical_formula_sum "Si O2"
_cell_formula_units_Z 64
_cell_length_a 12.413813
_cell_length_b 14.695574
_cell_length_c 29.553110
_cell_angle_alpha 90.000000
_cell_angle_beta 35.996140
_cell_angle_gamma 90.000000
_cell_volume 3168.643318
_symmetry_space_group_name_H-M "C 2/C"
_symmetry_group_IT_number 15
_symmetry_cell_setting 'monoclinic'
loop_
_space_group_symop_operation_xyz
x,y,z
-x,y,1/2-z
-x,-y,-z
x,-y,1/2+z
1/2+x,1/2+y,z
1/2-x,1/2+y,1/2-z
1/2-x,1/2-y,-z
1/2+x,1/2-y,1/2+z
loop_
_atom_site_type_symbol
_atom_site_label
_atom_site_fract_x
_atom_site_fract_y
_atom_site_fract_z
Si Si1 0.513413 0.805342 0.421560
Si Si2 0.165588 0.077818 0.287752
Si Si3 0.168712 0.089819 0.723540
Si Si4 0.692677 0.673500 0.431626
Si Si5 0.795882 0.515959 0.335338
Si Si6 0.333917 0.696010 0.404507
Si Si7 0.342778 0.319079 0.109032
Si Si8 0.579413 0.753486 0.819121
O O1 0.651744 0.889368 0.367749
O O2 0.610122 0.725456 0.416623
O O3 0.453864 0.766705 0.393033
O O4 0.335996 0.842437 0.508543
O O5 0.159355 0.044926 0.341684
O O6 0.315532 0.154986 0.229050
O O7 0.961060 0.112425 0.345820
O O8 0.219921 0.992655 0.238659
O O9 0.116210 0.180810 0.767778
O O10 0.000000 0.059372 0.750000
O O11 0.752149 0.573437 0.395157
O O12 0.545771 0.663192 0.521331
O O13 0.863219 0.727665 0.394596
O O14 0.774162 0.410712 0.354908
O O15 0.000000 0.537461 0.250000
O O16 0.263344 0.743254 0.383235
O O17 0.350754 0.285173 0.157377
#
# Coordination Sequence:
#
# PCOD8144380 Si02
#       8
#     8   8   8   8   8   8   8   8
#     4  10  21  42  69  96 122 175 223 258 324 393
#     4  12  26  43  65 100 133 172 219 272 330 385
#     4  12  25  44  70  95 129 176 225 267 322 391
#     4  11  22  45  69  96 128 176 222 273 327 385
#     4  12  24  42  65 101 129 169 223 275 325 388
#     4  10  23  42  67  93 133 170 213 269 326 391
#     4  11  27  42  66  97 137 172 215 276 334 383
#     4  12  24  44  68  96 135 172 221 272 321 394
#
# _framework density 20.197918999999999
#
# number of rings (size 3 to 8) (size 9 to 14) (size 15 to 20)
#    0.000    0.750    6.250    0.750    5.250    0.000 
#    2.250    0.625    0.000    0.000    0.000    0.000 
#    0.000    0.000    0.000    0.000    0.000    0.000 
#
# Total GULP energy -397021.052800 kJ/mol
# GULP energy per Si atom -12406.907900 kJ/mol
# Density = 2.015195 g / cm^3
# Si number density = 20.197919 Si / 1000 Ang^3
#
#
#
# Elastic Constant Matrix: (Units=GPa)
#
#
# Indices 1 2 3 4 5 6 
#
# 1 60.7173 3.6763 7.6485 -0.0001 -11.1580 -0.0002
# 2 3.6763 83.7469 23.4726 -0.0006 -4.3356 -0.0002
# 3 7.6485 23.4726 78.9403 -0.0003 -14.0383 0.0017
# 4 -0.0001 -0.0006 -0.0003 28.9500 0.0012 -2.5028
# 5 -11.1580 -4.3356 -14.0383 0.0012 32.0769 -0.0007
# 6 -0.0002 -0.0002 0.0017 -2.5028 -0.0007 27.4056
#
#
#
# Elastic Compliance Matrix: (Units=1/GPa)
#
#
# Indices 1 2 3 4 5 6 
#
# 1 0.017634 -0.000310 -0.000578 0.000000 0.005839 0.000000
# 2 -0.000310 0.013032 -0.003851 0.000000 -0.000032 0.000000
# 3 -0.000578 -0.003851 0.014900 0.000000 0.005799 -0.000001
# 4 0.000000 0.000000 0.000000 0.034817 -0.000001 0.003180
# 5 0.005839 -0.000032 0.005799 -0.000001 0.035740 0.000001
# 6 0.000000 0.000000 -0.000001 0.003180 0.000001 0.036779
#
#
# Mechanical properties :
#
#
# Convention : Reuss Voigt Hill
#
# Bulk Modulus (GPa) = 27.70882 32.55549 30.13216
# Shear Modulus (GPa) = 28.66812 30.26032 29.46422
#
# Velocity S-wave (km/s) = 3.77153 3.87484 3.82353
# Velocity P-wave (km/s) = 5.71964 6.01435 5.86885
#
# Compressibility (1/GPa) = 0.03608959
#
# Stress axis : x y z
#
# Youngs Moduli (GPa) = 56.70724 76.73446 67.11365
#
# Poissons Ratio (x) = 0.02377 0.03880
# Poissons Ratio (y) = 0.01757 0.25843
# Poissons Ratio (z) = 0.03278 0.29547
#
# Static dielectric constant tensor:
#      x y z
#    x 3.729290 0.000000 -0.122400 
#    y 0.000000 3.532210 0.000000 
#    z -0.122400 0.000000 3.831320 
# 
# 
# High freq. dielectric constant tensor:
#      x y z
#    x 1.798500 0.000000 -0.006130 
#    y 0.000000 1.780860 0.000000 
#    z -0.006130 0.000000 1.799270 
# 
# From -- ./inp_files/293038.got.cif
#   From: 2010.06.25/outbox.cif.g09.slc.cpg/sg15_147_cif.got.tgz:293038.got - 2010.06.28 07:06:18.
