data_PCOD8144261
_publ_section_title
;
Structure prediction by ZEFSAII (Michael W. Deem and Ramdas Pophale) SiO2 
 PCOD8144261
Probable space group: C 2/C
;
_chemical_formula_sum "Si O2"
_cell_formula_units_Z 40
_cell_length_a 25.054118
_cell_length_b 14.517065
_cell_length_c 14.218551
_cell_angle_alpha 90.000000
_cell_angle_beta 20.948564
_cell_angle_gamma 90.000000
_cell_volume 1848.951034
_symmetry_space_group_name_H-M "C 2/C"
_symmetry_group_IT_number 15
_symmetry_cell_setting 'monoclinic'
loop_
_space_group_symop_operation_xyz
x,y,z
-x,y,1/2-z
-x,-y,-z
x,-y,1/2+z
1/2+x,1/2+y,z
1/2-x,1/2+y,1/2-z
1/2-x,1/2-y,-z
1/2+x,1/2-y,1/2+z
loop_
_atom_site_type_symbol
_atom_site_label
_atom_site_fract_x
_atom_site_fract_y
_atom_site_fract_z
Si Si1 0.234791 0.388550 0.230778
Si Si2 0.667095 0.551198 0.314995
Si Si3 0.554118 0.102958 0.390219
Si Si4 0.836962 0.002949 0.886488
Si Si5 0.118752 0.700015 0.473892
O O1 0.231763 0.466364 0.315688
O O2 0.337800 0.306906 0.100145
O O3 0.063697 0.355801 0.491656
O O4 0.307028 0.429134 0.017014
O O5 0.500764 0.544501 0.629388
O O6 0.673230 0.554390 0.192772
O O7 0.731019 0.644684 0.251899
O O8 0.549838 0.169320 0.487701
O O9 0.500000 0.000000 0.500000
O O10 0.722910 0.090438 0.074184
O O11 0.000000 0.678218 0.750000
#
# Coordination Sequence:
#
# PCOD8144261 Si02
#       5
#     8   8   8   8   8
#     4  11  24  43  68  99 137 174 230 285 328 405
#     4  11  23  40  69  96 133 184 223 272 353 397
#     4  10  21  42  66  93 137 174 217 277 334 397
#     4  10  22  42  67  94 136 177 222 280 337 407
#     4  12  24  39  71  98 129 180 230 279 343 394
#
# _framework density 21.633890000000001
#
# number of rings (size 3 to 8) (size 9 to 14) (size 15 to 20)
#    0.000    1.200    4.000    4.200    0.000    6.400 
#    0.000    6.000    0.000    0.000    0.000    0.000 
#    0.000    0.000    0.000    0.000    0.000    0.000 
#
# Total GULP energy -248021.497914 kJ/mol
# GULP energy per Si atom -12401.074896 kJ/mol
# Density = 2.158465 g / cm^3
# Si number density = 21.633890 Si / 1000 Ang^3
#
#
#
# Elastic Constant Matrix: (Units=GPa)
#
#
# Indices 1 2 3 4 5 6 
#
# 1 74.2332 24.0522 15.2507 -0.0013 -13.7219 0.0009
# 2 24.0522 84.0489 21.6694 0.0004 1.6774 -0.0001
# 3 15.2507 21.6694 81.7065 0.0000 -21.7923 0.0001
# 4 -0.0013 0.0004 0.0000 28.8380 0.0004 -10.0294
# 5 -13.7219 1.6774 -21.7923 0.0004 31.6530 -0.0003
# 6 0.0009 -0.0001 0.0001 -10.0294 -0.0003 37.8239
#
#
#
# Elastic Compliance Matrix: (Units=1/GPa)
#
#
# Indices 1 2 3 4 5 6 
#
# 1 0.016405 -0.004910 0.000253 0.000001 0.007546 0.000000
# 2 -0.004910 0.014602 -0.004569 0.000000 -0.006048 0.000000
# 3 0.000253 -0.004569 0.016533 0.000000 0.011735 0.000000
# 4 0.000001 0.000000 0.000000 0.038199 0.000000 0.010129
# 5 0.007546 -0.006048 0.011735 0.000000 0.043263 0.000000
# 6 0.000000 0.000000 0.000000 0.010129 0.000000 0.029124
#
#
# Mechanical properties :
#
#
# Convention : Reuss Voigt Hill
#
# Bulk Modulus (GPa) = 34.37994 40.21481 37.29737
# Shear Modulus (GPa) = 26.84194 31.59738 29.21966
#
# Velocity S-wave (km/s) = 3.52623 3.82586 3.67910
# Velocity P-wave (km/s) = 5.70134 6.17620 5.94351
#
# Compressibility (1/GPa) = 0.02908673
#
# Stress axis : x y z
#
# Youngs Moduli (GPa) = 60.95700 68.48492 60.48414
#
# Poissons Ratio (x) = 0.33629 -0.01530
# Poissons Ratio (y) = 0.29932 0.27636
# Poissons Ratio (z) = -0.01542 0.31292
#
# Static dielectric constant tensor:
#      x y z
#    x 4.189330 0.000000 -0.412290 
#    y 0.000000 3.656510 0.000000 
#    z -0.412290 0.000000 4.383340 
# 
# 
# High freq. dielectric constant tensor:
#      x y z
#    x 1.863740 0.000000 -0.017660 
#    y 0.000000 1.825360 0.000000 
#    z -0.017660 0.000000 1.856780 
# 
# From -- ./inp_files/86270.got.cif
#   From: 2010.06.25/outbox.cif.g09.slc.cpg/sg15_44_cif.got.tgz:86270.got - 2010.06.28 07:06:18.
