data_PCOD8144915
_publ_section_title
;
Structure prediction by ZEFSAII (Michael W. Deem and Ramdas Pophale) SiO2 
 PCOD8144915
Probable space group: C 2/C
;
_chemical_formula_sum "Si O2"
_cell_formula_units_Z 48
_cell_length_a 14.086206
_cell_length_b 23.192868
_cell_length_c 9.348823
_cell_angle_alpha 90.000000
_cell_angle_beta 109.361280
_cell_angle_gamma 90.000000
_cell_volume 2881.528354
_symmetry_space_group_name_H-M "C 2/C"
_symmetry_group_IT_number 15
_symmetry_cell_setting 'monoclinic'
loop_
_space_group_symop_operation_xyz
x,y,z
-x,y,1/2-z
-x,-y,-z
x,-y,1/2+z
1/2+x,1/2+y,z
1/2-x,1/2+y,1/2-z
1/2-x,1/2-y,-z
1/2+x,1/2-y,1/2+z
loop_
_atom_site_type_symbol
_atom_site_label
_atom_site_fract_x
_atom_site_fract_y
_atom_site_fract_z
Si Si1 0.331980 0.873380 0.457061
Si Si2 0.977800 0.732415 0.076521
Si Si3 0.928643 0.486570 0.594817
Si Si4 0.689398 0.793254 0.569808
Si Si5 0.882210 0.389176 0.168187
Si Si6 0.795493 0.800177 0.927013
O O1 0.422799 0.829873 0.543282
O O2 0.349078 0.938662 0.513320
O O3 0.319650 0.873343 0.279648
O O4 0.229764 0.856903 0.491493
O O5 0.000000 0.748294 0.250000
O O6 0.080566 0.733942 0.040818
O O7 0.913183 0.784688 0.973382
O O8 0.872306 0.543535 0.624180
O O9 0.000000 0.459229 0.750000
O O10 0.000000 0.500000 0.500000
O O11 0.750000 0.750000 0.500000
O O12 0.671321 0.854401 0.484889
O O13 0.747590 0.804435 0.746371
O O14 0.000000 0.372807 0.250000
O O15 0.750000 0.750000 0.000000
#
# Coordination Sequence:
#
# PCOD8144915 Si02
#       6
#     8   8   8   8   8   8
#     4  11  20  35  52  74 113 144 182 215 264 338
#     4  11  20  36  55  77 109 147 182 225 265 323
#     4  11  20  32  50  78 109 147 180 216 280 336
#     4  12  23  34  56  79 111 143 181 233 273 320
#     4  11  22  33  49  79 111 146 176 224 274 323
#     4  10  22  34  52  78 102 146 187 213 270 328
#
# _framework density 16.657827000000001
#
# number of rings (size 3 to 8) (size 9 to 14) (size 15 to 20)
#    0.000    1.000    8.333    2.500    2.333    0.000 
#    0.000    0.000    0.000    0.000    0.000    1.167 
#    0.000    0.000    0.000    0.000    0.000    0.000 
#
# Total GULP energy -297470.541189 kJ/mol
# GULP energy per Si atom -12394.605883 kJ/mol
# Density = 1.661991 g / cm^3
# Si number density = 16.657827 Si / 1000 Ang^3
#
#
#
# Elastic Constant Matrix: (Units=GPa)
#
#
# Indices 1 2 3 4 5 6 
#
# 1 91.0874 43.1368 38.3388 0.0000 -5.6754 0.0000
# 2 43.1368 94.5228 49.1620 0.0000 1.6188 0.0000
# 3 38.3388 49.1620 137.8198 0.0000 -5.9028 0.0000
# 4 0.0000 0.0000 0.0000 34.0270 0.0000 -1.6035
# 5 -5.6754 1.6188 -5.9028 0.0000 27.3093 0.0000
# 6 0.0000 0.0000 0.0000 -1.6035 0.0000 21.7122
#
#
#
# Elastic Compliance Matrix: (Units=1/GPa)
#
#
# Indices 1 2 3 4 5 6 
#
# 1 0.014697 -0.005769 -0.001903 0.000000 0.002985 0.000000
# 2 -0.005769 0.015341 -0.003995 0.000000 -0.002972 0.000000
# 3 -0.001903 -0.003995 0.009289 0.000000 0.001849 0.000000
# 4 0.000000 0.000000 0.000000 0.029491 0.000000 0.002178
# 5 0.002985 -0.002972 0.001849 0.000000 0.037814 0.000000
# 6 0.000000 0.000000 0.000000 0.002178 0.000000 0.046218
#
#
# Mechanical properties :
#
#
# Convention : Reuss Voigt Hill
#
# Bulk Modulus (GPa) = 62.52088 64.96726 63.74407
# Shear Modulus (GPa) = 27.54603 29.46253 28.50428
#
# Velocity S-wave (km/s) = 4.07091 4.21014 4.14111
# Velocity P-wave (km/s) = 7.72724 7.91956 7.82399
#
# Compressibility (1/GPa) = 0.01599466
#
# Stress axis : x y z
#
# Youngs Moduli (GPa) = 68.03954 65.18615 107.65006
#
# Poissons Ratio (x) = 0.37604 0.20485
# Poissons Ratio (y) = 0.39250 0.43003
# Poissons Ratio (z) = 0.12947 0.26040
#
# Static dielectric constant tensor:
#      x y z
#    x 3.433720 0.000000 -0.018180 
#    y 0.000000 2.594400 0.000000 
#    z -0.018180 0.000000 3.461280 
# 
# 
# High freq. dielectric constant tensor:
#      x y z
#    x 1.614950 0.000000 -0.020370 
#    y 0.000000 1.629650 0.000000 
#    z -0.020370 0.000000 1.662020 
# 
# From -- ./inp_files/41681.got.cif
#   From: 2010.06.25/outbox.cif.g09.slc.cpg/sg15_21_cif.got.tgz:41681.got - 2010.06.28 07:06:18.
