data_PCOD8144872
_publ_section_title
;
Structure prediction by ZEFSAII (Michael W. Deem and Ramdas Pophale) SiO2 
 PCOD8144872
Probable space group: C 2/C
;
_chemical_formula_sum "Si O2"
_cell_formula_units_Z 56
_cell_length_a 15.094104
_cell_length_b 11.371411
_cell_length_c 13.594991
_cell_angle_alpha 90.000000
_cell_angle_beta 109.669108
_cell_angle_gamma 90.000000
_cell_volume 2197.308954
_symmetry_space_group_name_H-M "C 2/C"
_symmetry_group_IT_number 15
_symmetry_cell_setting 'monoclinic'
loop_
_space_group_symop_operation_xyz
x,y,z
-x,y,1/2-z
-x,-y,-z
x,-y,1/2+z
1/2+x,1/2+y,z
1/2-x,1/2+y,1/2-z
1/2-x,1/2-y,-z
1/2+x,1/2-y,1/2+z
loop_
_atom_site_type_symbol
_atom_site_label
_atom_site_fract_x
_atom_site_fract_y
_atom_site_fract_z
Si Si1 0.197770 0.944115 0.479918
Si Si2 0.894949 0.171198 0.384051
Si Si3 0.906480 0.037304 0.756435
Si Si4 0.611859 0.915794 0.859355
Si Si5 0.104771 0.321882 0.289012
Si Si6 0.882524 0.194738 0.016537
Si Si7 0.078874 0.288207 0.664425
O O1 0.151551 0.836832 0.525266
O O2 0.168609 0.933380 0.356149
O O3 0.309908 0.924753 0.527341
O O4 0.169652 0.070457 0.516057
O O5 0.855045 0.281268 0.303205
O O6 0.006035 0.175376 0.441473
O O7 0.860836 0.052276 0.316085
O O8 0.946628 0.152459 0.825323
O O9 0.000000 0.972535 0.750000
O O10 0.642984 0.832062 0.779672
O O11 0.515485 0.869228 0.873484
O O12 0.600848 0.040078 0.801157
O O13 0.157927 0.258152 0.400363
O O14 0.000000 0.269600 0.250000
O O15 0.864399 0.285390 0.917847
#
# Coordination Sequence:
#
# PCOD8144872 Si02
#       7
#     8   8   8   8   8   8   8
#     4  12  25  41  70 110 139 176 241 298 363 414
#     4  11  22  41  72 104 134 179 232 295 358 424
#     4  12  20  42  71  97 139 180 231 296 355 424
#     4  11  26  46  64  98 147 188 231 292 348 433
#     4  10  21  46  71  94 136 182 234 281 350 430
#     4  11  22  41  75 101 127 186 234 291 352 422
#     4  11  24  46  69  95 143 196 232 278 361 435
#
# _framework density 25.485719
#
# number of rings (size 3 to 8) (size 9 to 14) (size 15 to 20)
#    0.000    0.857    7.143    1.714    0.000    2.857 
#    2.571    0.000    0.000    0.000    0.000    0.000 
#    0.000    0.000    0.000    0.000    0.000    0.000 
#
# Total GULP energy -347032.373599 kJ/mol
# GULP energy per Si atom -12394.013343 kJ/mol
# Density = 2.542771 g / cm^3
# Si number density = 25.485719 Si / 1000 Ang^3
#
#
#
# Elastic Constant Matrix: (Units=GPa)
#
#
# Indices 1 2 3 4 5 6 
#
# 1 29.8391 3.9556 6.8716 0.0000 6.8804 0.0000
# 2 3.9556 107.1537 -5.0806 0.0000 -1.5718 0.0000
# 3 6.8716 -5.0806 112.6275 0.0000 8.1720 0.0000
# 4 0.0000 0.0000 0.0000 30.7790 0.0000 -1.1277
# 5 6.8804 -1.5718 8.1720 0.0000 36.7729 0.0000
# 6 0.0000 0.0000 0.0000 -1.1277 0.0000 9.5751
#
#
#
# Elastic Compliance Matrix: (Units=1/GPa)
#
#
# Indices 1 2 3 4 5 6 
#
# 1 0.035579 -0.001491 -0.001779 0.000000 -0.006325 0.000000
# 2 -0.001491 0.009418 0.000474 0.000000 0.000576 0.000000
# 3 -0.001779 0.000474 0.009130 0.000000 -0.001676 0.000000
# 4 0.000000 0.000000 0.000000 0.032630 0.000000 0.003843
# 5 -0.006325 0.000576 -0.001676 0.000000 0.028775 0.000000
# 6 0.000000 0.000000 0.000000 0.003843 0.000000 0.104890
#
#
# Mechanical properties :
#
#
# Convention : Reuss Voigt Hill
#
# Bulk Modulus (GPa) = 20.60306 29.01262 24.80784
# Shear Modulus (GPa) = 20.64471 31.68365 26.16418
#
# Velocity S-wave (km/s) = 2.84923 3.52972 3.20757
# Velocity P-wave (km/s) = 4.35038 5.29344 4.84491
#
# Compressibility (1/GPa) = 0.04853648
#
# Stress axis : x y z
#
# Youngs Moduli (GPa) = 28.10653 106.17588 109.52488
#
# Poissons Ratio (x) = 0.15826 0.19485
# Poissons Ratio (y) = 0.04189 -0.05191
# Poissons Ratio (z) = 0.05000 -0.05033
#
# Static dielectric constant tensor:
#      x y z
#    x 4.124790 0.000000 -0.151670 
#    y 0.000000 4.580120 0.000000 
#    z -0.151670 0.000000 5.017580 
# 
# 
# High freq. dielectric constant tensor:
#      x y z
#    x 1.978930 0.000000 -0.001430 
#    y 0.000000 2.020120 0.000000 
#    z -0.001430 0.000000 2.036010 
# 
# From -- ./inp_files/161402.got.cif
#   From: 2010.06.25/outbox.cif.g09.slc.cpg/sg15_81_cif.got.tgz:161402.got - 2010.06.28 07:06:18.
