data_PCOD8144280
_publ_section_title
;
Structure prediction by ZEFSAII (Michael W. Deem and Ramdas Pophale) SiO2 
 PCOD8144280
Probable space group: C 2/C
;
_chemical_formula_sum "Si O2"
_cell_formula_units_Z 52
_cell_length_a 22.236290
_cell_length_b 5.675729
_cell_length_c 26.404309
_cell_angle_alpha 90.000000
_cell_angle_beta 134.992502
_cell_angle_gamma 90.000000
_cell_volume 2356.679996
_symmetry_space_group_name_H-M "C 2/C"
_symmetry_group_IT_number 15
_symmetry_cell_setting 'monoclinic'
loop_
_space_group_symop_operation_xyz
x,y,z
-x,y,1/2-z
-x,-y,-z
x,-y,1/2+z
1/2+x,1/2+y,z
1/2-x,1/2+y,1/2-z
1/2-x,1/2-y,-z
1/2+x,1/2-y,1/2+z
loop_
_atom_site_type_symbol
_atom_site_label
_atom_site_fract_x
_atom_site_fract_y
_atom_site_fract_z
Si Si1 0.539856 0.371536 0.183584
Si Si2 0.374551 0.914372 0.686693
Si Si3 0.635791 0.412390 0.470209
Si Si4 0.222194 0.958289 0.425746
Si Si5 0.791844 0.151860 0.897009
Si Si6 0.702440 0.360717 0.212634
Si Si7 0.500000 0.287125 0.750000
O O1 0.459757 0.335896 0.099245
O O2 0.621515 0.425525 0.198023
O O3 0.525660 0.579033 0.214690
O O4 0.559080 0.140362 0.228465
O O5 0.280349 0.953423 0.652416
O O6 0.416725 0.136195 0.683748
O O7 0.361057 0.699162 0.639576
O O8 0.690996 0.178236 0.510871
O O9 0.684875 0.568073 0.456028
O O10 0.634222 0.566629 0.520769
O O11 0.242018 0.128194 0.391168
O O12 0.828969 0.196145 0.863496
O O13 0.756018 0.608630 0.245450
#
# Coordination Sequence:
#
# PCOD8144280 Si02
#       7
#     8   8   8   8   8   8   4
#     4  12  25  43  67 105 143 180 239 305 361 428
#     4  11  21  39  65  95 134 178 234 295 349 432
#     4  10  23  39  64 101 144 180 231 293 367 426
#     4  10  21  42  66  98 141 186 231 292 360 434
#     4  11  23  42  69  95 135 189 239 283 361 431
#     4  12  27  50  77 106 141 195 252 303 359 431
#     4  12  24  38  68 104 138 176 236 300 368 418
#
# _framework density 22.064937
#
# number of rings (size 3 to 8) (size 9 to 14) (size 15 to 20)
#    0.000    0.923    1.538    6.462    2.154    4.308 
#    0.000    0.769    0.000    0.000    0.000    0.000 
#    0.000    0.000    0.000    0.000    0.000    0.000 
#
# Total GULP energy -322137.573556 kJ/mol
# GULP energy per Si atom -12389.906675 kJ/mol
# Density = 2.201472 g / cm^3
# Si number density = 22.064937 Si / 1000 Ang^3
#
#
#
# Elastic Constant Matrix: (Units=GPa)
#
#
# Indices 1 2 3 4 5 6 
#
# 1 136.9318 35.6651 60.3319 0.0002 -20.7845 -0.0138
# 2 35.6651 84.7248 44.7249 -0.0179 -6.0796 0.0010
# 3 60.3319 44.7249 155.2442 -0.0029 -0.3875 -0.0004
# 4 0.0002 -0.0179 -0.0029 26.8983 -0.0049 -7.8406
# 5 -20.7845 -6.0796 -0.3875 -0.0049 47.1068 -0.0038
# 6 -0.0138 0.0010 -0.0004 -7.8406 -0.0038 10.8583
#
#
#
# Elastic Compliance Matrix: (Units=1/GPa)
#
#
# Indices 1 2 3 4 5 6 
#
# 1 0.009902 -0.002183 -0.003209 0.000004 0.004061 0.000017
# 2 -0.002183 0.014549 -0.003341 0.000011 0.000887 0.000004
# 3 -0.003209 -0.003341 0.008647 -0.000004 -0.001776 -0.000007
# 4 0.000004 0.000011 -0.000004 0.047088 0.000011 0.034002
# 5 0.004061 0.000887 -0.001776 0.000011 0.023120 0.000021
# 6 0.000017 0.000004 -0.000007 0.034002 0.000021 0.116647
#
#
# Mechanical properties :
#
#
# Convention : Reuss Voigt Hill
#
# Bulk Modulus (GPa) = 63.97218 73.14941 68.56079
# Shear Modulus (GPa) = 20.60757 32.71795 26.66276
#
# Velocity S-wave (km/s) = 3.05938 3.85490 3.47994
# Velocity P-wave (km/s) = 6.44479 7.28268 6.87651
#
# Compressibility (1/GPa) = 0.01563179
#
# Stress axis : x y z
#
# Youngs Moduli (GPa) = 100.99273 68.73289 115.65117
#
# Poissons Ratio (x) = 0.15003 0.37113
# Poissons Ratio (y) = 0.22044 0.38639
# Poissons Ratio (z) = 0.32409 0.22964
#
# Static dielectric constant tensor:
#      x y z
#    x 3.940760 -0.000100 -0.098200 
#    y -0.000100 4.007530 0.000010 
#    z -0.098200 0.000010 4.261260 
# 
# 
# High freq. dielectric constant tensor:
#      x y z
#    x 1.859950 -0.000010 -0.005530 
#    y -0.000010 1.864030 0.000000 
#    z -0.005530 0.000000 1.878720 
# 
# From -- ./inp_files/300154.got.cif
#   From: 2010.06.25/outbox.cif.g09.slc.cpg/sg15_151_cif.got.tgz:300154.got - 2010.06.28 07:06:18.
