data_PCOD8144895
_publ_section_title
;
Structure prediction by ZEFSAII (Michael W. Deem and Ramdas Pophale) SiO2 
 PCOD8144895
Probable space group: C 2/C
;
_chemical_formula_sum "Si O2"
_cell_formula_units_Z 44
_cell_length_a 16.574635
_cell_length_b 31.783026
_cell_length_c 5.275753
_cell_angle_alpha 90.000000
_cell_angle_beta 69.303250
_cell_angle_gamma 90.000000
_cell_volume 2599.864937
_symmetry_space_group_name_H-M "C 2/C"
_symmetry_group_IT_number 15
_symmetry_cell_setting 'monoclinic'
loop_
_space_group_symop_operation_xyz
x,y,z
-x,y,1/2-z
-x,-y,-z
x,-y,1/2+z
1/2+x,1/2+y,z
1/2-x,1/2+y,1/2-z
1/2-x,1/2-y,-z
1/2+x,1/2-y,1/2+z
loop_
_atom_site_type_symbol
_atom_site_label
_atom_site_fract_x
_atom_site_fract_y
_atom_site_fract_z
Si Si1 0.000000 0.334738 0.250000
Si Si2 0.723478 0.815754 0.493404
Si Si3 0.074108 0.261559 0.491791
Si Si4 0.194830 0.208863 0.089745
Si Si5 0.905887 0.616287 0.236077
Si Si6 0.101342 0.478985 0.675737
O O1 0.920910 0.363802 0.439020
O O2 0.039618 0.305181 0.420305
O O3 0.661476 0.773952 0.551481
O O4 0.773167 0.818026 0.704699
O O5 0.665360 0.857473 0.532630
O O6 0.793601 0.817051 0.184823
O O7 0.097408 0.225970 0.254645
O O8 0.000000 0.241728 0.750000
O O9 0.250000 0.250000 0.000000
O O10 0.874809 0.568300 0.269035
O O11 0.000000 0.620103 0.250000
O O12 0.140642 0.491819 0.357825
O O13 0.000000 0.485840 0.750000
#
# Coordination Sequence:
#
# PCOD8144895 Si02
#       6
#     4   8   8   8   8   8
#     4  12  20  30  46  68  88 112 168 196 234 250
#     4  11  20  35  45  67  86 116 151 191 238 265
#     4  11  21  31  46  65  87 119 155 200 232 269
#     4  10  22  32  47  61  90 115 146 192 241 273
#     4  11  21  30  49  66  90 118 156 200 224 267
#     4   9  20  32  45  64  88 116 145 184 232 268
#
# _framework density 16.923957000000001
#
# number of rings (size 3 to 8) (size 9 to 14) (size 15 to 20)
#    0.000    1.455    3.636    4.364    8.909    0.000 
#    0.000    0.000    0.000    0.000    0.000    0.000 
#    0.000    0.000    0.000    0.000    0.000   18.182 
#
# Total GULP energy -272592.893871 kJ/mol
# GULP energy per Si atom -12390.586085 kJ/mol
# Density = 1.688544 g / cm^3
# Si number density = 16.923957 Si / 1000 Ang^3
#
#
#
# Elastic Constant Matrix: (Units=GPa)
#
#
# Indices 1 2 3 4 5 6 
#
# 1 21.7564 15.9126 29.0947 0.0000 2.0652 0.0000
# 2 15.9126 80.7308 51.7578 0.0000 -6.4380 0.0000
# 3 29.0947 51.7578 145.2922 0.0000 -1.4335 0.0000
# 4 0.0000 0.0000 0.0000 19.7592 0.0000 -0.1282
# 5 2.0652 -6.4380 -1.4335 0.0000 28.3097 0.0000
# 6 0.0000 0.0000 0.0000 -0.1282 0.0000 5.6300
#
#
#
# Elastic Compliance Matrix: (Units=1/GPa)
#
#
# Indices 1 2 3 4 5 6 
#
# 1 0.066064 -0.006537 -0.010968 0.000000 -0.006861 0.000000
# 2 -0.006537 0.017026 -0.004716 0.000000 0.004110 0.000000
# 3 -0.010968 -0.004716 0.010762 0.000000 0.000273 0.000000
# 4 0.000000 0.000000 0.000000 0.050617 0.000000 0.001153
# 5 -0.006861 0.004110 0.000273 0.000000 0.036773 0.000000
# 6 0.000000 0.000000 0.000000 0.001153 0.000000 0.177648
#
#
# Mechanical properties :
#
#
# Convention : Reuss Voigt Hill
#
# Bulk Modulus (GPa) = 20.23882 49.03436 34.63659
# Shear Modulus (GPa) = 11.91041 20.80740 16.35890
#
# Velocity S-wave (km/s) = 2.65573 3.51018 3.11241
# Velocity P-wave (km/s) = 4.62477 6.74275 5.78157
#
# Compressibility (1/GPa) = 0.04940999
#
# Stress axis : x y z
#
# Youngs Moduli (GPa) = 15.13691 58.73212 92.92220
#
# Poissons Ratio (x) = 0.38392 1.01920
# Poissons Ratio (y) = 0.09895 0.43821
# Poissons Ratio (z) = 0.16603 0.27697
#
# Static dielectric constant tensor:
#      x y z
#    x -9.308600 0.000000 24.786650 
#    y 0.000000 3.085880 0.000000 
#    z 24.786650 0.000000 -45.698120 
# 
# 
# High freq. dielectric constant tensor:
#      x y z
#    x 1.604220 0.000000 0.027400 
#    y 0.000000 1.613360 0.000000 
#    z 0.027400 0.000000 1.670290 
# 
# From -- ./inp_files/8617.got.cif
#   From: 2010.06.25/outbox.cif.g09.slc.cpg/sg15_5_cif.got.tgz:8617.got - 2010.06.28 07:06:18.
