data_PCOD8144324
_publ_section_title
;
Structure prediction by ZEFSAII (Michael W. Deem and Ramdas Pophale) SiO2 
 PCOD8144324
Probable space group: C 2/C
;
_chemical_formula_sum "Si O2"
_cell_formula_units_Z 40
_cell_length_a 18.481744
_cell_length_b 7.959166
_cell_length_c 15.463310
_cell_angle_alpha 90.000000
_cell_angle_beta 131.296647
_cell_angle_gamma 90.000000
_cell_volume 1708.944495
_symmetry_space_group_name_H-M "C 2/C"
_symmetry_group_IT_number 15
_symmetry_cell_setting 'monoclinic'
loop_
_space_group_symop_operation_xyz
x,y,z
-x,y,1/2-z
-x,-y,-z
x,-y,1/2+z
1/2+x,1/2+y,z
1/2-x,1/2+y,1/2-z
1/2-x,1/2-y,-z
1/2+x,1/2-y,1/2+z
loop_
_atom_site_type_symbol
_atom_site_label
_atom_site_fract_x
_atom_site_fract_y
_atom_site_fract_z
Si Si1 0.145337 0.713133 0.379877
Si Si2 0.518018 0.360023 0.145065
Si Si3 0.005105 0.243086 0.353792
Si Si4 0.674825 0.941363 0.263707
Si Si5 0.641665 0.219212 0.100057
O O1 0.250000 0.750000 0.500000
O O2 0.111442 0.852073 0.282432
O O3 0.148026 0.536064 0.331762
O O4 0.064128 0.723490 0.391247
O O5 0.476109 0.546108 0.116161
O O6 0.552333 0.311245 0.076999
O O7 0.095493 0.337942 0.471558
O O8 0.000000 0.291266 0.250000
O O9 0.905955 0.302439 0.319705
O O10 0.776096 0.852660 0.354788
O O11 0.682044 0.064274 0.186867
#
# Coordination Sequence:
#
# PCOD8144324 Si02
#       5
#     8   8   8   8   8
#     4  10  21  42  68 101 137 181 227 287 347 418
#     4  10  22  43  69 100 138 184 234 278 352 421
#     4  12  25  44  70 104 142 183 233 294 352 416
#     4  11  26  44  70 106 137 185 238 287 357 414
#     4  11  25  47  71 102 142 185 235 293 345 424
#
# _framework density 23.406262000000002
#
# number of rings (size 3 to 8) (size 9 to 14) (size 15 to 20)
#    0.000    1.200    2.000    3.600    5.600    4.000 
#    7.200    0.000    0.000    0.000    0.000    0.000 
#    0.000    0.000    0.000    0.000    0.000    0.000 
#
# Total GULP energy -247966.470987 kJ/mol
# GULP energy per Si atom -12398.323549 kJ/mol
# Density = 2.335299 g / cm^3
# Si number density = 23.406262 Si / 1000 Ang^3
#
#
#
# Elastic Constant Matrix: (Units=GPa)
#
#
# Indices 1 2 3 4 5 6 
#
# 1 112.2200 60.7218 61.2197 0.0000 18.4115 0.0000
# 2 60.7218 79.9757 35.9458 0.0000 4.5724 0.0000
# 3 61.2197 35.9458 187.6604 0.0000 13.6555 0.0000
# 4 0.0000 0.0000 0.0000 22.2397 0.0000 14.5321
# 5 18.4115 4.5724 13.6555 0.0000 32.9395 0.0000
# 6 0.0000 0.0000 0.0000 14.5321 0.0000 43.5036
#
#
#
# Elastic Compliance Matrix: (Units=1/GPa)
#
#
# Indices 1 2 3 4 5 6 
#
# 1 0.018385 -0.012129 -0.003144 0.000000 -0.007289 0.000000
# 2 -0.012129 0.021706 -0.000490 0.000000 0.003970 0.000000
# 3 -0.003144 -0.000490 0.006512 0.000000 -0.000874 0.000000
# 4 0.000000 0.000000 0.000000 0.057520 0.000000 -0.019214
# 5 -0.007289 0.003970 -0.000874 0.000000 0.034244 0.000000
# 6 0.000000 0.000000 0.000000 -0.019214 0.000000 0.029405
#
#
# Mechanical properties :
#
#
# Convention : Reuss Voigt Hill
#
# Bulk Modulus (GPa) = 66.32479 77.29228 71.80854
# Shear Modulus (GPa) = 24.47097 34.53448 29.50272
#
# Velocity S-wave (km/s) = 3.23691 3.84531 3.55415
# Velocity P-wave (km/s) = 6.50907 7.26698 6.89844
#
# Compressibility (1/GPa) = 0.01507732
#
# Stress axis : x y z
#
# Youngs Moduli (GPa) = 54.39157 46.07005 153.56603
#
# Poissons Ratio (x) = 0.55879 0.48281
# Poissons Ratio (y) = 0.65972 0.07521
# Poissons Ratio (z) = 0.17101 0.02256
#
# Static dielectric constant tensor:
#      x y z
#    x 4.263410 0.000000 -0.111550 
#    y 0.000000 4.048780 0.000000 
#    z -0.111550 0.000000 4.239870 
# 
# 
# High freq. dielectric constant tensor:
#      x y z
#    x 1.926090 0.000000 -0.003220 
#    y 0.000000 1.917060 0.000000 
#    z -0.003220 0.000000 1.938900 
# 
# From -- ./inp_files/166506.got.cif
#   From: 2010.06.25/outbox.cif.g09.slc.cpg/sg15_84_cif.got.tgz:166506.got - 2010.06.28 07:06:18.
