data_PCOD8144978
_publ_section_title
;
Structure prediction by ZEFSAII (Michael W. Deem and Ramdas Pophale) SiO2 
 PCOD8144978
Probable space group: C 2/C
;
_chemical_formula_sum "Si O2"
_cell_formula_units_Z 56
_cell_length_a 14.102754
_cell_length_b 22.703932
_cell_length_c 8.841700
_cell_angle_alpha 90.000000
_cell_angle_beta 102.787861
_cell_angle_gamma 90.000000
_cell_volume 2760.786450
_symmetry_space_group_name_H-M "C 2/C"
_symmetry_group_IT_number 15
_symmetry_cell_setting 'monoclinic'
loop_
_space_group_symop_operation_xyz
x,y,z
-x,y,1/2-z
-x,-y,-z
x,-y,1/2+z
1/2+x,1/2+y,z
1/2-x,1/2+y,1/2-z
1/2-x,1/2-y,-z
1/2+x,1/2-y,1/2+z
loop_
_atom_site_type_symbol
_atom_site_label
_atom_site_fract_x
_atom_site_fract_y
_atom_site_fract_z
Si Si1 0.701394 0.797238 0.589469
Si Si2 0.551879 0.391660 0.929426
Si Si3 0.634659 0.425776 0.483057
Si Si4 0.683952 0.704719 0.066922
Si Si5 0.476337 0.277862 0.414037
Si Si6 0.266334 0.493564 0.235347
Si Si7 0.229930 0.422548 0.487145
O O1 0.750000 0.750000 0.500000
O O2 0.774925 0.807114 0.752775
O O3 0.594651 0.778384 0.608947
O O4 0.685497 0.858463 0.495598
O O5 0.500000 0.381549 0.750000
O O6 0.652129 0.426658 0.948531
O O7 0.479867 0.425694 0.018441
O O8 0.579776 0.329690 0.017420
O O9 0.674860 0.358702 0.482914
O O10 0.651852 0.457420 0.329040
O O11 0.688288 0.459208 0.636048
O O12 0.750000 0.750000 0.000000
O O13 0.577165 0.734545 0.038293
O O14 0.500000 0.295664 0.250000
O O15 0.204092 0.445634 0.309943
O O16 0.193221 0.529699 0.098639
#
# Coordination Sequence:
#
# PCOD8144978 Si02
#       7
#     8   8   8   8   8   8   8
#     4  12  24  40  65  92 126 167 208 261 315 366
#     4  11  21  35  53  82 126 162 201 253 299 367
#     4  10  22  36  56  82 122 163 206 249 308 370
#     4  11  23  41  62  92 128 160 208 261 313 373
#     4  11  24  39  61  92 123 170 204 252 318 378
#     4  10  22  37  55  82 120 168 209 248 303 377
#     4  11  22  38  55  85 119 160 210 253 308 368
#
# _framework density 20.284075000000001
#
# number of rings (size 3 to 8) (size 9 to 14) (size 15 to 20)
#    0.000    1.143    5.714    0.857    6.000    3.429 
#    0.000    0.000    0.000    0.000    0.000   11.000 
#    0.000    0.000    0.000    0.000    0.000    0.000 
#
# Total GULP energy -347123.844704 kJ/mol
# GULP energy per Si atom -12397.280168 kJ/mol
# Density = 2.023791 g / cm^3
# Si number density = 20.284075 Si / 1000 Ang^3
#
#
#
# Elastic Constant Matrix: (Units=GPa)
#
#
# Indices 1 2 3 4 5 6 
#
# 1 50.4931 31.0336 24.5753 0.0000 4.2594 0.0000
# 2 31.0336 114.8251 43.0954 0.0000 -12.7285 0.0000
# 3 24.5753 43.0954 82.5566 0.0000 -22.0227 0.0000
# 4 0.0000 0.0000 0.0000 35.8615 0.0000 -11.9866
# 5 4.2594 -12.7285 -22.0227 0.0000 27.7356 0.0000
# 6 0.0000 0.0000 0.0000 -11.9866 0.0000 34.7952
#
#
#
# Elastic Compliance Matrix: (Units=1/GPa)
#
#
# Indices 1 2 3 4 5 6 
#
# 1 0.029420 -0.006000 -0.009599 0.000000 -0.014893 0.000000
# 2 -0.006000 0.012063 -0.003538 0.000000 0.003648 0.000000
# 3 -0.009599 -0.003538 0.021286 0.000000 0.016752 0.000000
# 4 0.000000 0.000000 0.000000 0.031514 0.000000 0.010856
# 5 -0.014893 0.003648 0.016752 0.000000 0.053317 0.000000
# 6 0.000000 0.000000 0.000000 0.010856 0.000000 0.032479
#
#
# Mechanical properties :
#
#
# Convention : Reuss Voigt Hill
#
# Bulk Modulus (GPa) = 40.82245 49.47591 45.14918
# Shear Modulus (GPa) = 22.07343 29.62316 25.84830
#
# Velocity S-wave (km/s) = 3.30239 3.82568 3.57363
# Velocity P-wave (km/s) = 5.89153 6.63015 6.27172
#
# Compressibility (1/GPa) = 0.02449633
#
# Stress axis : x y z
#
# Youngs Moduli (GPa) = 33.99012 82.90119 46.98015
#
# Poissons Ratio (x) = 0.49739 0.45095
# Poissons Ratio (y) = 0.20393 0.16620
# Poissons Ratio (z) = 0.32626 0.29327
#
# Static dielectric constant tensor:
#      x y z
#    x 3.332600 0.000000 -0.515020 
#    y 0.000000 3.964050 0.000000 
#    z -0.515020 0.000000 3.401810 
# 
# 
# High freq. dielectric constant tensor:
#      x y z
#    x 1.747670 0.000000 -0.026140 
#    y 0.000000 1.803970 0.000000 
#    z -0.026140 0.000000 1.803040 
# 
# From -- ./inp_files/42291.got.cif
#   From: 2010.06.25/outbox.cif.g09.slc.cpg/sg15_22_cif.got.tgz:42291.got - 2010.06.28 07:06:18.
