data_PCOD8144987
_publ_section_title
;
Structure prediction by ZEFSAII (Michael W. Deem and Ramdas Pophale) SiO2 
 PCOD8144987
Probable space group: C 2/C
;
_chemical_formula_sum "Si O2"
_cell_formula_units_Z 64
_cell_length_a 24.717965
_cell_length_b 18.786415
_cell_length_c 17.966015
_cell_angle_alpha 90.000000
_cell_angle_beta 156.496484
_cell_angle_gamma 90.000000
_cell_volume 3327.126798
_symmetry_space_group_name_H-M "C 2/C"
_symmetry_group_IT_number 15
_symmetry_cell_setting 'monoclinic'
loop_
_space_group_symop_operation_xyz
x,y,z
-x,y,1/2-z
-x,-y,-z
x,-y,1/2+z
1/2+x,1/2+y,z
1/2-x,1/2+y,1/2-z
1/2-x,1/2-y,-z
1/2+x,1/2-y,1/2+z
loop_
_atom_site_type_symbol
_atom_site_label
_atom_site_fract_x
_atom_site_fract_y
_atom_site_fract_z
Si Si1 0.565920 0.105776 0.558750
Si Si2 0.153719 0.893611 0.441948
Si Si3 0.358502 0.462786 0.231652
Si Si4 0.599199 0.592061 0.128786
Si Si5 0.210404 0.536279 0.251282
Si Si6 0.251466 0.754525 0.630982
Si Si7 0.925084 0.758766 0.942116
Si Si8 0.392031 0.888482 0.553851
O O1 0.427510 0.081340 0.421581
O O2 0.614509 0.183999 0.648300
O O3 0.532922 0.119922 0.430066
O O4 0.682889 0.048304 0.721126
O O5 0.175505 0.939285 0.395041
O O6 0.189314 0.946243 0.554508
O O7 0.236851 0.819819 0.554185
O O8 0.000000 0.869024 0.250000
O O9 0.408769 0.545458 0.304784
O O10 0.467949 0.413297 0.410319
O O11 0.216368 0.451441 0.094669
O O12 0.724894 0.557579 0.244646
O O13 0.614114 0.676315 0.163325
O O14 0.167975 0.772739 0.601742
O O15 0.184192 0.682893 0.513668
O O16 0.412018 0.741673 0.841208
O O17 0.500000 0.913248 0.750000
#
# Coordination Sequence:
#
# PCOD8144987 Si02
#       8
#     8   8   8   8   8   8   8   8
#     4  10  22  36  58  82 114 156 198 240 294 349
#     4  12  22  37  56  85 117 159 195 241 300 355
#     4  11  23  35  57  82 115 154 195 238 285 347
#     4  11  21  39  59  81 118 154 198 245 283 347
#     4  11  20  39  58  81 116 155 199 246 287 352
#     4  11  23  35  56  88 124 160 191 233 298 369
#     4  11  20  39  59  88 118 161 195 243 297 357
#     4  11  22  35  51  86 123 155 187 233 291 359
#
# _framework density 19.235814999999999
#
# number of rings (size 3 to 8) (size 9 to 14) (size 15 to 20)
#    0.000    1.000    6.250    1.125    1.750    1.500 
#    0.000    0.000    0.000    0.750    0.000    0.875 
#    0.000    0.000    0.000    0.000    0.000    0.000 
#
# Total GULP energy -396508.535019 kJ/mol
# GULP energy per Si atom -12390.891719 kJ/mol
# Density = 1.919203 g / cm^3
# Si number density = 19.235815 Si / 1000 Ang^3
#
#
#
# Elastic Constant Matrix: (Units=GPa)
#
#
# Indices 1 2 3 4 5 6 
#
# 1 50.7441 16.8319 22.2671 -0.0001 10.2887 -0.0001
# 2 16.8319 162.6571 41.8100 0.0000 -9.7335 0.0000
# 3 22.2671 41.8100 62.1751 -0.0004 12.1731 -0.0003
# 4 -0.0001 0.0000 -0.0004 27.3693 -0.0002 -2.3758
# 5 10.2887 -9.7335 12.1731 -0.0002 33.5833 -0.0002
# 6 -0.0001 0.0000 -0.0003 -2.3758 -0.0002 24.5068
#
#
#
# Elastic Compliance Matrix: (Units=1/GPa)
#
#
# Indices 1 2 3 4 5 6 
#
# 1 0.024143 -0.001023 -0.006945 0.000000 -0.005175 0.000000
# 2 -0.001023 0.008092 -0.006023 0.000000 0.004842 0.000000
# 3 -0.006945 -0.006023 0.024269 0.000000 -0.008415 0.000000
# 4 0.000000 0.000000 0.000000 0.036847 0.000000 0.003572
# 5 -0.005175 0.004842 -0.008415 0.000000 0.035816 0.000000
# 6 0.000000 0.000000 0.000000 0.003572 0.000000 0.041151
#
#
# Mechanical properties :
#
#
# Convention : Reuss Voigt Hill
#
# Bulk Modulus (GPa) = 35.06180 48.59939 41.83059
# Shear Modulus (GPa) = 24.06079 30.06968 27.06524
#
# Velocity S-wave (km/s) = 3.54055 3.95804 3.75510
# Velocity P-wave (km/s) = 5.91447 6.79765 6.37138
#
# Compressibility (1/GPa) = 0.02852107
#
# Stress axis : x y z
#
# Youngs Moduli (GPa) = 41.41975 123.58453 41.20541
#
# Poissons Ratio (x) = 0.12640 0.28619
# Poissons Ratio (y) = 0.04236 0.24818
# Poissons Ratio (z) = 0.28768 0.74434
#
# Static dielectric constant tensor:
#      x y z
#    x 3.595730 0.000000 0.301870 
#    y 0.000000 3.904040 0.000000 
#    z 0.301870 0.000000 3.360590 
# 
# 
# High freq. dielectric constant tensor:
#      x y z
#    x 1.739920 0.000000 0.039060 
#    y 0.000000 1.758930 0.000000 
#    z 0.039060 0.000000 1.724880 
# 
# From -- ./inp_files/223176.got.cif
#   From: 2010.06.25/outbox.cif.g09.slc.cpg/sg15_112_cif.got.tgz:223176.got - 2010.06.28 07:06:18.
