data_PCOD8144007
_publ_section_title
;
Structure prediction by ZEFSAII (Michael W. Deem and Ramdas Pophale) SiO2 
 PCOD8144007
Probable space group: C 2/C
;
_chemical_formula_sum "Si O2"
_cell_formula_units_Z 24
_cell_length_a 13.953224
_cell_length_b 11.543511
_cell_length_c 20.130243
_cell_angle_alpha 90.000000
_cell_angle_beta 19.021905
_cell_angle_gamma 90.000000
_cell_volume 1056.781811
_symmetry_space_group_name_H-M "C 2/C"
_symmetry_group_IT_number 15
_symmetry_cell_setting 'monoclinic'
loop_
_space_group_symop_operation_xyz
x,y,z
-x,y,1/2-z
-x,-y,-z
x,-y,1/2+z
1/2+x,1/2+y,z
1/2-x,1/2+y,1/2-z
1/2-x,1/2-y,-z
1/2+x,1/2-y,1/2+z
loop_
_atom_site_type_symbol
_atom_site_label
_atom_site_fract_x
_atom_site_fract_y
_atom_site_fract_z
Si Si1 0.262504 0.699295 0.329582
Si Si2 0.695503 0.151132 0.982609
Si Si3 0.369004 0.099683 0.942772
O O1 0.379939 0.831610 0.262903
O O2 0.116166 0.650725 0.491994
O O3 0.024906 0.699250 0.427554
O O4 0.545383 0.621399 0.124163
O O5 0.000000 0.112225 0.750000
O O6 0.750000 0.250000 0.000000
O O7 0.558630 0.036737 0.106643
#
# Coordination Sequence:
#
# PCOD8144007 Si02
#       3
#     8   8   8
#     4  10  21  41  69  91 129 168 219 258 324 375
#     4  12  25  42  64 100 132 170 210 270 323 376
#     4  10  22  42  68  94 126 174 215 263 320 380
#
# _framework density 22.710459
#
# number of rings (size 3 to 8) (size 9 to 14) (size 15 to 20)
#    0.000    1.333    3.333    3.000    4.667    0.000 
#   12.000    3.333    0.000    0.000    0.000    0.000 
#    0.000    0.000    0.000    0.000    0.000    0.000 
#
# Total GULP energy -148800.634472 kJ/mol
# GULP energy per Si atom -12400.052873 kJ/mol
# Density = 2.265877 g / cm^3
# Si number density = 22.710459 Si / 1000 Ang^3
#
#
#
# Elastic Constant Matrix: (Units=GPa)
#
#
# Indices 1 2 3 4 5 6 
#
# 1 146.8114 43.1803 26.2734 0.0233 -35.1967 -0.0051
# 2 43.1803 187.9173 21.7456 0.0154 8.7983 0.0592
# 3 26.2734 21.7456 45.2177 -0.0778 -16.4843 0.0824
# 4 0.0233 0.0154 -0.0778 23.1758 0.1142 7.9866
# 5 -35.1967 8.7983 -16.4843 0.1142 36.2857 0.0011
# 6 -0.0051 0.0592 0.0824 7.9866 0.0011 27.9013
#
#
#
# Elastic Compliance Matrix: (Units=1/GPa)
#
#
# Indices 1 2 3 4 5 6 
#
# 1 0.010205 -0.002712 -0.000932 -0.000072 0.010133 0.000031
# 2 -0.002712 0.006665 -0.003808 0.000018 -0.005977 -0.000008
# 3 -0.000932 -0.003808 0.029358 0.000070 0.013356 -0.000099
# 4 -0.000072 0.000018 0.000070 0.047872 -0.000193 -0.013703
# 5 0.010133 -0.005977 0.013356 -0.000193 0.044906 0.000028
# 6 0.000031 -0.000008 -0.000099 -0.013703 0.000028 0.039764
#
#
# Mechanical properties :
#
#
# Convention : Reuss Voigt Hill
#
# Bulk Modulus (GPa) = 31.92403 62.48279 47.20341
# Shear Modulus (GPa) = 24.49611 36.72235 30.60923
#
# Velocity S-wave (km/s) = 3.28781 4.02553 3.67523
# Velocity P-wave (km/s) = 5.33858 7.01278 6.23215
#
# Compressibility (1/GPa) = 0.03132437
#
# Stress axis : x y z
#
# Youngs Moduli (GPa) = 97.99000 150.03483 34.06283
#
# Poissons Ratio (x) = 0.40684 0.03173
# Poissons Ratio (y) = 0.26571 0.12973
# Poissons Ratio (z) = 0.09129 0.57141
#
# Static dielectric constant tensor:
#      x y z
#    x 4.056880 -0.000110 -0.089060 
#    y -0.000110 4.126620 0.000820 
#    z -0.089060 0.000820 4.086470 
# 
# 
# High freq. dielectric constant tensor:
#      x y z
#    x 1.899880 -0.000010 -0.013730 
#    y -0.000010 1.898020 0.000070 
#    z -0.013730 0.000070 1.879060 
# 
# From -- ./inp_files/27059.got.cif
#   From: 2010.06.25/outbox.cif.g09.slc.cpg/sg15_14_cif.got.tgz:27059.got - 2010.06.28 07:06:18.
