data_PCOD8144189
_publ_section_title
;
Structure prediction by ZEFSAII (Michael W. Deem and Ramdas Pophale) SiO2 
 PCOD8144189
Probable space group: C 2/C
;
_chemical_formula_sum "Si O2"
_cell_formula_units_Z 52
_cell_length_a 11.783091
_cell_length_b 19.450143
_cell_length_c 13.467262
_cell_angle_alpha 90.000000
_cell_angle_beta 55.613480
_cell_angle_gamma 90.000000
_cell_volume 2547.094017
_symmetry_space_group_name_H-M "C 2/C"
_symmetry_group_IT_number 15
_symmetry_cell_setting 'monoclinic'
loop_
_space_group_symop_operation_xyz
x,y,z
-x,y,1/2-z
-x,-y,-z
x,-y,1/2+z
1/2+x,1/2+y,z
1/2-x,1/2+y,1/2-z
1/2-x,1/2-y,-z
1/2+x,1/2-y,1/2+z
loop_
_atom_site_type_symbol
_atom_site_label
_atom_site_fract_x
_atom_site_fract_y
_atom_site_fract_z
Si Si1 0.515659 0.678250 0.029789
Si Si2 0.000000 0.770710 0.750000
Si Si3 0.630420 0.980092 0.309551
Si Si4 0.784292 0.333226 0.275182
Si Si5 0.635052 0.054885 0.030818
Si Si6 0.164210 0.706865 0.962937
Si Si7 0.862252 0.955938 0.572268
O O1 0.648268 0.652014 0.905319
O O2 0.544902 0.683504 0.133279
O O3 0.469702 0.751281 0.006829
O O4 0.394439 0.623909 0.073449
O O5 0.868095 0.725877 0.788120
O O6 0.625776 0.902796 0.269061
O O7 0.643706 0.980129 0.420623
O O8 0.491345 0.020212 0.346331
O O9 0.765954 0.020027 0.209018
O O10 0.746409 0.311228 0.180289
O O11 0.610633 0.136900 0.039630
O O12 0.778868 0.036412 0.011378
O O13 0.250000 0.750000 0.000000
O O14 0.000000 0.000000 0.500000
#
# Coordination Sequence:
#
# PCOD8144189 Si02
#       7
#     8   4   8   8   8   8   8
#     4  11  23  42  64  97 129 170 211 266 334 380
#     4  10  24  40  66  92 132 170 218 260 314 396
#     4  10  23  43  66  95 125 174 219 269 324 382
#     4  10  22  41  65  93 128 169 215 263 322 391
#     4  10  23  43  68  92 129 171 222 270 320 393
#     4  10  21  42  64  95 127 164 213 268 328 385
#     4  12  24  40  64  96 131 168 217 267 329 386
#
# _framework density 20.415423000000001
#
# number of rings (size 3 to 8) (size 9 to 14) (size 15 to 20)
#    0.000    1.538    3.077    0.923    2.154    4.923 
#    2.769    0.000    0.000    0.000    0.000    0.000 
#    0.000    0.000    0.000    0.000    0.000    0.000 
#
# Total GULP energy -322464.176970 kJ/mol
# GULP energy per Si atom -12402.468345 kJ/mol
# Density = 2.036896 g / cm^3
# Si number density = 20.415423 Si / 1000 Ang^3
#
#
#
# Elastic Constant Matrix: (Units=GPa)
#
#
# Indices 1 2 3 4 5 6 
#
# 1 117.9144 46.1038 45.4473 0.0000 3.7265 0.0000
# 2 46.1038 101.3014 43.0645 0.0000 0.3035 0.0000
# 3 45.4473 43.0645 112.9823 0.0000 -0.3966 0.0000
# 4 0.0000 0.0000 0.0000 33.3006 0.0000 -2.6955
# 5 3.7265 0.3035 -0.3966 0.0000 31.8423 0.0000
# 6 0.0000 0.0000 0.0000 -2.6955 0.0000 39.2404
#
#
#
# Elastic Compliance Matrix: (Units=1/GPa)
#
#
# Indices 1 2 3 4 5 6 
#
# 1 0.011181 -0.003784 -0.003060 0.000000 -0.001311 0.000000
# 2 -0.003784 0.013062 -0.003456 0.000000 0.000275 0.000000
# 3 -0.003060 -0.003456 0.011401 0.000000 0.000533 0.000000
# 4 0.000000 0.000000 0.000000 0.030197 0.000000 0.002074
# 5 -0.001311 0.000275 0.000533 0.000000 0.031562 0.000000
# 6 0.000000 0.000000 0.000000 0.002074 0.000000 0.025626
#
#
# Mechanical properties :
#
#
# Convention : Reuss Voigt Hill
#
# Bulk Modulus (GPa) = 66.46816 66.82550 66.64683
# Shear Modulus (GPa) = 33.63752 34.04880 33.84316
#
# Velocity S-wave (km/s) = 4.06353 4.08830 4.07593
# Velocity P-wave (km/s) = 7.39222 7.42223 7.40724
#
# Compressibility (1/GPa) = 0.01504480
#
# Stress axis : x y z
#
# Youngs Moduli (GPa) = 89.43740 76.55883 87.71302
#
# Poissons Ratio (x) = 0.28969 0.26839
# Poissons Ratio (y) = 0.33842 0.30310
# Poissons Ratio (z) = 0.27367 0.26456
#
# Static dielectric constant tensor:
#      x y z
#    x 3.676370 0.000000 0.157470 
#    y 0.000000 3.910340 0.000000 
#    z 0.157470 0.000000 3.749450 
# 
# 
# High freq. dielectric constant tensor:
#      x y z
#    x 1.798560 0.000000 0.012940 
#    y 0.000000 1.809240 0.000000 
#    z 0.012940 0.000000 1.800820 
# 
# From -- ./inp_files/147050.got.cif
#   From: 2010.06.25/outbox.cif.g09.slc.cpg/sg15_74_cif.got.tgz:147050.got - 2010.06.28 07:06:18.
