data_PCOD8144966
_publ_section_title
;
Structure prediction by ZEFSAII (Michael W. Deem and Ramdas Pophale) SiO2 
 PCOD8144966
Probable space group: C 2/C
;
_chemical_formula_sum "Si O2"
_cell_formula_units_Z 44
_cell_length_a 8.816791
_cell_length_b 10.359657
_cell_length_c 20.369061
_cell_angle_alpha 90.000000
_cell_angle_beta 62.446039
_cell_angle_gamma 90.000000
_cell_volume 1649.463423
_symmetry_space_group_name_H-M "C 2/C"
_symmetry_group_IT_number 15
_symmetry_cell_setting 'monoclinic'
loop_
_space_group_symop_operation_xyz
x,y,z
-x,y,1/2-z
-x,-y,-z
x,-y,1/2+z
1/2+x,1/2+y,z
1/2-x,1/2+y,1/2-z
1/2-x,1/2-y,-z
1/2+x,1/2-y,1/2+z
loop_
_atom_site_type_symbol
_atom_site_label
_atom_site_fract_x
_atom_site_fract_y
_atom_site_fract_z
Si Si1 0.297698 0.403938 0.444763
Si Si2 0.617325 0.486488 0.853369
Si Si3 0.500000 0.627940 0.250000
Si Si4 0.107430 0.492648 0.602531
Si Si5 0.809311 0.347355 0.610221
Si Si6 0.999250 0.259733 0.450621
O O1 0.504966 0.383712 0.393746
O O2 0.265495 0.458674 0.523521
O O3 0.241653 0.509382 0.402385
O O4 0.181756 0.277830 0.452654
O O5 0.613869 0.461309 0.776306
O O6 0.810932 0.499659 0.840404
O O7 0.504912 0.372888 0.910370
O O8 0.353969 0.712690 0.317044
O O9 0.972546 0.374207 0.624573
O O10 0.025623 0.628374 0.598027
O O11 0.851360 0.260665 0.536975
#
# Coordination Sequence:
#
# PCOD8144966 Si02
#       6
#     8   8   4   8   8   8
#     4   8  17  34  55  87 115 133 183 241 276 331
#     4  11  21  36  60  84 116 154 187 235 289 333
#     4  10  22  36  52  84 120 152 190 232 288 344
#     4   9  18  35  61  87 109 144 194 233 278 347
#     4   8  17  35  56  81 119 149 180 241 287 326
#     4   9  19  38  62  86 112 147 192 239 282 330
#
# _framework density 26.675342000000001
#
# number of rings (size 3 to 8) (size 9 to 14) (size 15 to 20)
#    0.000    2.909    0.000    2.727    0.000   10.182 
#    0.000   10.909    0.000   26.182    0.000    0.000 
#    0.000    0.000    0.000    0.000    0.000    0.000 
#
# Total GULP energy -272599.216518 kJ/mol
# GULP energy per Si atom -12390.873478 kJ/mol
# Density = 2.661463 g / cm^3
# Si number density = 26.675342 Si / 1000 Ang^3
#
#
#
# Elastic Constant Matrix: (Units=GPa)
#
#
# Indices 1 2 3 4 5 6 
#
# 1 162.1390 2.0034 58.3219 0.0000 26.8688 0.0000
# 2 2.0034 55.6157 18.8859 0.0000 0.3289 0.0000
# 3 58.3219 18.8859 111.2289 0.0000 -6.4742 0.0000
# 4 0.0000 0.0000 0.0000 14.5297 0.0000 6.0637
# 5 26.8688 0.3289 -6.4742 0.0000 44.5103 0.0000
# 6 0.0000 0.0000 0.0000 6.0637 0.0000 26.8410
#
#
#
# Elastic Compliance Matrix: (Units=1/GPa)
#
#
# Indices 1 2 3 4 5 6 
#
# 1 0.009149 0.001551 -0.005429 0.000000 -0.006324 0.000000
# 2 0.001551 0.019361 -0.004199 0.000000 -0.001690 0.000000
# 3 -0.005429 -0.004199 0.012851 0.000000 0.005177 0.000000
# 4 0.000000 0.000000 0.000000 0.075989 0.000000 -0.017167
# 5 -0.006324 -0.001690 0.005177 0.000000 0.027050 0.000000
# 6 0.000000 0.000000 0.000000 -0.017167 0.000000 0.041135
#
#
# Mechanical properties :
#
#
# Convention : Reuss Voigt Hill
#
# Bulk Modulus (GPa) = 39.67006 54.15623 46.91314
# Shear Modulus (GPa) = 23.79934 33.82769 28.81351
#
# Velocity S-wave (km/s) = 2.99019 3.56494 3.29014
# Velocity P-wave (km/s) = 5.17932 6.10664 5.66200
#
# Compressibility (1/GPa) = 0.02520793
#
# Stress axis : x y z
#
# Youngs Moduli (GPa) = 109.30046 51.65135 77.81304
#
# Poissons Ratio (x) = -0.08013 0.42243
# Poissons Ratio (y) = -0.16956 0.32674
# Poissons Ratio (z) = 0.59336 0.21689
#
# Static dielectric constant tensor:
#      x y z
#    x 5.601650 0.000000 -0.218600 
#    y 0.000000 4.664140 0.000000 
#    z -0.218600 0.000000 4.687860 
# 
# 
# High freq. dielectric constant tensor:
#      x y z
#    x 2.111950 0.000000 0.009040 
#    y 0.000000 2.050400 0.000000 
#    z 0.009040 0.000000 2.026150 
# 
# From -- ./inp_files/188875.got.cif
#   From: 2010.06.25/outbox.cif.g09.slc.cpg/sg15_95_cif.got.tgz:188875.got - 2010.06.28 07:06:18.
