data_PCOD8144099
_publ_section_title
;
Structure prediction by ZEFSAII (Michael W. Deem and Ramdas Pophale) SiO2 
 PCOD8144099
Probable space group: C 2/C
;
_chemical_formula_sum "Si O2"
_cell_formula_units_Z 56
_cell_length_a 13.424391
_cell_length_b 25.886064
_cell_length_c 8.589022
_cell_angle_alpha 90.000000
_cell_angle_beta 116.684173
_cell_angle_gamma 90.000000
_cell_volume 2666.838303
_symmetry_space_group_name_H-M "C 2/C"
_symmetry_group_IT_number 15
_symmetry_cell_setting 'monoclinic'
loop_
_space_group_symop_operation_xyz
x,y,z
-x,y,1/2-z
-x,-y,-z
x,-y,1/2+z
1/2+x,1/2+y,z
1/2-x,1/2+y,1/2-z
1/2-x,1/2-y,-z
1/2+x,1/2-y,1/2+z
loop_
_atom_site_type_symbol
_atom_site_label
_atom_site_fract_x
_atom_site_fract_y
_atom_site_fract_z
Si Si1 0.771556 0.554967 0.210163
Si Si2 0.482227 0.713780 0.054674
Si Si3 0.500000 0.101636 0.250000
Si Si4 0.729361 0.055768 0.920148
Si Si5 0.955782 0.673895 0.956117
Si Si6 0.217178 0.157464 0.700294
Si Si7 0.500000 0.099755 0.750000
Si Si8 0.604353 0.367705 0.425673
O O1 0.901070 0.567127 0.255988
O O2 0.757235 0.557389 0.385083
O O3 0.735479 0.498839 0.124637
O O4 0.677737 0.590429 0.066435
O O5 0.500000 0.717589 0.250000
O O6 0.497932 0.769163 0.982697
O O7 0.354230 0.698486 0.945386
O O8 0.562186 0.672834 0.025456
O O9 0.567193 0.141367 0.405701
O O10 0.802311 0.100630 0.889143
O O11 0.601950 0.063296 0.775383
O O12 0.843590 0.676556 0.774237
O O13 0.041028 0.637478 0.919031
O O14 0.183920 0.160400 0.858155
O O15 0.500000 0.390566 0.250000
#
# Coordination Sequence:
#
# PCOD8144099 Si02
#       8
#     8   8   4   8   8   8   4   8
#     4  12  24  42  65  99 125 173 209 266 324 376
#     4  11  24  42  66  95 127 172 215 261 319 371
#     4  12  25  38  68  98 136 160 219 258 318 394
#     4  11  24  40  67  91 133 166 212 262 327 377
#     4  11  23  41  64  95 131 171 209 260 319 381
#     4  10  23  44  63  93 130 165 215 269 308 384
#     4  10  21  42  60  96 132 170 207 258 318 388
#     4  10  23  44  66  92 130 167 218 265 308 376
#
# _framework density 20.998647999999999
#
# number of rings (size 3 to 8) (size 9 to 14) (size 15 to 20)
#    0.000    1.143    3.571    2.143    5.000    3.429 
#    0.000    7.143    0.000    0.000    0.000    0.000 
#    0.000    0.000    0.000    0.000    0.000    0.000 
#
# Total GULP energy -347029.291226 kJ/mol
# GULP energy per Si atom -12393.903258 kJ/mol
# Density = 2.095085 g / cm^3
# Si number density = 20.998648 Si / 1000 Ang^3
#
#
#
# Elastic Constant Matrix: (Units=GPa)
#
#
# Indices 1 2 3 4 5 6 
#
# 1 54.1213 15.7440 16.7711 0.0000 -7.7188 0.0000
# 2 15.7440 114.4523 30.3283 0.0000 8.4114 0.0000
# 3 16.7711 30.3283 81.4242 0.0000 -1.7372 0.0000
# 4 0.0000 0.0000 0.0000 30.5109 0.0000 2.0092
# 5 -7.7188 8.4114 -1.7372 0.0000 32.6638 0.0000
# 6 0.0000 0.0000 0.0000 2.0092 0.0000 21.0691
#
#
#
# Elastic Compliance Matrix: (Units=1/GPa)
#
#
# Indices 1 2 3 4 5 6 
#
# 1 0.020972 -0.002405 -0.003309 0.000000 0.005399 0.000000
# 2 -0.002405 0.010212 -0.003380 0.000000 -0.003378 0.000000
# 3 -0.003309 -0.003380 0.014240 0.000000 0.000846 0.000000
# 4 0.000000 0.000000 0.000000 0.032982 0.000000 -0.003145
# 5 0.005399 -0.003378 0.000846 0.000000 0.032806 0.000000
# 6 0.000000 0.000000 0.000000 -0.003145 0.000000 0.047763
#
#
# Mechanical properties :
#
#
# Convention : Reuss Voigt Hill
#
# Bulk Modulus (GPa) = 36.71616 41.74274 39.22945
# Shear Modulus (GPa) = 26.84687 29.32573 28.08630
#
# Velocity S-wave (km/s) = 3.57950 3.74110 3.66119
# Velocity P-wave (km/s) = 5.88275 6.21153 6.04937
#
# Compressibility (1/GPa) = 0.02723596
#
# Stress axis : x y z
#
# Youngs Moduli (GPa) = 47.68280 97.92302 70.22462
#
# Poissons Ratio (x) = 0.23550 0.23235
# Poissons Ratio (y) = 0.11467 0.23739
# Poissons Ratio (z) = 0.15777 0.33102
#
# Static dielectric constant tensor:
#      x y z
#    x 3.833010 0.000000 -0.080500 
#    y 0.000000 3.766450 0.000000 
#    z -0.080500 0.000000 4.054880 
# 
# 
# High freq. dielectric constant tensor:
#      x y z
#    x 1.823110 0.000000 -0.010070 
#    y 0.000000 1.821870 0.000000 
#    z -0.010070 0.000000 1.833010 
# 
# From -- ./inp_files/42779.got.cif
#   From: 2010.06.25/outbox.cif.g09.slc.cpg/sg15_22_cif.got.tgz:42779.got - 2010.06.28 07:06:18.
