data_PCOD8144891
_publ_section_title
;
Structure prediction by ZEFSAII (Michael W. Deem and Ramdas Pophale) SiO2 
 PCOD8144891
Probable space group: C 2/C
;
_chemical_formula_sum "Si O2"
_cell_formula_units_Z 56
_cell_length_a 26.368237
_cell_length_b 8.231367
_cell_length_c 11.241045
_cell_angle_alpha 90.000000
_cell_angle_beta 75.896365
_cell_angle_gamma 90.000000
_cell_volume 2366.286096
_symmetry_space_group_name_H-M "C 2/C"
_symmetry_group_IT_number 15
_symmetry_cell_setting 'monoclinic'
loop_
_space_group_symop_operation_xyz
x,y,z
-x,y,1/2-z
-x,-y,-z
x,-y,1/2+z
1/2+x,1/2+y,z
1/2-x,1/2+y,1/2-z
1/2-x,1/2-y,-z
1/2+x,1/2-y,1/2+z
loop_
_atom_site_type_symbol
_atom_site_label
_atom_site_fract_x
_atom_site_fract_y
_atom_site_fract_z
Si Si1 0.288537 0.119580 0.736343
Si Si2 0.049806 0.160958 0.152245
Si Si3 0.841345 0.700927 0.926819
Si Si4 0.820250 0.246869 0.704978
Si Si5 0.125997 0.598926 0.980016
Si Si6 0.458055 0.869059 0.563819
Si Si7 0.922890 0.198939 0.799854
O O1 0.295326 0.221204 0.855928
O O2 0.229193 0.137343 0.726496
O O3 0.330667 0.198144 0.619579
O O4 0.303747 0.931444 0.736451
O O5 0.104128 0.240036 0.164108
O O6 0.000000 0.236702 0.250000
O O7 0.052087 0.970990 0.178775
O O8 0.041035 0.208147 0.019294
O O9 0.844317 0.505347 0.936912
O O10 0.830512 0.790255 0.058459
O O11 0.868633 0.184970 0.757447
O O12 0.084804 0.716702 0.067426
O O13 0.097729 0.461092 0.913946
O O14 0.464004 0.802076 0.695088
O O15 0.500000 0.000000 0.500000
#
# Coordination Sequence:
#
# PCOD8144891 Si02
#       7
#     8   8   8   8   8   8   8
#     4  11  23  41  68 102 133 185 245 291 355 434
#     4  11  28  43  70 109 142 182 238 295 373 410
#     4  10  21  48  66  94 142 187 236 292 355 438
#     4  11  24  43  67  98 139 187 237 295 367 423
#     4  10  22  43  71 101 134 185 239 288 354 436
#     4  11  26  48  77 101 142 197 243 288 361 441
#     4  12  25  48  69 105 152 177 240 306 359 437
#
# _framework density 23.665776000000001
#
# number of rings (size 3 to 8) (size 9 to 14) (size 15 to 20)
#    0.000    1.143    5.714    0.429   10.000    3.429 
#    0.000    0.000    0.000    0.000    0.000    0.000 
#    0.000    0.000    0.000    0.000    0.000    0.000 
#
# Total GULP energy -347024.642037 kJ/mol
# GULP energy per Si atom -12393.737216 kJ/mol
# Density = 2.361191 g / cm^3
# Si number density = 23.665776 Si / 1000 Ang^3
#
#
#
# Elastic Constant Matrix: (Units=GPa)
#
#
# Indices 1 2 3 4 5 6 
#
# 1 59.3154 41.0436 36.3875 0.0000 -10.7177 0.0000
# 2 41.0436 74.0825 54.3864 0.0000 -2.2166 0.0000
# 3 36.3875 54.3864 111.4706 0.0000 -18.0116 0.0000
# 4 0.0000 0.0000 0.0000 35.7334 0.0000 -5.2051
# 5 -10.7177 -2.2166 -18.0116 0.0000 39.1986 0.0000
# 6 0.0000 0.0000 0.0000 -5.2051 0.0000 35.6647
#
#
#
# Elastic Compliance Matrix: (Units=1/GPa)
#
#
# Indices 1 2 3 4 5 6 
#
# 1 0.029245 -0.015245 -0.001032 0.000000 0.006660 0.000000
# 2 -0.015245 0.029519 -0.010618 0.000000 -0.007378 0.000000
# 3 -0.001032 -0.010618 0.015496 0.000000 0.006238 0.000000
# 4 0.000000 0.000000 0.000000 0.028593 0.000000 0.004173
# 5 0.006660 -0.007378 0.006238 0.000000 0.029781 0.000000
# 6 0.000000 0.000000 0.000000 0.004173 0.000000 0.028648
#
#
# Mechanical properties :
#
#
# Convention : Reuss Voigt Hill
#
# Bulk Modulus (GPa) = 48.85375 56.50040 52.67707
# Shear Modulus (GPa) = 22.53316 29.65608 26.09462
#
# Velocity S-wave (km/s) = 3.08903 3.54379 3.32419
# Velocity P-wave (km/s) = 5.78021 6.37736 6.08611
#
# Compressibility (1/GPa) = 0.02046926
#
# Stress axis : x y z
#
# Youngs Moduli (GPa) = 34.19432 33.87660 64.53180
#
# Poissons Ratio (x) = 0.51646 0.06660
# Poissons Ratio (y) = 0.52130 0.68519
# Poissons Ratio (z) = 0.03529 0.35970
#
# Static dielectric constant tensor:
#      x y z
#    x 4.558880 0.000000 -0.193820 
#    y 0.000000 3.875130 0.000000 
#    z -0.193820 0.000000 4.378660 
# 
# 
# High freq. dielectric constant tensor:
#      x y z
#    x 1.949710 0.000000 -0.012890 
#    y 0.000000 1.910420 0.000000 
#    z -0.012890 0.000000 1.942340 
# 
# From -- ./inp_files/121871.got.cif
#   From: 2010.06.25/outbox.cif.g09.slc.cpg/sg15_61_cif.got.tgz:121871.got - 2010.06.28 07:06:18.
