data_PCOD8144580
_publ_section_title
;
Structure prediction by ZEFSAII (Michael W. Deem and Ramdas Pophale) SiO2 
 PCOD8144580
Probable space group: C 2/C
;
_chemical_formula_sum "Si O2"
_cell_formula_units_Z 48
_cell_length_a 12.116751
_cell_length_b 20.587984
_cell_length_c 12.012102
_cell_angle_alpha 90.000000
_cell_angle_beta 45.116667
_cell_angle_gamma 90.000000
_cell_volume 2123.178663
_symmetry_space_group_name_H-M "C 2/C"
_symmetry_group_IT_number 15
_symmetry_cell_setting 'monoclinic'
loop_
_space_group_symop_operation_xyz
x,y,z
-x,y,1/2-z
-x,-y,-z
x,-y,1/2+z
1/2+x,1/2+y,z
1/2-x,1/2+y,1/2-z
1/2-x,1/2-y,-z
1/2+x,1/2-y,1/2+z
loop_
_atom_site_type_symbol
_atom_site_label
_atom_site_fract_x
_atom_site_fract_y
_atom_site_fract_z
Si Si1 0.576914 0.418707 0.005977
Si Si2 0.837765 0.777586 0.544998
Si Si3 0.127151 0.020625 0.251448
Si Si4 0.832154 0.515250 0.914792
Si Si5 0.152081 0.728938 0.395024
Si Si6 0.675947 0.162261 0.602022
O O1 0.582336 0.345615 0.047858
O O2 0.606843 0.420391 0.852426
O O3 0.714676 0.461450 0.957825
O O4 0.412718 0.451586 0.159737
O O5 0.750000 0.750000 0.500000
O O6 0.718426 0.790928 0.728726
O O7 0.967131 0.729235 0.503366
O O8 0.000000 0.037453 0.250000
O O9 0.301190 0.017928 0.071775
O O10 0.797789 0.586696 0.889865
O O11 0.000000 0.492922 0.750000
O O12 0.206228 0.799668 0.401068
O O13 0.204906 0.676679 0.450314
O O14 0.500000 0.185274 0.750000
#
# Coordination Sequence:
#
# PCOD8144580 Si02
#       6
#     8   8   8   8   8   8
#     4  10  23  43  64  97 130 180 228 267 334 397
#     4  12  27  45  65  98 139 189 228 269 332 416
#     4   9  20  39  64  97 127 166 223 281 322 398
#     4  10  22  39  65  99 133 167 210 285 342 398
#     4  11  24  43  70  96 135 183 222 290 332 401
#     4  10  21  43  68 105 133 166 230 284 357 390
#
# _framework density 22.607610999999999
#
# number of rings (size 3 to 8) (size 9 to 14) (size 15 to 20)
#    0.000    1.667    1.667    1.500    7.000    6.000 
#    0.000    0.000    0.000    0.000    0.000    0.000 
#    0.000    0.000    0.000    0.000    0.000    0.000 
#
# Total GULP energy -297450.039168 kJ/mol
# GULP energy per Si atom -12393.751632 kJ/mol
# Density = 2.255616 g / cm^3
# Si number density = 22.607611 Si / 1000 Ang^3
#
#
#
# Elastic Constant Matrix: (Units=GPa)
#
#
# Indices 1 2 3 4 5 6 
#
# 1 88.9505 9.4880 19.4469 -0.0004 16.2540 0.0004
# 2 9.4880 68.2792 -4.8070 -0.0001 6.1653 0.0002
# 3 19.4469 -4.8070 151.2565 -0.0005 3.1186 0.0006
# 4 -0.0004 -0.0001 -0.0005 24.0227 0.0003 -0.7319
# 5 16.2540 6.1653 3.1186 0.0003 39.1303 -0.0003
# 6 0.0004 0.0002 0.0006 -0.7319 -0.0003 32.2414
#
#
#
# Elastic Compliance Matrix: (Units=1/GPa)
#
#
# Indices 1 2 3 4 5 6 
#
# 1 0.012632 -0.001423 -0.001568 0.000000 -0.004898 0.000000
# 2 -0.001423 0.015059 0.000699 0.000000 -0.001837 0.000000
# 3 -0.001568 0.000699 0.006835 0.000000 -0.000004 0.000000
# 4 0.000000 0.000000 0.000000 0.041656 0.000000 0.000946
# 5 -0.004898 -0.001837 -0.000004 0.000000 0.027880 0.000000
# 6 0.000000 0.000000 0.000000 0.000946 0.000000 0.031038
#
#
# Mechanical properties :
#
#
# Convention : Reuss Voigt Hill
#
# Bulk Modulus (GPa) = 33.39891 39.63802 36.51847
# Shear Modulus (GPa) = 33.40812 38.03610 35.72211
#
# Velocity S-wave (km/s) = 3.84831 4.10621 3.97935
# Velocity P-wave (km/s) = 5.87804 6.32870 6.10753
#
# Compressibility (1/GPa) = 0.02994109
#
# Stress axis : x y z
#
# Youngs Moduli (GPa) = 79.16475 66.40692 146.30093
#
# Poissons Ratio (x) = 0.09453 0.22945
# Poissons Ratio (y) = 0.11269 -0.10233
# Poissons Ratio (z) = 0.12416 -0.04645
#
# Static dielectric constant tensor:
#      x y z
#    x 3.907480 0.000000 0.125910 
#    y 0.000000 3.850440 0.000000 
#    z 0.125910 0.000000 4.965610 
# 
# 
# High freq. dielectric constant tensor:
#      x y z
#    x 1.876780 0.000000 0.009680 
#    y 0.000000 1.877730 0.000000 
#    z 0.009680 0.000000 1.909410 
# 
# From -- ./inp_files/89388.got.cif
#   From: 2010.06.25/outbox.cif.g09.slc.cpg/sg15_45_cif.got.tgz:89388.got - 2010.06.28 07:06:18.
