data_PCOD8144340
_publ_section_title
;
Structure prediction by ZEFSAII (Michael W. Deem and Ramdas Pophale) SiO2 
 PCOD8144340
Probable space group: C 2/C
;
_chemical_formula_sum "Si O2"
_cell_formula_units_Z 56
_cell_length_a 17.331503
_cell_length_b 19.843805
_cell_length_c 8.110162
_cell_angle_alpha 90.000000
_cell_angle_beta 60.911902
_cell_angle_gamma 90.000000
_cell_volume 2437.469231
_symmetry_space_group_name_H-M "C 2/C"
_symmetry_group_IT_number 15
_symmetry_cell_setting 'monoclinic'
loop_
_space_group_symop_operation_xyz
x,y,z
-x,y,1/2-z
-x,-y,-z
x,-y,1/2+z
1/2+x,1/2+y,z
1/2-x,1/2+y,1/2-z
1/2-x,1/2-y,-z
1/2+x,1/2-y,1/2+z
loop_
_atom_site_type_symbol
_atom_site_label
_atom_site_fract_x
_atom_site_fract_y
_atom_site_fract_z
Si Si1 0.166848 0.839723 0.863780
Si Si2 0.335362 0.121011 0.026447
Si Si3 0.501553 0.910323 0.553422
Si Si4 0.565325 0.537619 0.312268
Si Si5 0.321286 0.969164 0.253320
Si Si6 0.214129 0.064416 0.556405
Si Si7 0.934988 0.282321 0.180011
O O1 0.264605 0.831993 0.689150
O O2 0.118854 0.903780 0.839550
O O3 0.178712 0.859970 0.045575
O O4 0.113273 0.772401 0.883226
O O5 0.294339 0.059914 0.962162
O O6 0.372920 0.170281 0.849923
O O7 0.405181 0.081000 0.071105
O O8 0.500000 0.924950 0.750000
O O9 0.572369 0.961581 0.390467
O O10 0.520115 0.831300 0.500589
O O11 0.500000 0.572429 0.250000
O O12 0.500000 0.500000 0.500000
O O13 0.631075 0.484556 0.158367
O O14 0.277468 0.043375 0.330113
O O15 0.271325 0.928226 0.162309
O O16 0.000000 0.248753 0.250000
#
# Coordination Sequence:
#
# PCOD8144340 Si02
#       7
#     8   8   8   8   8   8   8
#     4  12  22  40  65  94 132 171 217 265 323 381
#     4  10  21  42  68  94 127 170 216 272 321 382
#     4  10  22  44  69  95 131 165 211 275 332 378
#     4  12  23  40  60  86 129 174 209 261 316 372
#     4  11  21  42  65  90 129 176 208 267 320 381
#     4  12  23  40  62  94 132 169 221 262 315 385
#     4   9  21  42  66  94 125 169 222 266 327 384
#
# _framework density 22.97465
#
# number of rings (size 3 to 8) (size 9 to 14) (size 15 to 20)
#    0.000    1.143    4.286    3.000    0.000    0.000 
#    2.571   17.857    0.000    0.000    0.000    0.000 
#    0.000    0.000    0.000    0.000    0.000    0.000 
#
# Total GULP energy -346938.391635 kJ/mol
# GULP energy per Si atom -12390.656844 kJ/mol
# Density = 2.292236 g / cm^3
# Si number density = 22.974650 Si / 1000 Ang^3
#
#
#
# Elastic Constant Matrix: (Units=GPa)
#
#
# Indices 1 2 3 4 5 6 
#
# 1 131.6644 18.6911 34.8142 0.0000 7.7315 0.0000
# 2 18.6911 67.1155 16.5140 0.0000 -1.5841 0.0000
# 3 34.8142 16.5140 95.2451 0.0000 -2.0042 0.0000
# 4 0.0000 0.0000 0.0000 22.8259 0.0000 11.6867
# 5 7.7315 -1.5841 -2.0042 0.0000 46.6555 0.0000
# 6 0.0000 0.0000 0.0000 11.6867 0.0000 27.3851
#
#
#
# Elastic Compliance Matrix: (Units=1/GPa)
#
#
# Indices 1 2 3 4 5 6 
#
# 1 0.008709 -0.001747 -0.002915 0.000000 -0.001628 0.000000
# 2 -0.001747 0.015922 -0.002107 0.000000 0.000740 0.000000
# 3 -0.002915 -0.002107 0.011949 0.000000 0.000925 0.000000
# 4 0.000000 0.000000 0.000000 0.056059 0.000000 -0.023923
# 5 -0.001628 0.000740 0.000925 0.000000 0.021768 0.000000
# 6 0.000000 0.000000 0.000000 -0.023923 0.000000 0.046726
#
#
# Mechanical properties :
#
#
# Convention : Reuss Voigt Hill
#
# Bulk Modulus (GPa) = 43.39458 48.22930 45.81194
# Shear Modulus (GPa) = 27.41967 34.30701 30.86334
#
# Velocity S-wave (km/s) = 3.45842 3.86846 3.66917
# Velocity P-wave (km/s) = 5.90564 6.40244 6.15905
#
# Compressibility (1/GPa) = 0.02304435
#
# Stress axis : x y z
#
# Youngs Moduli (GPa) = 114.81914 62.80657 83.68634
#
# Poissons Ratio (x) = 0.10970 0.24393
# Poissons Ratio (y) = 0.20055 0.17629
# Poissons Ratio (z) = 0.33468 0.13231
#
# Static dielectric constant tensor:
#      x y z
#    x 4.391390 0.000000 0.061280 
#    y 0.000000 4.088330 0.000000 
#    z 0.061280 0.000000 4.331190 
# 
# 
# High freq. dielectric constant tensor:
#      x y z
#    x 1.932250 0.000000 -0.000610 
#    y 0.000000 1.887990 0.000000 
#    z -0.000610 0.000000 1.916920 
# 
# From -- ./inp_files/50093.got.cif
#   From: 2010.06.25/outbox.cif.g09.slc.cpg/sg15_26_cif.got.tgz:50093.got - 2010.06.28 07:06:18.
