data_PCOD8144623
_publ_section_title
;
Structure prediction by ZEFSAII (Michael W. Deem and Ramdas Pophale) SiO2 
 PCOD8144623
Probable space group: C 2/C
;
_chemical_formula_sum "Si O2"
_cell_formula_units_Z 56
_cell_length_a 12.232965
_cell_length_b 8.764194
_cell_length_c 27.661955
_cell_angle_alpha 90.000000
_cell_angle_beta 112.504227
_cell_angle_gamma 90.000000
_cell_volume 2739.861811
_symmetry_space_group_name_H-M "C 2/C"
_symmetry_group_IT_number 15
_symmetry_cell_setting 'monoclinic'
loop_
_space_group_symop_operation_xyz
x,y,z
-x,y,1/2-z
-x,-y,-z
x,-y,1/2+z
1/2+x,1/2+y,z
1/2-x,1/2+y,1/2-z
1/2-x,1/2-y,-z
1/2+x,1/2-y,1/2+z
loop_
_atom_site_type_symbol
_atom_site_label
_atom_site_fract_x
_atom_site_fract_y
_atom_site_fract_z
Si Si1 0.530482 0.612311 0.872873
Si Si2 0.548452 0.590875 0.053326
Si Si3 0.706380 0.154407 0.447654
Si Si4 0.157427 0.838543 0.745989
Si Si5 0.857136 0.317162 0.049899
Si Si6 0.889587 0.812877 0.263538
Si Si7 0.591139 0.686573 0.338724
O O1 0.468767 0.516777 0.904161
O O2 0.611124 0.748074 0.903944
O O3 0.427241 0.694176 0.825730
O O4 0.605616 0.494921 0.852189
O O5 0.686494 0.622860 0.070713
O O6 0.478232 0.749986 0.048170
O O7 0.500000 0.500000 0.000000
O O8 0.750000 0.250000 0.500000
O O9 0.646024 0.999012 0.456246
O O10 0.277914 0.799093 0.738178
O O11 0.155286 0.764140 0.799613
O O12 0.049630 0.781741 0.693565
O O13 0.148899 0.016871 0.756045
O O14 0.852223 0.278214 0.106528
O O15 0.750000 0.250000 0.000000
O O16 0.000000 0.755706 0.250000
#
# Coordination Sequence:
#
# PCOD8144623 Si02
#       7
#     8   8   8   8   8   8   8
#     4  10  22  42  64  94 131 165 215 270 317 379
#     4  11  22  43  65  91 134 173 208 267 330 380
#     4  12  24  42  64  95 132 171 218 266 317 393
#     4  10  21  43  70  90 133 172 211 273 325 382
#     4  11  23  40  68  97 128 170 216 264 324 390
#     4  11  23  43  65  97 129 167 216 270 325 386
#     4   9  20  45  65  93 132 174 213 266 333 380
#
# _framework density 20.438987000000001
#
# number of rings (size 3 to 8) (size 9 to 14) (size 15 to 20)
#    0.000    1.429    5.714    0.857    2.000    5.143 
#    5.143    0.000    0.000    0.000    0.000    0.000 
#    0.000    0.000    0.000    0.000    0.000    0.000 
#
# Total GULP energy -347097.184287 kJ/mol
# GULP energy per Si atom -12396.328010 kJ/mol
# Density = 2.039247 g / cm^3
# Si number density = 20.438987 Si / 1000 Ang^3
#
#
#
# Elastic Constant Matrix: (Units=GPa)
#
#
# Indices 1 2 3 4 5 6 
#
# 1 146.3868 55.7109 37.1893 0.0000 -4.6251 0.0000
# 2 55.7109 112.5359 49.3116 0.0000 7.0998 0.0000
# 3 37.1893 49.3116 140.4335 0.0000 3.3011 0.0000
# 4 0.0000 0.0000 0.0000 30.5264 0.0000 7.9858
# 5 -4.6251 7.0998 3.3011 0.0000 24.3354 0.0000
# 6 0.0000 0.0000 0.0000 7.9858 0.0000 32.0270
#
#
#
# Elastic Compliance Matrix: (Units=1/GPa)
#
#
# Indices 1 2 3 4 5 6 
#
# 1 0.008723 -0.004093 -0.000943 0.000000 0.002980 0.000000
# 2 -0.004093 0.012585 -0.003241 0.000000 -0.004010 0.000000
# 3 -0.000943 -0.003241 0.008518 0.000000 -0.000389 0.000000
# 4 0.000000 0.000000 0.000000 0.035044 0.000000 -0.008738
# 5 0.002980 -0.004010 -0.000389 0.000000 0.042881 0.000000
# 6 0.000000 0.000000 0.000000 -0.008738 0.000000 0.033402
#
#
# Mechanical properties :
#
#
# Convention : Reuss Voigt Hill
#
# Bulk Modulus (GPa) = 75.34611 75.97553 75.66082
# Shear Modulus (GPa) = 30.83914 34.52074 32.67994
#
# Velocity S-wave (km/s) = 3.88859 4.11416 4.00297
# Velocity P-wave (km/s) = 7.55682 7.73440 7.64613
#
# Compressibility (1/GPa) = 0.01327208
#
# Stress axis : x y z
#
# Youngs Moduli (GPa) = 114.64535 79.45668 117.40304
#
# Poissons Ratio (x) = 0.32522 0.11068
# Poissons Ratio (y) = 0.46924 0.38051
# Poissons Ratio (z) = 0.10808 0.25753
#
# Static dielectric constant tensor:
#      x y z
#    x 3.537520 0.000000 0.104550 
#    y 0.000000 3.713450 0.000000 
#    z 0.104550 0.000000 3.989290 
# 
# 
# High freq. dielectric constant tensor:
#      x y z
#    x 1.789060 0.000000 -0.000140 
#    y 0.000000 1.786880 0.000000 
#    z -0.000140 0.000000 1.820920 
# 
# From -- ./inp_files/291504.got.cif
#   From: 2010.06.25/outbox.cif.g09.slc.cpg/sg15_146_cif.got.tgz:291504.got - 2010.06.28 07:06:18.
