data_PCOD8144530
_publ_section_title
;
Structure prediction by ZEFSAII (Michael W. Deem and Ramdas Pophale) SiO2 
 PCOD8144530
Probable space group: C 2/C
;
_chemical_formula_sum "Si O2"
_cell_formula_units_Z 56
_cell_length_a 16.145453
_cell_length_b 6.349070
_cell_length_c 25.025795
_cell_angle_alpha 90.000000
_cell_angle_beta 67.712320
_cell_angle_gamma 90.000000
_cell_volume 2373.704792
_symmetry_space_group_name_H-M "C 2/C"
_symmetry_group_IT_number 15
_symmetry_cell_setting 'monoclinic'
loop_
_space_group_symop_operation_xyz
x,y,z
-x,y,1/2-z
-x,-y,-z
x,-y,1/2+z
1/2+x,1/2+y,z
1/2-x,1/2+y,1/2-z
1/2-x,1/2-y,-z
1/2+x,1/2-y,1/2+z
loop_
_atom_site_type_symbol
_atom_site_label
_atom_site_fract_x
_atom_site_fract_y
_atom_site_fract_z
Si Si1 0.142479 0.626760 0.822684
Si Si2 0.000786 0.021122 0.111171
Si Si3 0.132015 0.288431 0.912828
Si Si4 0.078947 0.938268 0.699199
Si Si5 0.355213 0.204588 0.973985
Si Si6 0.687249 0.073971 0.623773
Si Si7 0.830506 0.307926 0.774561
O O1 0.165443 0.479129 0.867798
O O2 0.122807 0.473132 0.777026
O O3 0.227014 0.769195 0.784319
O O4 0.060370 0.775579 0.858893
O O5 0.951509 0.829680 0.093636
O O6 0.041530 0.936062 0.156658
O O7 0.082540 0.093060 0.053047
O O8 0.205918 0.107708 0.905761
O O9 0.111282 0.387047 0.977057
O O10 0.114893 0.091566 0.737482
O O11 0.000000 0.813902 0.750000
O O12 0.155002 0.781407 0.662348
O O13 0.363119 0.044376 0.921236
O O14 0.250000 0.250000 0.000000
O O15 0.665606 0.874138 0.664424
#
# Coordination Sequence:
#
# PCOD8144530 Si02
#       7
#     8   8   8   8   8   8   8
#     4  12  26  40  72 102 134 179 228 280 334 406
#     4  11  24  43  69 100 134 176 228 282 337 400
#     4  11  21  44  68  99 133 176 228 277 336 397
#     4  11  24  40  62  95 132 176 217 276 337 406
#     4   9  22  42  71  98 137 181 220 283 341 399
#     4  10  21  43  66  94 136 174 223 274 339 398
#     4  12  25  42  68  98 133 178 221 273 343 403
#
# _framework density 23.591812999999998
#
# number of rings (size 3 to 8) (size 9 to 14) (size 15 to 20)
#    0.000    1.143    2.857    3.000    2.000    5.714 
#    0.000    3.571    0.000    0.000    0.000    0.000 
#    0.000    0.000    0.000    0.000    0.000    0.000 
#
# Total GULP energy -346961.464964 kJ/mol
# GULP energy per Si atom -12391.480892 kJ/mol
# Density = 2.353812 g / cm^3
# Si number density = 23.591813 Si / 1000 Ang^3
#
#
#
# Elastic Constant Matrix: (Units=GPa)
#
#
# Indices 1 2 3 4 5 6 
#
# 1 93.3145 21.6656 20.6395 0.0002 -3.9168 0.0042
# 2 21.6656 49.9582 21.5684 -0.0002 -4.0620 0.0063
# 3 20.6395 21.5684 118.2179 0.0000 12.2491 -0.0001
# 4 0.0002 -0.0002 0.0000 31.4100 -0.0004 6.9391
# 5 -3.9168 -4.0620 12.2491 -0.0004 41.8903 -0.0001
# 6 0.0042 0.0063 -0.0001 6.9391 -0.0001 35.5872
#
#
#
# Elastic Compliance Matrix: (Units=1/GPa)
#
#
# Indices 1 2 3 4 5 6 
#
# 1 0.012133 -0.004568 -0.001399 0.000000 0.001100 -0.000001
# 2 -0.004568 0.023919 -0.003880 0.000001 0.003027 -0.000004
# 3 -0.001399 -0.003880 0.009759 0.000000 -0.003361 0.000001
# 4 0.000000 0.000001 0.000000 0.033270 0.000000 -0.006487
# 5 0.001100 0.003027 -0.003361 0.000000 0.025251 -0.000001
# 6 -0.000001 -0.000004 0.000001 -0.006487 -0.000001 0.029365
#
#
# Mechanical properties :
#
#
# Convention : Reuss Voigt Hill
#
# Bulk Modulus (GPa) = 38.28931 43.24862 40.76897
# Shear Modulus (GPa) = 30.84573 34.95195 32.89884
#
# Velocity S-wave (km/s) = 3.61983 3.85324 3.73835
# Velocity P-wave (km/s) = 5.80827 6.17806 5.99602
#
# Compressibility (1/GPa) = 0.02611695
#
# Stress axis : x y z
#
# Youngs Moduli (GPa) = 82.42201 41.80759 102.46651
#
# Poissons Ratio (x) = 0.19099 0.14333
# Poissons Ratio (y) = 0.37653 0.39757
# Poissons Ratio (z) = 0.11529 0.16221
#
# Static dielectric constant tensor:
#      x y z
#    x 4.344850 0.000000 0.171240 
#    y 0.000000 3.758890 0.000000 
#    z 0.171240 0.000000 4.816190 
# 
# 
# High freq. dielectric constant tensor:
#      x y z
#    x 1.945510 0.000000 0.005880 
#    y 0.000000 1.896140 0.000000 
#    z 0.005880 0.000000 1.956220 
# 
# From -- ./inp_files/297735.got.cif
#   From: 2010.06.25/outbox.cif.g09.slc.cpg/sg15_149_cif.got.tgz:297735.got - 2010.06.28 07:06:18.
