data_PCOD8144368
_publ_section_title
;
Structure prediction by ZEFSAII (Michael W. Deem and Ramdas Pophale) SiO2 
 PCOD8144368
Probable space group: C 2/C
;
_chemical_formula_sum "Si O2"
_cell_formula_units_Z 48
_cell_length_a 12.290226
_cell_length_b 11.553712
_cell_length_c 20.128561
_cell_angle_alpha 90.000000
_cell_angle_beta 50.579046
_cell_angle_gamma 90.000000
_cell_volume 2207.971202
_symmetry_space_group_name_H-M "C 2/C"
_symmetry_group_IT_number 15
_symmetry_cell_setting 'monoclinic'
loop_
_space_group_symop_operation_xyz
x,y,z
-x,y,1/2-z
-x,-y,-z
x,-y,1/2+z
1/2+x,1/2+y,z
1/2-x,1/2+y,1/2-z
1/2-x,1/2-y,-z
1/2+x,1/2-y,1/2+z
loop_
_atom_site_type_symbol
_atom_site_label
_atom_site_fract_x
_atom_site_fract_y
_atom_site_fract_z
Si Si1 0.310652 0.053243 0.296950
Si Si2 0.255053 0.130838 0.537504
Si Si3 0.285854 0.308870 0.299971
Si Si4 0.065459 0.475208 0.118064
Si Si5 0.974997 0.251605 0.185353
Si Si6 0.029786 0.005640 0.841107
O O1 0.359034 0.186433 0.286272
O O2 0.401137 0.001694 0.200361
O O3 0.336605 0.996871 0.357318
O O4 0.144931 0.029246 0.351375
O O5 0.250000 0.250000 0.500000
O O6 0.286371 0.149085 0.603422
O O7 0.384402 0.050537 0.463597
O O8 0.108238 0.067157 0.576801
O O9 0.400748 0.406794 0.238739
O O10 0.184143 0.276298 0.277661
O O11 0.071452 0.336035 0.101077
O O12 0.000000 0.299662 0.250000
O O13 0.019797 0.117536 0.169610
#
# Coordination Sequence:
#
# PCOD8144368 Si02
#       6
#     8   8   8   8   8   8
#     4  10  21  42  69  92 126 181 221 263 319 403
#     4  12  25  40  65 100 135 167 219 280 326 377
#     4  11  22  42  67  97 127 173 225 265 324 393
#     4  11  21  41  67  94 131 171 223 266 329 386
#     4  11  22  42  68  93 128 174 219 266 329 390
#     4  11  24  42  68  99 130 169 225 269 324 390
#
# _framework density 21.739414
#
# number of rings (size 3 to 8) (size 9 to 14) (size 15 to 20)
#    0.000    1.000    5.000    2.500    2.333    2.000 
#    0.000    0.000    3.667    0.000    0.000    0.000 
#    0.000    0.000    0.000    0.000    0.000    0.000 
#
# Total GULP energy -297356.406771 kJ/mol
# GULP energy per Si atom -12389.850282 kJ/mol
# Density = 2.168993 g / cm^3
# Si number density = 21.739414 Si / 1000 Ang^3
#
#
#
# Elastic Constant Matrix: (Units=GPa)
#
#
# Indices 1 2 3 4 5 6 
#
# 1 79.0586 14.1596 18.4498 0.0000 -9.3366 0.0000
# 2 14.1596 189.8887 38.3244 0.0000 -8.7541 0.0000
# 3 18.4498 38.3244 81.3615 0.0000 -3.2520 0.0000
# 4 0.0000 0.0000 0.0000 40.3140 0.0000 -9.2926
# 5 -9.3366 -8.7541 -3.2520 0.0000 19.7433 0.0000
# 6 0.0000 0.0000 0.0000 -9.2926 0.0000 24.0940
#
#
#
# Elastic Compliance Matrix: (Units=1/GPa)
#
#
# Indices 1 2 3 4 5 6 
#
# 1 0.014070 -0.000191 -0.002857 0.000000 0.006098 0.000000
# 2 -0.000191 0.005914 -0.002658 0.000000 0.002094 0.000000
# 3 -0.002857 -0.002658 0.014183 0.000000 -0.000193 0.000000
# 4 0.000000 0.000000 0.000000 0.027226 0.000000 0.010500
# 5 0.006098 0.002094 -0.000193 0.000000 0.054431 0.000000
# 6 0.000000 0.000000 0.000000 0.010500 0.000000 0.045554
#
#
# Mechanical properties :
#
#
# Convention : Reuss Voigt Hill
#
# Bulk Modulus (GPa) = 43.94909 54.68628 49.31768
# Shear Modulus (GPa) = 27.72012 35.45525 31.58769
#
# Velocity S-wave (km/s) = 3.57474 4.04285 3.81598
# Velocity P-wave (km/s) = 6.10726 6.85586 6.49236
#
# Compressibility (1/GPa) = 0.02275360
#
# Stress axis : x y z
#
# Youngs Moduli (GPa) = 71.07334 169.10235 70.50658
#
# Poissons Ratio (x) = 0.03238 0.20141
# Poissons Ratio (y) = 0.01361 0.18744
# Poissons Ratio (z) = 0.20303 0.44954
#
# Static dielectric constant tensor:
#      x y z
#    x 3.826350 0.000000 -0.047030 
#    y 0.000000 4.525030 0.000000 
#    z -0.047030 0.000000 3.673320 
# 
# 
# High freq. dielectric constant tensor:
#      x y z
#    x 1.858380 0.000000 0.001970 
#    y 0.000000 1.891470 0.000000 
#    z 0.001970 0.000000 1.813700 
# 
# From -- ./inp_files/237424.got.cif
#   From: 2010.06.25/outbox.cif.g09.slc.cpg/sg15_119_cif.got.tgz:237424.got - 2010.06.28 07:06:18.
