data_PCOD8144168
_publ_section_title
;
Structure prediction by ZEFSAII (Michael W. Deem and Ramdas Pophale) SiO2 
 PCOD8144168
Probable space group: C 2/C
;
_chemical_formula_sum "Si O2"
_cell_formula_units_Z 48
_cell_length_a 14.349275
_cell_length_b 20.187183
_cell_length_c 11.929384
_cell_angle_alpha 90.000000
_cell_angle_beta 43.468933
_cell_angle_gamma 90.000000
_cell_volume 2377.319858
_symmetry_space_group_name_H-M "C 2/C"
_symmetry_group_IT_number 15
_symmetry_cell_setting 'monoclinic'
loop_
_space_group_symop_operation_xyz
x,y,z
-x,y,1/2-z
-x,-y,-z
x,-y,1/2+z
1/2+x,1/2+y,z
1/2-x,1/2+y,1/2-z
1/2-x,1/2-y,-z
1/2+x,1/2-y,1/2+z
loop_
_atom_site_type_symbol
_atom_site_label
_atom_site_fract_x
_atom_site_fract_y
_atom_site_fract_z
Si Si1 0.515700 0.738528 0.505375
Si Si2 0.478724 0.879703 0.898676
Si Si3 0.934537 0.903941 0.463677
Si Si4 0.707079 0.552243 0.637909
Si Si5 0.724727 0.082787 0.331082
Si Si6 0.749368 0.269970 0.628291
O O1 0.514031 0.801503 0.587906
O O2 0.557322 0.676195 0.545855
O O3 0.611432 0.747453 0.313297
O O4 0.365277 0.728485 0.589700
O O5 0.500000 0.895819 0.750000
O O6 0.591590 0.920634 0.869232
O O7 0.330471 0.901554 0.067925
O O8 0.843587 0.928619 0.440657
O O9 0.861786 0.925287 0.640337
O O10 0.083533 0.936285 0.332170
O O11 0.765260 0.477206 0.589117
O O12 0.721627 0.151678 0.399215
O O13 0.750000 0.250000 0.500000
#
# Coordination Sequence:
#
# PCOD8144168 Si02
#       6
#     8   8   8   8   8   8
#     4  10  22  39  62  94 121 157 202 260 303 356
#     4  11  22  39  64  88 125 160 204 254 302 364
#     4  10  22  40  61  91 123 156 203 252 305 364
#     4  11  22  39  61  90 120 164 203 241 308 368
#     4  10  22  43  60  87 125 159 201 255 299 364
#     4  10  21  42  64  89 121 158 206 250 308 361
#
# _framework density 20.190804
#
# number of rings (size 3 to 8) (size 9 to 14) (size 15 to 20)
#    0.000    1.667    1.667    2.500    2.333    0.667 
#   18.000    1.667    0.000    0.000    0.000    0.000 
#    0.000    0.000    0.000    0.000    0.000    0.000 
#
# Total GULP energy -297610.791349 kJ/mol
# GULP energy per Si atom -12400.449640 kJ/mol
# Density = 2.014485 g / cm^3
# Si number density = 20.190804 Si / 1000 Ang^3
#
#
#
# Elastic Constant Matrix: (Units=GPa)
#
#
# Indices 1 2 3 4 5 6 
#
# 1 110.3631 73.2993 45.8814 -0.0004 -2.3291 0.0003
# 2 73.2993 102.0568 25.8494 -0.0004 2.6905 0.0005
# 3 45.8814 25.8494 75.2503 -0.0008 -10.3201 0.0010
# 4 -0.0004 -0.0004 -0.0008 24.3428 0.0007 0.2326
# 5 -2.3291 2.6905 -10.3201 0.0007 36.1297 -0.0007
# 6 0.0003 0.0005 0.0010 0.2326 -0.0007 39.4494
#
#
#
# Elastic Compliance Matrix: (Units=1/GPa)
#
#
# Indices 1 2 3 4 5 6 
#
# 1 0.021341 -0.013174 -0.008496 0.000000 -0.000070 0.000000
# 2 -0.013174 0.018995 0.001246 0.000000 -0.001908 0.000000
# 3 -0.008496 0.001246 0.018686 0.000000 0.004697 0.000000
# 4 0.000000 0.000000 0.000000 0.041082 -0.000001 -0.000242
# 5 -0.000070 -0.001908 0.004697 -0.000001 0.029157 0.000000
# 6 0.000000 0.000000 0.000000 -0.000242 0.000000 0.025350
#
#
# Mechanical properties :
#
#
# Convention : Reuss Voigt Hill
#
# Bulk Modulus (GPa) = 55.02754 64.19227 59.60990
# Shear Modulus (GPa) = 24.81153 29.49373 27.15263
#
# Velocity S-wave (km/s) = 3.50930 3.82612 3.67113
# Velocity P-wave (km/s) = 6.61311 7.16804 6.89616
#
# Compressibility (1/GPa) = 0.01817272
#
# Stress axis : x y z
#
# Youngs Moduli (GPa) = 46.85706 52.64512 53.51700
#
# Poissons Ratio (x) = 0.69355 0.45470
# Poissons Ratio (y) = 0.61730 -0.06667
# Poissons Ratio (z) = 0.39812 -0.06558
#
# Static dielectric constant tensor:
#      x y z
#    x 3.689280 0.000000 -0.322880 
#    y 0.000000 3.654440 0.000000 
#    z -0.322880 0.000000 3.779120 
# 
# 
# High freq. dielectric constant tensor:
#      x y z
#    x 1.787190 0.000000 -0.017660 
#    y 0.000000 1.789530 0.000000 
#    z -0.017660 0.000000 1.796270 
# 
# From -- ./inp_files/50056.got.cif
#   From: 2010.06.25/outbox.cif.g09.slc.cpg/sg15_26_cif.got.tgz:50056.got - 2010.06.28 07:06:18.
