data_PCOD8144854
_publ_section_title
;
Structure prediction by ZEFSAII (Michael W. Deem and Ramdas Pophale) SiO2 
 PCOD8144854
Probable space group: C 2/C
;
_chemical_formula_sum "Si O2"
_cell_formula_units_Z 44
_cell_length_a 14.850855
_cell_length_b 9.228849
_cell_length_c 19.991685
_cell_angle_alpha 90.000000
_cell_angle_beta 52.975583
_cell_angle_gamma 90.000000
_cell_volume 2187.547474
_symmetry_space_group_name_H-M "C 2/C"
_symmetry_group_IT_number 15
_symmetry_cell_setting 'monoclinic'
loop_
_space_group_symop_operation_xyz
x,y,z
-x,y,1/2-z
-x,-y,-z
x,-y,1/2+z
1/2+x,1/2+y,z
1/2-x,1/2+y,1/2-z
1/2-x,1/2-y,-z
1/2+x,1/2-y,1/2+z
loop_
_atom_site_type_symbol
_atom_site_label
_atom_site_fract_x
_atom_site_fract_y
_atom_site_fract_z
Si Si1 0.500000 0.342285 0.250000
Si Si2 0.537281 0.832049 0.481710
Si Si3 0.205945 0.068659 0.832602
Si Si4 0.965202 0.910082 0.413946
Si Si5 0.731213 0.246816 0.190197
Si Si6 0.670489 0.330084 0.483933
O O1 0.491396 0.429254 0.323286
O O2 0.617540 0.256144 0.197510
O O3 0.544064 0.755822 0.552778
O O4 0.662286 0.813383 0.395938
O O5 0.445631 0.756924 0.474576
O O6 0.500000 0.000000 0.500000
O O7 0.223507 0.174751 0.763868
O O8 0.074669 0.024021 0.902166
O O9 0.270770 0.921613 0.791947
O O10 0.242813 0.153911 0.883311
O O11 0.856033 0.006463 0.478919
O O12 0.750000 0.250000 0.500000
#
# Coordination Sequence:
#
# PCOD8144854 Si02
#       6
#     4   8   8   8   8   8
#     4  10  26  36  66  94 124 166 208 262 322 374
#     4  11  24  41  69  94 124 173 214 266 326 391
#     4  10  22  42  64  88 128 173 206 267 321 386
#     4  10  21  46  62  88 134 169 207 262 332 377
#     4  11  23  43  64  92 130 166 217 260 325 382
#     4  11  23  42  65  93 126 169 216 259 327 383
#
# _framework density 20.113848999999998
#
# number of rings (size 3 to 8) (size 9 to 14) (size 15 to 20)
#    0.000    1.455    3.636    1.091   10.182    3.636 
#    0.000    0.000    0.000    0.000    0.000    0.000 
#    0.000    0.000    0.000    0.000    0.000    0.000 
#
# Total GULP energy -272572.476064 kJ/mol
# GULP energy per Si atom -12389.658003 kJ/mol
# Density = 2.006807 g / cm^3
# Si number density = 20.113849 Si / 1000 Ang^3
#
#
#
# Elastic Constant Matrix: (Units=GPa)
#
#
# Indices 1 2 3 4 5 6 
#
# 1 121.3109 61.6003 57.6153 0.0000 -0.8046 0.0000
# 2 61.6003 126.6816 37.1272 0.0000 2.1392 0.0001
# 3 57.6153 37.1272 108.5843 0.0000 6.0771 0.0000
# 4 0.0000 0.0000 0.0000 31.1338 0.0000 -5.6223
# 5 -0.8046 2.1392 6.0771 0.0000 36.0007 0.0000
# 6 0.0000 0.0001 0.0000 -5.6223 0.0000 27.6891
#
#
#
# Elastic Compliance Matrix: (Units=1/GPa)
#
#
# Indices 1 2 3 4 5 6 
#
# 1 0.013355 -0.004910 -0.005492 0.000000 0.001517 0.000000
# 2 -0.004910 0.010578 -0.000980 0.000000 -0.000573 0.000000
# 3 -0.005492 -0.000980 0.012581 0.000000 -0.002188 0.000000
# 4 0.000000 0.000000 0.000000 0.033342 0.000000 0.006770
# 5 0.001517 -0.000573 -0.002188 0.000000 0.028215 0.000000
# 6 0.000000 0.000000 0.000000 0.006770 0.000000 0.037490
#
#
# Mechanical properties :
#
#
# Convention : Reuss Voigt Hill
#
# Bulk Modulus (GPa) = 72.72466 74.36249 73.54358
# Shear Modulus (GPa) = 30.69211 32.31366 31.50289
#
# Velocity S-wave (km/s) = 3.91054 4.01251 3.96185
# Velocity P-wave (km/s) = 7.52494 7.64971 7.58758
#
# Compressibility (1/GPa) = 0.01375049
#
# Stress axis : x y z
#
# Youngs Moduli (GPa) = 74.87740 94.53483 79.48421
#
# Poissons Ratio (x) = 0.46417 0.43656
# Poissons Ratio (y) = 0.36765 0.07786
# Poissons Ratio (z) = 0.41126 0.09260
#
# Static dielectric constant tensor:
#      x y z
#    x 3.931240 0.000000 -0.133600 
#    y 0.000000 3.588700 0.000000 
#    z -0.133600 0.000000 3.792570 
# 
# 
# High freq. dielectric constant tensor:
#      x y z
#    x 1.785380 0.000000 0.002530 
#    y 0.000000 1.778320 0.000000 
#    z 0.002530 0.000000 1.798030 
# 
# From -- ./inp_files/202609.got.cif
#   From: 2010.06.25/outbox.cif.g09.slc.cpg/sg15_102_cif.got.tgz:202609.got - 2010.06.28 07:06:18.
