data_PCOD8144749
_publ_section_title
;
Structure prediction by ZEFSAII (Michael W. Deem and Ramdas Pophale) SiO2 
 PCOD8144749
Probable space group: C 2/C
;
_chemical_formula_sum "Si O2"
_cell_formula_units_Z 40
_cell_length_a 30.881215
_cell_length_b 5.569000
_cell_length_c 10.407471
_cell_angle_alpha 90.000000
_cell_angle_beta 117.319650
_cell_angle_gamma 90.000000
_cell_volume 1590.210545
_symmetry_space_group_name_H-M "C 2/C"
_symmetry_group_IT_number 15
_symmetry_cell_setting 'monoclinic'
loop_
_space_group_symop_operation_xyz
x,y,z
-x,y,1/2-z
-x,-y,-z
x,-y,1/2+z
1/2+x,1/2+y,z
1/2-x,1/2+y,1/2-z
1/2-x,1/2-y,-z
1/2+x,1/2-y,1/2+z
loop_
_atom_site_type_symbol
_atom_site_label
_atom_site_fract_x
_atom_site_fract_y
_atom_site_fract_z
Si Si1 0.504001 0.804530 0.397230
Si Si2 0.420201 0.539026 0.407150
Si Si3 0.841911 0.294718 0.719723
Si Si4 0.360329 0.116829 0.981857
Si Si5 0.758436 0.185926 0.332583
O O1 0.500000 0.919254 0.250000
O O2 0.460107 0.615520 0.356099
O O3 0.556878 0.679946 0.480187
O O4 0.500000 0.000000 0.500000
O O5 0.370772 0.458283 0.266580
O O6 0.407823 0.752357 0.489755
O O7 0.845846 0.403709 0.868390
O O8 0.868046 0.459595 0.643401
O O9 0.783429 0.266938 0.614181
O O10 0.315658 0.305444 0.946262
O O11 0.750125 0.412337 0.225454
#
# Coordination Sequence:
#
# PCOD8144749 Si02
#       5
#     8   8   8   8   8
#     4  11  26  46  71 101 135 177 227 293 360 432
#     4  11  24  44  70 100 138 180 232 289 356 428
#     4  11  24  43  67 101 139 186 237 293 353 422
#     4  11  24  43  67 101 139 186 237 293 353 422
#     4  10  21  44  69 104 145 196 249 302 357 426
#
# _framework density 25.153903
#
# number of rings (size 3 to 8) (size 9 to 14) (size 15 to 20)
#    0.000    1.200    2.000    3.000    0.000   11.200 
#    0.000    5.000    0.000    0.000    0.000    0.000 
#    0.000    0.000    0.000    0.000    0.000    0.000 
#
# Total GULP energy -247779.485264 kJ/mol
# GULP energy per Si atom -12388.974263 kJ/mol
# Density = 2.509665 g / cm^3
# Si number density = 25.153903 Si / 1000 Ang^3
#
#
#
# Elastic Constant Matrix: (Units=GPa)
#
#
# Indices 1 2 3 4 5 6 
#
# 1 130.1539 3.9766 30.2203 0.0000 3.5212 0.0000
# 2 3.9766 67.5945 11.3716 0.0000 2.9783 0.0000
# 3 30.2203 11.3716 89.0906 0.0000 -25.9091 0.0000
# 4 0.0000 0.0000 0.0000 19.7046 0.0000 -2.6881
# 5 3.5212 2.9783 -25.9091 0.0000 46.2598 0.0000
# 6 0.0000 0.0000 0.0000 -2.6881 0.0000 40.6549
#
#
#
# Elastic Compliance Matrix: (Units=1/GPa)
#
#
# Indices 1 2 3 4 5 6 
#
# 1 0.008625 0.000249 -0.003767 0.000000 -0.002782 0.000000
# 2 0.000249 0.015363 -0.002793 0.000000 -0.002573 0.000000
# 3 -0.003767 -0.002793 0.015523 0.000000 0.009161 0.000000
# 4 0.000000 0.000000 0.000000 0.051212 0.000000 0.003386
# 5 -0.002782 -0.002573 0.009161 0.000000 0.027125 0.000000
# 6 0.000000 0.000000 0.000000 0.003386 0.000000 0.024821
#
#
# Mechanical properties :
#
#
# Convention : Reuss Voigt Hill
#
# Bulk Modulus (GPa) = 37.19081 41.99734 39.59408
# Shear Modulus (GPa) = 30.44060 37.40856 33.92458
#
# Velocity S-wave (km/s) = 3.48253 3.86059 3.67642
# Velocity P-wave (km/s) = 5.56669 6.05017 5.81346
#
# Compressibility (1/GPa) = 0.02688836
#
# Stress axis : x y z
#
# Youngs Moduli (GPa) = 115.93570 65.09244 64.42127
#
# Poissons Ratio (x) = -0.01620 0.24266
# Poissons Ratio (y) = -0.02885 0.17996
# Poissons Ratio (z) = 0.43670 0.18183
#
# Static dielectric constant tensor:
#      x y z
#    x 5.414420 0.000000 0.014670 
#    y 0.000000 4.168780 0.000000 
#    z 0.014670 0.000000 4.612900 
# 
# 
# High freq. dielectric constant tensor:
#      x y z
#    x 2.045110 0.000000 0.000570 
#    y 0.000000 1.973770 0.000000 
#    z 0.000570 0.000000 1.992170 
# 
# From -- ./inp_files/120734.got.cif
#   From: 2010.06.25/outbox.cif.g09.slc.cpg/sg15_61_cif.got.tgz:120734.got - 2010.06.28 07:06:18.
