data_PCOD8144114
_publ_section_title
;
Structure prediction by ZEFSAII (Michael W. Deem and Ramdas Pophale) SiO2 
 PCOD8144114
Probable space group: C 2/C
;
_chemical_formula_sum "Si O2"
_cell_formula_units_Z 56
_cell_length_a 11.355643
_cell_length_b 8.557584
_cell_length_c 28.080064
_cell_angle_alpha 90.000000
_cell_angle_beta 98.810823
_cell_angle_gamma 90.000000
_cell_volume 2696.532192
_symmetry_space_group_name_H-M "C 2/C"
_symmetry_group_IT_number 15
_symmetry_cell_setting 'monoclinic'
loop_
_space_group_symop_operation_xyz
x,y,z
-x,y,1/2-z
-x,-y,-z
x,-y,1/2+z
1/2+x,1/2+y,z
1/2-x,1/2+y,1/2-z
1/2-x,1/2-y,-z
1/2+x,1/2-y,1/2+z
loop_
_atom_site_type_symbol
_atom_site_label
_atom_site_fract_x
_atom_site_fract_y
_atom_site_fract_z
Si Si1 0.383818 0.264879 0.273320
Si Si2 0.741871 0.477434 0.305837
Si Si3 0.031963 0.852752 0.440765
Si Si4 0.678823 0.553862 0.036631
Si Si5 0.051477 0.493840 0.950744
Si Si6 0.490834 0.512983 0.156743
Si Si7 0.386725 0.780789 0.385487
O O1 0.500000 0.218585 0.250000
O O2 0.281523 0.345645 0.235302
O O3 0.330462 0.107708 0.291807
O O4 0.419653 0.381955 0.317797
O O5 0.614554 0.551228 0.312691
O O6 0.795484 0.400920 0.356553
O O7 0.140746 0.864056 0.484910
O O8 0.017685 0.672356 0.425214
O O9 0.910368 0.912436 0.457265
O O10 0.063281 0.954826 0.396653
O O11 0.807569 0.477599 0.038824
O O12 0.682420 0.681593 0.078885
O O13 0.998058 0.631089 0.915638
O O14 0.000000 0.500000 0.000000
O O15 0.564056 0.671217 0.153591
#
# Coordination Sequence:
#
# PCOD8144114 Si02
#       7
#     8   8   8   8   8   8   8
#     4  10  23  43  64  95 119 156 198 253 316 376
#     4  11  23  41  69  90 125 158 198 257 313 373
#     4  10  21  42  62  86 124 172 207 260 308 353
#     4  10  23  42  59  86 130 167 213 258 300 360
#     4  12  24  36  59  89 122 164 213 255 302 357
#     4  10  23  41  63  90 125 158 210 252 310 367
#     4  11  24  40  60  95 121 168 209 250 307 365
#
# _framework density 20.767413999999999
#
# number of rings (size 3 to 8) (size 9 to 14) (size 15 to 20)
#    0.000    1.429    1.429    3.000    2.000    6.286 
#    0.000    0.000    0.000    0.000    0.000    0.000 
#    0.000    0.000    0.000    0.000    0.000    0.000 
#
# Total GULP energy -347381.973711 kJ/mol
# GULP energy per Si atom -12406.499061 kJ/mol
# Density = 2.072015 g / cm^3
# Si number density = 20.767414 Si / 1000 Ang^3
#
#
#
# Elastic Constant Matrix: (Units=GPa)
#
#
# Indices 1 2 3 4 5 6 
#
# 1 118.5723 43.5482 41.0990 0.0000 9.0264 0.0000
# 2 43.5482 76.5066 19.8469 0.0000 2.7454 0.0000
# 3 41.0990 19.8469 97.2237 0.0000 11.0660 0.0000
# 4 0.0000 0.0000 0.0000 34.9396 0.0000 3.7874
# 5 9.0264 2.7454 11.0660 0.0000 29.6971 0.0000
# 6 0.0000 0.0000 0.0000 3.7874 0.0000 29.6926
#
#
#
# Elastic Compliance Matrix: (Units=1/GPa)
#
#
# Indices 1 2 3 4 5 6 
#
# 1 0.011970 -0.005797 -0.003680 0.000000 -0.001731 0.000000
# 2 -0.005797 0.016610 -0.001009 0.000000 0.000602 0.000000
# 3 -0.003680 -0.001009 0.012437 0.000000 -0.003423 0.000000
# 4 0.000000 0.000000 0.000000 0.029022 0.000000 -0.003702
# 5 -0.001731 0.000602 -0.003423 0.000000 0.035419 0.000000
# 6 0.000000 0.000000 0.000000 -0.003702 0.000000 0.034151
#
#
# Mechanical properties :
#
#
# Convention : Reuss Voigt Hill
#
# Bulk Modulus (GPa) = 49.88440 55.69899 52.79169
# Shear Modulus (GPa) = 29.89339 31.38643 30.63991
#
# Velocity S-wave (km/s) = 3.79811 3.89180 3.84524
# Velocity P-wave (km/s) = 6.58079 6.86101 6.72236
#
# Compressibility (1/GPa) = 0.02004635
#
# Stress axis : x y z
#
# Youngs Moduli (GPa) = 83.54351 60.20330 80.40819
#
# Poissons Ratio (x) = 0.34898 0.29587
# Poissons Ratio (y) = 0.48427 0.08113
# Poissons Ratio (z) = 0.30741 0.06074
#
# Static dielectric constant tensor:
#      x y z
#    x 3.707640 0.000000 0.068730 
#    y 0.000000 3.838160 0.000000 
#    z 0.068730 0.000000 3.979850 
# 
# 
# High freq. dielectric constant tensor:
#      x y z
#    x 1.815830 0.000000 0.000320 
#    y 0.000000 1.813310 0.000000 
#    z 0.000320 0.000000 1.821470 
# 
# From -- ./inp_files/291615.got.cif
#   From: 2010.06.25/outbox.cif.g09.slc.cpg/sg15_146_cif.got.tgz:291615.got - 2010.06.28 07:06:18.
