data_PCOD8144785
_publ_section_title
;
Structure prediction by ZEFSAII (Michael W. Deem and Ramdas Pophale) SiO2 
 PCOD8144785
Probable space group: C 2/C
;
_chemical_formula_sum "Si O2"
_cell_formula_units_Z 48
_cell_length_a 27.437971
_cell_length_b 9.579828
_cell_length_c 8.999163
_cell_angle_alpha 90.000000
_cell_angle_beta 99.308606
_cell_angle_gamma 90.000000
_cell_volume 2334.289930
_symmetry_space_group_name_H-M "C 2/C"
_symmetry_group_IT_number 15
_symmetry_cell_setting 'monoclinic'
loop_
_space_group_symop_operation_xyz
x,y,z
-x,y,1/2-z
-x,-y,-z
x,-y,1/2+z
1/2+x,1/2+y,z
1/2-x,1/2+y,1/2-z
1/2-x,1/2-y,-z
1/2+x,1/2-y,1/2+z
loop_
_atom_site_type_symbol
_atom_site_label
_atom_site_fract_x
_atom_site_fract_y
_atom_site_fract_z
Si Si1 0.096801 0.665334 0.488648
Si Si2 0.103822 0.857185 0.895152
Si Si3 0.303555 0.686500 0.529529
Si Si4 0.559397 0.922042 0.279782
Si Si5 0.468698 0.579525 0.605312
Si Si6 0.339019 0.513039 0.813447
O O1 0.154758 0.698495 0.492734
O O2 0.075169 0.573021 0.345544
O O3 0.084377 0.582432 0.631413
O O4 0.068618 0.812212 0.487799
O O5 0.084207 0.699014 0.892634
O O6 0.060722 0.960352 0.821538
O O7 0.143147 0.884304 0.782783
O O8 0.120304 0.902838 0.069318
O O9 0.250000 0.750000 0.500000
O O10 0.312742 0.629233 0.699884
O O11 0.302197 0.558617 0.412414
O O12 0.500000 0.905863 0.250000
O O13 0.500000 0.656758 0.750000
O O14 0.500000 0.500000 0.500000
#
# Coordination Sequence:
#
# PCOD8144785 Si02
#       6
#     8   8   8   8   8   8
#     4  12  26  44  64  96 143 178 228 289 333 405
#     4  11  20  40  67  94 135 176 216 275 330 387
#     4  11  25  47  73  99 132 173 233 285 347 397
#     4  12  26  42  62  98 143 185 224 269 345 410
#     4  12  23  37  67  99 130 177 229 267 331 402
#     4  10  21  44  72  98 129 170 228 284 326 402
#
# _framework density 20.562996999999999
#
# number of rings (size 3 to 8) (size 9 to 14) (size 15 to 20)
#    0.000    0.667    5.000    4.500    2.333    1.333 
#    0.000    1.667    0.000    0.000    0.000    0.000 
#    0.000    0.000    0.000    0.000    0.000    0.000 
#
# Total GULP energy -297502.507217 kJ/mol
# GULP energy per Si atom -12395.937801 kJ/mol
# Density = 2.051619 g / cm^3
# Si number density = 20.562997 Si / 1000 Ang^3
#
#
#
# Elastic Constant Matrix: (Units=GPa)
#
#
# Indices 1 2 3 4 5 6 
#
# 1 147.6358 57.6258 54.3980 0.0000 1.5533 0.0000
# 2 57.6258 87.1688 32.6069 0.0000 -3.2266 0.0000
# 3 54.3980 32.6069 122.8412 0.0000 -2.2103 0.0000
# 4 0.0000 0.0000 0.0000 36.8654 0.0000 9.7541
# 5 1.5533 -3.2266 -2.2103 0.0000 22.5995 0.0000
# 6 0.0000 0.0000 0.0000 9.7541 0.0000 35.3687
#
#
#
# Elastic Compliance Matrix: (Units=1/GPa)
#
#
# Indices 1 2 3 4 5 6 
#
# 1 0.010092 -0.005611 -0.003012 0.000000 -0.001789 0.000000
# 2 -0.005611 0.015907 -0.001693 0.000000 0.002491 0.000000
# 3 -0.003012 -0.001693 0.009941 0.000000 0.000938 0.000000
# 4 0.000000 0.000000 0.000000 0.029261 0.000000 -0.008070
# 5 -0.001789 0.002491 0.000938 0.000000 0.044819 0.000000
# 6 0.000000 0.000000 0.000000 -0.008070 0.000000 0.030499
#
#
# Mechanical properties :
#
#
# Convention : Reuss Voigt Hill
#
# Bulk Modulus (GPa) = 65.32557 71.87858 68.60208
# Shear Modulus (GPa) = 30.07461 33.16773 31.62117
#
# Velocity S-wave (km/s) = 3.82849 4.02055 3.92570
# Velocity P-wave (km/s) = 7.16803 7.52225 7.34727
#
# Compressibility (1/GPa) = 0.01530794
#
# Stress axis : x y z
#
# Youngs Moduli (GPa) = 99.08544 62.86546 100.59854
#
# Poissons Ratio (x) = 0.35277 0.30299
# Poissons Ratio (y) = 0.55601 0.17027
# Poissons Ratio (z) = 0.29843 0.10641
#
# Static dielectric constant tensor:
#      x y z
#    x 3.629070 0.000000 0.099220 
#    y 0.000000 3.735760 0.000000 
#    z 0.099220 0.000000 4.007170 
# 
# 
# High freq. dielectric constant tensor:
#      x y z
#    x 1.786000 0.000000 -0.004530 
#    y 0.000000 1.801970 0.000000 
#    z -0.004530 0.000000 1.826190 
# 
# From -- ./inp_files/68550.got.cif
#   From: 2010.06.25/outbox.cif.g09.slc.cpg/sg15_35_cif.got.tgz:68550.got - 2010.06.28 07:06:18.
