data_PCOD8144524
_publ_section_title
;
Structure prediction by ZEFSAII (Michael W. Deem and Ramdas Pophale) SiO2 
 PCOD8144524
Probable space group: C 2/C
;
_chemical_formula_sum "Si O2"
_cell_formula_units_Z 52
_cell_length_a 23.822528
_cell_length_b 9.775351
_cell_length_c 10.092765
_cell_angle_alpha 90.000000
_cell_angle_beta 104.283951
_cell_angle_gamma 90.000000
_cell_volume 2277.677257
_symmetry_space_group_name_H-M "C 2/C"
_symmetry_group_IT_number 15
_symmetry_cell_setting 'monoclinic'
loop_
_space_group_symop_operation_xyz
x,y,z
-x,y,1/2-z
-x,-y,-z
x,-y,1/2+z
1/2+x,1/2+y,z
1/2-x,1/2+y,1/2-z
1/2-x,1/2-y,-z
1/2+x,1/2-y,1/2+z
loop_
_atom_site_type_symbol
_atom_site_label
_atom_site_fract_x
_atom_site_fract_y
_atom_site_fract_z
Si Si1 0.733671 0.616204 0.317555
Si Si2 0.000000 0.748137 0.750000
Si Si3 0.678533 0.843695 0.418018
Si Si4 0.634341 0.417116 0.282398
Si Si5 0.406559 0.624968 0.024895
Si Si6 0.848474 0.384318 0.718265
Si Si7 0.963093 0.493096 0.847470
O O1 0.694151 0.756005 0.293048
O O2 0.760744 0.612878 0.479976
O O3 0.694668 0.483177 0.268246
O O4 0.785453 0.612017 0.244650
O O5 0.030051 0.834606 0.884252
O O6 0.048755 0.650626 0.708665
O O7 0.639990 0.748314 0.492405
O O8 0.645600 0.987331 0.377346
O O9 0.610544 0.497907 0.393361
O O10 0.644525 0.263924 0.343875
O O11 0.591434 0.417992 0.128951
O O12 0.904103 0.410434 0.846818
O O13 0.000000 0.418962 0.750000
O O14 0.000000 0.500000 0.000000
#
# Coordination Sequence:
#
# PCOD8144524 Si02
#       7
#     8   4   8   8   8   8   8
#     4  10  23  39  68  94 140 187 216 277 344 415
#     4  10  22  46  76  90 132 192 224 280 360 398
#     4  10  21  43  66  92 141 184 225 274 352 404
#     4  11  26  44  66 102 141 173 229 282 342 415
#     4  11  23  50  67  98 138 185 227 287 344 414
#     4  12  22  40  69 101 128 181 228 290 329 415
#     4  10  23  42  67 100 130 175 229 289 342 403
#
# _framework density 22.830276000000001
#
# number of rings (size 3 to 8) (size 9 to 14) (size 15 to 20)
#    0.462    0.923    3.077    1.846    6.462    1.231 
#    9.692    0.000    0.000    0.000    0.000    0.000 
#    0.000    0.000    0.000    0.000    0.000    0.000 
#
# Total GULP energy -322116.420286 kJ/mol
# GULP energy per Si atom -12389.093088 kJ/mol
# Density = 2.277831 g / cm^3
# Si number density = 22.830276 Si / 1000 Ang^3
#
#
#
# Elastic Constant Matrix: (Units=GPa)
#
#
# Indices 1 2 3 4 5 6 
#
# 1 45.6434 25.7520 -8.3418 0.0000 7.9309 0.0000
# 2 25.7520 168.8635 35.9533 0.0000 7.8303 0.0000
# 3 -8.3418 35.9533 80.5025 0.0000 6.0463 0.0000
# 4 0.0000 0.0000 0.0000 28.7047 0.0000 10.5140
# 5 7.9309 7.8303 6.0463 0.0000 37.7894 0.0000
# 6 0.0000 0.0000 0.0000 10.5140 0.0000 29.0802
#
#
#
# Elastic Compliance Matrix: (Units=1/GPa)
#
#
# Indices 1 2 3 4 5 6 
#
# 1 0.026630 -0.004955 0.005380 0.000000 -0.005423 0.000000
# 2 -0.004955 0.007497 -0.003869 0.000000 0.000106 0.000000
# 3 0.005380 -0.003869 0.014911 0.000000 -0.002713 0.000000
# 4 0.000000 0.000000 0.000000 0.040155 0.000000 -0.014518
# 5 -0.005423 0.000106 -0.002713 0.000000 0.028013 0.000000
# 6 0.000000 0.000000 0.000000 -0.014518 0.000000 0.039637
#
#
# Mechanical properties :
#
#
# Convention : Reuss Voigt Hill
#
# Bulk Modulus (GPa) = 23.72569 44.63740 34.18154
# Shear Modulus (GPa) = 28.12438 35.22461 31.67449
#
# Velocity S-wave (km/s) = 3.51364 3.93223 3.72881
# Velocity P-wave (km/s) = 5.18417 6.34120 5.79165
#
# Compressibility (1/GPa) = 0.04214841
#
# Stress axis : x y z
#
# Youngs Moduli (GPa) = 37.55150 133.39455 67.06306
#
# Poissons Ratio (x) = 0.66098 -0.36078
# Poissons Ratio (y) = 0.18607 0.25950
# Poissons Ratio (z) = -0.20202 0.51616
#
# Static dielectric constant tensor:
#      x y z
#    x 3.471520 0.000000 0.045270 
#    y 0.000000 4.403180 0.000000 
#    z 0.045270 0.000000 3.842500 
# 
# 
# High freq. dielectric constant tensor:
#      x y z
#    x 1.892240 0.000000 0.018370 
#    y 0.000000 1.908700 0.000000 
#    z 0.018370 0.000000 1.883450 
# 
# From -- ./inp_files/121594.got.cif
#   From: 2010.06.25/outbox.cif.g09.slc.cpg/sg15_61_cif.got.tgz:121594.got - 2010.06.28 07:06:18.
