data_PCOD8144268
_publ_section_title
;
Structure prediction by ZEFSAII (Michael W. Deem and Ramdas Pophale) SiO2 
 PCOD8144268
Probable space group: C 2/C
;
_chemical_formula_sum "Si O2"
_cell_formula_units_Z 48
_cell_length_a 11.346727
_cell_length_b 14.855309
_cell_length_c 13.710629
_cell_angle_alpha 90.000000
_cell_angle_beta 76.998733
_cell_angle_gamma 90.000000
_cell_volume 2251.808171
_symmetry_space_group_name_H-M "C 2/C"
_symmetry_group_IT_number 15
_symmetry_cell_setting 'monoclinic'
loop_
_space_group_symop_operation_xyz
x,y,z
-x,y,1/2-z
-x,-y,-z
x,-y,1/2+z
1/2+x,1/2+y,z
1/2-x,1/2+y,1/2-z
1/2-x,1/2-y,-z
1/2+x,1/2-y,1/2+z
loop_
_atom_site_type_symbol
_atom_site_label
_atom_site_fract_x
_atom_site_fract_y
_atom_site_fract_z
Si Si1 0.140349 0.218164 0.246901
Si Si2 0.500000 0.025548 0.250000
Si Si3 0.703771 0.393041 0.301048
Si Si4 0.710761 0.942895 0.840219
Si Si5 0.500000 0.713278 0.750000
Si Si6 0.214302 0.691138 0.096957
Si Si7 0.324785 0.987709 0.436765
O O1 0.195844 0.315289 0.215563
O O2 0.196549 0.139496 0.168758
O O3 0.170497 0.190184 0.352310
O O4 0.000000 0.221497 0.250000
O O5 0.394730 0.085550 0.217894
O O6 0.440690 0.963334 0.345882
O O7 0.729751 0.464033 0.208408
O O8 0.571743 0.351123 0.311630
O O9 0.708466 0.442037 0.405808
O O10 0.654262 0.953651 0.958089
O O11 0.407171 0.772888 0.828987
O O12 0.188640 0.593992 0.058565
O O13 0.250000 0.750000 0.000000
#
# Coordination Sequence:
#
# PCOD8144268 Si02
#       7
#     8   4   8   8   4   8   8
#     4  11  25  45  66  97 143 175 220 283 341 399
#     4  10  21  42  66  95 132 172 225 282 326 405
#     4  10  24  42  67  98 135 178 225 279 334 403
#     4  11  24  43  68  99 136 179 223 279 341 400
#     4  10  23  44  70  97 140 178 227 286 330 403
#     4  11  23  45  71 100 134 182 231 278 335 403
#     4  11  22  41  69 100 130 178 227 273 343 396
#
# _framework density 21.316202000000001
#
# number of rings (size 3 to 8) (size 9 to 14) (size 15 to 20)
#    0.000    1.333    3.333    3.000    8.167    2.000 
#    3.000    2.500    0.000    0.000    0.000    0.000 
#    0.000    0.000    0.000    0.000    0.000    0.000 
#
# Total GULP energy -297502.007441 kJ/mol
# GULP energy per Si atom -12395.916977 kJ/mol
# Density = 2.126769 g / cm^3
# Si number density = 21.316202 Si / 1000 Ang^3
#
#
#
# Elastic Constant Matrix: (Units=GPa)
#
#
# Indices 1 2 3 4 5 6 
#
# 1 145.5102 30.7848 29.1861 0.0000 -2.6168 0.0000
# 2 30.7848 122.5164 33.4152 0.0000 -12.9634 0.0000
# 3 29.1861 33.4152 135.6551 0.0000 3.3900 0.0000
# 4 0.0000 0.0000 0.0000 24.2258 0.0000 7.1905
# 5 -2.6168 -12.9634 3.3900 0.0000 20.4732 0.0000
# 6 0.0000 0.0000 0.0000 7.1905 0.0000 31.8460
#
#
#
# Elastic Compliance Matrix: (Units=1/GPa)
#
#
# Indices 1 2 3 4 5 6 
#
# 1 0.007443 -0.001513 -0.001234 0.000000 0.000198 0.000000
# 2 -0.001513 0.009836 -0.002258 0.000000 0.006409 0.000000
# 3 -0.001234 -0.002258 0.008267 0.000000 -0.002956 0.000000
# 4 0.000000 0.000000 0.000000 0.044243 0.000000 -0.009990
# 5 0.000198 0.006409 -0.002956 0.000000 0.053417 0.000000
# 6 0.000000 0.000000 0.000000 -0.009990 0.000000 0.033657
#
#
# Mechanical properties :
#
#
# Convention : Reuss Voigt Hill
#
# Bulk Modulus (GPa) = 64.35722 65.60600 64.98161
# Shear Modulus (GPa) = 29.06108 35.99537 32.52822
#
# Velocity S-wave (km/s) = 3.69634 4.11376 3.91062
# Velocity P-wave (km/s) = 6.96236 7.30811 7.13733
#
# Compressibility (1/GPa) = 0.01553827
#
# Stress axis : x y z
#
# Youngs Moduli (GPa) = 134.34600 101.66598 120.96247
#
# Poissons Ratio (x) = 0.15381 0.14923
# Poissons Ratio (y) = 0.20325 0.27308
# Poissons Ratio (z) = 0.16575 0.22951
#
# Static dielectric constant tensor:
#      x y z
#    x 3.964020 0.000000 0.078200 
#    y 0.000000 4.010960 0.000000 
#    z 0.078200 0.000000 3.869410 
# 
# 
# High freq. dielectric constant tensor:
#      x y z
#    x 1.835190 0.000000 0.012780 
#    y 0.000000 1.851120 0.000000 
#    z 0.012780 0.000000 1.827900 
# 
# From -- ./inp_files/143487.got.cif
#   From: 2010.06.25/outbox.cif.g09.slc.cpg/sg15_72_cif.got.tgz:143487.got - 2010.06.28 07:06:18.
