data_PCOD8144936
_publ_section_title
;
Structure prediction by ZEFSAII (Michael W. Deem and Ramdas Pophale) SiO2 
 PCOD8144936
Probable space group: C 2/C
;
_chemical_formula_sum "Si O2"
_cell_formula_units_Z 52
_cell_length_a 10.974846
_cell_length_b 25.453853
_cell_length_c 10.982221
_cell_angle_alpha 90.000000
_cell_angle_beta 126.334692
_cell_angle_gamma 90.000000
_cell_volume 2471.412595
_symmetry_space_group_name_H-M "C 2/C"
_symmetry_group_IT_number 15
_symmetry_cell_setting 'monoclinic'
loop_
_space_group_symop_operation_xyz
x,y,z
-x,y,1/2-z
-x,-y,-z
x,-y,1/2+z
1/2+x,1/2+y,z
1/2-x,1/2+y,1/2-z
1/2-x,1/2-y,-z
1/2+x,1/2-y,1/2+z
loop_
_atom_site_type_symbol
_atom_site_label
_atom_site_fract_x
_atom_site_fract_y
_atom_site_fract_z
Si Si1 0.442612 0.604578 0.015335
Si Si2 0.275756 0.075467 0.154202
Si Si3 0.851426 0.219686 0.963941
Si Si4 0.252047 0.532151 0.753703
Si Si5 0.042758 0.404650 0.979048
Si Si6 0.500000 0.525166 0.250000
Si Si7 0.925221 0.302325 0.339923
O O1 0.612533 0.602339 0.064093
O O2 0.419151 0.562531 0.106319
O O3 0.403827 0.662422 0.041550
O O4 0.319913 0.587147 0.842400
O O5 0.350763 0.097059 0.076675
O O6 0.370231 0.089965 0.332271
O O7 0.267940 0.011575 0.151797
O O8 0.752330 0.212520 0.782410
O O9 0.750000 0.250000 0.000000
O O10 0.000811 0.254995 0.037855
O O11 0.093434 0.546274 0.594117
O O12 0.370550 0.511349 0.725828
O O13 0.056672 0.352750 0.066361
O O14 0.000000 0.311168 0.250000
#
# Coordination Sequence:
#
# PCOD8144936 Si02
#       7
#     8   8   8   8   8   4   8
#     4  11  22  39  64  94 125 167 213 259 320 369
#     4  10  24  39  64  92 134 174 203 257 312 392
#     4  10  23  41  64  94 122 155 207 269 317 370
#     4  11  20  40  60  96 126 167 216 253 312 378
#     4  11  22  43  61  92 134 168 211 260 318 375
#     4  10  22  34  66  94 126 168 206 260 308 386
#     4  10  23  42  67  92 121 159 212 269 318 373
#
# _framework density 21.040599
#
# number of rings (size 3 to 8) (size 9 to 14) (size 15 to 20)
#    0.000    1.538    1.538    4.154    5.385    3.692 
#    5.538    0.769    0.000    0.000    0.000    0.000 
#    0.000    0.000    0.000    0.000    0.000    0.000 
#
# Total GULP energy -322269.658415 kJ/mol
# GULP energy per Si atom -12394.986862 kJ/mol
# Density = 2.099271 g / cm^3
# Si number density = 21.040599 Si / 1000 Ang^3
#
#
#
# Elastic Constant Matrix: (Units=GPa)
#
#
# Indices 1 2 3 4 5 6 
#
# 1 41.9689 31.9831 30.3442 0.0000 -10.5553 0.0000
# 2 31.9831 147.2197 48.1477 0.0000 2.2854 0.0000
# 3 30.3442 48.1477 112.7577 0.0000 22.9969 0.0000
# 4 0.0000 0.0000 0.0000 37.0472 0.0000 7.1946
# 5 -10.5553 2.2854 22.9969 0.0000 26.3460 0.0000
# 6 0.0000 0.0000 0.0000 7.1946 0.0000 13.4094
#
#
#
# Elastic Compliance Matrix: (Units=1/GPa)
#
#
# Indices 1 2 3 4 5 6 
#
# 1 0.051409 -0.005471 -0.019217 0.000000 0.037845 0.000000
# 2 -0.005471 0.008644 -0.001969 0.000000 -0.001223 0.000000
# 3 -0.019217 -0.001969 0.019972 0.000000 -0.024961 0.000000
# 4 0.000000 0.000000 0.000000 0.030132 0.000000 -0.016167
# 5 0.037845 -0.001223 -0.024961 0.000000 0.075013 0.000000
# 6 0.000000 0.000000 0.000000 -0.016167 0.000000 0.083249
#
#
# Mechanical properties :
#
#
# Convention : Reuss Voigt Hill
#
# Bulk Modulus (GPa) = 37.43920 58.09962 47.76941
# Shear Modulus (GPa) = 15.12229 28.12525 21.62377
#
# Velocity S-wave (km/s) = 2.68380 3.66008 3.20928
# Velocity P-wave (km/s) = 5.23795 6.74793 6.04031
#
# Compressibility (1/GPa) = 0.02670997
#
# Stress axis : x y z
#
# Youngs Moduli (GPa) = 19.45187 115.68426 50.07046
#
# Poissons Ratio (x) = 0.63292 0.96221
# Poissons Ratio (y) = 0.10642 0.09861
# Poissons Ratio (z) = 0.37381 0.22783
#
# Static dielectric constant tensor:
#      x y z
#    x 3.688660 0.000000 0.256690 
#    y 0.000000 3.880250 0.000000 
#    z 0.256690 0.000000 4.842070 
# 
# 
# High freq. dielectric constant tensor:
#      x y z
#    x 1.798250 0.000000 0.020850 
#    y 0.000000 1.826780 0.000000 
#    z 0.020850 0.000000 1.847390 
# 
# From -- ./inp_files/91308.got.cif
#   From: 2010.06.25/outbox.cif.g09.slc.cpg/sg15_46_cif.got.tgz:91308.got - 2010.06.28 07:06:18.
