data_PCOD8144231
_publ_section_title
;
Structure prediction by ZEFSAII (Michael W. Deem and Ramdas Pophale) SiO2 
 PCOD8144231
Probable space group: C 2/C
;
_chemical_formula_sum "Si O2"
_cell_formula_units_Z 64
_cell_length_a 10.276314
_cell_length_b 9.676279
_cell_length_c 27.820789
_cell_angle_alpha 90.000000
_cell_angle_beta 86.355796
_cell_angle_gamma 90.000000
_cell_volume 2760.807670
_symmetry_space_group_name_H-M "C 2/C"
_symmetry_group_IT_number 15
_symmetry_cell_setting 'monoclinic'
loop_
_space_group_symop_operation_xyz
x,y,z
-x,y,1/2-z
-x,-y,-z
x,-y,1/2+z
1/2+x,1/2+y,z
1/2-x,1/2+y,1/2-z
1/2-x,1/2-y,-z
1/2+x,1/2-y,1/2+z
loop_
_atom_site_type_symbol
_atom_site_label
_atom_site_fract_x
_atom_site_fract_y
_atom_site_fract_z
Si Si1 0.716439 0.631330 0.057117
Si Si2 0.487420 0.879789 0.925050
Si Si3 0.223933 0.561946 0.545771
Si Si4 0.451319 0.004088 0.824854
Si Si5 0.406469 0.387125 0.379808
Si Si6 0.330305 0.504137 0.141700
Si Si7 0.898043 0.233968 0.214383
Si Si8 0.615818 0.274927 0.217945
O O1 0.669563 0.788782 0.066280
O O2 0.649187 0.528923 0.096690
O O3 0.871949 0.643514 0.056471
O O4 0.685350 0.580347 0.003501
O O5 0.406907 0.737167 0.918029
O O6 0.401456 0.968679 0.964490
O O7 0.503159 0.968632 0.876346
O O8 0.303338 0.477328 0.585034
O O9 0.300150 0.054577 0.830348
O O10 0.542190 0.117916 0.799412
O O11 0.456861 0.867529 0.792688
O O12 0.555085 0.394252 0.357376
O O13 0.332380 0.350820 0.332104
O O14 0.379704 0.644386 0.166311
O O15 0.754175 0.254056 0.242599
O O16 0.000000 0.163598 0.250000
O O17 0.500000 0.356496 0.250000
#
# Coordination Sequence:
#
# PCOD8144231 Si02
#       8
#     8   8   8   8   8   8   8   8
#     4  11  23  43  67 105 134 186 232 280 347 417
#     4  10  21  42  65  98 132 183 223 280 344 409
#     4  10  23  44  69  97 144 179 231 287 341 413
#     4   9  21  42  70  93 140 181 225 283 347 409
#     4  11  24  41  68  99 138 181 228 284 354 410
#     4  10  23  42  63 100 137 177 227 288 340 411
#     4  11  24  43  70 103 128 185 240 278 353 421
#     4  10  23  45  67 100 141 178 227 293 350 415
#
# _framework density 23.181621
#
# number of rings (size 3 to 8) (size 9 to 14) (size 15 to 20)
#    0.000    1.750    1.250    2.250    5.250    1.500 
#    6.750    0.000    0.000    0.000    0.000    0.000 
#    0.000    0.000    0.000    0.000    0.000    0.000 
#
# Total GULP energy -396502.689128 kJ/mol
# GULP energy per Si atom -12390.709035 kJ/mol
# Density = 2.312886 g / cm^3
# Si number density = 23.181621 Si / 1000 Ang^3
#
#
#
# Elastic Constant Matrix: (Units=GPa)
#
#
# Indices 1 2 3 4 5 6 
#
# 1 106.6477 29.0230 25.5057 0.0000 1.5437 0.0000
# 2 29.0230 119.9864 37.9457 0.0000 -10.4589 0.0000
# 3 25.5057 37.9457 97.4305 0.0000 4.1858 0.0000
# 4 0.0000 0.0000 0.0000 29.6050 0.0000 -10.6250
# 5 1.5437 -10.4589 4.1858 0.0000 30.3191 0.0000
# 6 0.0000 0.0000 0.0000 -10.6250 0.0000 32.4909
#
#
#
# Elastic Compliance Matrix: (Units=1/GPa)
#
#
# Indices 1 2 3 4 5 6 
#
# 1 0.010388 -0.001995 -0.001902 0.000000 -0.000954 0.000000
# 2 -0.001995 0.010347 -0.003687 0.000000 0.004180 0.000000
# 3 -0.001902 -0.003687 0.012321 0.000000 -0.002876 0.000000
# 4 0.000000 0.000000 0.000000 0.038270 0.000000 0.012515
# 5 -0.000954 0.004180 -0.002876 0.000000 0.034870 0.000000
# 6 0.000000 0.000000 0.000000 0.012515 0.000000 0.034870
#
#
# Mechanical properties :
#
#
# Convention : Reuss Voigt Hill
#
# Bulk Modulus (GPa) = 55.89866 56.55705 56.22786
# Shear Modulus (GPa) = 30.82678 33.92233 32.37456
#
# Velocity S-wave (km/s) = 3.65059 3.82950 3.74111
# Velocity P-wave (km/s) = 6.47571 6.63353 6.55509
#
# Compressibility (1/GPa) = 0.01788952
#
# Stress axis : x y z
#
# Youngs Moduli (GPa) = 96.26431 96.64455 81.16111
#
# Poissons Ratio (x) = 0.19276 0.15434
# Poissons Ratio (y) = 0.19200 0.29927
# Poissons Ratio (z) = 0.18306 0.35636
#
# Static dielectric constant tensor:
#      x y z
#    x 4.335900 0.000000 0.210640 
#    y 0.000000 4.027420 0.000000 
#    z 0.210640 0.000000 4.240860 
# 
# 
# High freq. dielectric constant tensor:
#      x y z
#    x 1.915990 0.000000 0.011480 
#    y 0.000000 1.909380 0.000000 
#    z 0.011480 0.000000 1.913060 
# 
# From -- ./inp_files/310313.got.cif
#   From: 2010.06.25/outbox.cif.g09.slc.cpg/sg15_156_cif.got.tgz:310313.got - 2010.06.28 07:06:18.
