data_PCOD8144281
_publ_section_title
;
Structure prediction by ZEFSAII (Michael W. Deem and Ramdas Pophale) SiO2 
 PCOD8144281
Probable space group: C 2/C
;
_chemical_formula_sum "Si O2"
_cell_formula_units_Z 40
_cell_length_a 5.042443
_cell_length_b 17.845391
_cell_length_c 23.507438
_cell_angle_alpha 90.000000
_cell_angle_beta 53.792678
_cell_angle_gamma 90.000000
_cell_volume 1706.805036
_symmetry_space_group_name_H-M "C 2/C"
_symmetry_group_IT_number 15
_symmetry_cell_setting 'monoclinic'
loop_
_space_group_symop_operation_xyz
x,y,z
-x,y,1/2-z
-x,-y,-z
x,-y,1/2+z
1/2+x,1/2+y,z
1/2-x,1/2+y,1/2-z
1/2-x,1/2-y,-z
1/2+x,1/2-y,1/2+z
loop_
_atom_site_type_symbol
_atom_site_label
_atom_site_fract_x
_atom_site_fract_y
_atom_site_fract_z
Si Si1 0.394883 0.506464 0.079155
Si Si2 0.138636 0.798848 0.319803
Si Si3 0.340348 0.702845 0.553850
Si Si4 0.670169 0.082998 0.887276
Si Si5 0.844315 0.178181 0.094522
O O1 0.667673 0.466447 0.083309
O O2 0.349477 0.590894 0.106978
O O3 0.031138 0.470154 0.130785
O O4 0.500000 0.500000 0.000000
O O5 0.500000 0.792053 0.250000
O O6 0.110236 0.825896 0.388837
O O7 0.935331 0.867364 0.316751
O O8 0.965565 0.717672 0.334705
O O9 0.668336 0.698567 0.472359
O O10 0.090399 0.643721 0.554164
O O11 0.179501 0.785222 0.576013
#
# Coordination Sequence:
#
# PCOD8144281 Si02
#       5
#     8   8   8   8   8
#     4  12  23  39  68 104 140 170 214 281 348 398
#     4  11  24  45  69  93 134 186 231 274 332 413
#     4  10  21  42  66  99 132 173 228 277 336 397
#     4  11  23  41  65  98 132 177 219 271 338 399
#     4  10  23  37  69 101 134 170 223 284 336 397
#
# _framework density 23.435600000000001
#
# number of rings (size 3 to 8) (size 9 to 14) (size 15 to 20)
#    0.000    1.200    4.000    1.200    2.800    4.800 
#    0.000    2.000    0.000    0.000    0.000    0.000 
#    0.000    0.000    0.000    0.000    0.000    0.000 
#
# Total GULP energy -247806.464855 kJ/mol
# GULP energy per Si atom -12390.323243 kJ/mol
# Density = 2.338226 g / cm^3
# Si number density = 23.435600 Si / 1000 Ang^3
#
#
#
# Elastic Constant Matrix: (Units=GPa)
#
#
# Indices 1 2 3 4 5 6 
#
# 1 86.7267 35.3834 4.6503 0.0000 -12.8842 0.0000
# 2 35.3834 195.7849 25.4231 0.0000 -27.0433 0.0000
# 3 4.6503 25.4231 99.4704 0.0000 -34.6600 0.0000
# 4 0.0000 0.0000 0.0000 17.1307 0.0000 -9.7344
# 5 -12.8842 -27.0433 -34.6600 0.0000 33.7138 0.0000
# 6 0.0000 0.0000 0.0000 -9.7344 0.0000 27.7759
#
#
#
# Elastic Compliance Matrix: (Units=1/GPa)
#
#
# Indices 1 2 3 4 5 6 
#
# 1 0.012965 -0.001842 0.001677 0.000000 0.005201 0.000000
# 2 -0.001842 0.006009 -0.000024 0.000000 0.004091 0.000000
# 3 0.001677 -0.000024 0.015890 0.000000 0.016957 0.000000
# 4 0.000000 0.000000 0.000000 0.072891 0.000000 0.025545
# 5 0.005201 0.004091 0.016957 0.000000 0.052364 0.000000
# 6 0.000000 0.000000 0.000000 0.025545 0.000000 0.044955
#
#
# Mechanical properties :
#
#
# Convention : Reuss Voigt Hill
#
# Bulk Modulus (GPa) = 28.99883 56.98841 42.99362
# Shear Modulus (GPa) = 23.04714 36.82578 29.93646
#
# Velocity S-wave (km/s) = 3.13936 3.96834 3.57794
# Velocity P-wave (km/s) = 5.05386 6.73549 5.95434
#
# Compressibility (1/GPa) = 0.03448415
#
# Stress axis : x y z
#
# Youngs Moduli (GPa) = 77.13135 166.42135 62.93416
#
# Poissons Ratio (x) = 0.30663 -0.10554
# Poissons Ratio (y) = 0.14211 0.00152
# Poissons Ratio (z) = -0.12935 0.00402
#
# Static dielectric constant tensor:
#      x y z
#    x 4.521560 0.000000 -0.395820 
#    y 0.000000 4.577770 0.000000 
#    z -0.395820 0.000000 3.895530 
# 
# 
# High freq. dielectric constant tensor:
#      x y z
#    x 1.935560 0.000000 -0.028630 
#    y 0.000000 1.947030 0.000000 
#    z -0.028630 0.000000 1.882990 
# 
# From -- ./inp_files/260804.got.cif
#   From: 2010.06.25/outbox.cif.g09.slc.cpg/sg15_131_cif.got.tgz:260804.got - 2010.06.28 07:06:18.
