data_PCOD8144620
_publ_section_title
;
Structure prediction by ZEFSAII (Michael W. Deem and Ramdas Pophale) SiO2 
 PCOD8144620
Probable space group: C 2/C
;
_chemical_formula_sum "Si O2"
_cell_formula_units_Z 52
_cell_length_a 16.477514
_cell_length_b 15.024103
_cell_length_c 26.303510
_cell_angle_alpha 90.000000
_cell_angle_beta 158.236966
_cell_angle_gamma 90.000000
_cell_volume 2414.332241
_symmetry_space_group_name_H-M "C 2/C"
_symmetry_group_IT_number 15
_symmetry_cell_setting 'monoclinic'
loop_
_space_group_symop_operation_xyz
x,y,z
-x,y,1/2-z
-x,-y,-z
x,-y,1/2+z
1/2+x,1/2+y,z
1/2-x,1/2+y,1/2-z
1/2-x,1/2-y,-z
1/2+x,1/2-y,1/2+z
loop_
_atom_site_type_symbol
_atom_site_label
_atom_site_fract_x
_atom_site_fract_y
_atom_site_fract_z
Si Si1 0.787818 0.048180 0.391646
Si Si2 0.576472 0.309417 0.927988
Si Si3 0.805513 0.619740 0.363938
Si Si4 0.356294 0.029921 0.600711
Si Si5 0.667389 0.994785 0.028435
Si Si6 0.352443 0.252875 0.896826
Si Si7 0.500000 0.352453 0.250000
O O1 0.789159 0.147226 0.372749
O O2 0.761859 0.051798 0.438103
O O3 0.607885 0.980990 0.262858
O O4 0.000000 0.000000 0.500000
O O5 0.416486 0.355550 0.793834
O O6 0.427944 0.252266 0.881485
O O7 0.750000 0.250000 0.000000
O O8 0.726624 0.381827 0.045062
O O9 0.754980 0.573829 0.388893
O O10 0.928523 0.543260 0.403308
O O11 0.951942 0.708803 0.456502
O O12 0.336820 0.034881 0.529518
O O13 0.832663 0.913089 0.122068
O O14 0.127242 0.201494 0.779479
#
# Coordination Sequence:
#
# PCOD8144620 Si02
#       7
#     8   8   8   8   8   8   4
#     4  11  24  44  66  93 136 179 228 288 336 407
#     4  12  26  41  66  99 139 182 229 283 347 415
#     4  10  24  43  68  99 139 175 223 288 339 412
#     4  11  24  41  68  96 126 184 230 274 346 412
#     4  10  21  43  69  99 131 177 226 278 348 408
#     4  11  24  45  67 101 137 180 234 290 345 409
#     4  10  22  42  72 100 140 176 228 290 344 412
#
# _framework density 21.538046000000001
#
# number of rings (size 3 to 8) (size 9 to 14) (size 15 to 20)
#    0.000    1.231    1.538    3.692    2.154    3.077 
#    0.000    3.846    0.000    0.000    0.000    0.000 
#    0.000    0.000    0.000    0.000    0.000    0.000 
#
# Total GULP energy -322112.024891 kJ/mol
# GULP energy per Si atom -12388.924034 kJ/mol
# Density = 2.148902 g / cm^3
# Si number density = 21.538046 Si / 1000 Ang^3
#
#
#
# Elastic Constant Matrix: (Units=GPa)
#
#
# Indices 1 2 3 4 5 6 
#
# 1 155.3184 29.5951 47.3240 0.0071 18.3231 0.0016
# 2 29.5951 80.4269 61.3874 0.0309 7.8211 -0.0037
# 3 47.3240 61.3874 130.7378 0.0920 18.3964 -0.0263
# 4 0.0071 0.0309 0.0920 35.9016 -0.0249 4.8593
# 5 18.3231 7.8211 18.3964 -0.0249 33.1373 -0.0014
# 6 0.0016 -0.0037 -0.0263 4.8593 -0.0014 37.1913
#
#
#
# Elastic Compliance Matrix: (Units=1/GPa)
#
#
# Indices 1 2 3 4 5 6 
#
# 1 0.007542 -0.001124 -0.001793 0.000002 -0.002910 -0.000002
# 2 -0.001124 0.019555 -0.008909 0.000008 0.000952 -0.000005
# 3 -0.001793 -0.008909 0.013066 -0.000030 -0.004160 0.000012
# 4 0.000002 0.000008 -0.000030 0.028355 0.000035 -0.003705
# 5 -0.002910 0.000952 -0.004160 0.000035 0.033871 -0.000006
# 6 -0.000002 -0.000005 0.000012 -0.003705 -0.000006 0.027372
#
#
# Mechanical properties :
#
#
# Convention : Reuss Voigt Hill
#
# Bulk Modulus (GPa) = 60.56332 71.45512 66.00922
# Shear Modulus (GPa) = 31.46300 36.45781 33.96040
#
# Velocity S-wave (km/s) = 3.82620 4.11873 3.97516
# Velocity P-wave (km/s) = 6.90652 7.47441 7.19607
#
# Compressibility (1/GPa) = 0.01651165
#
# Stress axis : x y z
#
# Youngs Moduli (GPa) = 132.58929 51.13903 76.53223
#
# Poissons Ratio (x) = 0.05747 0.13722
# Poissons Ratio (y) = 0.14901 0.68182
# Poissons Ratio (z) = 0.23772 0.45559
#
# Static dielectric constant tensor:
#      x y z
#    x 4.337360 -0.000300 0.298870 
#    y -0.000300 3.297140 0.000200 
#    z 0.298870 0.000200 4.168150 
# 
# 
# High freq. dielectric constant tensor:
#      x y z
#    x 1.860830 0.000000 0.026140 
#    y 0.000000 1.848220 -0.000010 
#    z 0.026140 -0.000010 1.845640 
# 
# From -- ./inp_files/316469.got.cif
#   From: 2010.06.25/outbox.cif.g09.slc.cpg/sg15_159_cif.got.tgz:316469.got - 2010.06.28 07:06:18.
