data_PCOD8144347
_publ_section_title
;
Structure prediction by ZEFSAII (Michael W. Deem and Ramdas Pophale) SiO2 
 PCOD8144347
Probable space group: C 2/C
;
_chemical_formula_sum "Si O2"
_cell_formula_units_Z 56
_cell_length_a 15.451490
_cell_length_b 16.184687
_cell_length_c 17.835017
_cell_angle_alpha 90.000000
_cell_angle_beta 145.340609
_cell_angle_gamma 90.000000
_cell_volume 2536.465084
_symmetry_space_group_name_H-M "C 2/C"
_symmetry_group_IT_number 15
_symmetry_cell_setting 'monoclinic'
loop_
_space_group_symop_operation_xyz
x,y,z
-x,y,1/2-z
-x,-y,-z
x,-y,1/2+z
1/2+x,1/2+y,z
1/2-x,1/2+y,1/2-z
1/2-x,1/2-y,-z
1/2+x,1/2-y,1/2+z
loop_
_atom_site_type_symbol
_atom_site_label
_atom_site_fract_x
_atom_site_fract_y
_atom_site_fract_z
Si Si1 0.433645 0.912723 0.040733
Si Si2 0.574036 0.238621 0.381504
Si Si3 0.603748 0.607908 0.702516
Si Si4 0.970139 0.950995 0.558241
Si Si5 0.290734 0.854809 0.187499
Si Si6 0.595376 0.100240 0.506653
Si Si7 0.366145 0.667473 0.214946
O O1 0.259027 0.885890 0.918983
O O2 0.451489 0.010067 0.052139
O O3 0.531187 0.880856 0.181957
O O4 0.510726 0.873272 0.022152
O O5 0.500000 0.224656 0.250000
O O6 0.750000 0.250000 0.500000
O O7 0.511080 0.317255 0.379561
O O8 0.529622 0.158860 0.396665
O O9 0.499195 0.525531 0.637088
O O10 0.702654 0.614015 0.698179
O O11 0.721506 0.609586 0.855795
O O12 0.803139 0.907041 0.442992
O O13 0.085263 0.877799 0.671375
O O14 0.000000 0.000000 0.500000
O O15 0.287676 0.756134 0.175672
O O16 0.500000 0.678196 0.250000
#
# Coordination Sequence:
#
# PCOD8144347 Si02
#       7
#     8   8   8   8   8   8   8
#     4  10  22  42  72  95 128 179 229 280 338 397
#     4  12  25  41  63  96 138 180 223 275 346 414
#     4  10  21  43  66  94 136 176 223 281 344 405
#     4  10  23  43  70 101 129 178 230 278 332 407
#     4  10  23  42  68 104 130 170 234 283 329 402
#     4  10  21  42  68  96 131 178 229 280 337 408
#     4  12  25  43  69  99 145 184 215 280 355 408
#
# _framework density 22.077971000000002
#
# number of rings (size 3 to 8) (size 9 to 14) (size 15 to 20)
#    0.000    1.429    2.857    1.714    2.000    8.571 
#    2.571    0.714    0.000    0.000    0.000    0.000 
#    0.000    0.000    0.000    0.000    0.000    0.000 
#
# Total GULP energy -346905.005350 kJ/mol
# GULP energy per Si atom -12389.464477 kJ/mol
# Density = 2.202772 g / cm^3
# Si number density = 22.077971 Si / 1000 Ang^3
#
#
#
# Elastic Constant Matrix: (Units=GPa)
#
#
# Indices 1 2 3 4 5 6 
#
# 1 30.4009 29.1216 27.3276 0.0007 5.2293 -0.0011
# 2 29.1216 116.7369 61.6176 0.0015 -6.1183 -0.0012
# 3 27.3276 61.6176 158.0588 0.0048 9.0017 -0.0062
# 4 0.0007 0.0015 0.0048 51.9813 0.0013 10.3257
# 5 5.2293 -6.1183 9.0017 0.0013 25.7272 -0.0023
# 6 -0.0011 -0.0012 -0.0062 10.3257 -0.0023 -9.3938
#
#
#
# Elastic Compliance Matrix: (Units=1/GPa)
#
#
# Indices 1 2 3 4 5 6 
#
# 1 0.048294 -0.010777 -0.003513 0.000000 -0.011150 0.000001
# 2 -0.010777 0.013636 -0.003838 0.000000 0.006777 0.000000
# 3 -0.003513 -0.003838 0.008614 0.000000 -0.003213 -0.000004
# 4 0.000000 0.000000 0.000000 0.015790 0.000001 0.017356
# 5 -0.011150 0.006777 -0.003213 0.000001 0.043871 -0.000008
# 6 0.000001 0.000000 -0.000004 0.017356 -0.000008 -0.087375
#
#
# Mechanical properties :
#
#
# Convention : Reuss Voigt Hill
#
# Bulk Modulus (GPa) = 29.16732 60.14779 44.65755
# Shear Modulus (GPa) = 55.23868 26.13828 40.68848
#
# Velocity S-wave (km/s) = 5.00741 3.44453 4.29761
# Velocity P-wave (km/s) = 6.83168 6.56675 6.70053
#
# Compressibility (1/GPa) = 0.03428495
#
# Stress axis : x y z
#
# Youngs Moduli (GPa) = 20.70664 73.33487 116.09659
#
# Poissons Ratio (x) = 0.79036 0.40788
# Poissons Ratio (y) = 0.22317 0.44563
# Poissons Ratio (z) = 0.07275 0.28149
#
# Static dielectric constant tensor:
#      x y z
#    x 3.725360 -0.000010 0.057310 
#    y -0.000010 4.184190 -0.000010 
#    z 0.057310 -0.000010 5.014330 
# 
# 
# High freq. dielectric constant tensor:
#      x y z
#    x 1.838120 0.000000 0.000750 
#    y 0.000000 1.884170 0.000000 
#    z 0.000750 0.000000 1.890260 
# 
# From -- ./inp_files/249230.got.cif
#   From: 2010.06.25/outbox.cif.g09.slc.cpg/sg15_125_cif.got.tgz:249230.got - 2010.06.28 07:06:18.
