data_PCOD8144704
_publ_section_title
;
Structure prediction by ZEFSAII (Michael W. Deem and Ramdas Pophale) SiO2 
 PCOD8144704
Probable space group: C 2/C
;
_chemical_formula_sum "Si O2"
_cell_formula_units_Z 40
_cell_length_a 14.170827
_cell_length_b 10.691295
_cell_length_c 17.412117
_cell_angle_alpha 90.000000
_cell_angle_beta 36.219430
_cell_angle_gamma 90.000000
_cell_volume 1558.747797
_symmetry_space_group_name_H-M "C 2/C"
_symmetry_group_IT_number 15
_symmetry_cell_setting 'monoclinic'
loop_
_space_group_symop_operation_xyz
x,y,z
-x,y,1/2-z
-x,-y,-z
x,-y,1/2+z
1/2+x,1/2+y,z
1/2-x,1/2+y,1/2-z
1/2-x,1/2-y,-z
1/2+x,1/2-y,1/2+z
loop_
_atom_site_type_symbol
_atom_site_label
_atom_site_fract_x
_atom_site_fract_y
_atom_site_fract_z
Si Si1 0.687063 0.910178 0.643413
Si Si2 0.740508 0.448321 0.546576
Si Si3 0.645590 0.356934 0.212654
Si Si4 0.481169 0.735475 0.384362
Si Si5 0.689656 0.644543 0.854174
O O1 0.500000 0.910522 0.750000
O O2 0.740995 0.772440 0.636391
O O3 0.776064 0.942406 0.505988
O O4 0.734745 0.010283 0.676864
O O5 0.749826 0.519388 0.622666
O O6 0.588103 0.356482 0.635641
O O7 0.901954 0.371578 0.425766
O O8 0.500000 0.367282 0.250000
O O9 0.596956 0.367202 0.334082
O O10 0.437991 0.685867 0.498011
O O11 0.669904 0.751284 0.245903
#
# Coordination Sequence:
#
# PCOD8144704 Si02
#       5
#     8   8   8   8   8
#     4  10  21  44  65  97 138 181 231 285 353 416
#     4  10  22  41  70 100 137 181 236 290 351 411
#     4  11  27  42  67 100 144 188 231 293 349 417
#     4  10  24  42  76 105 138 181 240 294 347 423
#     4  11  25  45  71 105 140 189 238 287 352 425
#
# _framework density 25.661624
#
# number of rings (size 3 to 8) (size 9 to 14) (size 15 to 20)
#    0.000    1.600    2.000    0.600    5.600    5.600 
#    0.000    4.000    0.000    0.000    0.000    0.000 
#    0.000    0.000    0.000    0.000    0.000    0.000 
#
# Total GULP energy -247945.173295 kJ/mol
# GULP energy per Si atom -12397.258665 kJ/mol
# Density = 2.560322 g / cm^3
# Si number density = 25.661624 Si / 1000 Ang^3
#
#
#
# Elastic Constant Matrix: (Units=GPa)
#
#
# Indices 1 2 3 4 5 6 
#
# 1 98.2637 21.6921 7.8196 0.0001 19.7111 0.0000
# 2 21.6921 153.7144 25.7310 0.0001 21.4362 0.0000
# 3 7.8196 25.7310 65.9428 0.0003 10.1970 0.0000
# 4 0.0001 0.0001 0.0003 -16.2210 -0.0002 8.8231
# 5 19.7111 21.4362 10.1970 -0.0002 48.4381 0.0000
# 6 0.0000 0.0000 0.0000 8.8231 0.0000 17.7342
#
#
#
# Elastic Compliance Matrix: (Units=1/GPa)
#
#
# Indices 1 2 3 4 5 6 
#
# 1 0.011233 -0.000962 -0.000326 0.000000 -0.004077 0.000000
# 2 -0.000962 0.007373 -0.002397 0.000000 -0.002367 0.000000
# 3 -0.000326 -0.002397 0.016491 0.000000 -0.002278 0.000000
# 4 0.000000 0.000000 0.000000 -0.048519 0.000000 0.024139
# 5 -0.004077 -0.002367 -0.002278 0.000000 0.023831 0.000000
# 6 0.000000 0.000000 0.000000 0.024139 0.000000 0.044379
#
#
# Mechanical properties :
#
#
# Convention : Reuss Voigt Hill
#
# Bulk Modulus (GPa) = 36.06707 47.60071 41.83389
# Shear Modulus (GPa) = 70.02884 27.50213 48.76549
#
# Velocity S-wave (km/s) = 5.22959 3.27727 4.36400
# Velocity P-wave (km/s) = 7.10986 5.73675 6.45989
#
# Compressibility (1/GPa) = 0.02772612
#
# Stress axis : x y z
#
# Youngs Moduli (GPa) = 89.02527 135.63762 60.63972
#
# Poissons Ratio (x) = 0.13049 0.01978
# Poissons Ratio (y) = 0.08565 0.14534
# Poissons Ratio (z) = 0.02904 0.32509
#
# Static dielectric constant tensor:
#      x y z
#    x 4.442150 0.000000 0.227860 
#    y 0.000000 5.208730 0.000000 
#    z 0.227860 0.000000 4.403790 
# 
# 
# High freq. dielectric constant tensor:
#      x y z
#    x 2.010970 0.000000 0.015790 
#    y 0.000000 2.042520 0.000000 
#    z 0.015790 0.000000 2.020970 
# 
# From -- ./inp_files/126349.got.cif
#   From: 2010.06.25/outbox.cif.g09.slc.cpg/sg15_64_cif.got.tgz:126349.got - 2010.06.28 07:06:18.
