data_PCOD8144499
_publ_section_title
;
Structure prediction by ZEFSAII (Michael W. Deem and Ramdas Pophale) SiO2 
 PCOD8144499
Probable space group: C 2/C
;
_chemical_formula_sum "Si O2"
_cell_formula_units_Z 56
_cell_length_a 15.520712
_cell_length_b 8.188811
_cell_length_c 23.658629
_cell_angle_alpha 90.000000
_cell_angle_beta 118.614155
_cell_angle_gamma 90.000000
_cell_volume 2639.670029
_symmetry_space_group_name_H-M "C 2/C"
_symmetry_group_IT_number 15
_symmetry_cell_setting 'monoclinic'
loop_
_space_group_symop_operation_xyz
x,y,z
-x,y,1/2-z
-x,-y,-z
x,-y,1/2+z
1/2+x,1/2+y,z
1/2-x,1/2+y,1/2-z
1/2-x,1/2-y,-z
1/2+x,1/2-y,1/2+z
loop_
_atom_site_type_symbol
_atom_site_label
_atom_site_fract_x
_atom_site_fract_y
_atom_site_fract_z
Si Si1 0.347871 0.296453 0.309166
Si Si2 0.462527 0.350205 0.452768
Si Si3 0.649764 0.396018 0.765519
Si Si4 0.457321 0.268677 0.662454
Si Si5 0.979084 0.391343 0.682253
Si Si6 0.641517 0.803904 0.478454
Si Si7 0.357295 0.819157 0.545351
O O1 0.394560 0.394712 0.377221
O O2 0.332632 0.418225 0.250781
O O3 0.245550 0.215159 0.292844
O O4 0.420742 0.144084 0.320302
O O5 0.500000 0.500000 0.500000
O O6 0.394059 0.236049 0.470019
O O7 0.564367 0.267389 0.469092
O O8 0.569770 0.321236 0.698294
O O9 0.608004 0.384137 0.816630
O O10 0.424370 0.292926 0.587828
O O11 0.451088 0.080735 0.680093
O O12 0.888495 0.301026 0.621517
O O13 0.000000 0.312789 0.750000
O O14 0.750000 0.750000 0.500000
O O15 0.634876 0.994558 0.468690
O O16 0.250000 0.750000 0.500000
#
# Coordination Sequence:
#
# PCOD8144499 Si02
#       7
#     8   8   8   8   8   8   8
#     4  11  25  41  64  93 126 170 211 264 313 385
#     4  11  23  44  65  92 132 168 215 262 320 378
#     4  11  22  40  61  93 128 161 217 255 323 372
#     4  10  22  41  65  90 127 164 208 269 316 377
#     4  10  21  43  65  88 127 166 211 262 323 371
#     4  11  22  41  67  93 127 168 211 262 321 377
#     4  10  23  42  65  97 128 168 217 262 323 385
#
# _framework density 21.214773000000001
#
# number of rings (size 3 to 8) (size 9 to 14) (size 15 to 20)
#    0.000    1.429    1.429    3.857    2.000    2.286 
#    5.143    0.000    0.000    0.000    0.000    0.000 
#    0.000    0.000    0.000    0.000    0.000    0.000 
#
# Total GULP energy -347045.915916 kJ/mol
# GULP energy per Si atom -12394.496997 kJ/mol
# Density = 2.116649 g / cm^3
# Si number density = 21.214773 Si / 1000 Ang^3
#
#
#
# Elastic Constant Matrix: (Units=GPa)
#
#
# Indices 1 2 3 4 5 6 
#
# 1 129.0707 30.2784 53.7491 0.0000 15.3004 0.0000
# 2 30.2784 69.3669 32.6284 0.0000 -4.8313 0.0000
# 3 53.7491 32.6284 108.2460 0.0000 -2.3034 0.0000
# 4 0.0000 0.0000 0.0000 29.3392 0.0000 -0.2052
# 5 15.3004 -4.8313 -2.3034 0.0000 40.8980 0.0000
# 6 0.0000 0.0000 0.0000 -0.2052 0.0000 34.0192
#
#
#
# Elastic Compliance Matrix: (Units=1/GPa)
#
#
# Indices 1 2 3 4 5 6 
#
# 1 0.010921 -0.002908 -0.004646 0.000000 -0.004691 0.000000
# 2 -0.002908 0.017691 -0.003826 0.000000 0.002962 0.000000
# 3 -0.004646 -0.003826 0.012741 0.000000 0.002004 0.000000
# 4 0.000000 0.000000 0.000000 0.034086 0.000000 0.000206
# 5 -0.004691 0.002962 0.002004 0.000000 0.026669 0.000000
# 6 0.000000 0.000000 0.000000 0.000206 0.000000 0.029396
#
#
# Mechanical properties :
#
#
# Convention : Reuss Voigt Hill
#
# Bulk Modulus (GPa) = 53.78193 59.99950 56.89072
# Shear Modulus (GPa) = 31.16032 33.51979 32.34005
#
# Velocity S-wave (km/s) = 3.83665 3.97926 3.90861
# Velocity P-wave (km/s) = 6.71065 7.03250 6.87346
#
# Compressibility (1/GPa) = 0.01859360
#
# Stress axis : x y z
#
# Youngs Moduli (GPa) = 91.56967 56.52494 78.48782
#
# Poissons Ratio (x) = 0.16439 0.36464
# Poissons Ratio (y) = 0.26631 0.30026
# Poissons Ratio (z) = 0.42541 0.21624
#
# Static dielectric constant tensor:
#      x y z
#    x 3.776410 0.000000 -0.063050 
#    y 0.000000 3.775670 0.000000 
#    z -0.063050 0.000000 4.329590 
# 
# 
# High freq. dielectric constant tensor:
#      x y z
#    x 1.833910 0.000000 0.005220 
#    y 0.000000 1.827530 0.000000 
#    z 0.005220 0.000000 1.849980 
# 
# From -- ./inp_files/273248.got.cif
#   From: 2010.06.25/outbox.cif.g09.slc.cpg/sg15_137_cif.got.tgz:273248.got - 2010.06.28 07:06:18.
