data_PCOD8144746
_publ_section_title
;
Structure prediction by ZEFSAII (Michael W. Deem and Ramdas Pophale) SiO2 
 PCOD8144746
Probable space group: C 2/C
;
_chemical_formula_sum "Si O2"
_cell_formula_units_Z 40
_cell_length_a 23.073212
_cell_length_b 6.353625
_cell_length_c 12.191386
_cell_angle_alpha 90.000000
_cell_angle_beta 81.755991
_cell_angle_gamma 90.000000
_cell_volume 1768.770704
_symmetry_space_group_name_H-M "C 2/C"
_symmetry_group_IT_number 15
_symmetry_cell_setting 'monoclinic'
loop_
_space_group_symop_operation_xyz
x,y,z
-x,y,1/2-z
-x,-y,-z
x,-y,1/2+z
1/2+x,1/2+y,z
1/2-x,1/2+y,1/2-z
1/2-x,1/2-y,-z
1/2+x,1/2-y,1/2+z
loop_
_atom_site_type_symbol
_atom_site_label
_atom_site_fract_x
_atom_site_fract_y
_atom_site_fract_z
Si Si1 0.725076 0.872722 0.904285
Si Si2 0.569582 0.432026 0.891090
Si Si3 0.036073 0.312963 0.040326
Si Si4 0.830785 0.898914 0.263818
Si Si5 0.369532 0.870819 0.955222
O O1 0.685969 0.714762 0.844271
O O2 0.777906 0.956887 0.816972
O O3 0.750000 0.750000 0.000000
O O4 0.686269 0.066943 0.956444
O O5 0.508017 0.323082 0.869687
O O6 0.614051 0.447119 0.776599
O O7 0.558103 0.668435 0.934731
O O8 0.594953 0.302315 0.986854
O O9 0.091857 0.420516 0.085447
O O10 0.000000 0.500000 0.000000
O O11 0.847950 0.724914 0.347520
#
# Coordination Sequence:
#
# PCOD8144746 Si02
#       5
#     8   8   8   8   8
#     4  12  25  45  69  99 141 179 230 293 341 412
#     4  10  21  44  69 101 138 177 227 286 337 409
#     4   9  20  43  72  95 139 177 220 291 336 392
#     4  12  24  41  71 104 134 186 234 272 354 412
#     4  11  23  43  70 100 138 181 224 286 342 404
#
# _framework density 22.614577000000001
#
# number of rings (size 3 to 8) (size 9 to 14) (size 15 to 20)
#    0.000    1.200    2.000    4.200    0.000    0.000 
#    0.000   11.000    0.000    0.000    0.000    0.000 
#    0.000    0.000    0.000    0.000    0.000    0.000 
#
# Total GULP energy -248003.379748 kJ/mol
# GULP energy per Si atom -12400.168987 kJ/mol
# Density = 2.256311 g / cm^3
# Si number density = 22.614577 Si / 1000 Ang^3
#
#
#
# Elastic Constant Matrix: (Units=GPa)
#
#
# Indices 1 2 3 4 5 6 
#
# 1 107.2867 35.4749 39.1970 0.0000 -48.4636 0.0000
# 2 35.4749 101.2435 28.6035 0.0000 -18.8509 0.0000
# 3 39.1970 28.6035 97.7758 0.0000 -20.2027 0.0000
# 4 0.0000 0.0000 0.0000 40.6573 0.0000 -15.8259
# 5 -48.4636 -18.8509 -20.2027 0.0000 40.5764 0.0000
# 6 0.0000 0.0000 0.0000 -15.8259 0.0000 50.0289
#
#
#
# Elastic Compliance Matrix: (Units=1/GPa)
#
#
# Indices 1 2 3 4 5 6 
#
# 1 0.021854 -0.002391 -0.003230 0.000000 0.023383 0.000000
# 2 -0.002391 0.011590 -0.002128 0.000000 0.001469 0.000000
# 3 -0.003230 -0.002128 0.012421 0.000000 0.001338 0.000000
# 4 0.000000 0.000000 0.000000 0.028050 0.000000 0.008873
# 5 0.023383 0.001469 0.001338 0.000000 0.053921 0.000000
# 6 0.000000 0.000000 0.000000 0.008873 0.000000 0.022795
#
#
# Mechanical properties :
#
#
# Convention : Reuss Voigt Hill
#
# Bulk Modulus (GPa) = 32.93155 56.98410 44.95783
# Shear Modulus (GPa) = 28.36825 39.78788 34.07806
#
# Velocity S-wave (km/s) = 3.54563 4.19906 3.88610
# Velocity P-wave (km/s) = 5.59961 6.98299 6.32921
#
# Compressibility (1/GPa) = 0.03036602
#
# Stress axis : x y z
#
# Youngs Moduli (GPa) = 45.75783 86.28257 80.50590
#
# Poissons Ratio (x) = 0.20632 0.26004
# Poissons Ratio (y) = 0.10942 0.17135
# Poissons Ratio (z) = 0.14780 0.18365
#
# Static dielectric constant tensor:
#      x y z
#    x 4.819690 0.000000 -0.457000 
#    y 0.000000 4.971810 0.000000 
#    z -0.457000 0.000000 4.122000 
# 
# 
# High freq. dielectric constant tensor:
#      x y z
#    x 1.918790 0.000000 -0.017850 
#    y 0.000000 1.907280 0.000000 
#    z -0.017850 0.000000 1.868250 
# 
# From -- ./inp_files/120739.got.cif
#   From: 2010.06.25/outbox.cif.g09.slc.cpg/sg15_61_cif.got.tgz:120739.got - 2010.06.28 07:06:18.
