data_PCOD8144722
_publ_section_title
;
Structure prediction by ZEFSAII (Michael W. Deem and Ramdas Pophale) SiO2 
 PCOD8144722
Probable space group: C 2/C
;
_chemical_formula_sum "Si O2"
_cell_formula_units_Z 28
_cell_length_a 12.960763
_cell_length_b 13.341744
_cell_length_c 9.694238
_cell_angle_alpha 90.000000
_cell_angle_beta 121.922499
_cell_angle_gamma 90.000000
_cell_volume 1422.800009
_symmetry_space_group_name_H-M "C 2/C"
_symmetry_group_IT_number 15
_symmetry_cell_setting 'monoclinic'
loop_
_space_group_symop_operation_xyz
x,y,z
-x,y,1/2-z
-x,-y,-z
x,-y,1/2+z
1/2+x,1/2+y,z
1/2-x,1/2+y,1/2-z
1/2-x,1/2-y,-z
1/2+x,1/2-y,1/2+z
loop_
_atom_site_type_symbol
_atom_site_label
_atom_site_fract_x
_atom_site_fract_y
_atom_site_fract_z
Si Si1 0.455127 0.586314 0.566918
Si Si2 0.000000 0.589839 0.750000
Si Si3 0.831896 0.408012 0.632731
Si Si4 0.997359 0.308976 0.537409
O O1 0.500000 0.559010 0.750000
O O2 0.500000 0.500000 0.500000
O O3 0.310942 0.593107 0.460670
O O4 0.513853 0.690059 0.558233
O O5 0.880269 0.521302 0.649438
O O6 0.014199 0.660950 0.628966
O O7 0.885564 0.361915 0.811857
O O8 0.876045 0.341930 0.533886
#
# Coordination Sequence:
#
# PCOD8144722 Si02
#       4
#     8   4   8   8
#     4  12  28  42  62  93 131 168 205 256 319 370
#     4  10  22  38  72  98 116 160 222 260 296 364
#     4  10  21  44  67  89 129 163 209 255 315 371
#     4  10  22  43  68  92 121 172 207 258 307 368
#
# _framework density 19.679504999999999
#
# number of rings (size 3 to 8) (size 9 to 14) (size 15 to 20)
#    0.000    1.714    2.857    4.286   10.000    0.000 
#    0.000    2.857    0.000    0.000    0.000    0.000 
#    0.000    0.000    0.000    0.000    0.000    0.000 
#
# Total GULP energy -173652.841951 kJ/mol
# GULP energy per Si atom -12403.774425 kJ/mol
# Density = 1.963471 g / cm^3
# Si number density = 19.679505 Si / 1000 Ang^3
#
#
#
# Elastic Constant Matrix: (Units=GPa)
#
#
# Indices 1 2 3 4 5 6 
#
# 1 92.1090 43.6322 64.7925 0.0000 11.1451 0.0000
# 2 43.6322 128.9662 54.4226 0.0000 -25.7537 0.0000
# 3 64.7925 54.4226 105.9805 0.0000 -24.9025 0.0000
# 4 0.0000 0.0000 0.0000 30.6995 0.0000 -17.0407
# 5 11.1451 -25.7537 -24.9025 0.0000 53.4356 0.0000
# 6 0.0000 0.0000 0.0000 -17.0407 0.0000 22.0528
#
#
#
# Elastic Compliance Matrix: (Units=1/GPa)
#
#
# Indices 1 2 3 4 5 6 
#
# 1 0.028797 -0.005183 -0.019025 0.000000 -0.017370 0.000000
# 2 -0.005183 0.011191 -0.001187 0.000000 0.005921 0.000000
# 3 -0.019025 -0.001187 0.025238 0.000000 0.015158 0.000000
# 4 0.000000 0.000000 0.000000 0.057040 0.000000 0.044076
# 5 -0.017370 0.005921 0.015158 0.000000 0.032255 0.000000
# 6 0.000000 0.000000 0.000000 0.044076 0.000000 0.079404
#
#
# Mechanical properties :
#
#
# Convention : Reuss Voigt Hill
#
# Bulk Modulus (GPa) = 69.27166 72.52781 70.89974
# Shear Modulus (GPa) = 17.26964 32.18481 24.72723
#
# Velocity S-wave (km/s) = 2.96555 4.04845 3.54855
# Velocity P-wave (km/s) = 6.85582 7.66732 7.27290
#
# Compressibility (1/GPa) = 0.01443592
#
# Stress axis : x y z
#
# Youngs Moduli (GPa) = 34.72631 89.36039 39.62269
#
# Poissons Ratio (x) = 0.46314 0.75383
# Poissons Ratio (y) = 0.17998 0.04702
# Poissons Ratio (z) = 0.66068 0.10604
#
# Static dielectric constant tensor:
#      x y z
#    x 3.455960 0.000000 -0.033060 
#    y 0.000000 3.790230 0.000000 
#    z -0.033060 0.000000 3.626400 
# 
# 
# High freq. dielectric constant tensor:
#      x y z
#    x 1.756500 0.000000 -0.004050 
#    y 0.000000 1.777250 0.000000 
#    z -0.004050 0.000000 1.774660 
# 
# From -- ./inp_files/27505.got.cif
#   From: 2010.06.25/outbox.cif.g09.slc.cpg/sg15_14_cif.got.tgz:27505.got - 2010.06.28 07:06:18.
