data_PCOD8144319
_publ_section_title
;
Structure prediction by ZEFSAII (Michael W. Deem and Ramdas Pophale) SiO2 
 PCOD8144319
Probable space group: C 2/C
;
_chemical_formula_sum "Si O2"
_cell_formula_units_Z 52
_cell_length_a 10.759348
_cell_length_b 28.614311
_cell_length_c 8.299833
_cell_angle_alpha 90.000000
_cell_angle_beta 63.740497
_cell_angle_gamma 90.000000
_cell_volume 2291.574058
_symmetry_space_group_name_H-M "C 2/C"
_symmetry_group_IT_number 15
_symmetry_cell_setting 'monoclinic'
loop_
_space_group_symop_operation_xyz
x,y,z
-x,y,1/2-z
-x,-y,-z
x,-y,1/2+z
1/2+x,1/2+y,z
1/2-x,1/2+y,1/2-z
1/2-x,1/2-y,-z
1/2+x,1/2-y,1/2+z
loop_
_atom_site_type_symbol
_atom_site_label
_atom_site_fract_x
_atom_site_fract_y
_atom_site_fract_z
Si Si1 0.661017 0.810169 0.181026
Si Si2 0.253883 0.528236 0.714291
Si Si3 0.301783 0.066288 0.106231
Si Si4 0.500000 0.569532 0.750000
Si Si5 0.598637 0.891392 0.453135
Si Si6 0.802551 0.872790 0.589106
Si Si7 0.343403 0.707189 0.280306
O O1 0.500000 0.803919 0.250000
O O2 0.676736 0.853951 0.291932
O O3 0.712877 0.759898 0.220087
O O4 0.744563 0.819108 0.967667
O O5 0.242433 0.544866 0.537441
O O6 0.192230 0.476060 0.766931
O O7 0.412007 0.534894 0.685236
O O8 0.157625 0.557907 0.884664
O O9 0.184526 0.099730 0.248237
O O10 0.435592 0.100763 0.018500
O O11 0.591674 0.605415 0.596824
O O12 0.644917 0.876986 0.607602
O O13 0.835204 0.819014 0.612682
O O14 0.500000 0.706408 0.250000
#
# Coordination Sequence:
#
# PCOD8144319 Si02
#       7
#     8   8   8   4   8   8   8
#     4  10  21  42  67  98 139 178 228 284 342 405
#     4  11  24  42  66  97 133 177 219 276 335 408
#     4  12  25  42  68  96 130 180 224 282 343 405
#     4  10  26  44  62  98 136 176 224 280 340 400
#     4  11  23  41  66  96 135 174 225 277 338 399
#     4  11  25  40  64  96 134 175 228 281 336 407
#     4  10  23  40  68 102 133 181 232 279 344 417
#
# _framework density 22.691824
#
# number of rings (size 3 to 8) (size 9 to 14) (size 15 to 20)
#    0.000    1.231    0.000    6.000    6.462    4.308 
#    0.000    0.000    3.385    0.000    0.000    0.000 
#    0.000    0.000    0.000    0.000    0.000    0.000 
#
# Total GULP energy -322170.477441 kJ/mol
# GULP energy per Si atom -12391.172209 kJ/mol
# Density = 2.264018 g / cm^3
# Si number density = 22.691824 Si / 1000 Ang^3
#
#
#
# Elastic Constant Matrix: (Units=GPa)
#
#
# Indices 1 2 3 4 5 6 
#
# 1 90.7764 17.9729 40.6193 0.0000 -3.2399 0.0000
# 2 17.9729 108.5563 36.7770 0.0000 -0.0474 0.0000
# 3 40.6193 36.7770 101.4423 0.0000 -1.8020 0.0000
# 4 0.0000 0.0000 0.0000 47.0882 0.0000 0.3053
# 5 -3.2399 -0.0474 -1.8020 0.0000 33.5813 0.0000
# 6 0.0000 0.0000 0.0000 0.3053 0.0000 27.5466
#
#
#
# Elastic Compliance Matrix: (Units=1/GPa)
#
#
# Indices 1 2 3 4 5 6 
#
# 1 0.013475 -0.000466 -0.005209 0.000000 0.001020 0.000000
# 2 -0.000466 0.010519 -0.003631 0.000000 -0.000225 0.000000
# 3 -0.005209 -0.003631 0.013264 0.000000 0.000204 0.000000
# 4 0.000000 0.000000 0.000000 0.021238 0.000000 -0.000235
# 5 0.001020 -0.000225 0.000204 0.000000 0.029888 0.000000
# 6 0.000000 0.000000 0.000000 -0.000235 0.000000 0.036305
#
#
# Mechanical properties :
#
#
# Convention : Reuss Voigt Hill
#
# Bulk Modulus (GPa) = 53.62923 54.61260 54.12091
# Shear Modulus (GPa) = 33.44135 35.33692 34.38913
#
# Velocity S-wave (km/s) = 3.84307 3.95049 3.89715
# Velocity P-wave (km/s) = 6.58614 6.70282 6.64474
#
# Compressibility (1/GPa) = 0.01864655
#
# Stress axis : x y z
#
# Youngs Moduli (GPa) = 74.20882 95.06632 75.39478
#
# Poissons Ratio (x) = 0.04430 0.39271
# Poissons Ratio (y) = 0.03458 0.27376
# Poissons Ratio (z) = 0.38654 0.34518
#
# Static dielectric constant tensor:
#      x y z
#    x 4.112970 0.000000 -0.099830 
#    y 0.000000 4.586720 0.000000 
#    z -0.099830 0.000000 5.035660 
# 
# 
# High freq. dielectric constant tensor:
#      x y z
#    x 1.876510 0.000000 -0.006060 
#    y 0.000000 1.913450 0.000000 
#    z -0.006060 0.000000 1.903080 
# 
# From -- ./inp_files/34106.got.cif
#   From: 2010.06.25/outbox.cif.g09.slc.cpg/sg15_18_cif.got.tgz:34106.got - 2010.06.28 07:06:18.
