data_PCOD8144797
_publ_section_title
;
Structure prediction by ZEFSAII (Michael W. Deem and Ramdas Pophale) SiO2 
 PCOD8144797
Probable space group: C 2/C
;
_chemical_formula_sum "Si O2"
_cell_formula_units_Z 48
_cell_length_a 12.812164
_cell_length_b 18.593910
_cell_length_c 9.560637
_cell_angle_alpha 90.000000
_cell_angle_beta 90.399395
_cell_angle_gamma 90.000000
_cell_volume 2277.558240
_symmetry_space_group_name_H-M "C 2/C"
_symmetry_group_IT_number 15
_symmetry_cell_setting 'monoclinic'
loop_
_space_group_symop_operation_xyz
x,y,z
-x,y,1/2-z
-x,-y,-z
x,-y,1/2+z
1/2+x,1/2+y,z
1/2-x,1/2+y,1/2-z
1/2-x,1/2-y,-z
1/2+x,1/2-y,1/2+z
loop_
_atom_site_type_symbol
_atom_site_label
_atom_site_fract_x
_atom_site_fract_y
_atom_site_fract_z
Si Si1 0.039884 0.403290 0.900447
Si Si2 0.159304 0.463128 0.513507
Si Si3 0.399095 0.633798 0.336287
Si Si4 0.790343 0.992856 0.263345
Si Si5 0.600373 0.640030 0.841948
Si Si6 0.201401 0.720058 0.359936
O O1 0.098156 0.327342 0.890706
O O2 0.000000 0.431416 0.750000
O O3 0.932758 0.402797 0.992761
O O4 0.118313 0.457619 0.975070
O O5 0.245557 0.448214 0.395812
O O6 0.205168 0.463523 0.671452
O O7 0.500000 0.658396 0.250000
O O8 0.378324 0.548752 0.316069
O O9 0.426724 0.653003 0.496164
O O10 0.293971 0.676167 0.283033
O O11 0.833260 0.932537 0.160174
O O12 0.500000 0.625589 0.750000
O O13 0.661116 0.709319 0.776693
O O14 0.250000 0.750000 0.500000
#
# Coordination Sequence:
#
# PCOD8144797 Si02
#       6
#     8   8   8   8   8   8
#     4  11  20  38  65  93 129 171 203 261 322 376
#     4  11  22  36  64 100 125 165 213 253 319 377
#     4  11  24  43  69  90 127 172 213 259 327 379
#     4  12  22  42  63  97 133 163 209 270 313 375
#     4  11  25  42  66  95 128 169 214 264 318 380
#     4  10  21  45  64  87 133 173 207 262 325 375
#
# _framework density 21.075202000000001
#
# number of rings (size 3 to 8) (size 9 to 14) (size 15 to 20)
#    0.000    1.000    5.000    2.000    2.333    1.333 
#    6.000    0.833    0.000    0.000    0.000    0.000 
#    0.000    0.000    0.000    0.000    0.000    0.000 
#
# Total GULP energy -297453.463449 kJ/mol
# GULP energy per Si atom -12393.894310 kJ/mol
# Density = 2.102723 g / cm^3
# Si number density = 21.075202 Si / 1000 Ang^3
#
#
#
# Elastic Constant Matrix: (Units=GPa)
#
#
# Indices 1 2 3 4 5 6 
#
# 1 116.9580 51.7556 35.0890 0.0000 -9.9188 0.0000
# 2 51.7556 104.1711 8.9806 0.0000 -8.5188 0.0000
# 3 35.0890 8.9806 81.2596 0.0000 -2.3563 0.0000
# 4 0.0000 0.0000 0.0000 23.6983 0.0000 0.5120
# 5 -9.9188 -8.5188 -2.3563 0.0000 40.3990 0.0000
# 6 0.0000 0.0000 0.0000 0.5120 0.0000 30.5174
#
#
#
# Elastic Compliance Matrix: (Units=1/GPa)
#
#
# Indices 1 2 3 4 5 6 
#
# 1 0.012668 -0.005749 -0.004788 0.000000 0.001619 0.000000
# 2 -0.005749 0.012462 0.001142 0.000000 0.001283 0.000000
# 3 -0.004788 0.001142 0.014244 0.000000 -0.000104 0.000000
# 4 0.000000 0.000000 0.000000 0.042212 0.000000 -0.000708
# 5 0.001619 0.001283 -0.000104 0.000000 0.025415 0.000000
# 6 0.000000 0.000000 0.000000 -0.000708 0.000000 0.032780
#
#
# Mechanical properties :
#
#
# Convention : Reuss Voigt Hill
#
# Bulk Modulus (GPa) = 48.57690 54.89321 51.73506
# Shear Modulus (GPa) = 30.22396 32.69385 31.45891
#
# Velocity S-wave (km/s) = 3.79106 3.94292 3.86774
# Velocity P-wave (km/s) = 6.50094 6.84337 6.67435
#
# Compressibility (1/GPa) = 0.02058592
#
# Stress axis : x y z
#
# Youngs Moduli (GPa) = 78.94185 80.24334 70.20299
#
# Poissons Ratio (x) = 0.46128 0.33612
# Poissons Ratio (y) = 0.45380 -0.08019
# Poissons Ratio (z) = 0.37795 -0.09166
#
# Static dielectric constant tensor:
#      x y z
#    x 4.399690 0.000000 -0.311980 
#    y 0.000000 1.948330 0.000000 
#    z -0.311980 0.000000 3.944010 
# 
# 
# High freq. dielectric constant tensor:
#      x y z
#    x 1.841500 0.000000 0.009900 
#    y 0.000000 1.813230 0.000000 
#    z 0.009900 0.000000 1.809490 
# 
# From -- ./inp_files/39614.got.cif
#   From: 2010.06.25/outbox.cif.g09.slc.cpg/sg15_20_cif.got.tgz:39614.got - 2010.06.28 07:06:18.
