data_PCOD8144244
_publ_section_title
;
Structure prediction by ZEFSAII (Michael W. Deem and Ramdas Pophale) SiO2 
 PCOD8144244
Probable space group: C 2/C
;
_chemical_formula_sum "Si O2"
_cell_formula_units_Z 40
_cell_length_a 17.349090
_cell_length_b 9.859476
_cell_length_c 14.766650
_cell_angle_alpha 90.000000
_cell_angle_beta 47.782638
_cell_angle_gamma 90.000000
_cell_volume 1870.668435
_symmetry_space_group_name_H-M "C 2/C"
_symmetry_group_IT_number 15
_symmetry_cell_setting 'monoclinic'
loop_
_space_group_symop_operation_xyz
x,y,z
-x,y,1/2-z
-x,-y,-z
x,-y,1/2+z
1/2+x,1/2+y,z
1/2-x,1/2+y,1/2-z
1/2-x,1/2-y,-z
1/2+x,1/2-y,1/2+z
loop_
_atom_site_type_symbol
_atom_site_label
_atom_site_fract_x
_atom_site_fract_y
_atom_site_fract_z
Si Si1 0.805251 0.567046 0.709145
Si Si2 0.387550 0.814244 0.309428
Si Si3 0.265386 0.065914 0.064732
Si Si4 0.618031 0.680676 0.630584
Si Si5 0.266841 0.323662 0.631503
O O1 0.898936 0.603741 0.704891
O O2 0.835209 0.478062 0.597144
O O3 0.725066 0.473043 0.830556
O O4 0.754556 0.708937 0.718282
O O5 0.500000 0.756410 0.250000
O O6 0.345925 0.914021 0.420051
O O7 0.302502 0.698301 0.360715
O O8 0.183036 0.950484 0.107236
O O9 0.500000 0.658646 0.750000
O O10 0.630293 0.701198 0.512048
O O11 0.665427 0.811008 0.645713
#
# Coordination Sequence:
#
# PCOD8144244 Si02
#       5
#     8   8   8   8   8
#     4  11  21  43  64  92 133 170 212 270 325 386
#     4  11  23  40  65  96 132 171 215 271 328 381
#     4  10  22  42  64  91 132 170 214 267 323 392
#     4  10  21  42  66  90 124 172 219 264 323 388
#     4  10  22  41  63  93 128 169 213 271 323 382
#
# _framework density 21.382731
#
# number of rings (size 3 to 8) (size 9 to 14) (size 15 to 20)
#    0.000    1.600    4.000    0.600    0.000    1.600 
#    3.600    4.000    0.000    0.000    0.000    0.000 
#    0.000    0.000    0.000    0.000    0.000    0.000 
#
# Total GULP energy -247764.347227 kJ/mol
# GULP energy per Si atom -12388.217361 kJ/mol
# Density = 2.133406 g / cm^3
# Si number density = 21.382731 Si / 1000 Ang^3
#
#
#
# Elastic Constant Matrix: (Units=GPa)
#
#
# Indices 1 2 3 4 5 6 
#
# 1 93.2399 33.2871 52.2284 0.0000 24.8369 0.0000
# 2 33.2871 91.5408 42.7791 0.0000 17.1017 0.0000
# 3 52.2284 42.7791 96.2005 0.0000 13.0980 0.0000
# 4 0.0000 0.0000 0.0000 25.6450 0.0000 12.4537
# 5 24.8369 17.1017 13.0980 0.0000 41.1606 0.0000
# 6 0.0000 0.0000 0.0000 12.4537 0.0000 32.5794
#
#
#
# Elastic Compliance Matrix: (Units=1/GPa)
#
#
# Indices 1 2 3 4 5 6 
#
# 1 0.017685 -0.001272 -0.008001 0.000000 -0.007596 0.000000
# 2 -0.001272 0.014524 -0.005280 0.000000 -0.003587 0.000000
# 3 -0.008001 -0.005280 0.016861 0.000000 0.001656 0.000000
# 4 0.000000 0.000000 0.000000 0.047882 0.000000 -0.018303
# 5 -0.007596 -0.003587 0.001656 0.000000 0.029842 0.000000
# 6 0.000000 0.000000 0.000000 -0.018303 0.000000 0.037691
#
#
# Mechanical properties :
#
#
# Convention : Reuss Voigt Hill
#
# Bulk Modulus (GPa) = 50.09079 59.73005 54.91042
# Shear Modulus (GPa) = 24.96933 30.05611 27.51272
#
# Velocity S-wave (km/s) = 3.42092 3.75323 3.59092
# Velocity P-wave (km/s) = 6.25142 6.83936 6.55199
#
# Compressibility (1/GPa) = 0.01996375
#
# Stress axis : x y z
#
# Youngs Moduli (GPa) = 56.54641 68.85109 59.30818
#
# Poissons Ratio (x) = 0.08761 0.47453
# Poissons Ratio (y) = 0.07195 0.31312
# Poissons Ratio (z) = 0.45243 0.36350
#
# Static dielectric constant tensor:
#      x y z
#    x 3.868690 0.000000 0.567730 
#    y 0.000000 4.043740 0.000000 
#    z 0.567730 0.000000 3.921610 
# 
# 
# High freq. dielectric constant tensor:
#      x y z
#    x 1.817980 0.000000 0.046110 
#    y 0.000000 1.856960 0.000000 
#    z 0.046110 0.000000 1.825690 
# 
# From -- ./inp_files/160204.got.cif
#   From: 2010.06.25/outbox.cif.g09.slc.cpg/sg15_81_cif.got.tgz:160204.got - 2010.06.28 07:06:18.
