data_PCOD8144930
_publ_section_title
;
Structure prediction by ZEFSAII (Michael W. Deem and Ramdas Pophale) SiO2 
 PCOD8144930
Probable space group: C 2/C
;
_chemical_formula_sum "Si O2"
_cell_formula_units_Z 52
_cell_length_a 7.753438
_cell_length_b 28.802775
_cell_length_c 10.911795
_cell_angle_alpha 90.000000
_cell_angle_beta 89.529235
_cell_angle_gamma 90.000000
_cell_volume 2436.745591
_symmetry_space_group_name_H-M "C 2/C"
_symmetry_group_IT_number 15
_symmetry_cell_setting 'monoclinic'
loop_
_space_group_symop_operation_xyz
x,y,z
-x,y,1/2-z
-x,-y,-z
x,-y,1/2+z
1/2+x,1/2+y,z
1/2-x,1/2+y,1/2-z
1/2-x,1/2-y,-z
1/2+x,1/2-y,1/2+z
loop_
_atom_site_type_symbol
_atom_site_label
_atom_site_fract_x
_atom_site_fract_y
_atom_site_fract_z
Si Si1 0.990643 0.445296 0.999953
Si Si2 0.000000 0.234897 0.750000
Si Si3 0.204079 0.111950 0.378329
Si Si4 0.000000 0.253214 0.250000
Si Si5 0.500000 0.100097 0.750000
Si Si6 0.306323 0.614859 0.408480
Si Si7 0.282036 0.788337 0.902981
Si Si8 0.289107 0.823855 0.372325
O O1 0.937410 0.431186 0.137489
O O2 0.834355 0.429225 0.912330
O O3 0.000000 0.500000 0.000000
O O4 0.176059 0.425058 0.956018
O O5 0.968360 0.272195 0.857415
O O6 0.852933 0.200200 0.709629
O O7 0.226536 0.123468 0.234510
O O8 0.270273 0.158542 0.449263
O O9 0.008154 0.099673 0.420644
O O10 0.851269 0.218395 0.208917
O O11 0.947805 0.286820 0.366949
O O12 0.661437 0.129933 0.701956
O O13 0.271064 0.661842 0.489467
O O14 0.250000 0.750000 0.000000
#
# Coordination Sequence:
#
# PCOD8144930 Si02
#       8
#     8   4   8   4   4   8   8   8
#     4  11  26  45  74  96 127 165 216 281 342 405
#     4  10  22  34  59  94 128 174 227 252 312 378
#     4  11  25  43  67  95 139 170 217 270 325 394
#     4   9  20  38  56  88 134 170 224 264 300 379
#     4   9  22  40  67  94 124 168 217 266 346 387
#     4  10  23  43  68  98 130 173 215 266 339 387
#     4  11  24  37  58  93 130 176 218 260 313 378
#     4   9  19  37  63  90 131 174 219 264 312 381
#
# _framework density 21.339939000000001
#
# number of rings (size 3 to 8) (size 9 to 14) (size 15 to 20)
#    0.000    1.846    0.000    2.308   15.077    0.615 
#    0.000    3.846    0.000    0.000    0.000    0.000 
#    0.000    0.000    0.000    0.000    0.000    0.000 
#
# Total GULP energy -322093.894083 kJ/mol
# GULP energy per Si atom -12388.226696 kJ/mol
# Density = 2.129137 g / cm^3
# Si number density = 21.339939 Si / 1000 Ang^3
#
#
#
# Elastic Constant Matrix: (Units=GPa)
#
#
# Indices 1 2 3 4 5 6 
#
# 1 104.7583 53.4762 33.3250 0.0000 -14.5002 0.0000
# 2 53.4762 127.4043 19.9327 0.0000 4.6797 0.0000
# 3 33.3250 19.9327 85.6250 0.0000 -14.0451 0.0000
# 4 0.0000 0.0000 0.0000 22.0148 0.0000 4.2974
# 5 -14.5002 4.6797 -14.0451 0.0000 31.2999 0.0000
# 6 0.0000 0.0000 0.0000 4.2974 0.0000 20.9962
#
#
#
# Elastic Compliance Matrix: (Units=1/GPa)
#
#
# Indices 1 2 3 4 5 6 
#
# 1 0.014345 -0.005733 -0.003257 0.000000 0.006041 0.000000
# 2 -0.005733 0.010584 -0.001002 0.000000 -0.004688 0.000000
# 3 -0.003257 -0.001002 0.013986 0.000000 0.004917 0.000000
# 4 0.000000 0.000000 0.000000 0.047314 0.000000 -0.009684
# 5 0.006041 -0.004688 0.004917 0.000000 0.037655 0.000000
# 6 0.000000 0.000000 0.000000 -0.009684 0.000000 0.049610
#
#
# Mechanical properties :
#
#
# Convention : Reuss Voigt Hill
#
# Bulk Modulus (GPa) = 52.82342 59.02838 55.92590
# Shear Modulus (GPa) = 25.02637 28.93243 26.97940
#
# Velocity S-wave (km/s) = 3.42826 3.68610 3.55951
# Velocity P-wave (km/s) = 6.36220 6.77034 6.56944
#
# Compressibility (1/GPa) = 0.01893100
#
# Stress axis : x y z
#
# Youngs Moduli (GPa) = 69.71129 94.47872 71.49887
#
# Poissons Ratio (x) = 0.54168 0.23290
# Poissons Ratio (y) = 0.39968 0.07161
# Poissons Ratio (z) = 0.22708 0.09462
#
# Static dielectric constant tensor:
#      x y z
#    x -18.256220 0.000000 -15.945880 
#    y 0.000000 3.755960 0.000000 
#    z -15.945880 0.000000 -7.023440 
# 
# 
# High freq. dielectric constant tensor:
#      x y z
#    x 1.845580 0.000000 -0.010440 
#    y 0.000000 1.820460 0.000000 
#    z -0.010440 0.000000 1.845080 
# 
# From -- ./inp_files/80766.got.cif
#   From: 2010.06.25/outbox.cif.g09.slc.cpg/sg15_41_cif.got.tgz:80766.got - 2010.06.28 07:06:18.
