data_PCOD8144858
_publ_section_title
;
Structure prediction by ZEFSAII (Michael W. Deem and Ramdas Pophale) SiO2 
 PCOD8144858
Probable space group: C 2/C
;
_chemical_formula_sum "Si O2"
_cell_formula_units_Z 52
_cell_length_a 15.526444
_cell_length_b 17.262642
_cell_length_c 15.145372
_cell_angle_alpha 90.000000
_cell_angle_beta 140.236273
_cell_angle_gamma 90.000000
_cell_volume 2596.470586
_symmetry_space_group_name_H-M "C 2/C"
_symmetry_group_IT_number 15
_symmetry_cell_setting 'monoclinic'
loop_
_space_group_symop_operation_xyz
x,y,z
-x,y,1/2-z
-x,-y,-z
x,-y,1/2+z
1/2+x,1/2+y,z
1/2-x,1/2+y,1/2-z
1/2-x,1/2-y,-z
1/2+x,1/2-y,1/2+z
loop_
_atom_site_type_symbol
_atom_site_label
_atom_site_fract_x
_atom_site_fract_y
_atom_site_fract_z
Si Si1 0.091579 0.947329 0.006861
Si Si2 0.287706 0.752414 0.388929
Si Si3 0.500000 0.598293 0.250000
Si Si4 0.151602 0.358857 0.900687
Si Si5 0.086992 0.223723 0.576029
Si Si6 0.243096 0.680369 0.062467
Si Si7 0.845323 0.467756 0.113035
O O1 0.046512 0.956331 0.868263
O O2 0.089007 0.858274 0.030329
O O3 0.251566 0.968699 0.128579
O O4 0.000000 0.000000 0.000000
O O5 0.247725 0.668048 0.395837
O O6 0.301374 0.814165 0.476550
O O7 0.167856 0.782771 0.231350
O O8 0.431797 0.747187 0.457174
O O9 0.392846 0.657299 0.209246
O O10 0.172702 0.447803 0.943778
O O11 0.000000 0.340357 0.750000
O O12 0.157282 0.293042 0.578065
O O13 0.250000 0.750000 0.000000
O O14 0.189049 0.600642 0.980346
O O15 0.000000 0.452542 0.250000
#
# Coordination Sequence:
#
# PCOD8144858 Si02
#       7
#     8   8   4   8   8   8   8
#     4  11  24  42  66  96 131 176 225 279 326 398
#     4  11  24  41  69  96 129 176 218 277 326 398
#     4  10  22  44  64  92 130 174 218 272 336 386
#     4  10  21  46  65  92 133 172 223 268 338 389
#     4  12  24  39  66 100 131 171 224 271 330 400
#     4  11  23  39  65  91 128 171 208 260 328 398
#     4  10  23  40  67  94 129 175 210 270 330 393
#
# _framework density 20.027186
#
# number of rings (size 3 to 8) (size 9 to 14) (size 15 to 20)
#    0.000    1.231    4.615    1.846    3.231    2.462 
#    0.000    0.769    0.000    0.000    0.000    0.000 
#    0.000    0.000    0.000    0.000    0.000    0.000 
#
# Total GULP energy -322146.792475 kJ/mol
# GULP energy per Si atom -12390.261249 kJ/mol
# Density = 1.998160 g / cm^3
# Si number density = 20.027186 Si / 1000 Ang^3
#
#
#
# Elastic Constant Matrix: (Units=GPa)
#
#
# Indices 1 2 3 4 5 6 
#
# 1 136.1176 43.7748 37.4178 -0.0001 22.7220 -0.0001
# 2 43.7748 92.4268 57.4114 0.0000 0.8486 -0.0001
# 3 37.4178 57.4114 77.3098 -0.0001 3.9521 0.0000
# 4 -0.0001 0.0000 -0.0001 17.9770 -0.0002 8.2270
# 5 22.7220 0.8486 3.9521 -0.0002 44.8148 0.0000
# 6 -0.0001 -0.0001 0.0000 8.2270 0.0000 41.0864
#
#
#
# Elastic Compliance Matrix: (Units=1/GPa)
#
#
# Indices 1 2 3 4 5 6 
#
# 1 0.009755 -0.003329 -0.002008 0.000000 -0.004706 0.000000
# 2 -0.003329 0.021259 -0.014306 0.000000 0.002547 0.000000
# 3 -0.002008 -0.014306 0.024576 0.000000 -0.000878 0.000000
# 4 0.000000 0.000000 0.000000 0.061238 0.000000 -0.012262
# 5 -0.004706 0.002547 -0.000878 0.000000 0.024729 0.000000
# 6 0.000000 0.000000 0.000000 -0.012262 0.000000 0.026794
#
#
# Mechanical properties :
#
#
# Convention : Reuss Voigt Hill
#
# Bulk Modulus (GPa) = 61.34161 64.78471 63.06316
# Shear Modulus (GPa) = 23.46606 31.92567 27.69586
#
# Velocity S-wave (km/s) = 3.42674 3.99697 3.72279
# Velocity P-wave (km/s) = 6.80826 7.32937 7.07361
#
# Compressibility (1/GPa) = 0.01630215
#
# Stress axis : x y z
#
# Youngs Moduli (GPa) = 102.51248 47.03839 40.69025
#
# Poissons Ratio (x) = 0.15661 0.08172
# Poissons Ratio (y) = 0.34130 0.58212
# Poissons Ratio (z) = 0.20588 0.67294
#
# Static dielectric constant tensor:
#      x y z
#    x 4.183510 0.000000 0.329840 
#    y 0.000000 3.740500 0.000000 
#    z 0.329840 0.000000 3.849040 
# 
# 
# High freq. dielectric constant tensor:
#      x y z
#    x 1.792620 0.000000 0.019270 
#    y 0.000000 1.788070 0.000000 
#    z 0.019270 0.000000 1.784180 
# 
# From -- ./inp_files/155538.got.cif
#   From: 2010.06.25/outbox.cif.g09.slc.cpg/sg15_78_cif.got.tgz:155538.got - 2010.06.28 07:06:18.
