data_PCOD8144552
_publ_section_title
;
Structure prediction by ZEFSAII (Michael W. Deem and Ramdas Pophale) SiO2 
 PCOD8144552
Probable space group: C 2/C
;
_chemical_formula_sum "Si O2"
_cell_formula_units_Z 60
_cell_length_a 22.308954
_cell_length_b 14.471962
_cell_length_c 9.118737
_cell_angle_alpha 90.000000
_cell_angle_beta 104.017332
_cell_angle_gamma 90.000000
_cell_volume 2856.358100
_symmetry_space_group_name_H-M "C 2/C"
_symmetry_group_IT_number 15
_symmetry_cell_setting 'monoclinic'
loop_
_space_group_symop_operation_xyz
x,y,z
-x,y,1/2-z
-x,-y,-z
x,-y,1/2+z
1/2+x,1/2+y,z
1/2-x,1/2+y,1/2-z
1/2-x,1/2-y,-z
1/2+x,1/2-y,1/2+z
loop_
_atom_site_type_symbol
_atom_site_label
_atom_site_fract_x
_atom_site_fract_y
_atom_site_fract_z
Si Si1 0.934168 0.891667 0.955376
Si Si2 0.642102 0.068926 0.652034
Si Si3 0.808059 0.171037 0.376120
Si Si4 0.000000 0.001665 0.750000
Si Si5 0.976191 0.693215 0.896003
Si Si6 0.321445 0.169828 0.105376
Si Si7 0.396734 0.859306 0.906171
Si Si8 0.810547 0.704566 0.608032
O O1 0.859990 0.907500 0.926217
O O2 0.954098 0.938163 0.815639
O O3 0.952393 0.783614 0.966537
O O4 0.962676 0.935384 0.116427
O O5 0.577956 0.119178 0.651874
O O6 0.664904 0.089450 0.501946
O O7 0.692952 0.105523 0.804295
O O8 0.630495 0.960535 0.645410
O O9 0.737227 0.135911 0.327902
O O10 0.808832 0.234213 0.520002
O O11 0.831343 0.223326 0.244151
O O12 0.000000 0.721121 0.750000
O O13 0.030372 0.643890 0.022693
O O14 0.379730 0.192073 0.244934
O O15 0.362985 0.805662 0.017607
O O16 0.750000 0.750000 0.500000
#
# Coordination Sequence:
#
# PCOD8144552 Si02
#       8
#     8   8   8   4   8   8   8   8
#     4  11  22  46  66  95 128 169 218 274 337 384
#     4  11  24  44  62 100 141 164 215 280 321 388
#     4  10  21  43  67  90 126 169 222 266 318 396
#     4  10  26  42  68  96 130 160 220 294 322 386
#     4  12  23  41  71  94 132 181 215 261 339 413
#     4  10  22  39  64  94 126 168 212 273 316 382
#     4  12  24  39  67 102 131 175 217 270 328 394
#     4  11  21  42  68  90 124 180 222 254 319 395
#
# _framework density 21.005769000000001
#
# number of rings (size 3 to 8) (size 9 to 14) (size 15 to 20)
#    0.000    1.067    6.000    1.200    1.867    0.533 
#    2.400    0.000    0.000    0.000    0.000    0.000 
#    0.000    0.000    0.000    0.000    0.000    0.000 
#
# Total GULP energy -371751.051073 kJ/mol
# GULP energy per Si atom -12391.701702 kJ/mol
# Density = 2.095796 g / cm^3
# Si number density = 21.005769 Si / 1000 Ang^3
#
#
#
# Elastic Constant Matrix: (Units=GPa)
#
#
# Indices 1 2 3 4 5 6 
#
# 1 113.2432 32.6280 38.2873 0.0000 9.7138 0.0000
# 2 32.6280 55.9921 26.1381 0.0000 7.6453 0.0000
# 3 38.2873 26.1381 120.8487 0.0000 5.2537 0.0000
# 4 0.0000 0.0000 0.0000 15.4981 0.0000 3.4304
# 5 9.7138 7.6453 5.2537 0.0000 36.1334 0.0000
# 6 0.0000 0.0000 0.0000 3.4304 0.0000 7.3100
#
#
#
# Elastic Compliance Matrix: (Units=1/GPa)
#
#
# Indices 1 2 3 4 5 6 
#
# 1 0.011280 -0.005252 -0.002369 0.000000 -0.001577 0.000000
# 2 -0.005252 0.022787 -0.003136 0.000000 -0.002954 0.000000
# 3 -0.002369 -0.003136 0.009709 0.000000 -0.000111 0.000000
# 4 0.000000 0.000000 0.000000 0.072003 0.000000 -0.033790
# 5 -0.001577 -0.002954 -0.000111 0.000000 0.028740 0.000000
# 6 0.000000 0.000000 0.000000 -0.033790 0.000000 0.152657
#
#
# Mechanical properties :
#
#
# Convention : Reuss Voigt Hill
#
# Bulk Modulus (GPa) = 44.92133 53.79897 49.36015
# Shear Modulus (GPa) = 15.33218 24.65699 19.99459
#
# Velocity S-wave (km/s) = 2.70460 3.42982 3.08857
# Velocity P-wave (km/s) = 5.58434 6.43055 6.02233
#
# Compressibility (1/GPa) = 0.02226114
#
# Stress axis : x y z
#
# Youngs Moduli (GPa) = 88.65225 43.88382 103.00116
#
# Poissons Ratio (x) = 0.23047 0.24404
# Poissons Ratio (y) = 0.46559 0.32305
# Poissons Ratio (z) = 0.21004 0.13764
#
# Static dielectric constant tensor:
#      x y z
#    x 4.067970 0.000000 0.118770 
#    y 0.000000 3.631170 0.000000 
#    z 0.118770 0.000000 4.156050 
# 
# 
# High freq. dielectric constant tensor:
#      x y z
#    x 1.828220 0.000000 -0.001080 
#    y 0.000000 1.800270 0.000000 
#    z -0.001080 0.000000 1.843950 
# 
# From -- ./inp_files/61964.got.cif
#   From: 2010.06.25/outbox.cif.g09.slc.cpg/sg15_31_cif.got.tgz:61964.got - 2010.06.28 07:06:18.
