data_PCOD8144298
_publ_section_title
;
Structure prediction by ZEFSAII (Michael W. Deem and Ramdas Pophale) SiO2 
 PCOD8144298
Probable space group: C 2/C
;
_chemical_formula_sum "Si O2"
_cell_formula_units_Z 60
_cell_length_a 20.152919
_cell_length_b 7.595599
_cell_length_c 18.375829
_cell_angle_alpha 90.000000
_cell_angle_beta 83.924874
_cell_angle_gamma 90.000000
_cell_volume 2797.055277
_symmetry_space_group_name_H-M "C 2/C"
_symmetry_group_IT_number 15
_symmetry_cell_setting 'monoclinic'
loop_
_space_group_symop_operation_xyz
x,y,z
-x,y,1/2-z
-x,-y,-z
x,-y,1/2+z
1/2+x,1/2+y,z
1/2-x,1/2+y,1/2-z
1/2-x,1/2-y,-z
1/2+x,1/2-y,1/2+z
loop_
_atom_site_type_symbol
_atom_site_label
_atom_site_fract_x
_atom_site_fract_y
_atom_site_fract_z
Si Si1 0.608925 0.041724 0.740396
Si Si2 0.077218 0.269671 0.100727
Si Si3 0.916260 0.868946 0.380667
Si Si4 0.799216 0.419880 0.494876
Si Si5 0.960677 0.818838 0.522010
Si Si6 0.158844 0.321564 0.383028
Si Si7 0.209294 0.355778 0.637089
Si Si8 0.000000 0.744049 0.250000
O O1 0.571094 0.164012 0.684942
O O2 0.616198 0.125008 0.818041
O O3 0.681966 0.998674 0.697960
O O4 0.564816 0.870277 0.760530
O O5 0.130315 0.375190 0.048401
O O6 0.007477 0.303368 0.066462
O O7 0.098898 0.067183 0.094679
O O8 0.942388 0.745300 0.444160
O O9 0.847139 0.793137 0.360533
O O10 0.978086 0.871713 0.317669
O O11 0.750000 0.250000 0.500000
O O12 0.814887 0.510803 0.571446
O O13 0.769207 0.565972 0.444026
O O14 0.887913 0.820623 0.569547
O O15 0.000000 0.000000 0.500000
O O16 0.222904 0.226652 0.341083
#
# Coordination Sequence:
#
# PCOD8144298 Si02
#       8
#     8   8   8   8   8   8   8   4
#     4  10  24  43  62  98 128 174 214 276 325 402
#     4  10  23  42  62  92 137 159 219 274 328 387
#     4  10  21  42  67  93 129 174 216 276 327 401
#     4  11  24  39  66  96 126 170 214 273 329 394
#     4  10  23  38  65  98 126 169 218 273 323 398
#     4  12  24  41  70  91 133 179 219 270 342 395
#     4  10  23  43  64  91 131 167 218 270 326 397
#     4  10  22  40  66  90 136 170 220 256 342 386
#
# _framework density 21.451131
#
# number of rings (size 3 to 8) (size 9 to 14) (size 15 to 20)
#    0.000    1.600    1.333    2.000    5.600    6.400 
#    0.000    4.000    0.000    0.000    0.000    0.000 
#    0.000    0.000    0.000    0.000    0.000    0.000 
#
# Total GULP energy -371659.493978 kJ/mol
# GULP energy per Si atom -12388.649799 kJ/mol
# Density = 2.140231 g / cm^3
# Si number density = 21.451131 Si / 1000 Ang^3
#
#
#
# Elastic Constant Matrix: (Units=GPa)
#
#
# Indices 1 2 3 4 5 6 
#
# 1 104.5297 11.9356 26.1293 0.0000 -6.0481 0.0000
# 2 11.9356 51.6587 5.3112 0.0000 -1.1698 0.0000
# 3 26.1293 5.3112 101.6620 0.0000 -0.9031 0.0000
# 4 0.0000 0.0000 0.0000 15.5728 0.0000 -5.0307
# 5 -6.0481 -1.1698 -0.9031 0.0000 29.5831 0.0000
# 6 0.0000 0.0000 0.0000 -5.0307 0.0000 31.2077
#
#
#
# Elastic Compliance Matrix: (Units=1/GPa)
#
#
# Indices 1 2 3 4 5 6 
#
# 1 0.010573 -0.002131 -0.002588 0.000000 0.001998 0.000000
# 2 -0.002131 0.019908 -0.000489 0.000000 0.000337 0.000000
# 3 -0.002588 -0.000489 0.010525 0.000000 -0.000227 0.000000
# 4 0.000000 0.000000 0.000000 0.067742 0.000000 0.010920
# 5 0.001998 0.000337 -0.000227 0.000000 0.034218 0.000000
# 6 0.000000 0.000000 0.000000 0.010920 0.000000 0.033804
#
#
# Mechanical properties :
#
#
# Convention : Reuss Voigt Hill
#
# Bulk Modulus (GPa) = 32.69234 38.28918 35.49076
# Shear Modulus (GPa) = 25.33130 29.57101 27.45115
#
# Velocity S-wave (km/s) = 3.44013 3.71688 3.58118
# Velocity P-wave (km/s) = 5.57250 6.02566 5.80350
#
# Compressibility (1/GPa) = 0.03058820
#
# Stress axis : x y z
#
# Youngs Moduli (GPa) = 94.58373 50.23054 95.00913
#
# Poissons Ratio (x) = 0.10706 0.24591
# Poissons Ratio (y) = 0.20160 0.04648
# Poissons Ratio (z) = 0.24481 0.02458
#
# Static dielectric constant tensor:
#      x y z
#    x 4.001200 0.000000 0.038430 
#    y 0.000000 3.763240 0.000000 
#    z 0.038430 0.000000 4.190960 
# 
# 
# High freq. dielectric constant tensor:
#      x y z
#    x 1.854230 0.000000 -0.005340 
#    y 0.000000 1.827370 0.000000 
#    z -0.005340 0.000000 1.848730 
# 
# From -- ./inp_files/209578.got.cif
#   From: 2010.06.25/outbox.cif.g09.slc.cpg/sg15_105_cif.got.tgz:209578.got - 2010.06.28 07:06:18.
