data_PCOD8144630
_publ_section_title
;
Structure prediction by ZEFSAII (Michael W. Deem and Ramdas Pophale) SiO2 
 PCOD8144630
Probable space group: C 2/C
;
_chemical_formula_sum "Si O2"
_cell_formula_units_Z 48
_cell_length_a 9.570178
_cell_length_b 16.095007
_cell_length_c 21.155388
_cell_angle_alpha 90.000000
_cell_angle_beta 132.749529
_cell_angle_gamma 90.000000
_cell_volume 2392.887723
_symmetry_space_group_name_H-M "C 2/C"
_symmetry_group_IT_number 15
_symmetry_cell_setting 'monoclinic'
loop_
_space_group_symop_operation_xyz
x,y,z
-x,y,1/2-z
-x,-y,-z
x,-y,1/2+z
1/2+x,1/2+y,z
1/2-x,1/2+y,1/2-z
1/2-x,1/2-y,-z
1/2+x,1/2-y,1/2+z
loop_
_atom_site_type_symbol
_atom_site_label
_atom_site_fract_x
_atom_site_fract_y
_atom_site_fract_z
Si Si1 0.304765 0.386200 0.832911
Si Si2 0.912567 0.597135 0.791333
Si Si3 0.035192 0.277346 0.426350
Si Si4 0.529306 0.078240 0.355892
Si Si5 0.602135 0.913057 0.018396
Si Si6 0.986545 0.965644 0.319347
O O1 0.400722 0.301959 0.884491
O O2 0.214927 0.424892 0.868700
O O3 0.458414 0.450374 0.851584
O O4 0.140093 0.369975 0.730046
O O5 0.682804 0.600626 0.719501
O O6 0.000000 0.584052 0.750000
O O7 0.005367 0.678276 0.849948
O O8 0.962015 0.516085 0.848000
O O9 0.250000 0.250000 0.500000
O O10 0.982982 0.339325 0.466299
O O11 0.574857 0.117032 0.437836
O O12 0.824476 0.919992 0.100489
O O13 0.500000 0.000000 0.000000
O O14 0.000000 0.990445 0.250000
#
# Coordination Sequence:
#
# PCOD8144630 Si02
#       6
#     8   8   8   8   8   8
#     4  10  23  42  64  97 136 169 217 280 345 385
#     4  11  22  44  69  98 130 180 229 267 337 413
#     4  12  27  42  63 100 139 170 221 296 341 383
#     4  10  21  43  70  93 132 178 223 272 329 413
#     4  12  23  40  70 100 132 176 232 274 328 415
#     4  11  21  40  71  98 128 182 227 274 333 406
#
# _framework density 20.059446000000001
#
# number of rings (size 3 to 8) (size 9 to 14) (size 15 to 20)
#    0.000    1.000    6.667    2.000    0.000    7.333 
#    0.000    0.000    0.000    0.000    0.000    0.000 
#    0.000    0.000    0.000    0.000    0.000    0.000 
#
# Total GULP energy -297639.313882 kJ/mol
# GULP energy per Si atom -12401.638078 kJ/mol
# Density = 2.001379 g / cm^3
# Si number density = 20.059446 Si / 1000 Ang^3
#
#
#
# Elastic Constant Matrix: (Units=GPa)
#
#
# Indices 1 2 3 4 5 6 
#
# 1 137.4052 51.4341 70.3421 0.0000 7.8781 0.0000
# 2 51.4341 99.1597 60.7106 0.0000 18.5362 0.0000
# 3 70.3421 60.7106 128.2962 0.0000 6.1949 0.0000
# 4 0.0000 0.0000 0.0000 39.2774 0.0000 0.1218
# 5 7.8781 18.5362 6.1949 0.0000 43.3825 0.0000
# 6 0.0000 0.0000 0.0000 0.1218 0.0000 27.3016
#
#
#
# Elastic Compliance Matrix: (Units=1/GPa)
#
#
# Indices 1 2 3 4 5 6 
#
# 1 0.010621 -0.002709 -0.004535 0.000000 -0.000123 0.000000
# 2 -0.002709 0.016128 -0.005878 0.000000 -0.005560 0.000000
# 3 -0.004535 -0.005878 0.012991 0.000000 0.001480 0.000000
# 4 0.000000 0.000000 0.000000 0.025460 0.000000 -0.000114
# 5 -0.000123 -0.005560 0.001480 0.000000 0.025237 0.000000
# 6 0.000000 0.000000 0.000000 -0.000114 0.000000 0.036628
#
#
# Mechanical properties :
#
#
# Convention : Reuss Voigt Hill
#
# Bulk Modulus (GPa) = 74.10120 81.09276 77.59698
# Shear Modulus (GPa) = 31.68383 34.15056 32.91720
#
# Velocity S-wave (km/s) = 3.97860 4.13057 4.05530
# Velocity P-wave (km/s) = 7.62409 7.95379 7.79068
#
# Compressibility (1/GPa) = 0.01349506
#
# Stress axis : x y z
#
# Youngs Moduli (GPa) = 94.15663 62.00314 76.97608
#
# Poissons Ratio (x) = 0.16798 0.34909
# Poissons Ratio (y) = 0.25509 0.45247
# Poissons Ratio (z) = 0.42701 0.36446
#
# Static dielectric constant tensor:
#      x y z
#    x 4.212250 0.000000 0.466530 
#    y 0.000000 3.563070 0.000000 
#    z 0.466530 0.000000 4.323750 
# 
# 
# High freq. dielectric constant tensor:
#      x y z
#    x 1.801290 0.000000 -0.000950 
#    y 0.000000 1.764960 0.000000 
#    z -0.000950 0.000000 1.791170 
# 
# From -- ./inp_files/232878.got.cif
#   From: 2010.06.25/outbox.cif.g09.slc.cpg/sg15_117_cif.got.tgz:232878.got - 2010.06.28 07:06:18.
