data_PCOD8144062
_publ_section_title
;
Structure prediction by ZEFSAII (Michael W. Deem and Ramdas Pophale) SiO2 
 PCOD8144062
Probable space group: C 2/C
;
_chemical_formula_sum "Si O2"
_cell_formula_units_Z 48
_cell_length_a 10.152080
_cell_length_b 13.942946
_cell_length_c 25.126924
_cell_angle_alpha 90.000000
_cell_angle_beta 144.388295
_cell_angle_gamma 90.000000
_cell_volume 2071.035479
_symmetry_space_group_name_H-M "C 2/C"
_symmetry_group_IT_number 15
_symmetry_cell_setting 'monoclinic'
loop_
_space_group_symop_operation_xyz
x,y,z
-x,y,1/2-z
-x,-y,-z
x,-y,1/2+z
1/2+x,1/2+y,z
1/2-x,1/2+y,1/2-z
1/2-x,1/2-y,-z
1/2+x,1/2-y,1/2+z
loop_
_atom_site_type_symbol
_atom_site_label
_atom_site_fract_x
_atom_site_fract_y
_atom_site_fract_z
Si Si1 0.124773 0.706446 0.213462
Si Si2 0.790888 0.040551 0.982944
Si Si3 0.835471 0.832873 0.886529
Si Si4 0.006814 0.665034 0.814384
Si Si5 0.891266 0.346748 0.541254
Si Si6 0.663274 0.181698 0.031182
O O1 0.248238 0.641994 0.298635
O O2 0.250693 0.809611 0.250030
O O3 0.860115 0.715789 0.142728
O O4 0.116017 0.656367 0.152907
O O5 0.602374 0.073449 0.878152
O O6 0.773172 0.929760 0.991258
O O7 0.768962 0.096566 0.031999
O O8 0.050770 0.070003 0.049961
O O9 0.038254 0.754808 0.949198
O O10 0.000000 0.637933 0.750000
O O11 0.156971 0.760045 0.873817
O O12 0.750000 0.250000 0.500000
O O13 0.978116 0.364398 0.510305
#
# Coordination Sequence:
#
# PCOD8144062 Si02
#       6
#     8   8   8   8   8   8
#     4  11  21  41  66 101 135 173 223 275 344 396
#     4  11  24  45  67 102 134 183 231 269 345 412
#     4  10  21  41  71  95 137 176 221 283 341 402
#     4  11  21  41  74  99 137 173 224 289 343 401
#     4  12  26  44  66  98 141 180 224 284 338 398
#     4  11  20  43  71  97 130 180 219 283 344 404
#
# _framework density 23.176812000000002
#
# number of rings (size 3 to 8) (size 9 to 14) (size 15 to 20)
#    0.000    1.000    6.667    1.500    0.000    0.667 
#    6.000    0.000    3.667    0.000    0.000    0.000 
#    0.000    0.000    0.000    0.000    0.000    0.000 
#
# Total GULP energy -297471.282998 kJ/mol
# GULP energy per Si atom -12394.636792 kJ/mol
# Density = 2.312406 g / cm^3
# Si number density = 23.176812 Si / 1000 Ang^3
#
#
#
# Elastic Constant Matrix: (Units=GPa)
#
#
# Indices 1 2 3 4 5 6 
#
# 1 92.7291 34.2880 35.1676 0.0000 3.6219 0.0000
# 2 34.2880 124.6007 44.2249 0.0000 8.1771 0.0000
# 3 35.1676 44.2249 126.8283 0.0000 -8.8412 0.0000
# 4 0.0000 0.0000 0.0000 30.4469 0.0000 3.0571
# 5 3.6219 8.1771 -8.8412 0.0000 51.6883 0.0000
# 6 0.0000 0.0000 0.0000 3.0571 0.0000 17.5715
#
#
#
# Elastic Compliance Matrix: (Units=1/GPa)
#
#
# Indices 1 2 3 4 5 6 
#
# 1 0.012780 -0.002478 -0.002748 0.000000 -0.000974 0.000000
# 2 -0.002478 0.009853 -0.002879 0.000000 -0.001878 0.000000
# 3 -0.002748 -0.002879 0.009813 0.000000 0.002327 0.000000
# 4 0.000000 0.000000 0.000000 0.033428 0.000000 -0.005816
# 5 -0.000974 -0.001878 0.002327 0.000000 0.020110 0.000000
# 6 0.000000 0.000000 0.000000 -0.005816 0.000000 0.057922
#
#
# Mechanical properties :
#
#
# Convention : Reuss Voigt Hill
#
# Bulk Modulus (GPa) = 61.59137 63.50212 62.54675
# Shear Modulus (GPa) = 30.20638 35.30651 32.75645
#
# Velocity S-wave (km/s) = 3.61404 3.90725 3.76350
# Velocity P-wave (km/s) = 6.63682 6.91476 6.77722
#
# Compressibility (1/GPa) = 0.01623604
#
# Stress axis : x y z
#
# Youngs Moduli (GPa) = 78.24486 101.49469 101.90760
#
# Poissons Ratio (x) = 0.25149 0.28001
# Poissons Ratio (y) = 0.19388 0.29344
# Poissons Ratio (z) = 0.21499 0.29225
#
# Static dielectric constant tensor:
#      x y z
#    x 4.582720 0.000000 -0.044780 
#    y 0.000000 3.761520 0.000000 
#    z -0.044780 0.000000 4.634200 
# 
# 
# High freq. dielectric constant tensor:
#      x y z
#    x 1.938760 0.000000 -0.009650 
#    y 0.000000 1.872290 0.000000 
#    z -0.009650 0.000000 1.933360 
# 
# From -- ./inp_files/293143.got.cif
#   From: 2010.06.25/outbox.cif.g09.slc.cpg/sg15_147_cif.got.tgz:293143.got - 2010.06.28 07:06:18.
