data_PCOD8144545
_publ_section_title
;
Structure prediction by ZEFSAII (Michael W. Deem and Ramdas Pophale) SiO2 
 PCOD8144545
Probable space group: C 2/C
;
_chemical_formula_sum "Si O2"
_cell_formula_units_Z 64
_cell_length_a 17.691184
_cell_length_b 14.333991
_cell_length_c 14.812162
_cell_angle_alpha 90.000000
_cell_angle_beta 130.154508
_cell_angle_gamma 90.000000
_cell_volume 2870.853559
_symmetry_space_group_name_H-M "C 2/C"
_symmetry_group_IT_number 15
_symmetry_cell_setting 'monoclinic'
loop_
_space_group_symop_operation_xyz
x,y,z
-x,y,1/2-z
-x,-y,-z
x,-y,1/2+z
1/2+x,1/2+y,z
1/2-x,1/2+y,1/2-z
1/2-x,1/2-y,-z
1/2+x,1/2-y,1/2+z
loop_
_atom_site_type_symbol
_atom_site_label
_atom_site_fract_x
_atom_site_fract_y
_atom_site_fract_z
Si Si1 0.485985 0.803581 0.530168
Si Si2 0.078001 0.046701 0.231614
Si Si3 0.220067 0.390218 0.543373
Si Si4 0.757951 0.189898 0.881767
Si Si5 0.785707 0.320599 0.454479
Si Si6 0.380804 0.361970 0.314395
Si Si7 0.954914 0.256476 0.314939
Si Si8 0.064786 0.463519 0.889015
O O1 0.369454 0.776909 0.452266
O O2 0.547847 0.727783 0.634358
O O3 0.515199 0.799997 0.446034
O O4 0.501059 0.908487 0.585026
O O5 0.194205 0.044919 0.349060
O O6 0.055144 0.146938 0.169371
O O7 0.000000 0.028797 0.250000
O O8 0.061571 0.960442 0.150303
O O9 0.203288 0.296433 0.588199
O O10 0.267508 0.359134 0.485118
O O11 0.111138 0.437690 0.456461
O O12 0.823822 0.130697 0.864688
O O13 0.645858 0.186568 0.762869
O O14 0.750000 0.250000 0.500000
O O15 0.693098 0.354520 0.326187
O O16 0.836221 0.403105 0.552866
O O17 0.000000 0.271080 0.250000
O O18 0.000000 0.479585 0.750000
#
# Coordination Sequence:
#
# PCOD8144545 Si02
#       8
#     8   8   8   8   8   8   8   8
#     4  10  24  39  67 101 138 175 232 275 343 418
#     4  10  23  40  65  98 131 173 227 276 337 409
#     4  10  22  44  69  94 134 174 228 282 336 410
#     4  10  23  43  70  97 130 180 227 278 351 401
#     4  10  22  41  65  93 138 179 225 271 337 411
#     4  12  23  42  68  97 137 176 221 286 344 403
#     4  10  22  45  70  97 136 180 228 287 343 402
#     4  10  21  43  67 100 137 175 229 277 341 411
#
# _framework density 22.293022000000001
#
# number of rings (size 3 to 8) (size 9 to 14) (size 15 to 20)
#    0.750    1.000    2.500    0.750    8.750    1.000 
#    2.250    2.500    0.000    0.000    0.000    0.000 
#    0.000    0.000    0.000    0.000    0.000    0.000 
#
# Total GULP energy -396486.749583 kJ/mol
# GULP energy per Si atom -12390.210924 kJ/mol
# Density = 2.224228 g / cm^3
# Si number density = 22.293022 Si / 1000 Ang^3
#
#
#
# Elastic Constant Matrix: (Units=GPa)
#
#
# Indices 1 2 3 4 5 6 
#
# 1 78.1689 36.9168 20.5893 0.0000 -5.7357 0.0000
# 2 36.9168 95.7219 31.9212 0.0000 -4.0956 0.0000
# 3 20.5893 31.9212 103.5929 0.0000 -1.5451 0.0000
# 4 0.0000 0.0000 0.0000 -0.3322 0.0000 -6.8618
# 5 -5.7357 -4.0956 -1.5451 0.0000 29.1553 0.0000
# 6 0.0000 0.0000 0.0000 -6.8618 0.0000 16.5806
#
#
#
# Elastic Compliance Matrix: (Units=1/GPa)
#
#
# Indices 1 2 3 4 5 6 
#
# 1 0.015974 -0.005590 -0.001418 0.000000 0.002282 0.000000
# 2 -0.005590 0.013661 -0.003089 0.000000 0.000656 0.000000
# 3 -0.001418 -0.003089 0.010885 0.000000 -0.000136 0.000000
# 4 0.000000 0.000000 0.000000 -0.315268 0.000000 -0.130471
# 5 0.002282 0.000656 -0.000136 0.000000 0.034833 0.000000
# 6 0.000000 0.000000 0.000000 -0.130471 0.000000 0.006317
#
#
# Mechanical properties :
#
#
# Convention : Reuss Voigt Hill
#
# Bulk Modulus (GPa) = 49.19907 50.70425 49.95166
# Shear Modulus (GPa) = -24.19790 21.61783 -1.29003
#
# Velocity S-wave (km/s) = -3.29819 3.11740 -0.76153
# Velocity P-wave (km/s) = 2.75919 5.97925 4.65642
#
# Compressibility (1/GPa) = 0.02032559
#
# Stress axis : x y z
#
# Youngs Moduli (GPa) = 62.60248 73.20193 91.87148
#
# Poissons Ratio (x) = 0.40920 0.13030
# Poissons Ratio (y) = 0.34995 0.28376
# Poissons Ratio (z) = 0.08879 0.22610
#
# Static dielectric constant tensor:
#      x y z
#    x 3.986720 0.000000 0.089870 
#    y 0.000000 4.093530 0.000000 
#    z 0.089870 0.000000 3.880990 
# 
# 
# High freq. dielectric constant tensor:
#      x y z
#    x 1.871480 0.000000 0.012560 
#    y 0.000000 1.878670 0.000000 
#    z 0.012560 0.000000 1.877790 
# 
# From -- ./inp_files/162588.got.cif
#   From: 2010.06.25/outbox.cif.g09.slc.cpg/sg15_82_cif.got.tgz:162588.got - 2010.06.28 07:06:18.
