data_PCOD8144322
_publ_section_title
;
Structure prediction by ZEFSAII (Michael W. Deem and Ramdas Pophale) SiO2 
 PCOD8144322
Probable space group: C 2/C
;
_chemical_formula_sum "Si O2"
_cell_formula_units_Z 40
_cell_length_a 6.444346
_cell_length_b 17.886619
_cell_length_c 19.526452
_cell_angle_alpha 90.000000
_cell_angle_beta 133.968951
_cell_angle_gamma 90.000000
_cell_volume 1619.912973
_symmetry_space_group_name_H-M "C 2/C"
_symmetry_group_IT_number 15
_symmetry_cell_setting 'monoclinic'
loop_
_space_group_symop_operation_xyz
x,y,z
-x,y,1/2-z
-x,-y,-z
x,-y,1/2+z
1/2+x,1/2+y,z
1/2-x,1/2+y,1/2-z
1/2-x,1/2-y,-z
1/2+x,1/2-y,1/2+z
loop_
_atom_site_type_symbol
_atom_site_label
_atom_site_fract_x
_atom_site_fract_y
_atom_site_fract_z
Si Si1 0.251208 0.964655 0.857504
Si Si2 0.683641 0.637973 0.857876
Si Si3 0.402813 0.125863 0.152444
Si Si4 0.203563 0.238743 0.651714
Si Si5 0.723042 0.661356 0.458031
O O1 0.551908 0.947450 0.885836
O O2 0.251614 0.917405 0.926583
O O3 0.000000 0.935547 0.750000
O O4 0.193830 0.049038 0.866019
O O5 0.500000 0.665055 0.750000
O O6 0.535829 0.673109 0.892620
O O7 0.013263 0.666846 0.927212
O O8 0.500000 0.101421 0.250000
O O9 0.619917 0.189646 0.177488
O O10 0.081863 0.159423 0.073192
O O11 0.500000 0.206283 0.750000
O O12 0.239269 0.265250 0.581216
#
# Coordination Sequence:
#
# PCOD8144322 Si02
#       5
#     8   8   8   8   8
#     4  10  21  42  67  99 136 174 223 281 336 404
#     4  11  26  45  60  99 146 173 219 285 349 399
#     4  11  19  39  74  99 126 172 238 277 326 409
#     4  11  23  44  69  97 131 177 228 285 335 402
#     4  11  22  43  74  93 127 186 232 272 330 414
#
# _framework density 24.692682999999999
#
# number of rings (size 3 to 8) (size 9 to 14) (size 15 to 20)
#    0.000    1.200    4.000    3.000    0.000    1.600 
#   14.400    0.000    0.000    0.000    0.000    0.000 
#    0.000    0.000    0.000    0.000    0.000    0.000 
#
# Total GULP energy -247954.324646 kJ/mol
# GULP energy per Si atom -12397.716232 kJ/mol
# Density = 2.463648 g / cm^3
# Si number density = 24.692683 Si / 1000 Ang^3
#
#
#
# Elastic Constant Matrix: (Units=GPa)
#
#
# Indices 1 2 3 4 5 6 
#
# 1 93.7568 52.7438 19.3379 0.0001 31.7830 0.0001
# 2 52.7438 125.7502 16.3051 0.0000 3.8918 0.0000
# 3 19.3379 16.3051 155.1327 0.0000 25.7109 0.0000
# 4 0.0001 0.0000 0.0000 31.4938 0.0001 5.2590
# 5 31.7830 3.8918 25.7109 0.0001 39.0791 0.0000
# 6 0.0001 0.0000 0.0000 5.2590 0.0000 44.7885
#
#
#
# Elastic Compliance Matrix: (Units=1/GPa)
#
#
# Indices 1 2 3 4 5 6 
#
# 1 0.020859 -0.008367 0.001069 0.000000 -0.016835 0.000000
# 2 -0.008367 0.011421 -0.001231 0.000000 0.006477 0.000000
# 3 0.001069 -0.001231 0.007370 0.000000 -0.005596 0.000000
# 4 0.000000 0.000000 0.000000 0.032387 0.000000 -0.003803
# 5 -0.016835 0.006477 -0.005596 0.000000 0.042317 0.000000
# 6 0.000000 0.000000 0.000000 -0.003803 0.000000 0.022774
#
#
# Mechanical properties :
#
#
# Convention : Reuss Voigt Hill
#
# Bulk Modulus (GPa) = 44.26161 61.26814 52.76487
# Shear Modulus (GPa) = 30.91859 42.15582 36.53720
#
# Velocity S-wave (km/s) = 3.54239 4.13633 3.85083
# Velocity P-wave (km/s) = 5.89027 6.90496 6.41770
#
# Compressibility (1/GPa) = 0.02259294
#
# Stress axis : x y z
#
# Youngs Moduli (GPa) = 47.94090 87.56065 135.69301
#
# Poissons Ratio (x) = 0.73259 -0.14510
# Poissons Ratio (y) = 0.40110 0.16703
# Poissons Ratio (z) = -0.05127 0.10778
#
# Static dielectric constant tensor:
#      x y z
#    x 4.691410 0.000000 0.265060 
#    y 0.000000 4.286070 0.000000 
#    z 0.265060 0.000000 4.840350 
# 
# 
# High freq. dielectric constant tensor:
#      x y z
#    x 1.982060 0.000000 0.009550 
#    y 0.000000 1.980960 0.000000 
#    z 0.009550 0.000000 1.988700 
# 
# From -- ./inp_files/261475.got.cif
#   From: 2010.06.25/outbox.cif.g09.slc.cpg/sg15_131_cif.got.tgz:261475.got - 2010.06.28 07:06:18.
