data_PCOD8144444
_publ_section_title
;
Structure prediction by ZEFSAII (Michael W. Deem and Ramdas Pophale) SiO2 
 PCOD8144444
Probable space group: C 2/C
;
_chemical_formula_sum "Si O2"
_cell_formula_units_Z 60
_cell_length_a 28.548040
_cell_length_b 16.482121
_cell_length_c 22.599240
_cell_angle_alpha 90.000000
_cell_angle_beta 163.874426
_cell_angle_gamma 90.000000
_cell_volume 2953.432747
_symmetry_space_group_name_H-M "C 2/C"
_symmetry_group_IT_number 15
_symmetry_cell_setting 'monoclinic'
loop_
_space_group_symop_operation_xyz
x,y,z
-x,y,1/2-z
-x,-y,-z
x,-y,1/2+z
1/2+x,1/2+y,z
1/2-x,1/2+y,1/2-z
1/2-x,1/2-y,-z
1/2+x,1/2-y,1/2+z
loop_
_atom_site_type_symbol
_atom_site_label
_atom_site_fract_x
_atom_site_fract_y
_atom_site_fract_z
Si Si1 0.129819 0.169015 0.525336
Si Si2 0.000000 0.897768 0.750000
Si Si3 0.661835 0.030059 0.079176
Si Si4 0.811379 0.668610 0.044521
Si Si5 0.216174 0.988934 0.649529
Si Si6 0.403898 0.599957 0.819362
Si Si7 0.628919 0.318425 0.687841
Si Si8 0.204708 0.520334 0.386004
O O1 0.274049 0.235630 0.705731
O O2 0.048537 0.161835 0.361901
O O3 0.978815 0.193985 0.384466
O O4 0.220316 0.085693 0.652282
O O5 0.843267 0.956084 0.576346
O O6 0.656082 0.040760 0.143855
O O7 0.739077 0.108928 0.141921
O O8 0.776718 0.951756 0.205334
O O9 0.477098 0.021228 0.828244
O O10 0.789015 0.597772 0.064797
O O11 0.000000 0.676694 0.250000
O O12 0.750000 0.750000 0.000000
O O13 0.695066 0.653921 0.847101
O O14 0.026727 0.961830 0.434737
O O15 0.267310 0.951578 0.648113
O O16 0.507876 0.662289 0.985781
#
# Coordination Sequence:
#
# PCOD8144444 Si02
#       8
#     8   4   8   8   8   8   8   8
#     4  11  23  44  64  99 135 173 216 279 337 406
#     4  10  26  44  70  94 140 174 220 274 340 410
#     4  11  21  44  70 100 123 184 230 276 329 404
#     4  12  28  44  65  98 138 177 225 278 342 409
#     4  10  21  42  73  96 137 167 229 281 333 398
#     4  11  22  47  70  94 132 186 223 283 328 402
#     4  11  25  41  69  96 136 170 226 277 342 388
#     4  11  24  43  70  99 129 179 225 275 335 408
#
# _framework density 20.315342999999999
#
# number of rings (size 3 to 8) (size 9 to 14) (size 15 to 20)
#    0.000    1.067    4.000    2.800    6.533    2.667 
#    2.400    0.000    0.000    0.000    0.000    0.000 
#    0.000    0.000    0.000    0.000    0.000    0.000 
#
# Total GULP energy -372128.893603 kJ/mol
# GULP energy per Si atom -12404.296453 kJ/mol
# Density = 2.026910 g / cm^3
# Si number density = 20.315343 Si / 1000 Ang^3
#
#
#
# Elastic Constant Matrix: (Units=GPa)
#
#
# Indices 1 2 3 4 5 6 
#
# 1 128.4658 67.1241 51.5716 -0.0048 8.4990 0.0054
# 2 67.1241 119.4562 77.5854 -0.0156 0.5808 0.0081
# 3 51.5716 77.5854 151.5649 0.0085 3.8638 0.0123
# 4 -0.0048 -0.0156 0.0085 27.7811 0.0095 -1.5528
# 5 8.4990 0.5808 3.8638 0.0095 27.2665 0.0131
# 6 0.0054 0.0081 0.0123 -1.5528 0.0131 22.4619
#
#
#
# Elastic Compliance Matrix: (Units=1/GPa)
#
#
# Indices 1 2 3 4 5 6 
#
# 1 0.011387 -0.005873 -0.000783 0.000000 -0.003313 0.000002
# 2 -0.005873 0.015582 -0.006038 0.000009 0.002354 -0.000002
# 3 -0.000783 -0.006038 0.009982 -0.000006 -0.001042 -0.000003
# 4 0.000000 0.000009 -0.000006 0.036135 -0.000013 0.002498
# 5 -0.003313 0.002354 -0.001042 -0.000013 0.037805 -0.000022
# 6 0.000002 -0.000002 -0.000003 0.002498 -0.000022 0.044693
#
#
# Mechanical properties :
#
#
# Convention : Reuss Voigt Hill
#
# Bulk Modulus (GPa) = 86.49843 88.00546 87.25194
# Shear Modulus (GPa) = 27.05251 29.04896 28.05074
#
# Velocity S-wave (km/s) = 3.65311 3.78551 3.71990
# Velocity P-wave (km/s) = 7.77586 7.90699 7.84170
#
# Compressibility (1/GPa) = 0.01156090
#
# Stress axis : x y z
#
# Youngs Moduli (GPa) = 87.82126 64.17837 100.18427
#
# Poissons Ratio (x) = 0.37695 0.07849
# Poissons Ratio (y) = 0.51581 0.60488
# Poissons Ratio (z) = 0.06880 0.38749
#
# Static dielectric constant tensor:
#      x y z
#    x 3.917390 -0.000010 0.070860 
#    y -0.000010 3.548490 -0.000070 
#    z 0.070860 -0.000070 3.731560 
# 
# 
# High freq. dielectric constant tensor:
#      x y z
#    x 1.808270 0.000000 0.001880 
#    y 0.000000 1.785310 0.000000 
#    z 0.001880 0.000000 1.805920 
# 
# From -- ./inp_files/257903.got.cif
#   From: 2010.06.25/outbox.cif.g09.slc.cpg/sg15_129_cif.got.tgz:257903.got - 2010.06.28 07:06:18.
