data_PCOD8144251
_publ_section_title
;
Structure prediction by ZEFSAII (Michael W. Deem and Ramdas Pophale) SiO2 
 PCOD8144251
Probable space group: C 2/C
;
_chemical_formula_sum "Si O2"
_cell_formula_units_Z 48
_cell_length_a 6.184805
_cell_length_b 30.090596
_cell_length_c 14.498053
_cell_angle_alpha 90.000000
_cell_angle_beta 60.980981
_cell_angle_gamma 90.000000
_cell_volume 2359.422962
_symmetry_space_group_name_H-M "C 2/C"
_symmetry_group_IT_number 15
_symmetry_cell_setting 'monoclinic'
loop_
_space_group_symop_operation_xyz
x,y,z
-x,y,1/2-z
-x,-y,-z
x,-y,1/2+z
1/2+x,1/2+y,z
1/2-x,1/2+y,1/2-z
1/2-x,1/2-y,-z
1/2+x,1/2-y,1/2+z
loop_
_atom_site_type_symbol
_atom_site_label
_atom_site_fract_x
_atom_site_fract_y
_atom_site_fract_z
Si Si1 0.326772 0.395099 0.094216
Si Si2 0.429295 0.184625 0.943260
Si Si3 0.133052 0.375521 0.545576
Si Si4 0.500000 0.426347 0.250000
Si Si5 0.480957 0.045923 0.556883
Si Si6 0.500000 0.833520 0.750000
Si Si7 0.530407 0.277457 0.850438
O O1 0.144333 0.353794 0.113999
O O2 0.382400 0.396562 0.192359
O O3 0.200043 0.441389 0.084459
O O4 0.584148 0.387151 0.986427
O O5 0.558677 0.224980 0.862955
O O6 0.628012 0.165760 0.974985
O O7 0.191457 0.201769 0.046803
O O8 0.962349 0.365348 0.669722
O O9 0.002031 0.416985 0.525061
O O10 0.717501 0.456271 0.163073
O O11 0.500000 0.000000 0.500000
O O12 0.277216 0.802416 0.829225
O O13 0.500000 0.286666 0.750000
#
# Coordination Sequence:
#
# PCOD8144251 Si02
#       7
#     8   8   8   4   8   4   8
#     4  10  21  42  66  91 129 166 213 267 315 390
#     4  10  22  40  60  88 123 171 214 266 323 372
#     4  10  22  39  65  89 126 166 212 263 329 386
#     4  10  22  40  69  96 126 174 204 264 321 380
#     4  10  23  45  65  99 130 166 208 264 317 390
#     4  12  22  40  59  94 124 168 212 266 323 390
#     4  11  23  37  60  86 126 166 218 270 315 383
#
# _framework density 20.343958000000001
#
# number of rings (size 3 to 8) (size 9 to 14) (size 15 to 20)
#    0.000    1.667    3.333    0.500    0.000    8.667 
#    6.000    3.333    0.000    0.000    0.000    0.000 
#    0.000    0.000    0.000    0.000    0.000    0.000 
#
# Total GULP energy -297541.229410 kJ/mol
# GULP energy per Si atom -12397.551225 kJ/mol
# Density = 2.029765 g / cm^3
# Si number density = 20.343958 Si / 1000 Ang^3
#
#
#
# Elastic Constant Matrix: (Units=GPa)
#
#
# Indices 1 2 3 4 5 6 
#
# 1 107.1537 41.5457 42.7462 0.0000 5.7661 0.0000
# 2 41.5457 109.5622 48.2399 0.0000 5.2453 0.0000
# 3 42.7462 48.2399 106.3228 0.0000 4.7303 0.0000
# 4 0.0000 0.0000 0.0000 44.9375 0.0000 -0.7970
# 5 5.7661 5.2453 4.7303 0.0000 38.7803 0.0000
# 6 0.0000 0.0000 0.0000 -0.7970 0.0000 24.0715
#
#
#
# Elastic Compliance Matrix: (Units=1/GPa)
#
#
# Indices 1 2 3 4 5 6 
#
# 1 0.011887 -0.002970 -0.003389 0.000000 -0.000952 0.000000
# 2 -0.002970 0.012180 -0.004302 0.000000 -0.000681 0.000000
# 3 -0.003389 -0.004302 0.012741 0.000000 -0.000468 0.000000
# 4 0.000000 0.000000 0.000000 0.022266 0.000000 0.000737
# 5 -0.000952 -0.000681 -0.000468 0.000000 0.026077 0.000000
# 6 0.000000 0.000000 0.000000 0.000737 0.000000 0.041567
#
#
# Mechanical properties :
#
#
# Convention : Reuss Voigt Hill
#
# Bulk Modulus (GPa) = 64.57522 65.34471 64.95996
# Shear Modulus (GPa) = 32.63653 34.25834 33.44744
#
# Velocity S-wave (km/s) = 4.00964 4.10806 4.05915
# Velocity P-wave (km/s) = 7.29705 7.39535 7.34636
#
# Compressibility (1/GPa) = 0.01548582
#
# Stress axis : x y z
#
# Youngs Moduli (GPa) = 84.12460 82.10116 78.48853
#
# Poissons Ratio (x) = 0.24381 0.26603
# Poissons Ratio (y) = 0.24982 0.33766
# Poissons Ratio (z) = 0.28513 0.35320
#
# Static dielectric constant tensor:
#      x y z
#    x 3.830700 0.000000 0.013410 
#    y 0.000000 3.680760 0.000000 
#    z 0.013410 0.000000 3.746480 
# 
# 
# High freq. dielectric constant tensor:
#      x y z
#    x 1.801020 0.000000 0.005380 
#    y 0.000000 1.781770 0.000000 
#    z 0.005380 0.000000 1.799000 
# 
# From -- ./inp_files/130612.got.cif
#   From: 2010.06.25/outbox.cif.g09.slc.cpg/sg15_66_cif.got.tgz:130612.got - 2010.06.28 07:06:18.
