data_PCOD8144107
_publ_section_title
;
Structure prediction by ZEFSAII (Michael W. Deem and Ramdas Pophale) SiO2 
 PCOD8144107
Probable space group: C 2/C
;
_chemical_formula_sum "Si O2"
_cell_formula_units_Z 48
_cell_length_a 10.199487
_cell_length_b 11.013107
_cell_length_c 23.386622
_cell_angle_alpha 90.000000
_cell_angle_beta 60.124976
_cell_angle_gamma 90.000000
_cell_volume 2277.885362
_symmetry_space_group_name_H-M "C 2/C"
_symmetry_group_IT_number 15
_symmetry_cell_setting 'monoclinic'
loop_
_space_group_symop_operation_xyz
x,y,z
-x,y,1/2-z
-x,-y,-z
x,-y,1/2+z
1/2+x,1/2+y,z
1/2-x,1/2+y,1/2-z
1/2-x,1/2-y,-z
1/2+x,1/2-y,1/2+z
loop_
_atom_site_type_symbol
_atom_site_label
_atom_site_fract_x
_atom_site_fract_y
_atom_site_fract_z
Si Si1 0.834257 0.008447 0.805556
Si Si2 0.898856 0.377104 0.935707
Si Si3 0.364486 0.905272 0.244691
Si Si4 0.222354 0.261860 0.868157
Si Si5 0.308425 0.194294 0.576112
Si Si6 0.445154 0.155940 0.896400
O O1 0.731329 0.998217 0.770728
O O2 0.781695 0.115292 0.858548
O O3 0.000000 0.041736 0.750000
O O4 0.824548 0.881109 0.839315
O O5 0.779887 0.320022 0.916422
O O6 0.943838 0.510820 0.906591
O O7 0.045363 0.290623 0.908309
O O8 0.822178 0.382429 0.014695
O O9 0.500000 0.973057 0.250000
O O10 0.252084 0.831103 0.310032
O O11 0.450694 0.814734 0.181840
O O12 0.277386 0.205355 0.917588
O O13 0.476731 0.220496 0.565668
#
# Coordination Sequence:
#
# PCOD8144107 Si02
#       6
#     8   8   8   8   8   8
#     4  11  21  40  61  91 126 161 207 262 310 369
#     4  11  22  44  64  91 131 164 209 260 309 368
#     4   9  19  38  56  90 120 156 208 247 310 370
#     4  11  22  40  64  91 127 166 206 261 312 376
#     4  10  23  42  65  95 124 167 213 252 312 379
#     4  10  21  42  61  91 126 164 208 255 314 365
#
# _framework density 21.072175999999999
#
# number of rings (size 3 to 8) (size 9 to 14) (size 15 to 20)
#    0.000    1.667    3.333    3.000    0.000    0.667 
#   21.000    1.667    0.000    0.000    0.000    0.000 
#    0.000    0.000    0.000    0.000    0.000    0.000 
#
# Total GULP energy -297488.719368 kJ/mol
# GULP energy per Si atom -12395.363307 kJ/mol
# Density = 2.102422 g / cm^3
# Si number density = 21.072176 Si / 1000 Ang^3
#
#
#
# Elastic Constant Matrix: (Units=GPa)
#
#
# Indices 1 2 3 4 5 6 
#
# 1 170.5250 62.1331 41.4720 0.0000 21.4940 0.0000
# 2 62.1331 57.9435 18.3493 0.0000 8.2698 0.0000
# 3 41.4720 18.3493 71.7828 0.0000 4.7814 0.0000
# 4 0.0000 0.0000 0.0000 15.1092 0.0000 -1.0704
# 5 21.4940 8.2698 4.7814 0.0000 37.4536 0.0000
# 6 0.0000 0.0000 0.0000 -1.0704 0.0000 35.9853
#
#
#
# Elastic Compliance Matrix: (Units=1/GPa)
#
#
# Indices 1 2 3 4 5 6 
#
# 1 0.010778 -0.009961 -0.003445 0.000000 -0.003546 0.000000
# 2 -0.009961 0.028467 -0.001497 0.000000 -0.000378 0.000000
# 3 -0.003445 -0.001497 0.016289 0.000000 0.000228 0.000000
# 4 0.000000 0.000000 0.000000 0.066325 0.000000 0.001973
# 5 -0.003546 -0.000378 0.000228 0.000000 0.028789 0.000000
# 6 0.000000 0.000000 0.000000 0.001973 0.000000 0.027848
#
#
# Mechanical properties :
#
#
# Convention : Reuss Voigt Hill
#
# Bulk Modulus (GPa) = 38.86611 60.46221 49.66416
# Shear Modulus (GPa) = 23.05458 29.59609 26.32534
#
# Velocity S-wave (km/s) = 3.31127 3.75175 3.53837
# Velocity P-wave (km/s) = 5.75358 6.89367 6.34927
#
# Compressibility (1/GPa) = 0.02572936
#
# Stress axis : x y z
#
# Youngs Moduli (GPa) = 92.77910 35.12838 61.39286
#
# Poissons Ratio (x) = 0.34990 0.21148
# Poissons Ratio (y) = 0.92414 0.09190
# Poissons Ratio (z) = 0.31960 0.05258
#
# Static dielectric constant tensor:
#      x y z
#    x 4.289620 0.000000 0.196620 
#    y 0.000000 3.437100 0.000000 
#    z 0.196620 0.000000 3.906420 
# 
# 
# High freq. dielectric constant tensor:
#      x y z
#    x 1.844970 0.000000 0.007370 
#    y 0.000000 1.792050 0.000000 
#    z 0.007370 0.000000 1.831160 
# 
# From -- ./inp_files/263500.got.cif
#   From: 2010.06.25/outbox.cif.g09.slc.cpg/sg15_132_cif.got.tgz:263500.got - 2010.06.28 07:06:18.
