data_PCOD8144227
_publ_section_title
;
Structure prediction by ZEFSAII (Michael W. Deem and Ramdas Pophale) SiO2 
 PCOD8144227
Probable space group: C 2/C
;
_chemical_formula_sum "Si O2"
_cell_formula_units_Z 52
_cell_length_a 27.299509
_cell_length_b 8.947681
_cell_length_c 27.590681
_cell_angle_alpha 90.000000
_cell_angle_beta 20.810176
_cell_angle_gamma 90.000000
_cell_volume 2394.362681
_symmetry_space_group_name_H-M "C 2/C"
_symmetry_group_IT_number 15
_symmetry_cell_setting 'monoclinic'
loop_
_space_group_symop_operation_xyz
x,y,z
-x,y,1/2-z
-x,-y,-z
x,-y,1/2+z
1/2+x,1/2+y,z
1/2-x,1/2+y,1/2-z
1/2-x,1/2-y,-z
1/2+x,1/2-y,1/2+z
loop_
_atom_site_type_symbol
_atom_site_label
_atom_site_fract_x
_atom_site_fract_y
_atom_site_fract_z
Si Si1 0.000000 0.604739 0.750000
Si Si2 0.917316 0.781361 0.590486
Si Si3 0.345696 0.357560 0.310171
Si Si4 0.941143 0.607034 0.388507
Si Si5 0.149284 0.815194 0.682052
Si Si6 0.146696 0.105598 0.811448
Si Si7 0.457270 0.832720 0.432384
O O1 0.082727 0.505203 0.634566
O O2 0.116254 0.707149 0.667632
O O3 0.787458 0.676597 0.700725
O O4 0.009005 0.810287 0.457702
O O5 0.021261 0.694779 0.530668
O O6 0.859089 0.934996 0.666108
O O7 0.196339 0.306308 0.468047
O O8 0.448321 0.227664 0.230700
O O9 0.380933 0.513006 0.304569
O O10 0.349354 0.384213 0.249712
O O11 0.993168 0.505349 0.385707
O O12 0.304730 0.793209 0.555860
O O13 0.057090 0.780671 0.813424
#
# Coordination Sequence:
#
# PCOD8144227 Si02
#       7
#     4   8   8   8   8   8   8
#     4  10  24  48  68 110 114 178 226 282 338 416
#     4  11  24  42  67  99 137 181 233 276 320 394
#     4  11  23  44  61 102 131 184 205 283 338 395
#     4  10  25  41  71  93 138 166 226 272 348 396
#     4  10  22  41  71  92 136 162 229 270 337 400
#     4  11  25  41  65 101 136 180 232 271 329 393
#     4  10  21  42  65  97 127 183 213 276 326 396
#
# _framework density 21.717677999999999
#
# number of rings (size 3 to 8) (size 9 to 14) (size 15 to 20)
#    0.000    1.538    1.538    1.846    4.308    9.846 
#    2.769    0.000    0.000    0.000    0.000    0.000 
#    0.000    0.000    0.000    0.000    0.000    0.000 
#
# Total GULP energy -322389.163161 kJ/mol
# GULP energy per Si atom -12399.583199 kJ/mol
# Density = 2.166825 g / cm^3
# Si number density = 21.717678 Si / 1000 Ang^3
#
#
#
# Elastic Constant Matrix: (Units=GPa)
#
#
# Indices 1 2 3 4 5 6 
#
# 1 101.7170 53.2723 47.2140 -0.0035 3.0151 -0.0064
# 2 53.2723 124.7614 75.6933 -0.0005 -13.2709 -0.0099
# 3 47.2140 75.6933 140.3998 -0.0065 -6.2395 -0.0126
# 4 -0.0035 -0.0005 -0.0065 41.9916 0.0059 -1.8220
# 5 3.0151 -13.2709 -6.2395 0.0059 33.8184 0.0075
# 6 -0.0064 -0.0099 -0.0126 -1.8220 0.0075 11.0278
#
#
#
# Elastic Compliance Matrix: (Units=1/GPa)
#
#
# Indices 1 2 3 4 5 6 
#
# 1 0.013433 -0.004862 -0.002051 0.000001 -0.003484 0.000004
# 2 -0.004862 0.014101 -0.005749 -0.000002 0.004906 0.000000
# 3 -0.002051 -0.005749 0.010909 0.000002 -0.000061 0.000006
# 4 0.000001 -0.000002 0.000002 0.023986 -0.000006 0.003963
# 5 -0.003484 0.004906 -0.000061 -0.000006 0.031794 -0.000020
# 6 0.000004 0.000000 0.000006 0.003963 -0.000020 0.091335
#
#
# Mechanical properties :
#
#
# Convention : Reuss Voigt Hill
#
# Bulk Modulus (GPa) = 76.22609 79.91526 78.07067
# Shear Modulus (GPa) = 23.22810 30.08081 26.65445
#
# Velocity S-wave (km/s) = 3.27394 3.72571 3.50711
# Velocity P-wave (km/s) = 7.03324 7.44212 7.24056
#
# Compressibility (1/GPa) = 0.01311887
#
# Stress axis : x y z
#
# Youngs Moduli (GPa) = 74.44468 70.91469 91.66657
#
# Poissons Ratio (x) = 0.34479 0.18799
# Poissons Ratio (y) = 0.36196 0.52703
# Poissons Ratio (z) = 0.15267 0.40772
#
# Static dielectric constant tensor:
#      x y z
#    x 3.816420 -0.000010 0.195400 
#    y -0.000010 4.186830 0.000030 
#    z 0.195400 0.000030 4.026190 
# 
# 
# High freq. dielectric constant tensor:
#      x y z
#    x 1.843210 0.000000 0.014040 
#    y 0.000000 1.861240 0.000000 
#    z 0.014040 0.000000 1.868930 
# 
# From -- ./inp_files/320159.got.cif
#   From: 2010.06.25/outbox.cif.g09.slc.cpg/sg15_161_cif.got.tgz:320159.got - 2010.06.28 07:06:18.
