data_PCOD8144102
_publ_section_title
;
Structure prediction by ZEFSAII (Michael W. Deem and Ramdas Pophale) SiO2 
 PCOD8144102
Probable space group: C 2/C
;
_chemical_formula_sum "Si O2"
_cell_formula_units_Z 56
_cell_length_a 18.329229
_cell_length_b 14.430400
_cell_length_c 18.173850
_cell_angle_alpha 90.000000
_cell_angle_beta 144.349032
_cell_angle_gamma 90.000000
_cell_volume 2801.711140
_symmetry_space_group_name_H-M "C 2/C"
_symmetry_group_IT_number 15
_symmetry_cell_setting 'monoclinic'
loop_
_space_group_symop_operation_xyz
x,y,z
-x,y,1/2-z
-x,-y,-z
x,-y,1/2+z
1/2+x,1/2+y,z
1/2-x,1/2+y,1/2-z
1/2-x,1/2-y,-z
1/2+x,1/2-y,1/2+z
loop_
_atom_site_type_symbol
_atom_site_label
_atom_site_fract_x
_atom_site_fract_y
_atom_site_fract_z
Si Si1 0.541466 0.155652 0.400825
Si Si2 0.656320 0.239120 0.156887
Si Si3 0.834972 0.099639 0.224242
Si Si4 0.000000 0.516541 0.250000
Si Si5 0.296775 0.608577 0.684765
Si Si6 0.185391 0.371017 0.454493
Si Si7 0.411625 0.702076 0.055183
Si Si8 0.000000 0.196374 0.750000
O O1 0.452075 0.181246 0.393968
O O2 0.466968 0.078407 0.293619
O O3 0.665985 0.111066 0.535460
O O4 0.570413 0.241834 0.369833
O O5 0.767867 0.169187 0.226198
O O6 0.709612 0.317717 0.254423
O O7 0.589311 0.286440 0.032924
O O8 0.979010 0.131308 0.333239
O O9 0.825512 0.992830 0.243124
O O10 0.771887 0.102135 0.093429
O O11 0.876284 0.459559 0.132061
O O12 0.401248 0.631347 0.709859
O O13 0.272552 0.330903 0.462100
O O14 0.074914 0.300404 0.390541
#
# Coordination Sequence:
#
# PCOD8144102 Si02
#       8
#     8   8   8   4   8   8   8   4
#     4  10  21  42  61  88 128 162 212 260 309 384
#     4  10  24  42  60  94 129 175 204 258 321 378
#     4  11  23  41  64  95 125 166 217 261 313 382
#     4  11  22  38  63  94 116 160 215 260 315 372
#     4  11  22  40  66  92 125 167 212 261 321 370
#     4  10  23  39  62  94 123 166 205 264 319 371
#     4  10  23  41  62  88 134 162 207 259 317 379
#     4   9  22  38  65  90 122 164 209 268 319 366
#
# _framework density 19.987784999999999
#
# number of rings (size 3 to 8) (size 9 to 14) (size 15 to 20)
#    0.000    1.714    1.429    1.714    8.000    2.286 
#    0.000    0.000    0.000    0.000    0.000    0.000 
#    0.000    0.000    0.000    0.000    0.000    0.000 
#
# Total GULP energy -347209.625314 kJ/mol
# GULP energy per Si atom -12400.343761 kJ/mol
# Density = 1.994229 g / cm^3
# Si number density = 19.987785 Si / 1000 Ang^3
#
#
#
# Elastic Constant Matrix: (Units=GPa)
#
#
# Indices 1 2 3 4 5 6 
#
# 1 111.0057 54.1458 54.6556 0.0000 -12.1386 0.0000
# 2 54.1458 123.5538 51.4142 0.0000 -4.2256 0.0000
# 3 54.6556 51.4142 106.0531 0.0000 -3.9599 0.0000
# 4 0.0000 0.0000 0.0000 36.4398 0.0000 -3.7733
# 5 -12.1386 -4.2256 -3.9599 0.0000 25.5392 0.0000
# 6 0.0000 0.0000 0.0000 -3.7733 0.0000 5.8201
#
#
#
# Elastic Compliance Matrix: (Units=1/GPa)
#
#
# Indices 1 2 3 4 5 6 
#
# 1 0.013974 -0.003796 -0.005167 0.000000 0.005213 0.000000
# 2 -0.003796 0.011192 -0.003488 0.000000 -0.000493 0.000000
# 3 -0.005167 -0.003488 0.013749 0.000000 -0.000901 0.000000
# 4 0.000000 0.000000 0.000000 0.029417 0.000000 0.019072
# 5 0.005213 -0.000493 -0.000901 0.000000 0.041412 0.000000
# 6 0.000000 0.000000 0.000000 0.019072 0.000000 0.184183
#
#
# Mechanical properties :
#
#
# Convention : Reuss Voigt Hill
#
# Bulk Modulus (GPa) = 71.35708 73.44930 72.40319
# Shear Modulus (GPa) = 15.45601 25.58630 20.52115
#
# Velocity S-wave (km/s) = 2.78379 3.58173 3.20767
# Velocity P-wave (km/s) = 6.79047 7.34383 7.07257
#
# Compressibility (1/GPa) = 0.01401403
#
# Stress axis : x y z
#
# Youngs Moduli (GPa) = 71.56177 89.35313 72.73051
#
# Poissons Ratio (x) = 0.33914 0.37579
# Poissons Ratio (y) = 0.27161 0.25368
# Poissons Ratio (z) = 0.36976 0.31166
#
# Static dielectric constant tensor:
#      x y z
#    x 3.638360 0.000000 -0.090730 
#    y 0.000000 3.873710 0.000000 
#    z -0.090730 0.000000 3.538580 
# 
# 
# High freq. dielectric constant tensor:
#      x y z
#    x 1.782590 0.000000 -0.006940 
#    y 0.000000 1.788150 0.000000 
#    z -0.006940 0.000000 1.780880 
# 
# From -- ./inp_files/123359.got.cif
#   From: 2010.06.25/outbox.cif.g09.slc.cpg/sg15_62_cif.got.tgz:123359.got - 2010.06.28 07:06:18.
