data_PCOD8144483
_publ_section_title
;
Structure prediction by ZEFSAII (Michael W. Deem and Ramdas Pophale) SiO2 
 PCOD8144483
Probable space group: C 2/C
;
_chemical_formula_sum "Si O2"
_cell_formula_units_Z 44
_cell_length_a 14.122773
_cell_length_b 11.026782
_cell_length_c 20.253117
_cell_angle_alpha 90.000000
_cell_angle_beta 43.149423
_cell_angle_gamma 90.000000
_cell_volume 2157.025960
_symmetry_space_group_name_H-M "C 2/C"
_symmetry_group_IT_number 15
_symmetry_cell_setting 'monoclinic'
loop_
_space_group_symop_operation_xyz
x,y,z
-x,y,1/2-z
-x,-y,-z
x,-y,1/2+z
1/2+x,1/2+y,z
1/2-x,1/2+y,1/2-z
1/2-x,1/2-y,-z
1/2+x,1/2-y,1/2+z
loop_
_atom_site_type_symbol
_atom_site_label
_atom_site_fract_x
_atom_site_fract_y
_atom_site_fract_z
Si Si1 0.419223 0.927697 0.595639
Si Si2 0.895162 0.848499 0.746830
Si Si3 0.347418 0.927552 0.257261
Si Si4 0.956241 0.985624 0.098275
Si Si5 0.911963 0.761358 0.419850
Si Si6 0.500000 0.118166 0.250000
O O1 0.260901 0.893280 0.657225
O O2 0.512300 0.807783 0.558709
O O3 0.500000 0.000000 0.500000
O O4 0.425638 0.015810 0.655117
O O5 0.909117 0.703676 0.741108
O O6 0.000000 0.899066 0.750000
O O7 0.939583 0.891185 0.649979
O O8 0.185968 0.911283 0.327371
O O9 0.370482 0.025936 0.304586
O O10 0.064351 0.904270 0.083399
O O11 0.000000 0.000000 0.000000
O O12 0.750000 0.750000 0.500000
O O13 0.977469 0.710230 0.320361
#
# Coordination Sequence:
#
# PCOD8144483 Si02
#       6
#     8   8   8   8   8   4
#     4  10  24  42  64  92 129 169 210 265 326 378
#     4  11  24  43  68  95 127 168 216 269 318 388
#     4  10  21  43  64  90 129 167 208 263 326 375
#     4  11  25  42  64  95 129 171 214 261 324 380
#     4  11  24  40  64  93 126 167 217 259 316 386
#     4  10  22  42  64  90 126 166 210 266 314 374
#
# _framework density 20.398457000000001
#
# number of rings (size 3 to 8) (size 9 to 14) (size 15 to 20)
#    0.000    1.455    2.727    1.091    6.364    1.455 
#    0.000    1.818    0.000    0.000    0.000    0.000 
#    0.000    0.000    0.000    0.000    0.000    0.000 
#
# Total GULP energy -272684.547483 kJ/mol
# GULP energy per Si atom -12394.752158 kJ/mol
# Density = 2.035203 g / cm^3
# Si number density = 20.398457 Si / 1000 Ang^3
#
#
#
# Elastic Constant Matrix: (Units=GPa)
#
#
# Indices 1 2 3 4 5 6 
#
# 1 118.0469 38.7183 38.1584 0.0000 -10.5676 0.0000
# 2 38.7183 112.2145 45.3459 0.0000 7.2183 0.0000
# 3 38.1584 45.3459 91.2216 0.0000 2.1565 0.0000
# 4 0.0000 0.0000 0.0000 21.4381 0.0000 -0.8254
# 5 -10.5676 7.2183 2.1565 0.0000 42.0864 0.0000
# 6 0.0000 0.0000 0.0000 -0.8254 0.0000 40.8194
#
#
#
# Elastic Compliance Matrix: (Units=1/GPa)
#
#
# Indices 1 2 3 4 5 6 
#
# 1 0.010663 -0.002574 -0.003259 0.000000 0.003286 0.000000
# 2 -0.002574 0.011886 -0.004774 0.000000 -0.002440 0.000000
# 3 -0.003259 -0.004774 0.014716 0.000000 -0.000754 0.000000
# 4 0.000000 0.000000 0.000000 0.046682 0.000000 0.000944
# 5 0.003286 -0.002440 -0.000754 0.000000 0.025043 0.000000
# 6 0.000000 0.000000 0.000000 0.000944 0.000000 0.024517
#
#
# Mechanical properties :
#
#
# Convention : Reuss Voigt Hill
#
# Bulk Modulus (GPa) = 62.29671 62.88093 62.58882
# Shear Modulus (GPa) = 31.23621 34.15280 32.69451
#
# Velocity S-wave (km/s) = 3.91743 4.09624 4.00783
# Velocity P-wave (km/s) = 7.14618 7.29832 7.22265
#
# Compressibility (1/GPa) = 0.01605221
#
# Stress axis : x y z
#
# Youngs Moduli (GPa) = 93.78380 84.13493 67.95129
#
# Poissons Ratio (x) = 0.21653 0.22143
# Poissons Ratio (y) = 0.24136 0.32441
# Poissons Ratio (z) = 0.30561 0.40167
#
# Static dielectric constant tensor:
#      x y z
#    x 4.015650 0.000000 -0.008510 
#    y 0.000000 3.527860 0.000000 
#    z -0.008510 0.000000 3.516740 
# 
# 
# High freq. dielectric constant tensor:
#      x y z
#    x 1.810760 0.000000 -0.005180 
#    y 0.000000 1.805720 0.000000 
#    z -0.005180 0.000000 1.786650 
# 
# From -- ./inp_files/94961.got.cif
#   From: 2010.06.25/outbox.cif.g09.slc.cpg/sg15_48_cif.got.tgz:94961.got - 2010.06.28 07:06:18.
