data_PCOD8144628
_publ_section_title
;
Structure prediction by ZEFSAII (Michael W. Deem and Ramdas Pophale) SiO2 
 PCOD8144628
Probable space group: C 2/C
;
_chemical_formula_sum "Si O2"
_cell_formula_units_Z 56
_cell_length_a 24.257995
_cell_length_b 8.788227
_cell_length_c 12.108085
_cell_angle_alpha 90.000000
_cell_angle_beta 71.528558
_cell_angle_gamma 90.000000
_cell_volume 2448.277164
_symmetry_space_group_name_H-M "C 2/C"
_symmetry_group_IT_number 15
_symmetry_cell_setting 'monoclinic'
loop_
_space_group_symop_operation_xyz
x,y,z
-x,y,1/2-z
-x,-y,-z
x,-y,1/2+z
1/2+x,1/2+y,z
1/2-x,1/2+y,1/2-z
1/2-x,1/2-y,-z
1/2+x,1/2-y,1/2+z
loop_
_atom_site_type_symbol
_atom_site_label
_atom_site_fract_x
_atom_site_fract_y
_atom_site_fract_z
Si Si1 0.536479 0.396036 0.398497
Si Si2 0.752646 0.971064 0.100653
Si Si3 0.205964 0.226849 0.276616
Si Si4 0.365704 0.305937 0.999743
Si Si5 0.835230 0.529637 0.529687
Si Si6 0.414355 0.334580 0.734263
Si Si7 0.959209 0.641282 0.505560
O O1 0.500000 0.500000 0.500000
O O2 0.595666 0.352166 0.421719
O O3 0.553418 0.500364 0.281758
O O4 0.495378 0.251605 0.399415
O O5 0.733612 0.801403 0.149883
O O6 0.816813 0.937809 0.007508
O O7 0.754340 0.097113 0.195716
O O8 0.704215 0.045953 0.053658
O O9 0.197630 0.374083 0.357955
O O10 0.147393 0.140283 0.283532
O O11 0.405947 0.278346 0.865397
O O12 0.337203 0.148088 0.057116
O O13 0.900640 0.596706 0.476942
O O14 0.448287 0.213420 0.634903
O O15 0.000000 0.500000 0.500000
#
# Coordination Sequence:
#
# PCOD8144628 Si02
#       7
#     8   8   8   8   8   8   8
#     4  10  22  43  70  93 132 177 222 280 330 400
#     4  12  25  43  70 101 138 179 224 275 337 413
#     4  11  24  44  66 101 135 178 219 277 344 396
#     4  12  23  42  72  99 132 181 228 273 343 411
#     4  11  24  42  68 100 136 173 226 281 333 408
#     4  10  23  43  69  98 131 177 225 275 341 403
#     4  10  21  43  70  92 134 176 223 284 336 391
#
# _framework density 22.873227
#
# number of rings (size 3 to 8) (size 9 to 14) (size 15 to 20)
#    0.000    1.143    4.286    1.714    2.000    2.286 
#    0.000    1.429   12.571    0.000    0.000    0.000 
#    0.000    0.000    0.000    0.000    0.000    0.000 
#
# Total GULP energy -346946.642257 kJ/mol
# GULP energy per Si atom -12390.951509 kJ/mol
# Density = 2.282117 g / cm^3
# Si number density = 22.873227 Si / 1000 Ang^3
#
#
#
# Elastic Constant Matrix: (Units=GPa)
#
#
# Indices 1 2 3 4 5 6 
#
# 1 126.4708 27.5795 9.2254 0.0000 -4.6031 0.0000
# 2 27.5795 94.1067 13.3149 0.0000 -13.9546 0.0000
# 3 9.2254 13.3149 52.9435 0.0000 -16.3074 0.0000
# 4 0.0000 0.0000 0.0000 35.3031 0.0000 -7.2509
# 5 -4.6031 -13.9546 -16.3074 0.0000 23.3555 0.0000
# 6 0.0000 0.0000 0.0000 -7.2509 0.0000 48.7626
#
#
#
# Elastic Compliance Matrix: (Units=1/GPa)
#
#
# Indices 1 2 3 4 5 6 
#
# 1 0.008491 -0.002415 -0.001021 0.000000 -0.000482 0.000000
# 2 -0.002415 0.012388 -0.000715 0.000000 0.006426 0.000000
# 3 -0.001021 -0.000715 0.024272 0.000000 0.016319 0.000000
# 4 0.000000 0.000000 0.000000 0.029218 0.000000 0.004345
# 5 -0.000482 0.006426 0.016319 0.000000 0.057955 0.000000
# 6 0.000000 0.000000 0.000000 0.004345 0.000000 0.021154
#
#
# Mechanical properties :
#
#
# Convention : Reuss Voigt Hill
#
# Bulk Modulus (GPa) = 27.13813 41.52894 34.33354
# Shear Modulus (GPa) = 28.72508 36.37766 32.55137
#
# Velocity S-wave (km/s) = 3.54763 3.99231 3.77652
# Velocity P-wave (km/s) = 5.35455 6.28068 5.83602
#
# Compressibility (1/GPa) = 0.03684853
#
# Stress axis : x y z
#
# Youngs Moduli (GPa) = 117.77745 80.72161 41.19929
#
# Poissons Ratio (x) = 0.19498 0.04205
# Poissons Ratio (y) = 0.28448 0.02947
# Poissons Ratio (z) = 0.12021 0.05773
#
# Static dielectric constant tensor:
#      x y z
#    x 4.239390 0.000000 -0.270160 
#    y 0.000000 5.960960 0.000000 
#    z -0.270160 0.000000 4.015940 
# 
# 
# High freq. dielectric constant tensor:
#      x y z
#    x 1.921050 0.000000 -0.013900 
#    y 0.000000 1.913850 0.000000 
#    z -0.013900 0.000000 1.875970 
# 
# From -- ./inp_files/121892.got.cif
#   From: 2010.06.25/outbox.cif.g09.slc.cpg/sg15_61_cif.got.tgz:121892.got - 2010.06.28 07:06:18.
