data_PCOD8144760
_publ_section_title
;
Structure prediction by ZEFSAII (Michael W. Deem and Ramdas Pophale) SiO2 
 PCOD8144760
Probable space group: C 2/C
;
_chemical_formula_sum "Si O2"
_cell_formula_units_Z 44
_cell_length_a 16.966938
_cell_length_b 12.097686
_cell_length_c 27.230722
_cell_angle_alpha 90.000000
_cell_angle_beta 159.266583
_cell_angle_gamma 90.000000
_cell_volume 1978.760296
_symmetry_space_group_name_H-M "C 2/C"
_symmetry_group_IT_number 15
_symmetry_cell_setting 'monoclinic'
loop_
_space_group_symop_operation_xyz
x,y,z
-x,y,1/2-z
-x,-y,-z
x,-y,1/2+z
1/2+x,1/2+y,z
1/2-x,1/2+y,1/2-z
1/2-x,1/2-y,-z
1/2+x,1/2-y,1/2+z
loop_
_atom_site_type_symbol
_atom_site_label
_atom_site_fract_x
_atom_site_fract_y
_atom_site_fract_z
Si Si1 0.256852 0.326579 0.120445
Si Si2 0.722157 0.526821 0.190813
Si Si3 0.617553 0.336338 0.062304
Si Si4 0.169968 0.627379 0.464279
Si Si5 0.000000 0.182726 0.250000
Si Si6 0.924517 0.992343 0.790178
O O1 0.500000 0.274171 0.250000
O O2 0.284298 0.418623 0.177974
O O3 0.154310 0.388698 0.013799
O O4 0.086947 0.232443 0.035922
O O5 0.740245 0.402511 0.178474
O O6 0.732988 0.537266 0.256133
O O7 0.940204 0.598097 0.302370
O O8 0.488925 0.576844 0.037236
O O9 0.783985 0.260563 0.127861
O O10 0.250000 0.750000 0.500000
O O11 0.358787 0.542629 0.556612
O O12 0.000889 0.109573 0.200936
#
# Coordination Sequence:
#
# PCOD8144760 Si02
#       6
#     8   8   8   8   4   8
#     4  10  21  44  70 101 131 179 232 292 336 416
#     4  11  26  45  67 102 138 190 236 284 353 427
#     4  11  27  45  67 101 146 187 230 295 358 422
#     4  11  22  42  72 103 130 178 233 286 342 412
#     4  12  26  46  68 106 150 188 228 296 374 412
#     4  11  24  43  71 103 138 183 233 289 349 426
#
# _framework density 22.236143999999999
#
# number of rings (size 3 to 8) (size 9 to 14) (size 15 to 20)
#    0.000    1.091    2.727    4.364    5.091    3.636 
#    3.273    0.000    0.000    0.000    0.000    0.000 
#    0.000    0.000    0.000    0.000    0.000    0.000 
#
# Total GULP energy -272701.648074 kJ/mol
# GULP energy per Si atom -12395.529458 kJ/mol
# Density = 2.218553 g / cm^3
# Si number density = 22.236144 Si / 1000 Ang^3
#
#
#
# Elastic Constant Matrix: (Units=GPa)
#
#
# Indices 1 2 3 4 5 6 
#
# 1 69.6706 32.5788 29.5345 0.0159 2.9971 -0.0031
# 2 32.5788 125.5226 61.3394 0.0156 16.6946 -0.0052
# 3 29.5345 61.3394 129.1512 -0.0121 9.8172 -0.0107
# 4 0.0159 0.0156 -0.0121 39.9149 0.0149 12.0228
# 5 2.9971 16.6946 9.8172 0.0149 27.4910 0.0012
# 6 -0.0031 -0.0052 -0.0107 12.0228 0.0012 34.9434
#
#
#
# Elastic Compliance Matrix: (Units=1/GPa)
#
#
# Indices 1 2 3 4 5 6 
#
# 1 0.016878 -0.003379 -0.002334 -0.000007 0.001045 0.000003
# 2 -0.003379 0.011668 -0.004377 -0.000003 -0.005154 0.000001
# 3 -0.002334 -0.004377 0.010417 0.000006 -0.000807 0.000000
# 4 -0.000007 -0.000003 0.000006 0.027950 -0.000014 -0.009617
# 5 0.001045 -0.005154 -0.000807 -0.000014 0.039680 0.000003
# 6 0.000003 0.000001 0.000000 -0.009617 0.000003 0.031926
#
#
# Mechanical properties :
#
#
# Convention : Reuss Voigt Hill
#
# Bulk Modulus (GPa) = 53.24215 63.47219 58.35717
# Shear Modulus (GPa) = 30.31017 33.86265 32.08641
#
# Velocity S-wave (km/s) = 3.69603 3.90662 3.80278
# Velocity P-wave (km/s) = 6.49693 6.99682 6.75150
#
# Compressibility (1/GPa) = 0.01878211
#
# Stress axis : x y z
#
# Youngs Moduli (GPa) = 59.24924 85.70271 95.99697
#
# Poissons Ratio (x) = 0.28958 0.22409
# Poissons Ratio (y) = 0.20020 0.42020
# Poissons Ratio (z) = 0.13831 0.37514
#
# Static dielectric constant tensor:
#      x y z
#    x 4.120650 -0.001820 0.062170 
#    y -0.001820 4.396240 -0.003710 
#    z 0.062170 -0.003710 4.515170 
# 
# 
# High freq. dielectric constant tensor:
#      x y z
#    x 1.877830 0.000000 0.002890 
#    y 0.000000 1.875500 -0.000010 
#    z 0.002890 -0.000010 1.882790 
# 
# From -- ./inp_files/316277.got.cif
#   From: 2010.06.25/outbox.cif.g09.slc.cpg/sg15_159_cif.got.tgz:316277.got - 2010.06.28 07:06:18.
