data_PCOD8144253
_publ_section_title
;
Structure prediction by ZEFSAII (Michael W. Deem and Ramdas Pophale) SiO2 
 PCOD8144253
Probable space group: C 2/C
;
_chemical_formula_sum "Si O2"
_cell_formula_units_Z 56
_cell_length_a 19.152474
_cell_length_b 7.344163
_cell_length_c 23.694392
_cell_angle_alpha 90.000000
_cell_angle_beta 128.282749
_cell_angle_gamma 90.000000
_cell_volume 2616.145609
_symmetry_space_group_name_H-M "C 2/C"
_symmetry_group_IT_number 15
_symmetry_cell_setting 'monoclinic'
loop_
_space_group_symop_operation_xyz
x,y,z
-x,y,1/2-z
-x,-y,-z
x,-y,1/2+z
1/2+x,1/2+y,z
1/2-x,1/2+y,1/2-z
1/2-x,1/2-y,-z
1/2+x,1/2-y,1/2+z
loop_
_atom_site_type_symbol
_atom_site_label
_atom_site_fract_x
_atom_site_fract_y
_atom_site_fract_z
Si Si1 0.081411 0.739724 0.034453
Si Si2 0.139271 0.644472 0.175614
Si Si3 0.061403 0.610122 0.390173
Si Si4 0.145414 0.226363 0.446797
Si Si5 0.738321 0.354506 0.319611
Si Si6 0.911865 0.058797 0.673513
Si Si7 0.393211 0.810306 0.469456
O O1 0.131899 0.787481 0.118965
O O2 0.094256 0.523472 0.036469
O O3 0.120095 0.833140 0.998135
O O4 0.977828 0.797405 0.986749
O O5 0.203253 0.479098 0.191829
O O6 0.178859 0.727722 0.251541
O O7 0.040410 0.576959 0.141809
O O8 0.102165 0.411114 0.401393
O O9 0.072626 0.732858 0.339859
O O10 0.114245 0.714662 0.466911
O O11 0.250000 0.250000 0.500000
O O12 0.108474 0.066542 0.389813
O O13 0.671106 0.464725 0.326009
O O14 0.804402 0.238914 0.393666
O O15 0.000000 0.991593 0.750000
#
# Coordination Sequence:
#
# PCOD8144253 Si02
#       7
#     8   8   8   8   8   8   8
#     4   8  16  36  60  90 123 165 217 272 335 390
#     4  10  21  42  66  91 134 176 223 281 348 403
#     4  10  22  46  67  93 139 185 214 278 369 404
#     4  11  23  41  70 101 132 181 234 282 339 413
#     4  11  22  40  64  98 129 170 231 283 328 404
#     4  12  26  44  65 101 144 179 225 286 349 419
#     4   8  16  34  65  87 120 170 217 271 327 394
#
# _framework density 21.405536000000001
#
# number of rings (size 3 to 8) (size 9 to 14) (size 15 to 20)
#    0.000    2.000    1.429    5.143    0.000    5.143 
#    7.714    1.429    0.000    0.000    0.000    0.000 
#    0.000    0.000    0.000    0.000    0.000    0.000 
#
# Total GULP energy -347050.140414 kJ/mol
# GULP energy per Si atom -12394.647872 kJ/mol
# Density = 2.135682 g / cm^3
# Si number density = 21.405536 Si / 1000 Ang^3
#
#
#
# Elastic Constant Matrix: (Units=GPa)
#
#
# Indices 1 2 3 4 5 6 
#
# 1 104.7974 24.5225 34.8907 0.0000 9.5789 0.0000
# 2 24.5225 50.9646 16.7727 0.0000 2.7523 -0.0001
# 3 34.8907 16.7727 143.5845 0.0000 13.2077 0.0000
# 4 0.0000 0.0000 0.0000 29.8491 0.0000 -10.0048
# 5 9.5789 2.7523 13.2077 0.0000 30.7199 0.0000
# 6 0.0000 -0.0001 0.0000 -10.0048 0.0000 25.7827
#
#
#
# Elastic Compliance Matrix: (Units=1/GPa)
#
#
# Indices 1 2 3 4 5 6 
#
# 1 0.011545 -0.004760 -0.002038 0.000000 -0.002297 0.000000
# 2 -0.004760 0.022389 -0.001469 0.000000 0.000110 0.000000
# 3 -0.002038 -0.001469 0.007872 0.000000 -0.002617 0.000000
# 4 0.000000 0.000000 0.000000 0.038511 0.000000 0.014944
# 5 -0.002297 0.000110 -0.002617 0.000000 0.034384 0.000000
# 6 0.000000 0.000000 0.000000 0.014944 0.000000 0.044585
#
#
# Mechanical properties :
#
#
# Convention : Reuss Voigt Hill
#
# Bulk Modulus (GPa) = 39.56908 50.19093 44.88000
# Shear Modulus (GPa) = 27.13805 32.14770 29.64288
#
# Velocity S-wave (km/s) = 3.56449 3.87956 3.72536
# Velocity P-wave (km/s) = 5.95536 6.60050 6.28621
#
# Compressibility (1/GPa) = 0.02527226
#
# Stress axis : x y z
#
# Youngs Moduli (GPa) = 86.62087 44.66415 127.03084
#
# Poissons Ratio (x) = 0.21261 0.25888
# Poissons Ratio (y) = 0.41233 0.18658
# Poissons Ratio (z) = 0.17653 0.06560
#
# Static dielectric constant tensor:
#      x y z
#    x 4.094260 0.000000 -0.114460 
#    y 0.000000 3.435630 0.000000 
#    z -0.114460 0.000000 4.474340 
# 
# 
# High freq. dielectric constant tensor:
#      x y z
#    x 1.851340 0.000000 -0.000770 
#    y 0.000000 1.799240 0.000000 
#    z -0.000770 0.000000 1.862850 
# 
# From -- ./inp_files/276635.got.cif
#   From: 2010.06.25/outbox.cif.g09.slc.cpg/sg15_139_cif.got.tgz:276635.got - 2010.06.28 07:06:18.
