data_PCOD8144629
_publ_section_title
;
Structure prediction by ZEFSAII (Michael W. Deem and Ramdas Pophale) SiO2 
 PCOD8144629
Probable space group: C 2/C
;
_chemical_formula_sum "Si O2"
_cell_formula_units_Z 52
_cell_length_a 20.045551
_cell_length_b 8.639099
_cell_length_c 14.861299
_cell_angle_alpha 90.000000
_cell_angle_beta 70.823552
_cell_angle_gamma 90.000000
_cell_volume 2430.806895
_symmetry_space_group_name_H-M "C 2/C"
_symmetry_group_IT_number 15
_symmetry_cell_setting 'monoclinic'
loop_
_space_group_symop_operation_xyz
x,y,z
-x,y,1/2-z
-x,-y,-z
x,-y,1/2+z
1/2+x,1/2+y,z
1/2-x,1/2+y,1/2-z
1/2-x,1/2-y,-z
1/2+x,1/2-y,1/2+z
loop_
_atom_site_type_symbol
_atom_site_label
_atom_site_fract_x
_atom_site_fract_y
_atom_site_fract_z
Si Si1 0.215843 0.003756 0.882751
Si Si2 0.251281 0.665553 0.805632
Si Si3 0.465732 0.914890 0.431295
Si Si4 0.682771 0.937267 0.505270
Si Si5 0.117733 0.820968 0.139851
Si Si6 0.000000 0.414279 0.750000
Si Si7 0.935281 0.062472 0.472867
O O1 0.223558 0.839322 0.830270
O O2 0.253562 0.123551 0.797265
O O3 0.255928 0.010727 0.960239
O O4 0.135195 0.056284 0.935258
O O5 0.203363 0.556937 0.891181
O O6 0.332061 0.631831 0.800251
O O7 0.463243 0.731751 0.436978
O O8 0.500000 0.000000 0.500000
O O9 0.385700 0.961779 0.450334
O O10 0.514275 0.972340 0.327462
O O11 0.667724 0.758087 0.540962
O O12 0.066474 0.693553 0.203136
O O13 0.076053 0.964534 0.114144
O O14 0.000000 0.000000 0.500000
#
# Coordination Sequence:
#
# PCOD8144629 Si02
#       7
#     8   8   8   8   8   4   8
#     4  11  25  42  69 103 133 178 231 273 342 401
#     4  11  23  42  68 100 133 178 225 282 336 406
#     4  11  27  44  71  99 138 182 222 280 349 405
#     4  10  21  47  67  92 142 173 216 282 344 402
#     4  10  21  43  70  92 135 180 223 280 337 399
#     4  10  24  46  68  98 130 180 230 276 348 402
#     4  12  25  45  68 101 139 180 229 283 337 406
#
# _framework density 21.392071999999999
#
# number of rings (size 3 to 8) (size 9 to 14) (size 15 to 20)
#    0.000    1.231    3.077    2.769    6.462    4.923 
#    0.000    0.000    0.000    0.000    0.000    0.000 
#    0.000    0.000    0.000    0.000    0.000    0.000 
#
# Total GULP energy -322359.940568 kJ/mol
# GULP energy per Si atom -12398.459253 kJ/mol
# Density = 2.134338 g / cm^3
# Si number density = 21.392072 Si / 1000 Ang^3
#
#
#
# Elastic Constant Matrix: (Units=GPa)
#
#
# Indices 1 2 3 4 5 6 
#
# 1 91.9523 35.9156 25.2601 0.0000 -5.6135 0.0000
# 2 35.9156 135.8388 51.9732 0.0000 1.2748 0.0000
# 3 25.2601 51.9732 122.9138 0.0000 -16.1761 0.0000
# 4 0.0000 0.0000 0.0000 40.1596 0.0000 2.2764
# 5 -5.6135 1.2748 -16.1761 0.0000 28.4071 0.0000
# 6 0.0000 0.0000 0.0000 2.2764 0.0000 25.7279
#
#
#
# Elastic Compliance Matrix: (Units=1/GPa)
#
#
# Indices 1 2 3 4 5 6 
#
# 1 0.012420 -0.002893 -0.001069 0.000000 0.001975 0.000000
# 2 -0.002893 0.009654 -0.003913 0.000000 -0.003233 0.000000
# 3 -0.001069 -0.003913 0.010816 0.000000 0.006123 0.000000
# 4 0.000000 0.000000 0.000000 0.025026 0.000000 -0.002214
# 5 0.001975 -0.003233 0.006123 0.000000 0.039225 0.000000
# 6 0.000000 0.000000 0.000000 -0.002214 0.000000 0.039064
#
#
# Mechanical properties :
#
#
# Convention : Reuss Voigt Hill
#
# Bulk Modulus (GPa) = 58.34656 64.11141 61.22899
# Shear Modulus (GPa) = 31.71212 34.69601 33.20406
#
# Velocity S-wave (km/s) = 3.85440 4.03166 3.94403
# Velocity P-wave (km/s) = 6.86605 7.19077 7.03028
#
# Compressibility (1/GPa) = 0.01713897
#
# Stress axis : x y z
#
# Youngs Moduli (GPa) = 80.51840 103.58224 92.45578
#
# Poissons Ratio (x) = 0.29969 0.09884
# Poissons Ratio (y) = 0.23296 0.36179
# Poissons Ratio (z) = 0.08607 0.40533
#
# Static dielectric constant tensor:
#      x y z
#    x 3.902140 0.000000 -0.197190 
#    y 0.000000 4.104910 0.000000 
#    z -0.197190 0.000000 4.066430 
# 
# 
# High freq. dielectric constant tensor:
#      x y z
#    x 1.846310 0.000000 -0.006590 
#    y 0.000000 1.836420 0.000000 
#    z -0.006590 0.000000 1.844850 
# 
# From -- ./inp_files/166211.got.cif
#   From: 2010.06.25/outbox.cif.g09.slc.cpg/sg15_84_cif.got.tgz:166211.got - 2010.06.28 07:06:18.
