data_PCOD8144348
_publ_section_title
;
Structure prediction by ZEFSAII (Michael W. Deem and Ramdas Pophale) SiO2 
 PCOD8144348
Probable space group: C 2/C
;
_chemical_formula_sum "Si O2"
_cell_formula_units_Z 48
_cell_length_a 8.454483
_cell_length_b 27.649446
_cell_length_c 8.616385
_cell_angle_alpha 90.000000
_cell_angle_beta 96.105938
_cell_angle_gamma 90.000000
_cell_volume 2002.754818
_symmetry_space_group_name_H-M "C 2/C"
_symmetry_group_IT_number 15
_symmetry_cell_setting 'monoclinic'
loop_
_space_group_symop_operation_xyz
x,y,z
-x,y,1/2-z
-x,-y,-z
x,-y,1/2+z
1/2+x,1/2+y,z
1/2-x,1/2+y,1/2-z
1/2-x,1/2-y,-z
1/2+x,1/2-y,1/2+z
loop_
_atom_site_type_symbol
_atom_site_label
_atom_site_fract_x
_atom_site_fract_y
_atom_site_fract_z
Si Si1 0.780395 0.483169 0.438296
Si Si2 0.319918 0.160157 0.280474
Si Si3 0.000000 0.431490 0.250000
Si Si4 0.313207 0.757689 0.183990
Si Si5 0.264945 0.359913 0.375567
Si Si6 0.500000 0.577074 0.750000
Si Si7 0.816406 0.061699 0.263697
O O1 0.635013 0.456296 0.336345
O O2 0.766844 0.541076 0.402135
O O3 0.752689 0.475899 0.616990
O O4 0.953104 0.464502 0.394951
O O5 0.500000 0.155885 0.250000
O O6 0.256579 0.212943 0.222067
O O7 0.288905 0.152707 0.458004
O O8 0.228681 0.115923 0.188353
O O9 0.147769 0.397757 0.289905
O O10 0.500000 0.757776 0.250000
O O11 0.242415 0.809854 0.225865
O O12 0.250000 0.750000 0.000000
O O13 0.436066 0.386124 0.378917
O O14 0.000000 0.058668 0.250000
#
# Coordination Sequence:
#
# PCOD8144348 Si02
#       7
#     8   8   4   8   8   4   8
#     4  11  25  40  64  97 129 181 228 286 349 416
#     4  11  25  42  67  96 138 178 231 284 353 413
#     4  10  22  40  66  92 136 170 228 286 346 414
#     4  10  22  44  70 102 138 184 232 286 352 419
#     4  10  21  42  68  96 132 173 226 284 347 415
#     4  10  22  40  66  94 130 172 230 276 358 410
#     4  12  25  42  65  94 136 177 232 285 352 416
#
# _framework density 23.966989000000002
#
# number of rings (size 3 to 8) (size 9 to 14) (size 15 to 20)
#    0.000    1.333    1.667    3.000    7.000    2.000 
#    0.000    3.333    0.000    0.000    0.000    0.000 
#    0.000    0.000    0.000    0.000    0.000    0.000 
#
# Total GULP energy -297318.602636 kJ/mol
# GULP energy per Si atom -12388.275110 kJ/mol
# Density = 2.391244 g / cm^3
# Si number density = 23.966989 Si / 1000 Ang^3
#
#
#
# Elastic Constant Matrix: (Units=GPa)
#
#
# Indices 1 2 3 4 5 6 
#
# 1 70.8602 25.0543 14.1381 0.0000 -24.9373 0.0000
# 2 25.0543 126.6109 3.3497 0.0000 -11.5895 0.0000
# 3 14.1381 3.3497 55.6098 0.0000 -10.8100 0.0000
# 4 0.0000 0.0000 0.0000 234.8482 0.0000 357.0014
# 5 -24.9373 -11.5895 -10.8100 0.0000 43.1783 0.0000
# 6 0.0000 0.0000 0.0000 357.0014 0.0000 570.5193
#
#
#
# Elastic Compliance Matrix: (Units=1/GPa)
#
#
# Indices 1 2 3 4 5 6 
#
# 1 0.019022 -0.002818 -0.002815 0.000000 0.009525 0.000000
# 2 -0.002818 0.008515 0.000348 0.000000 0.000745 0.000000
# 3 -0.002815 0.000348 0.019319 0.000000 0.003305 0.000000
# 4 0.000000 0.000000 0.000000 0.087297 0.000000 -0.054626
# 5 0.009525 0.000745 0.003305 0.000000 0.029688 0.000000
# 6 0.000000 0.000000 0.000000 -0.054626 0.000000 0.035935
#
#
# Mechanical properties :
#
#
# Convention : Reuss Voigt Hill
#
# Bulk Modulus (GPa) = 27.55737 37.57393 32.56565
# Shear Modulus (GPa) = 22.47786 183.74508 103.11147
#
# Velocity S-wave (km/s) = 3.06578 8.76541 6.56625
# Velocity P-wave (km/s) = 4.90460 10.86989 8.43237
#
# Compressibility (1/GPa) = 0.03628794
#
# Stress axis : x y z
#
# Youngs Moduli (GPa) = 52.56971 117.44225 51.76126
#
# Poissons Ratio (x) = 0.33094 0.14570
# Poissons Ratio (y) = 0.14813 -0.01803
# Poissons Ratio (z) = 0.14798 -0.04091
#
# Static dielectric constant tensor:
#      x y z
#    x 4.798840 0.000000 -0.237600 
#    y 0.000000 5.630040 0.000000 
#    z -0.237600 0.000000 4.149060 
# 
# 
# High freq. dielectric constant tensor:
#      x y z
#    x 1.959650 0.000000 -0.003960 
#    y 0.000000 1.986590 0.000000 
#    z -0.003960 0.000000 1.926170 
# 
# From -- ./inp_files/26174.got.cif
#   From: 2010.06.25/outbox.cif.g09.slc.cpg/sg15_14_cif.got.tgz:26174.got - 2010.06.28 07:06:18.
