data_PCOD8144067
_publ_section_title
;
Structure prediction by ZEFSAII (Michael W. Deem and Ramdas Pophale) SiO2 
 PCOD8144067
Probable space group: C 2/C
;
_chemical_formula_sum "Si O2"
_cell_formula_units_Z 48
_cell_length_a 12.011774
_cell_length_b 15.490762
_cell_length_c 26.455015
_cell_angle_alpha 90.000000
_cell_angle_beta 30.389858
_cell_angle_gamma 90.000000
_cell_volume 2490.212360
_symmetry_space_group_name_H-M "C 2/C"
_symmetry_group_IT_number 15
_symmetry_cell_setting 'monoclinic'
loop_
_space_group_symop_operation_xyz
x,y,z
-x,y,1/2-z
-x,-y,-z
x,-y,1/2+z
1/2+x,1/2+y,z
1/2-x,1/2+y,1/2-z
1/2-x,1/2-y,-z
1/2+x,1/2-y,1/2+z
loop_
_atom_site_type_symbol
_atom_site_label
_atom_site_fract_x
_atom_site_fract_y
_atom_site_fract_z
Si Si1 0.792054 0.344522 0.966740
Si Si2 0.213438 0.503700 0.950362
Si Si3 0.280912 0.679864 0.274163
Si Si4 0.500000 0.544422 0.250000
Si Si5 0.134489 0.841213 0.551388
Si Si6 0.427944 0.402959 0.033318
Si Si7 0.500000 0.829740 0.250000
O O1 0.037174 0.336202 0.848495
O O2 0.750000 0.250000 0.000000
O O3 0.772288 0.413063 0.019836
O O4 0.608615 0.359447 0.997146
O O5 0.416830 0.510682 0.830747
O O6 0.212268 0.417307 0.985656
O O7 0.000000 0.500000 0.000000
O O8 0.304519 0.607369 0.308368
O O9 0.428863 0.665441 0.168096
O O10 0.347841 0.772390 0.272096
O O11 0.250000 0.750000 0.500000
O O12 0.045245 0.862824 0.531760
O O13 0.175296 0.390181 0.151635
O O14 0.500000 0.500000 0.000000
#
# Coordination Sequence:
#
# PCOD8144067 Si02
#       7
#     8   8   8   4   8   8   4
#     4  12  25  43  67 100 141 174 225 287 346 396
#     4  11  23  44  68  99 132 175 227 284 330 408
#     4  10  21  41  71  98 127 183 228 277 337 414
#     4   9  20  40  70  91 128 176 228 267 334 399
#     4  11  24  44  70  99 134 180 233 275 339 417
#     4  12  26  46  67 103 142 182 224 291 349 413
#     4  11  22  44  72  93 138 188 226 273 364 413
#
# _framework density 19.275465000000001
#
# number of rings (size 3 to 8) (size 9 to 14) (size 15 to 20)
#    0.000    1.000    6.667    0.000    2.333    2.000 
#    6.000    0.000    0.000    0.000    0.000    0.000 
#    0.000    0.000    0.000    0.000    0.000    0.000 
#
# Total GULP energy -297382.257483 kJ/mol
# GULP energy per Si atom -12390.927395 kJ/mol
# Density = 1.923159 g / cm^3
# Si number density = 19.275465 Si / 1000 Ang^3
#
#
#
# Elastic Constant Matrix: (Units=GPa)
#
#
# Indices 1 2 3 4 5 6 
#
# 1 149.0652 65.5733 47.9088 0.0011 1.1695 0.0008
# 2 65.5733 158.7882 56.1139 0.0064 7.6467 0.0050
# 3 47.9088 56.1139 111.3552 -0.0378 -0.9982 0.0247
# 4 0.0011 0.0064 -0.0378 31.0257 0.0210 3.9072
# 5 1.1695 7.6467 -0.9982 0.0210 37.3270 -0.0021
# 6 0.0008 0.0050 0.0247 3.9072 -0.0021 29.6629
#
#
#
# Elastic Compliance Matrix: (Units=1/GPa)
#
#
# Indices 1 2 3 4 5 6 
#
# 1 0.008675 -0.002768 -0.002335 -0.000003 0.000233 0.000003
# 2 -0.002768 0.008652 -0.003184 -0.000005 -0.001771 0.000002
# 3 -0.002335 -0.003184 0.011599 0.000016 0.001036 -0.000011
# 4 -0.000003 -0.000005 0.000016 0.032775 -0.000017 -0.004317
# 5 0.000233 -0.001771 0.001036 -0.000017 0.027173 0.000004
# 6 0.000003 0.000002 -0.000011 -0.004317 0.000004 0.034281
#
#
# Mechanical properties :
#
#
# Convention : Reuss Voigt Hill
#
# Bulk Modulus (GPa) = 80.97555 84.26672 82.62113
# Shear Modulus (GPa) = 34.75908 36.24396 35.50152
#
# Velocity S-wave (km/s) = 4.25111 4.34097 4.29627
# Velocity P-wave (km/s) = 8.13614 8.30285 8.21992
#
# Compressibility (1/GPa) = 0.01234941
#
# Stress axis : x y z
#
# Youngs Moduli (GPa) = 115.27419 115.58574 86.21487
#
# Poissons Ratio (x) = 0.31999 0.20132
# Poissons Ratio (y) = 0.31913 0.27455
# Poissons Ratio (z) = 0.26918 0.36808
#
# Static dielectric constant tensor:
#      x y z
#    x 3.727630 -0.000010 0.120820 
#    y -0.000010 3.813830 0.000120 
#    z 0.120820 0.000120 3.629660 
# 
# 
# High freq. dielectric constant tensor:
#      x y z
#    x 1.760770 0.000000 0.001610 
#    y 0.000000 1.756020 0.000000 
#    z 0.001610 0.000000 1.757200 
# 
# From -- ./inp_files/143769.got.cif
#   From: 2010.06.25/outbox.cif.g09.slc.cpg/sg15_72_cif.got.tgz:143769.got - 2010.06.28 07:06:18.
