data_PCOD8144429
_publ_section_title
;
Structure prediction by ZEFSAII (Michael W. Deem and Ramdas Pophale) SiO2 
 PCOD8144429
Probable space group: C 2/C
;
_chemical_formula_sum "Si O2"
_cell_formula_units_Z 44
_cell_length_a 7.905845
_cell_length_b 25.691525
_cell_length_c 11.589446
_cell_angle_alpha 90.000000
_cell_angle_beta 124.629808
_cell_angle_gamma 90.000000
_cell_volume 1936.942343
_symmetry_space_group_name_H-M "C 2/C"
_symmetry_group_IT_number 15
_symmetry_cell_setting 'monoclinic'
loop_
_space_group_symop_operation_xyz
x,y,z
-x,y,1/2-z
-x,-y,-z
x,-y,1/2+z
1/2+x,1/2+y,z
1/2-x,1/2+y,1/2-z
1/2-x,1/2-y,-z
1/2+x,1/2-y,1/2+z
loop_
_atom_site_type_symbol
_atom_site_label
_atom_site_fract_x
_atom_site_fract_y
_atom_site_fract_z
Si Si1 0.844543 0.715927 0.937221
Si Si2 0.282968 0.399004 0.724206
Si Si3 0.789735 0.971988 0.942896
Si Si4 0.273233 0.280951 0.701768
Si Si5 0.500000 0.055424 0.750000
Si Si6 0.871809 0.597598 0.930478
O O1 0.095003 0.722974 0.035270
O O2 0.750000 0.750000 0.000000
O O3 0.731320 0.737243 0.780514
O O4 0.790264 0.655207 0.927746
O O5 0.500000 0.414080 0.750000
O O6 0.239648 0.431193 0.822524
O O7 0.276004 0.338585 0.758157
O O8 0.104505 0.411316 0.563821
O O9 0.630258 0.018935 0.884403
O O10 0.780431 0.942632 0.062941
O O11 0.000000 0.000000 0.000000
O O12 0.500000 0.267124 0.750000
O O13 0.366698 0.089952 0.788837
#
# Coordination Sequence:
#
# PCOD8144429 Si02
#       6
#     8   8   8   8   4   8
#     4  11  23  43  70  98 138 174 224 278 341 404
#     4  10  21  42  71  97 132 179 228 272 340 415
#     4  12  25  42  69  95 136 178 227 277 341 401
#     4  10  22  41  68  99 132 177 219 276 337 406
#     4  12  26  44  68  94 138 174 228 290 332 402
#     4  11  25  46  66 101 137 177 229 280 342 408
#
# _framework density 22.716214999999998
#
# number of rings (size 3 to 8) (size 9 to 14) (size 15 to 20)
#    0.000    1.091    1.818    3.818    3.818    2.909 
#    9.818    0.000    0.000    0.000    0.000    0.000 
#    0.000    0.000    0.000    0.000    0.000    0.000 
#
# Total GULP energy -272746.631549 kJ/mol
# GULP energy per Si atom -12397.574161 kJ/mol
# Density = 2.266451 g / cm^3
# Si number density = 22.716215 Si / 1000 Ang^3
#
#
#
# Elastic Constant Matrix: (Units=GPa)
#
#
# Indices 1 2 3 4 5 6 
#
# 1 100.0427 55.6149 11.8776 0.0000 -13.4171 0.0000
# 2 55.6149 126.1771 34.0601 0.0000 -21.6588 0.0000
# 3 11.8776 34.0601 59.6995 0.0000 -20.9253 0.0000
# 4 0.0000 0.0000 0.0000 32.4465 0.0000 -3.7702
# 5 -13.4171 -21.6588 -20.9253 0.0000 42.9026 0.0000
# 6 0.0000 0.0000 0.0000 -3.7702 0.0000 43.0439
#
#
#
# Elastic Compliance Matrix: (Units=1/GPa)
#
#
# Indices 1 2 3 4 5 6 
#
# 1 0.013392 -0.005958 0.001385 0.000000 0.001856 0.000000
# 2 -0.005958 0.012258 -0.005177 0.000000 0.001800 0.000000
# 3 0.001385 -0.005177 0.022513 0.000000 0.008800 0.000000
# 4 0.000000 0.000000 0.000000 0.031137 0.000000 0.002727
# 5 0.001856 0.001800 0.008800 0.000000 0.029090 0.000000
# 6 0.000000 0.000000 0.000000 0.002727 0.000000 0.023471
#
#
# Mechanical properties :
#
#
# Convention : Reuss Voigt Hill
#
# Bulk Modulus (GPa) = 34.88762 54.33608 44.61185
# Shear Modulus (GPa) = 31.07202 35.96972 33.52087
#
# Velocity S-wave (km/s) = 3.70244 3.98356 3.84557
# Velocity P-wave (km/s) = 5.80248 6.71787 6.27688
#
# Compressibility (1/GPa) = 0.02866347
#
# Stress axis : x y z
#
# Youngs Moduli (GPa) = 74.66867 81.57856 44.41828
#
# Poissons Ratio (x) = 0.48608 -0.06154
# Poissons Ratio (y) = 0.44490 0.22997
# Poissons Ratio (z) = -0.10345 0.42235
#
# Static dielectric constant tensor:
#      x y z
#    x 3.753470 0.000000 0.389060 
#    y 0.000000 4.328720 0.000000 
#    z 0.389060 0.000000 3.928320 
# 
# 
# High freq. dielectric constant tensor:
#      x y z
#    x 1.897840 0.000000 0.004230 
#    y 0.000000 1.909550 0.000000 
#    z 0.004230 0.000000 1.884290 
# 
# From -- ./inp_files/81558.got.cif
#   From: 2010.06.25/outbox.cif.g09.slc.cpg/sg15_41_cif.got.tgz:81558.got - 2010.06.28 07:06:18.
