data_PCOD8144485
_publ_section_title
;
Structure prediction by ZEFSAII (Michael W. Deem and Ramdas Pophale) SiO2 
 PCOD8144485
Probable space group: C 2/C
;
_chemical_formula_sum "Si O2"
_cell_formula_units_Z 52
_cell_length_a 25.501520
_cell_length_b 9.887858
_cell_length_c 10.765591
_cell_angle_alpha 90.000000
_cell_angle_beta 121.482412
_cell_angle_gamma 90.000000
_cell_volume 2315.013980
_symmetry_space_group_name_H-M "C 2/C"
_symmetry_group_IT_number 15
_symmetry_cell_setting 'monoclinic'
loop_
_space_group_symop_operation_xyz
x,y,z
-x,y,1/2-z
-x,-y,-z
x,-y,1/2+z
1/2+x,1/2+y,z
1/2-x,1/2+y,1/2-z
1/2-x,1/2-y,-z
1/2+x,1/2-y,1/2+z
loop_
_atom_site_type_symbol
_atom_site_label
_atom_site_fract_x
_atom_site_fract_y
_atom_site_fract_z
Si Si1 0.074627 0.233852 0.664658
Si Si2 0.902378 0.479390 0.973061
Si Si3 0.330279 0.145121 0.053892
Si Si4 0.000000 0.650094 0.750000
Si Si5 0.152557 0.020840 0.217673
Si Si6 0.780803 0.068609 0.448906
Si Si7 0.055361 0.747302 0.583834
O O1 0.103770 0.337404 0.602073
O O2 0.103572 0.287479 0.829436
O O3 0.000536 0.219825 0.581840
O O4 0.099975 0.090686 0.651549
O O5 0.927456 0.590659 0.908963
O O6 0.839552 0.534924 0.956704
O O7 0.948927 0.454566 0.142652
O O8 0.293297 0.066110 0.118898
O O9 0.292219 0.270982 0.954420
O O10 0.025695 0.757479 0.682451
O O11 0.199165 0.001197 0.157582
O O12 0.116025 0.160926 0.149515
O O13 0.187875 0.008605 0.393744
#
# Coordination Sequence:
#
# PCOD8144485 Si02
#       7
#     8   8   8   4   8   8   8
#     4  10  23  39  63  96 132 167 225 280 334 404
#     4  11  20  38  64  91 125 172 220 277 336 399
#     4  10  21  43  64  92 129 179 221 275 332 409
#     4  10  22  36  58 100 128 168 224 280 330 408
#     4  11  24  45  65 102 131 181 223 280 351 397
#     4  10  24  43  69  93 137 175 229 278 334 410
#     4  11  22  40  66  93 136 173 218 285 342 410
#
# _framework density 22.462067000000001
#
# number of rings (size 3 to 8) (size 9 to 14) (size 15 to 20)
#    0.000    1.538    1.538    4.154    6.462    0.000 
#    0.000    0.769    0.000    0.000    0.000    0.000 
#    0.000    0.000    0.000    0.000    0.000    0.000 
#
# Total GULP energy -322097.965878 kJ/mol
# GULP energy per Si atom -12388.383303 kJ/mol
# Density = 2.241094 g / cm^3
# Si number density = 22.462067 Si / 1000 Ang^3
#
#
#
# Elastic Constant Matrix: (Units=GPa)
#
#
# Indices 1 2 3 4 5 6 
#
# 1 89.3268 -13.4976 7.3218 0.0000 -2.9684 0.0000
# 2 -13.4976 51.8904 -1.0709 0.0000 8.8114 0.0000
# 3 7.3218 -1.0709 45.7170 0.0000 6.1324 0.0000
# 4 0.0000 0.0000 0.0000 22.2400 0.0000 -6.9159
# 5 -2.9684 8.8114 6.1324 0.0000 26.0125 0.0000
# 6 0.0000 0.0000 0.0000 -6.9159 0.0000 26.8147
#
#
#
# Elastic Compliance Matrix: (Units=1/GPa)
#
#
# Indices 1 2 3 4 5 6 
#
# 1 0.011818 0.002894 -0.001936 0.000000 0.000825 0.000000
# 2 0.002894 0.021250 0.000987 0.000000 -0.007101 0.000000
# 3 -0.001936 0.000987 0.023009 0.000000 -0.005979 0.000000
# 4 0.000000 0.000000 0.000000 0.048885 0.000000 0.012608
# 5 0.000825 -0.007101 -0.005979 0.000000 0.042352 0.000000
# 6 0.000000 0.000000 0.000000 0.012608 0.000000 0.040545
#
#
# Mechanical properties :
#
#
# Convention : Reuss Voigt Hill
#
# Bulk Modulus (GPa) = 16.67557 19.16012 17.91784
# Shear Modulus (GPa) = 24.51491 27.95885 26.23688
#
# Velocity S-wave (km/s) = 3.30721 3.53188 3.42139
# Velocity P-wave (km/s) = 4.69292 5.01804 4.85820
#
# Compressibility (1/GPa) = 0.05996798
#
# Stress axis : x y z
#
# Youngs Moduli (GPa) = 84.61518 47.05818 43.46146
#
# Poissons Ratio (x) = -0.13619 0.08412
# Poissons Ratio (y) = -0.24489 -0.04288
# Poissons Ratio (z) = 0.16378 -0.04643
#
# Static dielectric constant tensor:
#      x y z
#    x 4.239240 0.000000 0.144900 
#    y 0.000000 3.793930 0.000000 
#    z 0.144900 0.000000 4.194020 
# 
# 
# High freq. dielectric constant tensor:
#      x y z
#    x 1.894680 0.000000 -0.000830 
#    y 0.000000 1.875590 0.000000 
#    z -0.000830 0.000000 1.878660 
# 
# From -- ./inp_files/122051.got.cif
#   From: 2010.06.25/outbox.cif.g09.slc.cpg/sg15_62_cif.got.tgz:122051.got - 2010.06.28 07:06:18.
