data_PCOD8144238
_publ_section_title
;
Structure prediction by ZEFSAII (Michael W. Deem and Ramdas Pophale) SiO2 
 PCOD8144238
Probable space group: C 2/C
;
_chemical_formula_sum "Si O2"
_cell_formula_units_Z 60
_cell_length_a 10.990138
_cell_length_b 8.843483
_cell_length_c 25.239461
_cell_angle_alpha 90.000000
_cell_angle_beta 94.006304
_cell_angle_gamma 90.000000
_cell_volume 2447.056591
_symmetry_space_group_name_H-M "C 2/C"
_symmetry_group_IT_number 15
_symmetry_cell_setting 'monoclinic'
loop_
_space_group_symop_operation_xyz
x,y,z
-x,y,1/2-z
-x,-y,-z
x,-y,1/2+z
1/2+x,1/2+y,z
1/2-x,1/2+y,1/2-z
1/2-x,1/2-y,-z
1/2+x,1/2-y,1/2+z
loop_
_atom_site_type_symbol
_atom_site_label
_atom_site_fract_x
_atom_site_fract_y
_atom_site_fract_z
Si Si1 0.248107 0.661435 0.890614
Si Si2 0.498091 0.673236 0.551299
Si Si3 0.028296 0.157377 0.433356
Si Si4 0.115064 0.312808 0.152739
Si Si5 0.938169 0.581366 0.132887
Si Si6 0.000000 0.174802 0.250000
Si Si7 0.309148 0.455506 0.214282
Si Si8 0.370407 0.798787 0.794440
O O1 0.359640 0.635810 0.933727
O O2 0.192991 0.501446 0.865967
O O3 0.293876 0.769234 0.845512
O O4 0.142240 0.743719 0.919363
O O5 0.481985 0.713641 0.489230
O O6 0.429239 0.517102 0.563656
O O7 0.438763 0.809226 0.582269
O O8 0.913977 0.176997 0.388598
O O9 0.260614 0.355909 0.162048
O O10 0.043838 0.457050 0.127996
O O11 0.079974 0.275532 0.212888
O O12 0.984283 0.674023 0.187284
O O13 0.916579 0.076004 0.206736
O O14 0.363828 0.351372 0.261011
O O15 0.191317 0.551268 0.232595
#
# Coordination Sequence:
#
# PCOD8144238 Si02
#       8
#     8   8   8   8   8   4   8   8
#     4  10  21  42  66  88 128 172 203 261 327 374
#     4  10  22  42  67  97 132 159 217 269 312 388
#     4  10  22  42  67  96 129 172 207 266 328 376
#     4  10  23  41  65  90 129 169 211 257 322 376
#     4   9  21  40  63  95 124 165 213 258 314 381
#     4  12  24  42  66  86 126 170 206 264 320 378
#     4  11  22  41  61  89 123 167 212 261 311 373
#     4  10  22  42  60  89 128 162 214 263 308 379
#
# _framework density 24.519252999999999
#
# number of rings (size 3 to 8) (size 9 to 14) (size 15 to 20)
#    0.000    1.867    1.333    2.000    3.733    2.133 
#    4.800   10.667    0.000    0.000    0.000    0.000 
#    0.000    0.000    0.000    0.000    0.000    0.000 
#
# Total GULP energy -371810.936441 kJ/mol
# GULP energy per Si atom -12393.697881 kJ/mol
# Density = 2.446345 g / cm^3
# Si number density = 24.519253 Si / 1000 Ang^3
#
#
#
# Elastic Constant Matrix: (Units=GPa)
#
#
# Indices 1 2 3 4 5 6 
#
# 1 75.3834 16.1437 15.4621 0.0000 26.2525 0.0000
# 2 16.1437 93.8141 44.2886 0.0000 0.8476 0.0000
# 3 15.4621 44.2886 79.2384 0.0000 23.7416 0.0000
# 4 0.0000 0.0000 0.0000 44.5386 0.0000 15.5667
# 5 26.2525 0.8476 23.7416 0.0000 20.2815 0.0000
# 6 0.0000 0.0000 0.0000 15.5667 0.0000 29.3674
#
#
#
# Elastic Compliance Matrix: (Units=1/GPa)
#
#
# Indices 1 2 3 4 5 6 
#
# 1 0.042922 -0.020882 0.030313 0.000000 -0.090170 0.000000
# 2 -0.020882 0.027599 -0.029424 0.000000 0.060320 0.000000
# 3 0.030313 -0.029424 0.053198 0.000000 -0.100281 0.000000
# 4 0.000000 0.000000 0.000000 0.027558 0.000000 -0.014608
# 5 -0.090170 0.060320 -0.100281 0.000000 0.280891 0.000000
# 6 0.000000 0.000000 0.000000 -0.014608 0.000000 0.041794
#
#
# Mechanical properties :
#
#
# Convention : Reuss Voigt Hill
#
# Bulk Modulus (GPa) = 11.94289 44.46941 28.20615
# Shear Modulus (GPa) = 9.22749 30.34027 19.78388
#
# Velocity S-wave (km/s) = 1.94204 3.52149 2.84363
# Velocity P-wave (km/s) = 3.14803 5.89156 4.72338
#
# Compressibility (1/GPa) = 0.08373186
#
# Stress axis : x y z
#
# Youngs Moduli (GPa) = 23.29809 36.23361 18.79786
#
# Poissons Ratio (x) = 0.75663 -0.56982
# Poissons Ratio (y) = 0.48651 0.55311
# Poissons Ratio (z) = -0.70623 1.06615
#
# Static dielectric constant tensor:
#      x y z
#    x 4.473130 0.000000 0.526900 
#    y 0.000000 4.712440 0.000000 
#    z 0.526900 0.000000 4.418770 
# 
# 
# High freq. dielectric constant tensor:
#      x y z
#    x 1.965950 0.000000 0.028690 
#    y 0.000000 1.998440 0.000000 
#    z 0.028690 0.000000 1.957570 
# 
# From -- ./inp_files/310025.got.cif
#   From: 2010.06.25/outbox.cif.g09.slc.cpg/sg15_156_cif.got.tgz:310025.got - 2010.06.28 07:06:18.
