data_PCOD8144187
_publ_section_title
;
Structure prediction by ZEFSAII (Michael W. Deem and Ramdas Pophale) SiO2 
 PCOD8144187
Probable space group: C 2/C
;
_chemical_formula_sum "Si O2"
_cell_formula_units_Z 44
_cell_length_a 11.508966
_cell_length_b 15.009862
_cell_length_c 20.782996
_cell_angle_alpha 90.000000
_cell_angle_beta 34.208124
_cell_angle_gamma 90.000000
_cell_volume 2018.424456
_symmetry_space_group_name_H-M "C 2/C"
_symmetry_group_IT_number 15
_symmetry_cell_setting 'monoclinic'
loop_
_space_group_symop_operation_xyz
x,y,z
-x,y,1/2-z
-x,-y,-z
x,-y,1/2+z
1/2+x,1/2+y,z
1/2-x,1/2+y,1/2-z
1/2-x,1/2-y,-z
1/2+x,1/2-y,1/2+z
loop_
_atom_site_type_symbol
_atom_site_label
_atom_site_fract_x
_atom_site_fract_y
_atom_site_fract_z
Si Si1 0.804918 0.865522 0.540433
Si Si2 0.071340 0.183892 0.381344
Si Si3 0.044723 0.288676 0.877533
Si Si4 0.555423 0.130103 0.946169
Si Si5 0.500000 0.557388 0.750000
Si Si6 0.796943 0.965274 0.958053
O O1 0.815813 0.870412 0.612701
O O2 0.605380 0.806703 0.613990
O O3 0.005772 0.812554 0.420405
O O4 0.785226 0.964637 0.521543
O O5 0.221150 0.199206 0.252120
O O6 0.988487 0.278524 0.443176
O O7 0.872553 0.128656 0.450597
O O8 0.996097 0.362357 0.954563
O O9 0.801090 0.118029 0.825537
O O10 0.426775 0.048861 0.973336
O O11 0.459912 0.497015 0.830320
#
# Coordination Sequence:
#
# PCOD8144187 Si02
#       6
#     8   8   8   8   4   8
#     4  10  22  39  65  92 131 161 217 264 305 377
#     4  11  24  40  67  92 131 173 205 257 332 377
#     4  10  21  42  64  95 122 170 222 254 306 385
#     4  11  25  43  67  94 129 170 213 265 312 383
#     4  12  24  42  70  94 124 172 220 260 312 374
#     4  12  24  41  64 100 133 159 212 271 320 371
#
# _framework density 21.799181999999998
#
# number of rings (size 3 to 8) (size 9 to 14) (size 15 to 20)
#    0.000    1.091    1.818    4.364    7.636    0.000 
#    0.000    0.000    0.000    0.000    0.000    0.000 
#    0.000    0.000    0.000    0.000    0.000    0.000 
#
# Total GULP energy -272887.751524 kJ/mol
# GULP energy per Si atom -12403.988706 kJ/mol
# Density = 2.174957 g / cm^3
# Si number density = 21.799182 Si / 1000 Ang^3
#
#
#
# Elastic Constant Matrix: (Units=GPa)
#
#
# Indices 1 2 3 4 5 6 
#
# 1 94.2803 36.9532 28.5258 -0.0008 -5.9728 0.0002
# 2 36.9532 85.5810 18.3464 0.0039 -0.2986 -0.0011
# 3 28.5258 18.3464 84.5305 0.0012 -0.8224 0.0037
# 4 -0.0008 0.0039 0.0012 29.8671 -0.0023 0.7657
# 5 -5.9728 -0.2986 -0.8224 -0.0023 25.7506 -0.0005
# 6 0.0002 -0.0011 0.0037 0.7657 -0.0005 48.6314
#
#
#
# Elastic Compliance Matrix: (Units=1/GPa)
#
#
# Indices 1 2 3 4 5 6 
#
# 1 0.013924 -0.005245 -0.003531 0.000001 0.003056 0.000000
# 2 -0.005245 0.014231 -0.001329 -0.000002 -0.001094 0.000000
# 3 -0.003531 -0.001329 0.013306 0.000000 -0.000409 -0.000001
# 4 0.000001 -0.000002 0.000000 0.033495 0.000003 -0.000527
# 5 0.003056 -0.001094 -0.000409 0.000003 0.039517 0.000000
# 6 0.000000 0.000000 -0.000001 -0.000527 0.000000 0.020571
#
#
# Mechanical properties :
#
#
# Convention : Reuss Voigt Hill
#
# Bulk Modulus (GPa) = 47.05642 48.00472 47.53057
# Shear Modulus (GPa) = 30.79989 32.88759 31.84374
#
# Velocity S-wave (km/s) = 3.76292 3.88836 3.82616
# Velocity P-wave (km/s) = 6.36495 6.49833 6.43199
#
# Compressibility (1/GPa) = 0.02125109
#
# Stress axis : x y z
#
# Youngs Moduli (GPa) = 71.81689 70.27088 75.15343
#
# Poissons Ratio (x) = 0.36856 0.26536
# Poissons Ratio (y) = 0.37667 0.09990
# Poissons Ratio (z) = 0.25358 0.09341
#
# Static dielectric constant tensor:
#      x y z
#    x 3.948410 0.000000 0.144430 
#    y 0.000000 3.889590 0.000000 
#    z 0.144430 0.000000 3.694370 
# 
# 
# High freq. dielectric constant tensor:
#      x y z
#    x 1.858860 0.000000 0.009580 
#    y 0.000000 1.862830 0.000000 
#    z 0.009580 0.000000 1.842520 
# 
# From -- ./inp_files/87707.got.cif
#   From: 2010.06.25/outbox.cif.g09.slc.cpg/sg15_44_cif.got.tgz:87707.got - 2010.06.28 07:06:18.
