data_PCOD8144323
_publ_section_title
;
Structure prediction by ZEFSAII (Michael W. Deem and Ramdas Pophale) SiO2 
 PCOD8144323
Probable space group: C 2/C
;
_chemical_formula_sum "Si O2"
_cell_formula_units_Z 64
_cell_length_a 28.997820
_cell_length_b 8.815622
_cell_length_c 23.278355
_cell_angle_alpha 90.000000
_cell_angle_beta 151.557235
_cell_angle_gamma 90.000000
_cell_volume 2834.219769
_symmetry_space_group_name_H-M "C 2/C"
_symmetry_group_IT_number 15
_symmetry_cell_setting 'monoclinic'
loop_
_space_group_symop_operation_xyz
x,y,z
-x,y,1/2-z
-x,-y,-z
x,-y,1/2+z
1/2+x,1/2+y,z
1/2-x,1/2+y,1/2-z
1/2-x,1/2-y,-z
1/2+x,1/2-y,1/2+z
loop_
_atom_site_type_symbol
_atom_site_label
_atom_site_fract_x
_atom_site_fract_y
_atom_site_fract_z
Si Si1 0.360881 0.494189 0.486330
Si Si2 0.301135 0.195999 0.652013
Si Si3 0.082277 0.515119 0.300078
Si Si4 0.960386 0.154461 0.768560
Si Si5 0.745836 0.528419 0.926751
Si Si6 0.392203 0.366542 0.400903
Si Si7 0.101595 0.785989 0.623318
Si Si8 0.716010 0.209949 0.640468
O O1 0.301580 0.393988 0.467457
O O2 0.470548 0.553167 0.615239
O O3 0.361553 0.385582 0.432597
O O4 0.293423 0.640581 0.407728
O O5 0.280704 0.352719 0.598158
O O6 0.337437 0.218179 0.757152
O O7 0.386301 0.106982 0.712594
O O8 0.032550 0.663286 0.215575
O O9 0.171683 0.570498 0.437279
O O10 0.000000 0.437678 0.250000
O O11 0.849727 0.118258 0.660123
O O12 0.000000 0.107009 0.750000
O O13 0.782766 0.568938 0.902557
O O14 0.487157 0.261616 0.503099
O O15 0.390887 0.531160 0.369301
O O16 0.315507 0.266226 0.283080
O O17 0.132459 0.703141 0.597711
#
# Coordination Sequence:
#
# PCOD8144323 Si02
#       8
#     8   8   8   8   8   8   8   8
#     4  11  24  42  71 102 138 188 230 286 353 416
#     4  12  24  45  69 104 145 177 231 289 358 416
#     4  11  26  47  68 101 139 177 237 294 344 418
#     4  11  24  47  73  98 131 183 241 290 344 419
#     4  12  25  43  74 102 139 187 225 294 354 412
#     4  10  21  42  68 100 141 182 235 278 347 408
#     4  10  22  41  68 100 139 185 228 283 342 415
#     4  11  22  41  68 102 140 184 236 280 339 426
#
# _framework density 22.58117
#
# number of rings (size 3 to 8) (size 9 to 14) (size 15 to 20)
#    0.000    1.000    2.500    4.500    3.500    2.500 
#    2.250    1.875    0.000    0.000    0.000    0.000 
#    0.000    0.000    0.000    0.000    0.000    0.000 
#
# Total GULP energy -396642.002204 kJ/mol
# GULP energy per Si atom -12395.062569 kJ/mol
# Density = 2.252977 g / cm^3
# Si number density = 22.581170 Si / 1000 Ang^3
#
#
#
# Elastic Constant Matrix: (Units=GPa)
#
#
# Indices 1 2 3 4 5 6 
#
# 1 99.6378 43.1445 20.2262 0.0000 13.8469 0.0000
# 2 43.1445 74.4670 18.4540 0.0000 8.8567 0.0000
# 3 20.2262 18.4540 96.4424 0.0000 11.4502 0.0000
# 4 0.0000 0.0000 0.0000 13.4224 0.0000 -7.2901
# 5 13.8469 8.8567 11.4502 0.0000 36.5973 0.0000
# 6 0.0000 0.0000 0.0000 -7.2901 0.0000 22.5852
#
#
#
# Elastic Compliance Matrix: (Units=1/GPa)
#
#
# Indices 1 2 3 4 5 6 
#
# 1 0.013906 -0.007406 -0.001129 0.000000 -0.003116 0.000000
# 2 -0.007406 0.018297 -0.001823 0.000000 -0.001056 0.000000
# 3 -0.001129 -0.001823 0.011270 0.000000 -0.002658 0.000000
# 4 0.000000 0.000000 0.000000 0.090340 0.000000 0.029160
# 5 -0.003116 -0.001056 -0.002658 0.000000 0.029590 0.000000
# 6 0.000000 0.000000 0.000000 0.029160 0.000000 0.053689
#
#
# Mechanical properties :
#
#
# Convention : Reuss Voigt Hill
#
# Bulk Modulus (GPa) = 43.94327 48.24405 46.09366
# Shear Modulus (GPa) = 20.37548 27.10248 23.73898
#
# Velocity S-wave (km/s) = 3.00713 3.46818 3.24585
# Velocity P-wave (km/s) = 5.61778 6.11955 5.87402
#
# Compressibility (1/GPa) = 0.02275662
#
# Stress axis : x y z
#
# Youngs Moduli (GPa) = 71.91380 54.65402 88.73123
#
# Poissons Ratio (x) = 0.40478 0.10020
# Poissons Ratio (y) = 0.53260 0.16171
# Poissons Ratio (z) = 0.08121 0.09961
#
# Static dielectric constant tensor:
#      x y z
#    x 4.226470 0.000000 0.178880 
#    y 0.000000 3.942110 0.000000 
#    z 0.178880 0.000000 4.267560 
# 
# 
# High freq. dielectric constant tensor:
#      x y z
#    x 1.903150 0.000000 0.008560 
#    y 0.000000 1.877340 0.000000 
#    z 0.008560 0.000000 1.894570 
# 
# From -- ./inp_files/284444.got.cif
#   From: 2010.06.25/outbox.cif.g09.slc.cpg/sg15_143_cif.got.tgz:284444.got - 2010.06.28 07:06:18.
