data_PCOD8144307
_publ_section_title
;
Structure prediction by ZEFSAII (Michael W. Deem and Ramdas Pophale) SiO2 
 PCOD8144307
Probable space group: C 2/C
;
_chemical_formula_sum "Si O2"
_cell_formula_units_Z 60
_cell_length_a 12.895759
_cell_length_b 24.145416
_cell_length_c 8.916332
_cell_angle_alpha 90.000000
_cell_angle_beta 90.212744
_cell_angle_gamma 90.000000
_cell_volume 2776.290058
_symmetry_space_group_name_H-M "C 2/C"
_symmetry_group_IT_number 15
_symmetry_cell_setting 'monoclinic'
loop_
_space_group_symop_operation_xyz
x,y,z
-x,y,1/2-z
-x,-y,-z
x,-y,1/2+z
1/2+x,1/2+y,z
1/2-x,1/2+y,1/2-z
1/2-x,1/2-y,-z
1/2+x,1/2-y,1/2+z
loop_
_atom_site_type_symbol
_atom_site_label
_atom_site_fract_x
_atom_site_fract_y
_atom_site_fract_z
Si Si1 0.473228 0.200682 0.082910
Si Si2 0.000000 0.009722 0.750000
Si Si3 0.335687 0.737458 0.379997
Si Si4 0.108296 0.327758 0.334110
Si Si5 0.700545 0.038989 0.121561
Si Si6 0.888472 0.551359 0.676637
Si Si7 0.771544 0.371243 0.643092
Si Si8 0.640714 0.536519 0.005725
O O1 0.500000 0.221217 0.250000
O O2 0.380194 0.154753 0.082646
O O3 0.442410 0.252319 0.973295
O O4 0.580354 0.177488 0.011535
O O5 0.080723 0.969796 0.662944
O O6 0.940356 0.048838 0.629699
O O7 0.250000 0.750000 0.500000
O O8 0.323332 0.777885 0.234796
O O9 0.317694 0.674734 0.325913
O O10 0.161688 0.387248 0.304242
O O11 0.000000 0.327641 0.250000
O O12 0.708433 0.098747 0.198860
O O13 0.686811 0.993049 0.249519
O O14 0.804190 0.022342 0.031416
O O15 0.605324 0.039512 0.002372
O O16 0.000000 0.546114 0.750000
O O17 0.725911 0.414381 0.520220
#
# Coordination Sequence:
#
# PCOD8144307 Si02
#       8
#     8   4   8   8   8   8   8   8
#     4  10  21  42  67  95 139 178 219 280 344 408
#     4  10  22  44  64  84 126 172 220 292 334 378
#     4   9  21  41  66  89 122 176 227 285 338 388
#     4   9  20  39  62  91 127 178 222 269 334 394
#     4  12  23  40  61 101 132 178 229 271 334 398
#     4  11  24  36  61  93 142 184 222 263 319 413
#     4  11  23  41  69  96 135 175 227 279 340 401
#     4  11  22  42  65  90 125 170 224 279 335 393
#
# _framework density 21.611574000000001
#
# number of rings (size 3 to 8) (size 9 to 14) (size 15 to 20)
#    0.000    1.600    2.667    1.200    7.467    1.600 
#    4.800    6.000    0.000    0.000    0.000    0.000 
#    0.000    0.000    0.000    0.000    0.000    0.000 
#
# Total GULP energy -371751.449952 kJ/mol
# GULP energy per Si atom -12391.714998 kJ/mol
# Density = 2.156238 g / cm^3
# Si number density = 21.611574 Si / 1000 Ang^3
#
#
#
# Elastic Constant Matrix: (Units=GPa)
#
#
# Indices 1 2 3 4 5 6 
#
# 1 66.3076 37.2305 38.6753 0.0000 -2.0029 0.0000
# 2 37.2305 133.1054 62.4295 0.0000 -4.1094 0.0000
# 3 38.6753 62.4295 154.3198 0.0000 8.0295 0.0000
# 4 0.0000 0.0000 0.0000 35.6599 0.0000 1.2956
# 5 -2.0029 -4.1094 8.0295 0.0000 43.4437 0.0000
# 6 0.0000 0.0000 0.0000 1.2956 0.0000 33.8377
#
#
#
# Elastic Compliance Matrix: (Units=1/GPa)
#
#
# Indices 1 2 3 4 5 6 
#
# 1 0.019178 -0.003760 -0.003345 0.000000 0.001147 0.000000
# 2 -0.003760 0.010119 -0.003223 0.000000 0.001379 0.000000
# 3 -0.003345 -0.003223 0.008730 0.000000 -0.002073 0.000000
# 4 0.000000 0.000000 0.000000 0.028082 0.000000 -0.001075
# 5 0.001147 0.001379 -0.002073 0.000000 0.023585 0.000000
# 6 0.000000 0.000000 0.000000 -0.001075 0.000000 0.029594
#
#
# Mechanical properties :
#
#
# Convention : Reuss Voigt Hill
#
# Bulk Modulus (GPa) = 57.56700 70.04483 63.80592
# Shear Modulus (GPa) = 34.30923 36.94811 35.62867
#
# Velocity S-wave (km/s) = 3.98872 4.13927 4.06469
# Velocity P-wave (km/s) = 6.92157 7.43814 7.18450
#
# Compressibility (1/GPa) = 0.01737106
#
# Stress axis : x y z
#
# Youngs Moduli (GPa) = 52.14302 98.82627 114.54720
#
# Poissons Ratio (x) = 0.37158 0.38315
# Poissons Ratio (y) = 0.19606 0.36918
# Poissons Ratio (z) = 0.17441 0.31851
#
# Static dielectric constant tensor:
#      x y z
#    x 4.102380 0.000000 -0.043640 
#    y 0.000000 4.490150 0.000000 
#    z -0.043640 0.000000 4.341170 
# 
# 
# High freq. dielectric constant tensor:
#      x y z
#    x 1.828080 0.000000 0.003950 
#    y 0.000000 1.827570 0.000000 
#    z 0.003950 0.000000 1.868400 
# 
# From -- ./inp_files/42229.got.cif
#   From: 2010.06.25/outbox.cif.g09.slc.cpg/sg15_22_cif.got.tgz:42229.got - 2010.06.28 07:06:18.
