data_PCOD8144036
_publ_section_title
;
Structure prediction by ZEFSAII (Michael W. Deem and Ramdas Pophale) SiO2 
 PCOD8144036
Probable space group: C 2/C
;
_chemical_formula_sum "Si O2"
_cell_formula_units_Z 56
_cell_length_a 16.097614
_cell_length_b 9.691606
_cell_length_c 25.148643
_cell_angle_alpha 90.000000
_cell_angle_beta 146.452237
_cell_angle_gamma 90.000000
_cell_volume 2168.242217
_symmetry_space_group_name_H-M "C 2/C"
_symmetry_group_IT_number 15
_symmetry_cell_setting 'monoclinic'
loop_
_space_group_symop_operation_xyz
x,y,z
-x,y,1/2-z
-x,-y,-z
x,-y,1/2+z
1/2+x,1/2+y,z
1/2-x,1/2+y,1/2-z
1/2-x,1/2-y,-z
1/2+x,1/2-y,1/2+z
loop_
_atom_site_type_symbol
_atom_site_label
_atom_site_fract_x
_atom_site_fract_y
_atom_site_fract_z
Si Si1 0.109684 0.392205 0.083168
Si Si2 0.424947 0.650179 0.367441
Si Si3 0.385728 0.022301 0.139986
Si Si4 0.102485 0.605370 0.164155
Si Si5 0.144087 0.927109 0.363945
Si Si6 0.404847 0.720764 0.146777
Si Si7 0.419678 0.636142 0.551527
O O1 0.027040 0.253182 0.059235
O O2 0.175888 0.483305 0.167513
O O3 0.000000 0.500000 0.000000
O O4 0.230500 0.349168 0.103046
O O5 0.243593 0.664856 0.271602
O O6 0.483770 0.707143 0.343247
O O7 0.479876 0.496424 0.409110
O O8 0.500000 0.048788 0.250000
O O9 0.478709 0.040696 0.136225
O O10 0.241286 0.123689 0.064800
O O11 0.315594 0.866212 0.097704
O O12 0.014476 0.728022 0.084445
O O13 0.000000 0.934657 0.250000
O O14 0.109686 0.847754 0.400420
O O15 0.200194 0.084340 0.407614
O O16 0.500000 0.729949 0.250000
#
# Coordination Sequence:
#
# PCOD8144036 Si02
#       7
#     8   8   8   8   8   8   8
#     4  12  26  43  70 103 142 179 230 295 363 422
#     4  11  24  45  72 106 140 189 237 302 365 432
#     4  11  25  44  71 101 144 193 245 300 355 434
#     4  12  24  46  71 105 145 185 235 309 366 421
#     4  10  21  41  70 100 135 186 234 286 350 438
#     4   9  19  39  69  97 132 181 244 284 349 422
#     4  11  26  45  76 105 144 190 248 290 365 437
#
# _framework density 25.827373000000001
#
# number of rings (size 3 to 8) (size 9 to 14) (size 15 to 20)
#    0.000    1.143    1.429    5.571    2.000    4.000 
#    0.000    1.429    0.000    0.000    0.000    0.000 
#    0.000    0.000    0.000    0.000    0.000    0.000 
#
# Total GULP energy -347066.305747 kJ/mol
# GULP energy per Si atom -12395.225205 kJ/mol
# Density = 2.576859 g / cm^3
# Si number density = 25.827373 Si / 1000 Ang^3
#
#
#
# Elastic Constant Matrix: (Units=GPa)
#
#
# Indices 1 2 3 4 5 6 
#
# 1 102.5292 45.7513 11.1129 0.0000 -5.3233 0.0000
# 2 45.7513 124.7769 16.6772 0.0000 -20.6448 0.0000
# 3 11.1129 16.6772 74.0144 0.0000 14.3979 0.0000
# 4 0.0000 0.0000 0.0000 29.3950 0.0000 -4.4919
# 5 -5.3233 -20.6448 14.3979 0.0000 30.3287 0.0000
# 6 0.0000 0.0000 0.0000 -4.4919 0.0000 52.5889
#
#
#
# Elastic Compliance Matrix: (Units=1/GPa)
#
#
# Indices 1 2 3 4 5 6 
#
# 1 0.011715 -0.004293 -0.000687 0.000000 -0.000540 0.000000
# 2 -0.004293 0.011545 -0.003678 0.000000 0.008851 0.000000
# 3 -0.000687 -0.003678 0.016475 0.000000 -0.010446 0.000000
# 4 0.000000 0.000000 0.000000 0.034469 0.000000 0.002944
# 5 -0.000540 0.008851 -0.010446 0.000000 0.043861 0.000000
# 6 0.000000 0.000000 0.000000 0.002944 0.000000 0.019267
#
#
# Mechanical properties :
#
#
# Convention : Reuss Voigt Hill
#
# Bulk Modulus (GPa) = 44.60652 49.82259 47.21455
# Shear Modulus (GPa) = 30.84108 37.64778 34.24443
#
# Velocity S-wave (km/s) = 3.45936 3.82209 3.64524
# Velocity P-wave (km/s) = 5.76756 6.22979 6.00312
#
# Compressibility (1/GPa) = 0.02241825
#
# Stress axis : x y z
#
# Youngs Moduli (GPa) = 85.35728 86.62066 60.69892
#
# Poissons Ratio (x) = 0.37189 0.04167
# Poissons Ratio (y) = 0.36646 0.22328
# Poissons Ratio (z) = 0.05860 0.31863
#
# Static dielectric constant tensor:
#      x y z
#    x 4.136390 0.000000 -0.167560 
#    y 0.000000 5.012440 0.000000 
#    z -0.167560 0.000000 4.862160 
# 
# 
# High freq. dielectric constant tensor:
#      x y z
#    x 2.019330 0.000000 -0.009730 
#    y 0.000000 2.061380 0.000000 
#    z -0.009730 0.000000 2.032460 
# 
# From -- ./inp_files/281449.got.cif
#   From: 2010.06.25/outbox.cif.g09.slc.cpg/sg15_141_cif.got.tgz:281449.got - 2010.06.28 07:06:18.
