data_PCOD8144418
_publ_section_title
;
Structure prediction by ZEFSAII (Michael W. Deem and Ramdas Pophale) SiO2 
 PCOD8144418
Probable space group: C 2/C
;
_chemical_formula_sum "Si O2"
_cell_formula_units_Z 48
_cell_length_a 13.400308
_cell_length_b 29.431399
_cell_length_c 11.285767
_cell_angle_alpha 90.000000
_cell_angle_beta 32.515900
_cell_angle_gamma 90.000000
_cell_volume 2392.557651
_symmetry_space_group_name_H-M "C 2/C"
_symmetry_group_IT_number 15
_symmetry_cell_setting 'monoclinic'
loop_
_space_group_symop_operation_xyz
x,y,z
-x,y,1/2-z
-x,-y,-z
x,-y,1/2+z
1/2+x,1/2+y,z
1/2-x,1/2+y,1/2-z
1/2-x,1/2-y,-z
1/2+x,1/2-y,1/2+z
loop_
_atom_site_type_symbol
_atom_site_label
_atom_site_fract_x
_atom_site_fract_y
_atom_site_fract_z
Si Si1 0.275489 0.302041 0.723580
Si Si2 0.011126 0.633686 0.102212
Si Si3 0.793262 0.201062 0.714253
Si Si4 0.214481 0.070381 0.038909
Si Si5 0.288589 0.322952 0.966167
Si Si6 0.003024 0.548813 0.939985
O O1 0.176156 0.339981 0.744971
O O2 0.231775 0.252406 0.714074
O O3 0.492723 0.313888 0.500947
O O4 0.194760 0.304336 0.939582
O O5 0.000000 0.619877 0.250000
O O6 0.034575 0.587488 0.005982
O O7 0.186687 0.666735 0.906822
O O8 0.702802 0.198351 0.672213
O O9 0.238353 0.123677 0.998475
O O10 0.000000 0.054966 0.250000
O O11 0.306450 0.056643 0.071386
O O12 0.323712 0.047181 0.822644
O O13 0.500000 0.307913 0.750000
O O14 0.000000 0.500000 0.000000
#
# Coordination Sequence:
#
# PCOD8144418 Si02
#       6
#     8   8   8   8   8   8
#     4  11  22  40  62  94 128 168 214 263 322 387
#     4  12  27  43  62  89 131 179 223 266 314 385
#     4  11  22  40  62  94 128 168 214 263 322 387
#     4  10  21  42  71 101 133 165 204 282 347 381
#     4   9  18  34  64  97 127 157 200 257 332 383
#     4  11  25  44  72  99 129 172 224 273 331 397
#
# _framework density 20.062213
#
# number of rings (size 3 to 8) (size 9 to 14) (size 15 to 20)
#    0.000    1.333    5.000    0.500    2.333    2.667 
#    0.000    0.000    0.000    0.000    0.000    0.000 
#    0.000    0.000    0.000    0.000    0.000    0.000 
#
# Total GULP energy -297623.028136 kJ/mol
# GULP energy per Si atom -12400.959506 kJ/mol
# Density = 2.001655 g / cm^3
# Si number density = 20.062213 Si / 1000 Ang^3
#
#
#
# Elastic Constant Matrix: (Units=GPa)
#
#
# Indices 1 2 3 4 5 6 
#
# 1 85.9793 12.1983 27.5103 0.0000 1.5175 0.0000
# 2 12.1983 84.9727 7.8571 0.0000 3.9508 0.0000
# 3 27.5103 7.8571 78.5482 0.0000 -9.5456 0.0000
# 4 0.0000 0.0000 0.0000 27.5839 0.0000 9.8825
# 5 1.5175 3.9508 -9.5456 0.0000 40.2095 0.0000
# 6 0.0000 0.0000 0.0000 9.8825 0.0000 -19.2131
#
#
#
# Elastic Compliance Matrix: (Units=1/GPa)
#
#
# Indices 1 2 3 4 5 6 
#
# 1 0.013368 -0.001413 -0.004721 0.000000 -0.001486 0.000000
# 2 -0.001413 0.012115 -0.000880 0.000000 -0.001346 0.000000
# 3 -0.004721 -0.000880 0.014936 0.000000 0.003810 0.000000
# 4 0.000000 0.000000 0.000000 0.030612 0.000000 0.015746
# 5 -0.001486 -0.001346 0.003810 0.000000 0.025963 0.000000
# 6 0.000000 0.000000 0.000000 0.015746 0.000000 -0.043949
#
#
# Mechanical properties :
#
#
# Convention : Reuss Voigt Hill
#
# Bulk Modulus (GPa) = 37.89453 38.29239 38.09346
# Shear Modulus (GPa) = 65.90095 23.17834 44.53965
#
# Velocity S-wave (km/s) = 5.73756 3.40269 4.71688
# Velocity P-wave (km/s) = 7.92605 5.87929 6.97812
#
# Compressibility (1/GPa) = 0.02638903
#
# Stress axis : x y z
#
# Youngs Moduli (GPa) = 74.80499 82.53970 66.95361
#
# Poissons Ratio (x) = 0.11666 0.31610
# Poissons Ratio (y) = 0.10573 0.05895
# Poissons Ratio (z) = 0.35317 0.07267
#
# Static dielectric constant tensor:
#      x y z
#    x 3.714010 0.000000 -0.038900 
#    y 0.000000 3.484910 0.000000 
#    z -0.038900 0.000000 3.698170 
# 
# 
# High freq. dielectric constant tensor:
#      x y z
#    x 1.779720 0.000000 -0.006240 
#    y 0.000000 1.776680 0.000000 
#    z -0.006240 0.000000 1.784120 
# 
# From -- ./inp_files/101259.got.cif
#   From: 2010.06.25/outbox.cif.g09.slc.cpg/sg15_51_cif.got.tgz:101259.got - 2010.06.28 07:06:18.
