data_PCOD8144676
_publ_section_title
;
Structure prediction by ZEFSAII (Michael W. Deem and Ramdas Pophale) SiO2 
 PCOD8144676
Probable space group: C 2/C
;
_chemical_formula_sum "Si O2"
_cell_formula_units_Z 40
_cell_length_a 27.240145
_cell_length_b 5.194363
_cell_length_c 12.245985
_cell_angle_alpha 90.000000
_cell_angle_beta 66.271457
_cell_angle_gamma 90.000000
_cell_volume 1586.265472
_symmetry_space_group_name_H-M "C 2/C"
_symmetry_group_IT_number 15
_symmetry_cell_setting 'monoclinic'
loop_
_space_group_symop_operation_xyz
x,y,z
-x,y,1/2-z
-x,-y,-z
x,-y,1/2+z
1/2+x,1/2+y,z
1/2-x,1/2+y,1/2-z
1/2-x,1/2-y,-z
1/2+x,1/2-y,1/2+z
loop_
_atom_site_type_symbol
_atom_site_label
_atom_site_fract_x
_atom_site_fract_y
_atom_site_fract_z
Si Si1 0.920217 0.027418 0.152964
Si Si2 0.600019 0.076041 0.644822
Si Si3 0.017605 0.306671 0.578406
Si Si4 0.301406 0.816729 0.024545
Si Si5 0.337269 0.685722 0.589557
O O1 0.907440 0.284551 0.232734
O O2 0.867652 0.845211 0.179617
O O3 0.939133 0.117275 0.015792
O O4 0.965866 0.852731 0.169473
O O5 0.616055 0.293412 0.543245
O O6 0.543933 0.949657 0.657961
O O7 0.647792 0.860199 0.602681
O O8 0.000000 0.500000 0.500000
O O9 0.305600 0.576751 0.101045
O O10 0.297268 0.067187 0.110165
O O11 0.250000 0.750000 0.000000
#
# Coordination Sequence:
#
# PCOD8144676 Si02
#       5
#     8   8   8   8   8
#     4  11  23  44  69 101 154 196 254 314 381 459
#     4  10  24  42  72 109 145 202 249 310 392 454
#     4  11  22  45  65 103 147 202 257 317 367 451
#     4  10  21  43  76 106 144 187 243 318 389 447
#     4  10  21  44  71 106 145 187 248 314 377 453
#
# _framework density 25.216462
#
# number of rings (size 3 to 8) (size 9 to 14) (size 15 to 20)
#    1.200    0.400    4.000    0.600    0.000    2.400 
#    3.600    0.000    4.400    0.000    0.000    0.000 
#    0.000    0.000    0.000    0.000    0.000    0.000 
#
# Total GULP energy -247771.651610 kJ/mol
# GULP energy per Si atom -12388.582581 kJ/mol
# Density = 2.515907 g / cm^3
# Si number density = 25.216462 Si / 1000 Ang^3
#
#
#
# Elastic Constant Matrix: (Units=GPa)
#
#
# Indices 1 2 3 4 5 6 
#
# 1 171.7482 71.5540 43.0584 0.0000 38.0275 0.0000
# 2 71.5540 177.8202 27.6129 0.0000 25.5299 0.0000
# 3 43.0584 27.6129 51.1417 0.0000 17.6090 0.0000
# 4 0.0000 0.0000 0.0000 47.3039 0.0000 24.3143
# 5 38.0275 25.5299 17.6090 0.0000 27.6661 0.0000
# 6 0.0000 0.0000 0.0000 24.3143 0.0000 47.7830
#
#
#
# Elastic Compliance Matrix: (Units=1/GPa)
#
#
# Indices 1 2 3 4 5 6 
#
# 1 0.009599 -0.001977 -0.003970 0.000000 -0.008844 0.000000
# 2 -0.001977 0.007028 -0.001067 0.000000 -0.003090 0.000000
# 3 -0.003970 -0.001067 0.027219 0.000000 -0.010884 0.000000
# 4 0.000000 0.000000 0.000000 0.028627 0.000000 -0.014567
# 5 -0.008844 -0.003090 -0.010884 0.000000 0.058080 0.000000
# 6 0.000000 0.000000 0.000000 -0.014567 0.000000 0.028340
#
#
# Mechanical properties :
#
#
# Convention : Reuss Voigt Hill
#
# Bulk Modulus (GPa) = 33.53384 76.12898 54.83141
# Shear Modulus (GPa) = 27.34320 41.78292 34.56306
#
# Velocity S-wave (km/s) = 3.29650 4.07501 3.70625
# Velocity P-wave (km/s) = 5.27414 7.23855 6.33297
#
# Compressibility (1/GPa) = 0.02982063
#
# Stress axis : x y z
#
# Youngs Moduli (GPa) = 104.17372 142.28236 36.73870
#
# Poissons Ratio (x) = 0.28123 0.14585
# Poissons Ratio (y) = 0.20591 0.03919
# Poissons Ratio (z) = 0.41355 0.15178
#
# Static dielectric constant tensor:
#      x y z
#    x 4.657780 0.000000 0.161710 
#    y 0.000000 4.743580 0.000000 
#    z 0.161710 0.000000 4.062680 
# 
# 
# High freq. dielectric constant tensor:
#      x y z
#    x 1.998860 0.000000 0.018040 
#    y 0.000000 2.023730 0.000000 
#    z 0.018040 0.000000 1.978850 
# 
# From -- ./inp_files/120818.got.cif
#   From: 2010.06.25/outbox.cif.g09.slc.cpg/sg15_61_cif.got.tgz:120818.got - 2010.06.28 07:06:18.
