data_PCOD8144633
_publ_section_title
;
Structure prediction by ZEFSAII (Michael W. Deem and Ramdas Pophale) SiO2 
 PCOD8144633
Probable space group: C 2/C
;
_chemical_formula_sum "Si O2"
_cell_formula_units_Z 60
_cell_length_a 11.253038
_cell_length_b 15.937103
_cell_length_c 15.540644
_cell_angle_alpha 90.000000
_cell_angle_beta 73.090680
_cell_angle_gamma 90.000000
_cell_volume 2666.576451
_symmetry_space_group_name_H-M "C 2/C"
_symmetry_group_IT_number 15
_symmetry_cell_setting 'monoclinic'
loop_
_space_group_symop_operation_xyz
x,y,z
-x,y,1/2-z
-x,-y,-z
x,-y,1/2+z
1/2+x,1/2+y,z
1/2-x,1/2+y,1/2-z
1/2-x,1/2-y,-z
1/2+x,1/2-y,1/2+z
loop_
_atom_site_type_symbol
_atom_site_label
_atom_site_fract_x
_atom_site_fract_y
_atom_site_fract_z
Si Si1 0.928384 0.396605 0.936294
Si Si2 0.370125 0.534516 0.235571
Si Si3 0.815512 0.330671 0.450384
Si Si4 0.829172 0.477228 0.585727
Si Si5 0.467492 0.260706 0.527188
Si Si6 0.391293 0.621443 0.618315
Si Si7 0.500000 0.722027 0.750000
Si Si8 0.765591 0.666573 0.337333
O O1 0.825409 0.406423 0.884116
O O2 0.057005 0.440880 0.880903
O O3 0.874607 0.436349 0.034545
O O4 0.954672 0.297196 0.944472
O O5 0.500000 0.557682 0.250000
O O6 0.283822 0.495639 0.328821
O O7 0.386996 0.476454 0.146770
O O8 0.307260 0.622639 0.224634
O O9 0.750000 0.250000 0.500000
O O10 0.795704 0.410165 0.518049
O O11 0.753367 0.352100 0.370153
O O12 0.958435 0.297816 0.418012
O O13 0.534861 0.349303 0.484918
O O14 0.331143 0.276940 0.590467
O O15 0.469471 0.662390 0.677545
O O16 0.622535 0.777399 0.718979
#
# Coordination Sequence:
#
# PCOD8144633 Si02
#       8
#     8   8   8   8   8   8   4   8
#     4  10  21  43  70  95 126 185 229 287 329 429
#     4  12  29  41  64 103 144 180 219 303 352 409
#     4   9  21  42  71  93 130 184 227 280 341 419
#     4  10  23  43  67  95 139 173 240 276 348 409
#     4  10  23  41  72 102 127 183 236 279 335 436
#     4  11  24  45  68  97 140 180 226 281 359 410
#     4  12  26  44  70 100 140 182 224 296 348 410
#     4  12  26  41  69  97 136 178 232 278 352 408
#
# _framework density 22.500761000000001
#
# number of rings (size 3 to 8) (size 9 to 14) (size 15 to 20)
#    0.000    1.333    2.000    2.000   11.200    0.533 
#    0.000    0.000    0.000    0.000    0.000    0.000 
#    0.000    0.000    0.000    0.000    0.000    0.000 
#
# Total GULP energy -371667.603576 kJ/mol
# GULP energy per Si atom -12388.920119 kJ/mol
# Density = 2.244955 g / cm^3
# Si number density = 22.500761 Si / 1000 Ang^3
#
#
#
# Elastic Constant Matrix: (Units=GPa)
#
#
# Indices 1 2 3 4 5 6 
#
# 1 151.2420 20.5290 29.6204 0.0000 11.4658 0.0000
# 2 20.5290 63.1342 3.1051 0.0000 1.1456 0.0000
# 3 29.6204 3.1051 33.4846 0.0000 -1.7645 0.0000
# 4 0.0000 0.0000 0.0000 25.4241 0.0000 3.0354
# 5 11.4658 1.1456 -1.7645 0.0000 52.6784 0.0000
# 6 0.0000 0.0000 0.0000 3.0354 0.0000 29.6551
#
#
#
# Elastic Compliance Matrix: (Units=1/GPa)
#
#
# Indices 1 2 3 4 5 6 
#
# 1 0.008550 -0.002376 -0.007451 0.000000 -0.002059 0.000000
# 2 -0.002376 0.016581 0.000574 0.000000 0.000176 0.000000
# 3 -0.007451 0.000574 0.036552 0.000000 0.002834 0.000000
# 4 0.000000 0.000000 0.000000 0.039819 0.000000 -0.004076
# 5 -0.002059 0.000176 0.002834 0.000000 0.019522 0.000000
# 6 0.000000 0.000000 0.000000 -0.004076 0.000000 0.034138
#
#
# Mechanical properties :
#
#
# Convention : Reuss Voigt Hill
#
# Bulk Modulus (GPa) = 23.16166 39.37438 31.26802
# Shear Modulus (GPa) = 26.58704 34.52528 30.55616
#
# Velocity S-wave (km/s) = 3.44118 3.92140 3.68911
# Velocity P-wave (km/s) = 5.10931 6.16768 5.66327
#
# Compressibility (1/GPa) = 0.04317480
#
# Stress axis : x y z
#
# Youngs Moduli (GPa) = 116.96075 60.31161 27.35827
#
# Poissons Ratio (x) = 0.14332 0.20386
# Poissons Ratio (y) = 0.27793 -0.01570
# Poissons Ratio (z) = 0.87151 -0.03461
#
# Static dielectric constant tensor:
#      x y z
#    x 8.947270 0.000000 1.165210 
#    y 0.000000 4.081300 0.000000 
#    z 1.165210 0.000000 4.079890 
# 
# 
# High freq. dielectric constant tensor:
#      x y z
#    x 1.915220 0.000000 0.016170 
#    y 0.000000 1.887560 0.000000 
#    z 0.016170 0.000000 1.851310 
# 
# From -- ./inp_files/145624.got.cif
#   From: 2010.06.25/outbox.cif.g09.slc.cpg/sg15_73_cif.got.tgz:145624.got - 2010.06.28 07:06:18.
