data_PCOD8144209
_publ_section_title
;
Structure prediction by ZEFSAII (Michael W. Deem and Ramdas Pophale) SiO2 
 PCOD8144209
Probable space group: C 2/C
;
_chemical_formula_sum "Si O2"
_cell_formula_units_Z 52
_cell_length_a 9.085609
_cell_length_b 17.349416
_cell_length_c 18.469943
_cell_angle_alpha 90.000000
_cell_angle_beta 116.920525
_cell_angle_gamma 90.000000
_cell_volume 2595.922723
_symmetry_space_group_name_H-M "C 2/C"
_symmetry_group_IT_number 15
_symmetry_cell_setting 'monoclinic'
loop_
_space_group_symop_operation_xyz
x,y,z
-x,y,1/2-z
-x,-y,-z
x,-y,1/2+z
1/2+x,1/2+y,z
1/2-x,1/2+y,1/2-z
1/2-x,1/2-y,-z
1/2+x,1/2-y,1/2+z
loop_
_atom_site_type_symbol
_atom_site_label
_atom_site_fract_x
_atom_site_fract_y
_atom_site_fract_z
Si Si1 0.099922 0.911769 0.378191
Si Si2 0.593175 0.427342 0.838623
Si Si3 0.918331 0.400089 0.833162
Si Si4 0.500000 0.968896 0.250000
Si Si5 0.240963 0.671843 0.457547
Si Si6 0.329640 0.308436 0.817564
Si Si7 0.735158 0.636206 0.759647
O O1 0.172854 0.889496 0.471620
O O2 0.226915 0.901321 0.338454
O O3 0.941591 0.860603 0.319983
O O4 0.066524 0.002446 0.388488
O O5 0.500000 0.465473 0.750000
O O6 0.786469 0.416028 0.867041
O O7 0.505546 0.345380 0.834295
O O8 0.825095 0.358232 0.745735
O O9 0.011151 0.476508 0.823740
O O10 0.050998 0.346211 0.900246
O O11 0.656942 0.914497 0.271848
O O12 0.250000 0.750000 0.500000
O O13 0.337802 0.684150 0.405024
O O14 0.313035 0.221542 0.784663
#
# Coordination Sequence:
#
# PCOD8144209 Si02
#       7
#     8   8   8   4   8   8   8
#     4  11  22  41  65  91 133 168 210 260 321 379
#     4  10  21  42  65  92 125 170 213 261 322 377
#     4  11  23  42  65  92 126 168 211 266 315 384
#     4  12  22  42  70 100 118 164 222 260 318 388
#     4  12  24  39  64  96 127 171 222 257 317 381
#     4  11  23  42  66  92 127 170 211 260 319 377
#     4  11  23  41  65  96 127 165 210 266 316 377
#
# _framework density 20.031413000000001
#
# number of rings (size 3 to 8) (size 9 to 14) (size 15 to 20)
#    0.000    0.923    6.154    1.846    5.385    1.231 
#    0.000    0.769    0.000    0.000    0.000    0.000 
#    0.000    0.000    0.000    0.000    0.000    0.000 
#
# Total GULP energy -322184.807147 kJ/mol
# GULP energy per Si atom -12391.723352 kJ/mol
# Density = 1.998582 g / cm^3
# Si number density = 20.031413 Si / 1000 Ang^3
#
#
#
# Elastic Constant Matrix: (Units=GPa)
#
#
# Indices 1 2 3 4 5 6 
#
# 1 121.6837 65.5397 46.7104 0.0000 -2.1229 0.0000
# 2 65.5397 148.3004 39.8364 0.0000 -3.4326 0.0000
# 3 46.7104 39.8364 107.5111 0.0000 -5.1361 0.0000
# 4 0.0000 0.0000 0.0000 31.0213 0.0000 -7.9061
# 5 -2.1229 -3.4326 -5.1361 0.0000 13.5587 0.0000
# 6 0.0000 0.0000 0.0000 -7.9061 0.0000 28.0059
#
#
#
# Elastic Compliance Matrix: (Units=1/GPa)
#
#
# Indices 1 2 3 4 5 6 
#
# 1 0.011914 -0.004310 -0.003608 0.000000 -0.000592 0.000000
# 2 -0.004310 0.009057 -0.001432 0.000000 0.001076 0.000000
# 3 -0.003608 -0.001432 0.011564 0.000000 0.003453 0.000000
# 4 0.000000 0.000000 0.000000 0.034735 0.000000 0.009806
# 5 -0.000592 0.001076 0.003453 0.000000 0.075241 0.000000
# 6 0.000000 0.000000 0.000000 0.009806 0.000000 0.038475
#
#
# Mechanical properties :
#
#
# Convention : Reuss Voigt Hill
#
# Bulk Modulus (GPa) = 72.27293 75.74093 74.00693
# Shear Modulus (GPa) = 24.47405 29.54441 27.00923
#
# Velocity S-wave (km/s) = 3.49919 3.84461 3.67596
# Velocity P-wave (km/s) = 7.24458 7.58955 7.41907
#
# Compressibility (1/GPa) = 0.01383644
#
# Stress axis : x y z
#
# Youngs Moduli (GPa) = 83.93602 110.40745 86.47233
#
# Poissons Ratio (x) = 0.47584 0.31196
# Poissons Ratio (y) = 0.36175 0.12384
# Poissons Ratio (z) = 0.30281 0.15812
#
# Static dielectric constant tensor:
#      x y z
#    x 3.953550 0.000000 -0.026430 
#    y 0.000000 3.882570 0.000000 
#    z -0.026430 0.000000 3.379830 
# 
# 
# High freq. dielectric constant tensor:
#      x y z
#    x 1.781430 0.000000 -0.005670 
#    y 0.000000 1.799050 0.000000 
#    z -0.005670 0.000000 1.759090 
# 
# From -- ./inp_files/190561.got.cif
#   From: 2010.06.25/outbox.cif.g09.slc.cpg/sg15_96_cif.got.tgz:190561.got - 2010.06.28 07:06:18.
