data_PCOD8144465
_publ_section_title
;
Structure prediction by ZEFSAII (Michael W. Deem and Ramdas Pophale) SiO2 
 PCOD8144465
Probable space group: C 2/C
;
_chemical_formula_sum "Si O2"
_cell_formula_units_Z 64
_cell_length_a 30.885617
_cell_length_b 8.277214
_cell_length_c 14.184085
_cell_angle_alpha 90.000000
_cell_angle_beta 128.662019
_cell_angle_gamma 90.000000
_cell_volume 2831.434113
_symmetry_space_group_name_H-M "C 2/C"
_symmetry_group_IT_number 15
_symmetry_cell_setting 'monoclinic'
loop_
_space_group_symop_operation_xyz
x,y,z
-x,y,1/2-z
-x,-y,-z
x,-y,1/2+z
1/2+x,1/2+y,z
1/2-x,1/2+y,1/2-z
1/2-x,1/2-y,-z
1/2+x,1/2-y,1/2+z
loop_
_atom_site_type_symbol
_atom_site_label
_atom_site_fract_x
_atom_site_fract_y
_atom_site_fract_z
Si Si1 0.582330 0.103686 0.107538
Si Si2 0.731649 0.831262 0.642726
Si Si3 0.424689 0.543524 0.967619
Si Si4 0.995614 0.505541 0.855048
Si Si5 0.304152 0.042143 0.735718
Si Si6 0.546242 0.354191 0.669840
Si Si7 0.140021 0.916090 0.943756
Si Si8 0.264566 0.435878 0.026497
O O1 0.598288 0.285362 0.102136
O O2 0.541292 0.129265 0.142149
O O3 0.631876 0.983185 0.202063
O O4 0.556809 0.012028 0.981686
O O5 0.784579 0.719345 0.743084
O O6 0.680500 0.736310 0.522584
O O7 0.711285 0.901074 0.713522
O O8 0.753871 0.983712 0.613151
O O9 0.421571 0.411135 0.880515
O O10 0.487197 0.552047 0.095603
O O11 0.380851 0.495045 0.989324
O O12 0.965970 0.666448 0.851274
O O13 0.000000 0.476134 0.750000
O O14 0.273652 0.033354 0.595580
O O15 0.583781 0.368771 0.813642
O O16 0.171799 0.043206 0.920330
O O17 0.250000 0.250000 0.000000
#
# Coordination Sequence:
#
# PCOD8144465 Si02
#       8
#     8   8   8   8   8   8   8   8
#     4  10  22  40  66  97 134 172 225 276 345 403
#     4  11  25  45  69 100 136 177 234 282 349 410
#     4  10  21  43  63 100 135 178 224 279 344 417
#     4  10  22  41  64  99 134 173 220 274 341 422
#     4  11  23  43  69  96 136 182 223 290 343 409
#     4  10  22  38  69  95 136 172 225 278 334 418
#     4  11  22  41  67  97 134 184 225 282 354 409
#     4  11  27  45  64 101 135 176 237 284 338 412
#
# _framework density 22.603387000000001
#
# number of rings (size 3 to 8) (size 9 to 14) (size 15 to 20)
#    0.000    1.500    1.250    4.125    5.250    2.000 
#    2.250    5.625    0.000    0.000    0.000    0.000 
#    0.000    0.000    0.000    0.000    0.000    0.000 
#
# Total GULP energy -396581.524157 kJ/mol
# GULP energy per Si atom -12393.172630 kJ/mol
# Density = 2.255194 g / cm^3
# Si number density = 22.603387 Si / 1000 Ang^3
#
#
#
# Elastic Constant Matrix: (Units=GPa)
#
#
# Indices 1 2 3 4 5 6 
#
# 1 103.1384 11.6809 16.7054 0.0000 -11.5723 0.0000
# 2 11.6809 60.8833 4.5450 0.0000 7.0768 0.0000
# 3 16.7054 4.5450 85.6305 0.0000 0.2904 0.0000
# 4 0.0000 0.0000 0.0000 25.8010 0.0000 -6.2227
# 5 -11.5723 7.0768 0.2904 0.0000 32.8387 0.0000
# 6 0.0000 0.0000 0.0000 -6.2227 0.0000 31.8960
#
#
#
# Elastic Compliance Matrix: (Units=1/GPa)
#
#
# Indices 1 2 3 4 5 6 
#
# 1 0.010779 -0.002424 -0.001989 0.000000 0.004338 0.000000
# 2 -0.002424 0.017459 -0.000438 0.000000 -0.004613 0.000000
# 3 -0.001989 -0.000438 0.012092 0.000000 -0.000713 0.000000
# 4 0.000000 0.000000 0.000000 0.040672 0.000000 0.007935
# 5 0.004338 -0.004613 -0.000713 0.000000 0.032981 0.000000
# 6 0.000000 0.000000 0.000000 0.007935 0.000000 0.032900
#
#
# Mechanical properties :
#
#
# Convention : Reuss Voigt Hill
#
# Bulk Modulus (GPa) = 32.65006 35.05718 33.85362
# Shear Modulus (GPa) = 29.97714 32.55520 31.26617
#
# Velocity S-wave (km/s) = 3.64569 3.79922 3.72324
# Velocity P-wave (km/s) = 5.67428 5.89820 5.78733
#
# Compressibility (1/GPa) = 0.03062781
#
# Stress axis : x y z
#
# Youngs Moduli (GPa) = 92.77169 57.27782 82.70084
#
# Poissons Ratio (x) = 0.13883 0.16449
# Poissons Ratio (y) = 0.22487 0.03624
# Poissons Ratio (z) = 0.18452 0.02510
#
# Static dielectric constant tensor:
#      x y z
#    x 6.028330 0.000000 0.149760 
#    y 0.000000 4.858760 0.000000 
#    z 0.149760 0.000000 4.453360 
# 
# 
# High freq. dielectric constant tensor:
#      x y z
#    x 1.904190 0.000000 0.000580 
#    y 0.000000 1.874070 0.000000 
#    z 0.000580 0.000000 1.893600 
# 
# From -- ./inp_files/181190.got.cif
#   From: 2010.06.25/outbox.cif.g09.slc.cpg/sg15_91_cif.got.tgz:181190.got - 2010.06.28 07:06:18.
