data_PCOD8144948
_publ_section_title
;
Structure prediction by ZEFSAII (Michael W. Deem and Ramdas Pophale) SiO2 
 PCOD8144948
Probable space group: C 2/C
;
_chemical_formula_sum "Si O2"
_cell_formula_units_Z 44
_cell_length_a 13.410354
_cell_length_b 23.153839
_cell_length_c 10.858016
_cell_angle_alpha 90.000000
_cell_angle_beta 40.037479
_cell_angle_gamma 90.000000
_cell_volume 2168.800282
_symmetry_space_group_name_H-M "C 2/C"
_symmetry_group_IT_number 15
_symmetry_cell_setting 'monoclinic'
loop_
_space_group_symop_operation_xyz
x,y,z
-x,y,1/2-z
-x,-y,-z
x,-y,1/2+z
1/2+x,1/2+y,z
1/2-x,1/2+y,1/2-z
1/2-x,1/2-y,-z
1/2+x,1/2-y,1/2+z
loop_
_atom_site_type_symbol
_atom_site_label
_atom_site_fract_x
_atom_site_fract_y
_atom_site_fract_z
Si Si1 0.410001 0.569143 0.964012
Si Si2 0.898196 0.940090 0.967724
Si Si3 0.285590 0.821182 0.842237
Si Si4 0.231762 0.176265 0.889497
Si Si5 0.000000 0.752121 0.750000
Si Si6 0.611811 0.210845 0.986005
O O1 0.500000 0.582146 0.750000
O O2 0.332758 0.505311 0.033707
O O3 0.517503 0.574291 0.982700
O O4 0.268173 0.612991 0.118223
O O5 0.000000 0.934596 0.750000
O O6 0.765586 0.891541 0.076114
O O7 0.435029 0.806371 0.613908
O O8 0.139745 0.780046 0.947531
O O9 0.349239 0.809808 0.916238
O O10 0.369414 0.210636 0.822609
O O11 0.260614 0.178665 0.716948
O O12 0.068082 0.205967 0.079629
#
# Coordination Sequence:
#
# PCOD8144948 Si02
#       6
#     8   8   8   8   4   8
#     4  10  22  39  63  87 116 161 201 248 289 353
#     4  10  22  39  61  88 118 156 206 243 291 351
#     4  10  22  37  56  90 118 152 197 241 296 359
#     4  11  21  40  56  86 117 157 193 249 288 361
#     4  10  24  34  58  84 118 152 198 234 306 344
#     4  10  22  35  58  86 121 153 189 243 306 346
#
# _framework density 20.287714000000001
#
# number of rings (size 3 to 8) (size 9 to 14) (size 15 to 20)
#    0.000    1.818    0.909    2.182   10.182    1.455 
#    0.000    2.727    0.000    0.000    0.000    0.000 
#    0.000    0.000    0.000    0.000    0.000    0.000 
#
# Total GULP energy -272611.487374 kJ/mol
# GULP energy per Si atom -12391.431244 kJ/mol
# Density = 2.024154 g / cm^3
# Si number density = 20.287714 Si / 1000 Ang^3
#
#
#
# Elastic Constant Matrix: (Units=GPa)
#
#
# Indices 1 2 3 4 5 6 
#
# 1 47.1177 34.7317 38.3596 0.0000 -4.4383 0.0000
# 2 34.7317 188.0390 75.2319 0.0000 -25.8372 0.0000
# 3 38.3596 75.2319 136.3310 0.0000 -1.2856 0.0000
# 4 0.0000 0.0000 0.0000 -1.8680 0.0000 -44.8650
# 5 -4.4383 -25.8372 -1.2856 0.0000 33.4512 0.0000
# 6 0.0000 0.0000 0.0000 -44.8650 0.0000 -51.9699
#
#
#
# Elastic Compliance Matrix: (Units=1/GPa)
#
#
# Indices 1 2 3 4 5 6 
#
# 1 0.028601 -0.002353 -0.006733 0.000000 0.001719 0.000000
# 2 -0.002353 0.008028 -0.003714 0.000000 0.005746 0.000000
# 3 -0.006733 -0.003714 0.011248 0.000000 -0.003330 0.000000
# 4 0.000000 0.000000 0.000000 0.027127 0.000000 -0.023419
# 5 0.001719 0.005746 -0.003330 0.000000 0.034432 0.000000
# 6 0.000000 0.000000 0.000000 -0.023419 0.000000 0.000975
#
#
# Mechanical properties :
#
#
# Convention : Reuss Voigt Hill
#
# Bulk Modulus (GPa) = 44.88868 74.23714 59.56291
# Shear Modulus (GPa) = 34.85866 10.80031 22.82948
#
# Velocity S-wave (km/s) = 4.14963 2.30979 3.35817
# Velocity P-wave (km/s) = 6.71814 6.61703 6.66778
#
# Compressibility (1/GPa) = 0.02227733
#
# Stress axis : x y z
#
# Youngs Moduli (GPa) = 34.96367 124.56399 88.90785
#
# Poissons Ratio (x) = 0.29308 0.59861
# Poissons Ratio (y) = 0.08226 0.33020
# Poissons Ratio (z) = 0.23541 0.46262
#
# Static dielectric constant tensor:
#      x y z
#    x 3.621150 0.000000 -0.117830 
#    y 0.000000 4.005020 0.000000 
#    z -0.117830 0.000000 5.573400 
# 
# 
# High freq. dielectric constant tensor:
#      x y z
#    x 1.779130 0.000000 0.023210 
#    y 0.000000 1.799150 0.000000 
#    z 0.023210 0.000000 1.798080 
# 
# From -- ./inp_files/99661.got.cif
#   From: 2010.06.25/outbox.cif.g09.slc.cpg/sg15_50_cif.got.tgz:99661.got - 2010.06.28 07:06:18.
