data_PCOD8144228
_publ_section_title
;
Structure prediction by ZEFSAII (Michael W. Deem and Ramdas Pophale) SiO2 
 PCOD8144228
Probable space group: C 2/C
;
_chemical_formula_sum "Si O2"
_cell_formula_units_Z 40
_cell_length_a 22.627758
_cell_length_b 7.759062
_cell_length_c 13.845445
_cell_angle_alpha 90.000000
_cell_angle_beta 143.033981
_cell_angle_gamma 90.000000
_cell_volume 1461.768743
_symmetry_space_group_name_H-M "C 2/C"
_symmetry_group_IT_number 15
_symmetry_cell_setting 'monoclinic'
loop_
_space_group_symop_operation_xyz
x,y,z
-x,y,1/2-z
-x,-y,-z
x,-y,1/2+z
1/2+x,1/2+y,z
1/2-x,1/2+y,1/2-z
1/2-x,1/2-y,-z
1/2+x,1/2-y,1/2+z
loop_
_atom_site_type_symbol
_atom_site_label
_atom_site_fract_x
_atom_site_fract_y
_atom_site_fract_z
Si Si1 0.018733 0.217040 0.122771
Si Si2 0.111736 0.361976 0.069860
Si Si3 0.742402 0.383005 0.633915
Si Si4 0.127480 0.361733 0.447074
Si Si5 0.821637 0.034677 0.656506
O O1 0.021607 0.319965 0.025000
O O2 0.085897 0.324647 0.287288
O O3 0.907349 0.210476 0.021345
O O4 0.067794 0.028574 0.174116
O O5 0.192994 0.475843 0.229883
O O6 0.159438 0.181637 0.099521
O O7 0.076098 0.466364 0.928006
O O8 0.808907 0.222474 0.684406
O O9 0.689958 0.469634 0.473763
O O10 0.244199 0.393601 0.598094
#
# Coordination Sequence:
#
# PCOD8144228 Si02
#       5
#     8   8   8   8   8
#     4  11  22  40  67  92 136 177 220 271 338 393
#     4  11  21  38  64 101 130 173 223 273 331 401
#     4  10  22  36  67  99 129 170 228 272 337 393
#     4  10  22  38  65  95 130 174 220 270 327 399
#     4  10  21  42  65  97 132 178 221 274 331 400
#
# _framework density 27.364108999999999
#
# number of rings (size 3 to 8) (size 9 to 14) (size 15 to 20)
#    0.000    1.600    2.000    3.600    2.800    0.000 
#    0.000    1.000   30.800    0.000    0.000    0.000 
#    0.000    0.000    0.000    0.000    0.000    0.000 
#
# Total GULP energy -247872.484545 kJ/mol
# GULP energy per Si atom -12393.624227 kJ/mol
# Density = 2.730183 g / cm^3
# Si number density = 27.364109 Si / 1000 Ang^3
#
#
#
# Elastic Constant Matrix: (Units=GPa)
#
#
# Indices 1 2 3 4 5 6 
#
# 1 164.8619 20.2364 4.0557 0.0000 0.3078 0.0000
# 2 20.2364 37.5257 0.4031 0.0000 11.8234 0.0000
# 3 4.0557 0.4031 31.8212 0.0000 -0.0666 0.0000
# 4 0.0000 0.0000 0.0000 36.6119 0.0000 -1.5129
# 5 0.3078 11.8234 -0.0666 0.0000 38.7022 0.0000
# 6 0.0000 0.0000 0.0000 -1.5129 0.0000 34.6365
#
#
#
# Elastic Compliance Matrix: (Units=1/GPa)
#
#
# Indices 1 2 3 4 5 6 
#
# 1 0.006560 -0.003886 -0.000784 0.000000 0.001134 0.000000
# 2 -0.003886 0.031794 0.000072 0.000000 -0.009682 0.000000
# 3 -0.000784 0.000072 0.031525 0.000000 0.000038 0.000000
# 4 0.000000 0.000000 0.000000 0.027363 0.000000 0.001195
# 5 0.001134 -0.009682 0.000038 0.000000 0.028787 0.000000
# 6 0.000000 0.000000 0.000000 0.001195 0.000000 0.028923
#
#
# Mechanical properties :
#
#
# Convention : Reuss Voigt Hill
#
# Bulk Modulus (GPa) = 16.47949 31.51102 23.99526
# Shear Modulus (GPa) = 27.11845 35.95771 31.53808
#
# Velocity S-wave (km/s) = 3.15147 3.62891 3.39858
# Velocity P-wave (km/s) = 4.39064 5.39436 4.91817
#
# Compressibility (1/GPa) = 0.06068147
#
# Stress axis : x y z
#
# Youngs Moduli (GPa) = 152.44129 31.45252 31.72115
#
# Poissons Ratio (x) = 0.12223 0.02488
# Poissons Ratio (y) = 0.59244 -0.00229
# Poissons Ratio (z) = 0.11958 -0.00227
#
# Static dielectric constant tensor:
#      x y z
#    x 5.847430 0.000000 -0.268040 
#    y 0.000000 4.992330 0.000000 
#    z -0.268040 0.000000 4.624940 
# 
# 
# High freq. dielectric constant tensor:
#      x y z
#    x 2.131180 0.000000 -0.021630 
#    y 0.000000 2.097280 0.000000 
#    z -0.021630 0.000000 2.073320 
# 
# From -- ./inp_files/172132.got.cif
#   From: 2010.06.25/outbox.cif.g09.slc.cpg/sg15_87_cif.got.tgz:172132.got - 2010.06.28 07:06:18.
