data_PCOD8144269
_publ_section_title
;
Structure prediction by ZEFSAII (Michael W. Deem and Ramdas Pophale) SiO2 
 PCOD8144269
Probable space group: C 2/C
;
_chemical_formula_sum "Si O2"
_cell_formula_units_Z 36
_cell_length_a 8.895461
_cell_length_b 14.826760
_cell_length_c 22.918116
_cell_angle_alpha 90.000000
_cell_angle_beta 146.839679
_cell_angle_gamma 90.000000
_cell_volume 1653.361966
_symmetry_space_group_name_H-M "C 2/C"
_symmetry_group_IT_number 15
_symmetry_cell_setting 'monoclinic'
loop_
_space_group_symop_operation_xyz
x,y,z
-x,y,1/2-z
-x,-y,-z
x,-y,1/2+z
1/2+x,1/2+y,z
1/2-x,1/2+y,1/2-z
1/2-x,1/2-y,-z
1/2+x,1/2-y,1/2+z
loop_
_atom_site_type_symbol
_atom_site_label
_atom_site_fract_x
_atom_site_fract_y
_atom_site_fract_z
Si Si1 0.797343 0.730049 0.429540
Si Si2 0.795580 0.285625 0.339300
Si Si3 0.000000 0.892564 0.750000
Si Si4 0.338745 0.565790 0.906691
Si Si5 0.229066 0.040788 0.741389
O O1 0.508903 0.725986 0.371465
O O2 0.746879 0.669255 0.355965
O O3 0.874249 0.831027 0.437095
O O4 0.052500 0.691178 0.550036
O O5 0.500000 0.233712 0.250000
O O6 0.708110 0.377512 0.279442
O O7 0.127805 0.950730 0.739641
O O8 0.447515 0.557245 0.875224
O O9 0.032471 0.531426 0.815719
O O10 0.500000 0.500000 0.000000
#
# Coordination Sequence:
#
# PCOD8144269 Si02
#       5
#     8   8   4   8   8
#     4  10  24  41  67  97 134 173 220 277 323 393
#     4  10  21  42  66  95 134 172 220 275 326 395
#     4  12  24  42  68 100 132 170 218 280 334 380
#     4  10  23  46  65  92 132 179 218 264 330 393
#     4  10  23  40  66  97 131 171 216 272 329 396
#
# _framework density 21.773817000000001
#
# number of rings (size 3 to 8) (size 9 to 14) (size 15 to 20)
#    0.000    1.778    1.111    2.667    9.333    4.444 
#    0.000    3.333    0.000    0.000    0.000    0.000 
#    0.000    0.000    0.000    0.000    0.000    0.000 
#
# Total GULP energy -223116.980625 kJ/mol
# GULP energy per Si atom -12395.387812 kJ/mol
# Density = 2.172426 g / cm^3
# Si number density = 21.773817 Si / 1000 Ang^3
#
#
#
# Elastic Constant Matrix: (Units=GPa)
#
#
# Indices 1 2 3 4 5 6 
#
# 1 93.7106 46.7090 60.1157 0.0006 -16.4645 0.0001
# 2 46.7090 111.2734 58.4904 0.0004 -23.9382 0.0002
# 3 60.1157 58.4904 172.8139 0.0021 -31.4845 0.0007
# 4 0.0006 0.0004 0.0021 39.7508 0.0011 -2.4431
# 5 -16.4645 -23.9382 -31.4845 0.0011 44.2576 0.0002
# 6 0.0001 0.0002 0.0007 -2.4431 0.0002 24.2957
#
#
#
# Elastic Compliance Matrix: (Units=1/GPa)
#
#
# Indices 1 2 3 4 5 6 
#
# 1 0.015355 -0.004323 -0.003750 0.000000 0.000707 0.000000
# 2 -0.004323 0.012725 -0.002116 0.000000 0.003769 0.000000
# 3 -0.003750 -0.002116 0.008438 0.000000 0.003463 0.000000
# 4 0.000000 0.000000 0.000000 0.025313 -0.000001 0.002545
# 5 0.000707 0.003769 0.003463 -0.000001 0.027360 0.000000
# 6 0.000000 0.000000 0.000000 0.002545 0.000000 0.041415
#
#
# Mechanical properties :
#
#
# Convention : Reuss Voigt Hill
#
# Bulk Modulus (GPa) = 61.95535 78.71422 70.33478
# Shear Modulus (GPa) = 31.97648 35.82634 33.90141
#
# Velocity S-wave (km/s) = 3.83636 4.06074 3.95014
# Velocity P-wave (km/s) = 6.93825 7.62990 7.29228
#
# Compressibility (1/GPa) = 0.01614066
#
# Stress axis : x y z
#
# Youngs Moduli (GPa) = 65.12378 78.58766 118.50768
#
# Poissons Ratio (x) = 0.33970 0.44438
# Poissons Ratio (y) = 0.28150 0.25082
# Poissons Ratio (z) = 0.24420 0.16633
#
# Static dielectric constant tensor:
#      x y z
#    x 4.107610 0.000000 -0.071210 
#    y 0.000000 3.642850 0.000000 
#    z -0.071210 0.000000 3.843260 
# 
# 
# High freq. dielectric constant tensor:
#      x y z
#    x 1.856300 0.000000 -0.016900 
#    y 0.000000 1.843790 0.000000 
#    z -0.016900 0.000000 1.868810 
# 
# From -- ./inp_files/134654.got.cif
#   From: 2010.06.25/outbox.cif.g09.slc.cpg/sg15_68_cif.got.tgz:134654.got - 2010.06.28 07:06:18.
