data_PCOD8144287
_publ_section_title
;
Structure prediction by ZEFSAII (Michael W. Deem and Ramdas Pophale) SiO2 
 PCOD8144287
Probable space group: C 2/C
;
_chemical_formula_sum "Si O2"
_cell_formula_units_Z 32
_cell_length_a 28.904875
_cell_length_b 6.485949
_cell_length_c 9.811784
_cell_angle_alpha 90.000000
_cell_angle_beta 46.758794
_cell_angle_gamma 90.000000
_cell_volume 1340.009655
_symmetry_space_group_name_H-M "C 2/C"
_symmetry_group_IT_number 15
_symmetry_cell_setting 'monoclinic'
loop_
_space_group_symop_operation_xyz
x,y,z
-x,y,1/2-z
-x,-y,-z
x,-y,1/2+z
1/2+x,1/2+y,z
1/2-x,1/2+y,1/2-z
1/2-x,1/2-y,-z
1/2+x,1/2-y,1/2+z
loop_
_atom_site_type_symbol
_atom_site_label
_atom_site_fract_x
_atom_site_fract_y
_atom_site_fract_z
Si Si1 0.743582 0.989548 0.470175
Si Si2 0.110290 0.369724 0.688347
Si Si3 0.566012 0.174063 0.570863
Si Si4 0.675767 0.463537 0.451634
O O1 0.750000 0.750000 0.500000
O O2 0.668198 0.027255 0.606567
O O3 0.778168 0.043759 0.259401
O O4 0.777213 0.126321 0.523131
O O5 0.069546 0.457331 0.644682
O O6 0.134956 0.145828 0.598403
O O7 0.064675 0.356927 0.911601
O O8 0.500000 0.283632 0.750000
O O9 0.628028 0.300017 0.486463
#
# Coordination Sequence:
#
# PCOD8144287 Si02
#       4
#     8   8   8   8
#     4  10  21  42  67 103 132 167 222 275 347 400
#     4  11  26  45  68 103 138 174 230 281 342 401
#     4  12  27  46  68  98 137 188 234 273 329 403
#     4  11  23  44  69 102 138 174 221 283 347 402
#
# _framework density 23.880424000000001
#
# number of rings (size 3 to 8) (size 9 to 14) (size 15 to 20)
#    0.000    1.000    5.000    2.250    7.000    3.000 
#    0.000    0.000    0.000    0.000    0.000    0.000 
#    0.000    0.000    0.000    0.000    0.000    0.000 
#
# Total GULP energy -198435.265323 kJ/mol
# GULP energy per Si atom -12402.204083 kJ/mol
# Density = 2.382607 g / cm^3
# Si number density = 23.880424 Si / 1000 Ang^3
#
#
#
# Elastic Constant Matrix: (Units=GPa)
#
#
# Indices 1 2 3 4 5 6 
#
# 1 53.1170 -1.8629 25.2885 0.0000 16.1354 0.0000
# 2 -1.8629 24.2853 11.8970 0.0000 11.1232 0.0000
# 3 25.2885 11.8970 204.9513 0.0000 23.9567 0.0000
# 4 0.0000 0.0000 0.0000 30.6342 0.0000 6.8621
# 5 16.1354 11.1232 23.9567 0.0000 53.0822 0.0000
# 6 0.0000 0.0000 0.0000 6.8621 0.0000 23.3959
#
#
#
# Elastic Compliance Matrix: (Units=1/GPa)
#
#
# Indices 1 2 3 4 5 6 
#
# 1 0.022248 0.006027 -0.002277 0.000000 -0.006998 0.000000
# 2 0.006027 0.047693 -0.002248 0.000000 -0.010811 0.000000
# 3 -0.002277 -0.002248 0.005442 0.000000 -0.001293 0.000000
# 4 0.000000 0.000000 0.000000 0.034939 0.000000 -0.010248
# 5 -0.006998 -0.010811 -0.001293 0.000000 0.023815 0.000000
# 6 0.000000 0.000000 0.000000 -0.010248 0.000000 0.045748
#
#
# Mechanical properties :
#
#
# Convention : Reuss Voigt Hill
#
# Bulk Modulus (GPa) = 12.75740 39.22209 25.98974
# Shear Modulus (GPa) = 24.62946 37.89118 31.26032
#
# Velocity S-wave (km/s) = 3.21497 3.98767 3.62198
# Velocity P-wave (km/s) = 4.37438 6.13694 5.32903
#
# Compressibility (1/GPa) = 0.07838590
#
# Stress axis : x y z
#
# Youngs Moduli (GPa) = 44.94873 20.96751 183.76361
#
# Poissons Ratio (x) = -0.12638 0.41842
# Poissons Ratio (y) = -0.27092 0.41318
# Poissons Ratio (z) = 0.10235 0.04714
#
# Static dielectric constant tensor:
#      x y z
#    x 5.068450 0.000000 0.141120 
#    y 0.000000 4.158020 0.000000 
#    z 0.141120 0.000000 4.303380 
# 
# 
# High freq. dielectric constant tensor:
#      x y z
#    x 1.960840 0.000000 0.009580 
#    y 0.000000 1.944000 0.000000 
#    z 0.009580 0.000000 1.955390 
# 
# From -- ./inp_files/53425.got.cif
#   From: 2010.06.25/outbox.cif.g09.slc.cpg/sg15_27_cif.got.tgz:53425.got - 2010.06.28 07:06:18.
