data_PCOD8144084
_publ_section_title
;
Structure prediction by ZEFSAII (Michael W. Deem and Ramdas Pophale) SiO2 
 PCOD8144084
Probable space group: C 2/C
;
_chemical_formula_sum "Si O2"
_cell_formula_units_Z 32
_cell_length_a 25.283596
_cell_length_b 11.731642
_cell_length_c 12.841097
_cell_angle_alpha 90.000000
_cell_angle_beta 155.422002
_cell_angle_gamma 90.000000
_cell_volume 1584.242631
_symmetry_space_group_name_H-M "C 2/C"
_symmetry_group_IT_number 15
_symmetry_cell_setting 'monoclinic'
loop_
_space_group_symop_operation_xyz
x,y,z
-x,y,1/2-z
-x,-y,-z
x,-y,1/2+z
1/2+x,1/2+y,z
1/2-x,1/2+y,1/2-z
1/2-x,1/2-y,-z
1/2+x,1/2-y,1/2+z
loop_
_atom_site_type_symbol
_atom_site_label
_atom_site_fract_x
_atom_site_fract_y
_atom_site_fract_z
Si Si1 0.942368 0.753134 0.354703
Si Si2 0.781595 0.325629 0.154872
Si Si3 0.753443 0.913334 0.930292
Si Si4 0.386207 0.217150 0.478340
O O1 0.839264 0.651242 0.152891
O O2 0.947834 0.782363 0.488769
O O3 0.076126 0.705379 0.552884
O O4 0.896648 0.865838 0.208953
O O5 0.761701 0.453538 0.079239
O O6 0.689770 0.307380 0.088183
O O7 0.750000 0.250000 0.000000
O O8 0.708316 0.882698 0.731268
O O9 0.500000 0.161997 0.750000
#
# Coordination Sequence:
#
# PCOD8144084 Si02
#       4
#     8   8   8   8
#     4   9  21  44  60  89 125 161 210 255 315 371
#     4  12  22  38  67  93 119 171 208 250 330 373
#     4   9  22  43  61  90 130 158 210 269 302 379
#     4  10  21  42  57  91 123 154 206 256 311 377
#
# _framework density 20.198927000000001
#
# number of rings (size 3 to 8) (size 9 to 14) (size 15 to 20)
#    1.500    0.500    2.500    0.750    0.000    4.000 
#    9.000    0.000    0.000    0.000    0.000    0.000 
#    0.000    0.000    0.000    0.000    0.000    0.000 
#
# Total GULP energy -198239.082138 kJ/mol
# GULP energy per Si atom -12389.942634 kJ/mol
# Density = 2.015295 g / cm^3
# Si number density = 20.198927 Si / 1000 Ang^3
#
#
#
# Elastic Constant Matrix: (Units=GPa)
#
#
# Indices 1 2 3 4 5 6 
#
# 1 71.8918 27.1016 13.4754 0.0000 -2.1621 0.0000
# 2 27.1016 149.0609 76.4836 0.0000 0.3854 0.0000
# 3 13.4754 76.4836 89.8017 0.0000 -20.6576 0.0000
# 4 0.0000 0.0000 0.0000 28.1998 0.0000 0.8248
# 5 -2.1621 0.3854 -20.6576 0.0000 33.6835 0.0000
# 6 0.0000 0.0000 0.0000 0.8248 0.0000 15.0167
#
#
#
# Elastic Compliance Matrix: (Units=1/GPa)
#
#
# Indices 1 2 3 4 5 6 
#
# 1 0.014986 -0.003099 0.000722 0.000000 0.001440 0.000000
# 2 -0.003099 0.014387 -0.013822 0.000000 -0.008840 0.000000
# 3 0.000722 -0.013822 0.026599 0.000000 0.016517 0.000000
# 4 0.000000 0.000000 0.000000 0.035518 0.000000 -0.001951
# 5 0.001440 -0.008840 0.016517 0.000000 0.040012 0.000000
# 6 0.000000 0.000000 0.000000 -0.001951 0.000000 0.066700
#
#
# Mechanical properties :
#
#
# Convention : Reuss Voigt Hill
#
# Bulk Modulus (GPa) = 42.41968 60.54173 51.48071
# Shear Modulus (GPa) = 20.96810 28.29291 24.63050
#
# Velocity S-wave (km/s) = 3.22542 3.74667 3.49577
# Velocity P-wave (km/s) = 5.90912 6.98245 6.46808
#
# Compressibility (1/GPa) = 0.02357396
#
# Stress axis : x y z
#
# Youngs Moduli (GPa) = 66.72905 69.50730 37.59542
#
# Poissons Ratio (x) = 0.21538 -0.02713
# Poissons Ratio (y) = 0.20677 0.51964
# Poissons Ratio (z) = -0.04815 0.96072
#
# Static dielectric constant tensor:
#      x y z
#    x 3.451620 0.000000 0.065060 
#    y 0.000000 3.289990 0.000000 
#    z 0.065060 0.000000 3.950700 
# 
# 
# High freq. dielectric constant tensor:
#      x y z
#    x 1.767350 0.000000 0.001540 
#    y 0.000000 1.757060 0.000000 
#    z 0.001540 0.000000 1.806770 
# 
# From -- ./inp_files/117794.got.cif
#   From: 2010.06.25/outbox.cif.g09.slc.cpg/sg15_59_cif.got.tgz:117794.got - 2010.06.28 07:06:18.
