data_PCOD8144186
_publ_section_title
;
Structure prediction by ZEFSAII (Michael W. Deem and Ramdas Pophale) SiO2 
 PCOD8144186
Probable space group: C 2/C
;
_chemical_formula_sum "Si O2"
_cell_formula_units_Z 64
_cell_length_a 18.064831
_cell_length_b 14.392219
_cell_length_c 16.711808
_cell_angle_alpha 90.000000
_cell_angle_beta 43.275677
_cell_angle_gamma 90.000000
_cell_volume 2978.505974
_symmetry_space_group_name_H-M "C 2/C"
_symmetry_group_IT_number 15
_symmetry_cell_setting 'monoclinic'
loop_
_space_group_symop_operation_xyz
x,y,z
-x,y,1/2-z
-x,-y,-z
x,-y,1/2+z
1/2+x,1/2+y,z
1/2-x,1/2+y,1/2-z
1/2-x,1/2-y,-z
1/2+x,1/2-y,1/2+z
loop_
_atom_site_type_symbol
_atom_site_label
_atom_site_fract_x
_atom_site_fract_y
_atom_site_fract_z
Si Si1 0.224724 0.040430 0.631607
Si Si2 0.313542 0.658017 0.985715
Si Si3 0.063846 0.008609 0.530285
Si Si4 0.425345 0.615848 0.241570
Si Si5 0.836458 0.251277 0.183191
Si Si6 0.752186 0.439040 0.290022
Si Si7 0.911756 0.335683 0.965577
Si Si8 0.342994 0.129000 0.258586
O O1 0.166851 0.112484 0.616689
O O2 0.192902 0.061990 0.749096
O O3 0.353552 0.062648 0.518649
O O4 0.187327 0.934091 0.640315
O O5 0.197751 0.631980 0.117458
O O6 0.403262 0.614661 0.976104
O O7 0.336879 0.769877 0.965322
O O8 0.171973 0.949309 0.427963
O O9 0.999557 0.969695 0.655771
O O10 0.000000 0.000000 0.500000
O O11 0.500000 0.666151 0.250000
O O12 0.406406 0.684622 0.183776
O O13 0.809245 0.340645 0.258727
O O14 0.727874 0.200920 0.238183
O O15 0.911574 0.285237 0.051549
O O16 0.834613 0.526279 0.226471
O O17 0.031961 0.342909 0.838832
#
# Coordination Sequence:
#
# PCOD8144186 Si02
#       8
#     8   8   8   8   8   8   8   8
#     4  11  21  40  59  97 129 159 207 263 322 386
#     4  10  22  38  60  98 132 161 214 268 324 389
#     4  11  20  35  66  90 123 169 216 262 322 371
#     4  12  23  42  66  96 128 168 215 273 324 376
#     4  10  23  41  65  97 128 162 231 266 312 395
#     4  10  22  40  66  91 127 171 214 269 313 390
#     4  10  23  39  68  95 130 178 208 260 331 393
#     4  10  21  42  64  94 133 171 215 267 322 388
#
# _framework density 21.487283000000001
#
# number of rings (size 3 to 8) (size 9 to 14) (size 15 to 20)
#    0.000    1.500    3.750    1.875    3.500    3.500 
#    0.000    0.625   11.000    0.000    0.000    0.000 
#    0.000    0.000    0.000    0.000    0.000    0.000 
#
# Total GULP energy -396547.708676 kJ/mol
# GULP energy per Si atom -12392.115896 kJ/mol
# Density = 2.143838 g / cm^3
# Si number density = 21.487283 Si / 1000 Ang^3
#
#
#
# Elastic Constant Matrix: (Units=GPa)
#
#
# Indices 1 2 3 4 5 6 
#
# 1 94.5765 20.5874 35.1438 0.0000 3.0204 0.0000
# 2 20.5874 105.5354 36.4799 0.0000 -2.0594 0.0000
# 3 35.1438 36.4799 92.4052 0.0000 -12.9874 0.0000
# 4 0.0000 0.0000 0.0000 26.2441 0.0000 2.7897
# 5 3.0204 -2.0594 -12.9874 0.0000 31.0778 0.0000
# 6 0.0000 0.0000 0.0000 2.7897 0.0000 33.0546
#
#
#
# Elastic Compliance Matrix: (Units=1/GPa)
#
#
# Indices 1 2 3 4 5 6 
#
# 1 0.012712 -0.000823 -0.004984 0.000000 -0.003373 0.000000
# 2 -0.000823 0.011065 -0.004187 0.000000 -0.000937 0.000000
# 3 -0.004984 -0.004187 0.015298 0.000000 0.006600 0.000000
# 4 0.000000 0.000000 0.000000 0.038449 0.000000 -0.003245
# 5 -0.003373 -0.000937 0.006600 0.000000 0.035201 0.000000
# 6 0.000000 0.000000 0.000000 -0.003245 0.000000 0.030527
#
#
# Mechanical properties :
#
#
# Convention : Reuss Voigt Hill
#
# Bulk Modulus (GPa) = 52.38975 52.99326 52.69150
# Shear Modulus (GPa) = 29.48074 31.42902 30.45488
#
# Velocity S-wave (km/s) = 3.70808 3.82865 3.76885
# Velocity P-wave (km/s) = 6.53971 6.65289 6.59654
#
# Compressibility (1/GPa) = 0.01908770
#
# Stress axis : x y z
#
# Youngs Moduli (GPa) = 78.66400 90.37492 65.36823
#
# Poissons Ratio (x) = 0.07437 0.32579
# Poissons Ratio (y) = 0.06473 0.27369
# Poissons Ratio (z) = 0.39206 0.37839
#
# Static dielectric constant tensor:
#      x y z
#    x 4.246480 0.000000 0.410310 
#    y 0.000000 4.073770 0.000000 
#    z 0.410310 0.000000 4.383400 
# 
# 
# High freq. dielectric constant tensor:
#      x y z
#    x 1.847580 0.000000 0.009530 
#    y 0.000000 1.833940 0.000000 
#    z 0.009530 0.000000 1.832680 
# 
# From -- ./inp_files/211368.got.cif
#   From: 2010.06.25/outbox.cif.g09.slc.cpg/sg15_106_cif.got.tgz:211368.got - 2010.06.28 07:06:18.
