data_PCOD8144336
_publ_section_title
;
Structure prediction by ZEFSAII (Michael W. Deem and Ramdas Pophale) SiO2 
 PCOD8144336
Probable space group: C 2/C
;
_chemical_formula_sum "Si O2"
_cell_formula_units_Z 40
_cell_length_a 11.227604
_cell_length_b 12.751345
_cell_length_c 13.031234
_cell_angle_alpha 90.000000
_cell_angle_beta 110.220644
_cell_angle_gamma 90.000000
_cell_volume 1750.661050
_symmetry_space_group_name_H-M "C 2/C"
_symmetry_group_IT_number 15
_symmetry_cell_setting 'monoclinic'
loop_
_space_group_symop_operation_xyz
x,y,z
-x,y,1/2-z
-x,-y,-z
x,-y,1/2+z
1/2+x,1/2+y,z
1/2-x,1/2+y,1/2-z
1/2-x,1/2-y,-z
1/2+x,1/2-y,1/2+z
loop_
_atom_site_type_symbol
_atom_site_label
_atom_site_fract_x
_atom_site_fract_y
_atom_site_fract_z
Si Si1 0.730760 0.880963 0.576727
Si Si2 0.655256 0.687351 0.045186
Si Si3 0.136614 0.696391 0.253520
Si Si4 0.446364 0.781016 0.122806
Si Si5 0.621474 0.422305 0.340531
O O1 0.646138 0.820995 0.635659
O O2 0.647379 0.872807 0.447520
O O3 0.867596 0.826792 0.605871
O O4 0.757254 0.000578 0.618233
O O5 0.748443 0.632307 0.156879
O O6 0.559277 0.763256 0.075822
O O7 0.750000 0.750000 0.000000
O O8 0.583831 0.606282 0.948013
O O9 0.155961 0.819872 0.283801
O O10 0.000000 0.655864 0.250000
O O11 0.500000 0.814542 0.250000
O O12 0.500000 0.477233 0.250000
#
# Coordination Sequence:
#
# PCOD8144336 Si02
#       5
#     8   8   8   8   8
#     4  11  23  41  68 102 134 172 225 282 337 382
#     4  10  21  42  68  92 132 184 216 266 335 402
#     4  10  21  44  69  94 138 179 222 270 333 405
#     4  11  22  41  66  98 137 174 218 283 338 383
#     4  10  22  41  68 101 129 177 232 268 322 410
#
# _framework density 22.848513000000001
#
# number of rings (size 3 to 8) (size 9 to 14) (size 15 to 20)
#    0.000    1.600    2.000    4.200    0.000    0.800 
#    7.200   10.000    0.000    1.200    0.000    0.000 
#    0.000    0.000    0.000    0.000    0.000    0.000 
#
# Total GULP energy -247860.659108 kJ/mol
# GULP energy per Si atom -12393.032955 kJ/mol
# Density = 2.279651 g / cm^3
# Si number density = 22.848513 Si / 1000 Ang^3
#
#
#
# Elastic Constant Matrix: (Units=GPa)
#
#
# Indices 1 2 3 4 5 6 
#
# 1 122.5108 26.4232 60.2602 0.0000 2.1553 0.0000
# 2 26.4232 66.6676 53.1313 0.0000 4.1036 0.0000
# 3 60.2602 53.1313 179.2457 0.0000 30.3273 0.0000
# 4 0.0000 0.0000 0.0000 21.9856 0.0000 7.5639
# 5 2.1553 4.1036 30.3273 0.0000 58.3043 0.0000
# 6 0.0000 0.0000 0.0000 7.5639 0.0000 24.9003
#
#
#
# Elastic Compliance Matrix: (Units=1/GPa)
#
#
# Indices 1 2 3 4 5 6 
#
# 1 0.010018 -0.001553 -0.003140 0.000000 0.001372 0.000000
# 2 -0.001553 0.020055 -0.005695 0.000000 0.001608 0.000000
# 3 -0.003140 -0.005695 0.009030 0.000000 -0.004180 0.000000
# 4 0.000000 0.000000 0.000000 0.050793 0.000000 -0.015429
# 5 0.001372 0.001608 -0.004180 0.000000 0.019162 0.000000
# 6 0.000000 0.000000 0.000000 -0.015429 0.000000 0.044847
#
#
# Mechanical properties :
#
#
# Convention : Reuss Voigt Hill
#
# Bulk Modulus (GPa) = 54.56147 72.00595 63.28371
# Shear Modulus (GPa) = 27.65697 36.27867 31.96782
#
# Velocity S-wave (km/s) = 3.48293 3.98903 3.74454
# Velocity P-wave (km/s) = 6.33292 7.26632 6.81562
#
# Compressibility (1/GPa) = 0.01832795
#
# Stress axis : x y z
#
# Youngs Moduli (GPa) = 99.82388 49.86402 110.74613
#
# Poissons Ratio (x) = 0.07742 0.34771
# Poissons Ratio (y) = 0.15499 0.63065
# Poissons Ratio (z) = 0.31342 0.28395
#
# Static dielectric constant tensor:
#      x y z
#    x 4.171840 0.000000 0.482530 
#    y 0.000000 3.642620 0.000000 
#    z 0.482530 0.000000 5.166910 
# 
# 
# High freq. dielectric constant tensor:
#      x y z
#    x 1.906630 0.000000 0.017250 
#    y 0.000000 1.848380 0.000000 
#    z 0.017250 0.000000 1.932870 
# 
# From -- ./inp_files/85714.got.cif
#   From: 2010.06.25/outbox.cif.g09.slc.cpg/sg15_43_cif.got.tgz:85714.got - 2010.06.28 07:06:18.
