data_PCOD8144001
_publ_section_title
;
Structure prediction by ZEFSAII (Michael W. Deem and Ramdas Pophale) SiO2 
 PCOD8144001
Probable space group: C 2/C
;
_chemical_formula_sum "Si O2"
_cell_formula_units_Z 40
_cell_length_a 21.139185
_cell_length_b 15.993571
_cell_length_c 15.063828
_cell_angle_alpha 90.000000
_cell_angle_beta 160.537096
_cell_angle_gamma 90.000000
_cell_volume 1696.951512
_symmetry_space_group_name_H-M "C 2/C"
_symmetry_group_IT_number 15
_symmetry_cell_setting 'monoclinic'
loop_
_space_group_symop_operation_xyz
x,y,z
-x,y,1/2-z
-x,-y,-z
x,-y,1/2+z
1/2+x,1/2+y,z
1/2-x,1/2+y,1/2-z
1/2-x,1/2-y,-z
1/2+x,1/2-y,1/2+z
loop_
_atom_site_type_symbol
_atom_site_label
_atom_site_fract_x
_atom_site_fract_y
_atom_site_fract_z
Si Si1 0.214987 0.534314 0.677343
Si Si2 0.994484 0.683087 0.008531
Si Si3 0.431274 0.312327 0.071926
Si Si4 0.926088 0.400286 0.250933
Si Si5 0.890379 0.982148 0.225866
O O1 0.252629 0.541571 0.623431
O O2 0.110052 0.617138 0.567880
O O3 0.079711 0.454159 0.510193
O O4 0.414272 0.527190 0.990751
O O5 0.214415 0.663209 0.292998
O O6 0.964485 0.771519 0.018742
O O7 0.906152 0.680837 0.790389
O O8 0.500000 0.258078 0.250000
O O9 0.561900 0.394823 0.256629
O O10 0.000000 0.375084 0.250000
O O11 0.728863 0.452155 0.991671
#
# Coordination Sequence:
#
# PCOD8144001 Si02
#       5
#     8   8   8   8   8
#     4  10  21  41  69 101 140 185 241 296 345 430
#     4  12  25  44  69 102 150 188 234 298 364 423
#     4  12  26  43  70 105 143 189 239 301 367 422
#     4  10  22  42  71 106 142 187 246 295 348 428
#     4  10  22  41  73 104 139 182 244 292 356 422
#
# _framework density 23.571681999999999
#
# number of rings (size 3 to 8) (size 9 to 14) (size 15 to 20)
#    0.000    1.200    2.000    3.600    2.800    2.400 
#    0.000    1.000    0.000    0.000    0.000    0.000 
#    0.000    0.000    0.000    0.000    0.000    0.000 
#
# Total GULP energy -247821.844421 kJ/mol
# GULP energy per Si atom -12391.092221 kJ/mol
# Density = 2.351803 g / cm^3
# Si number density = 23.571682 Si / 1000 Ang^3
#
#
#
# Elastic Constant Matrix: (Units=GPa)
#
#
# Indices 1 2 3 4 5 6 
#
# 1 85.4012 43.1917 59.2572 0.0001 -31.9734 -0.0001
# 2 43.1917 66.3834 35.6381 0.0000 -11.6203 0.0000
# 3 59.2572 35.6381 152.1804 0.0000 -1.3364 -0.0002
# 4 0.0001 0.0000 0.0000 20.4593 0.0001 -7.5642
# 5 -31.9734 -11.6203 -1.3364 0.0001 27.3651 -0.0002
# 6 -0.0001 0.0000 -0.0002 -7.5642 -0.0002 35.2797
#
#
#
# Elastic Compliance Matrix: (Units=1/GPa)
#
#
# Indices 1 2 3 4 5 6 
#
# 1 0.047229 -0.014438 -0.014585 0.000000 0.048340 0.000000
# 2 -0.014438 0.023153 0.000138 0.000000 -0.007031 0.000000
# 3 -0.014585 0.000138 0.012074 0.000000 -0.016393 0.000000
# 4 0.000000 0.000000 0.000000 0.053086 0.000000 0.011382
# 5 0.048340 -0.007031 -0.016393 0.000000 0.089238 0.000000
# 6 0.000000 0.000000 0.000000 0.011382 0.000000 0.030785
#
#
# Mechanical properties :
#
#
# Convention : Reuss Voigt Hill
#
# Bulk Modulus (GPa) = 40.50662 64.45989 52.48326
# Shear Modulus (GPa) = 15.54905 27.67934 21.61420
#
# Velocity S-wave (km/s) = 2.57115 3.43047 3.03141
# Velocity P-wave (km/s) = 5.10257 6.56479 5.87931
#
# Compressibility (1/GPa) = 0.02468732
#
# Stress axis : x y z
#
# Youngs Moduli (GPa) = 21.17325 43.19119 82.82188
#
# Poissons Ratio (x) = 0.62357 1.20796
# Poissons Ratio (y) = 0.30569 -0.01143
# Poissons Ratio (z) = 0.30881 -0.00596
#
# Static dielectric constant tensor:
#      x y z
#    x 4.711910 0.000000 0.026630 
#    y 0.000000 3.889960 0.000000 
#    z 0.026630 0.000000 4.586160 
# 
# 
# High freq. dielectric constant tensor:
#      x y z
#    x 1.960160 0.000000 0.004250 
#    y 0.000000 1.896040 0.000000 
#    z 0.004250 0.000000 1.946150 
# 
# From -- ./inp_files/29329.got.cif
#   From: 2010.06.25/outbox.cif.g09.slc.cpg/sg15_15_cif.got.tgz:29329.got - 2010.06.28 07:06:18.
