data_PCOD8144780
_publ_section_title
;
Structure prediction by ZEFSAII (Michael W. Deem and Ramdas Pophale) SiO2 
 PCOD8144780
Probable space group: C 2/C
;
_chemical_formula_sum "Si O2"
_cell_formula_units_Z 52
_cell_length_a 16.950006
_cell_length_b 15.095614
_cell_length_c 16.209145
_cell_angle_alpha 90.000000
_cell_angle_beta 144.890856
_cell_angle_gamma 90.000000
_cell_volume 2385.344769
_symmetry_space_group_name_H-M "C 2/C"
_symmetry_group_IT_number 15
_symmetry_cell_setting 'monoclinic'
loop_
_space_group_symop_operation_xyz
x,y,z
-x,y,1/2-z
-x,-y,-z
x,-y,1/2+z
1/2+x,1/2+y,z
1/2-x,1/2+y,1/2-z
1/2-x,1/2-y,-z
1/2+x,1/2-y,1/2+z
loop_
_atom_site_type_symbol
_atom_site_label
_atom_site_fract_x
_atom_site_fract_y
_atom_site_fract_z
Si Si1 0.270544 0.516642 0.434994
Si Si2 0.500000 0.062191 0.750000
Si Si3 0.972147 0.660585 0.557061
Si Si4 0.749525 0.379015 0.743537
Si Si5 0.061186 0.860970 0.983741
Si Si6 0.154371 0.172112 0.888123
Si Si7 0.258086 0.677729 0.714064
O O1 0.133287 0.499020 0.369255
O O2 0.228525 0.546268 0.306692
O O3 0.363009 0.428009 0.513455
O O4 0.352862 0.592993 0.552196
O O5 0.511134 0.121438 0.678254
O O6 0.853278 0.605202 0.408804
O O7 0.920573 0.760346 0.531689
O O8 0.104521 0.657717 0.611738
O O9 0.596749 0.387762 0.647526
O O10 0.781067 0.283417 0.730969
O O11 0.130150 0.869412 0.132495
O O12 0.214399 0.137800 0.852541
O O13 0.000000 0.209501 0.750000
O O14 0.250000 0.250000 0.000000
#
# Coordination Sequence:
#
# PCOD8144780 Si02
#       7
#     8   4   8   8   8   8   8
#     4  12  26  43  68 107 147 175 237 300 345 413
#     4  12  28  46  66 108 144 182 232 304 350 414
#     4  10  24  46  73  99 133 193 234 282 356 425
#     4  10  22  41  73  99 132 183 235 284 355 415
#     4  10  22  46  72  97 138 184 238 289 341 426
#     4  12  28  45  73 108 147 188 231 288 355 421
#     4  10  21  44  71  99 137 189 229 277 358 422
#
# _framework density 21.799783999999999
#
# number of rings (size 3 to 8) (size 9 to 14) (size 15 to 20)
#    0.000    1.231    3.077    1.385    7.538    3.692 
#    1.385    0.000    0.000    0.000    0.000    0.000 
#    0.000    0.000    0.000    0.000    0.000    0.000 
#
# Total GULP energy -322545.363587 kJ/mol
# GULP energy per Si atom -12405.590907 kJ/mol
# Density = 2.175017 g / cm^3
# Si number density = 21.799784 Si / 1000 Ang^3
#
#
#
# Elastic Constant Matrix: (Units=GPa)
#
#
# Indices 1 2 3 4 5 6 
#
# 1 106.0573 29.6243 46.0048 0.0007 14.5413 0.0004
# 2 29.6243 72.2171 31.6444 0.0003 5.0295 0.0002
# 3 46.0048 31.6444 138.8846 0.0009 15.9073 0.0008
# 4 0.0007 0.0003 0.0009 20.2179 0.0005 -4.8795
# 5 14.5413 5.0295 15.9073 0.0005 35.7890 0.0003
# 6 0.0004 0.0002 0.0008 -4.8795 0.0003 29.9980
#
#
#
# Elastic Compliance Matrix: (Units=1/GPa)
#
#
# Indices 1 2 3 4 5 6 
#
# 1 0.012067 -0.003485 -0.002842 0.000000 -0.003150 0.000000
# 2 -0.003485 0.016403 -0.002614 0.000000 0.000273 0.000000
# 3 -0.002842 -0.002614 0.009022 0.000000 -0.002488 0.000000
# 4 0.000000 0.000000 0.000000 0.051482 -0.000001 0.008374
# 5 -0.003150 0.000273 -0.002488 -0.000001 0.030289 0.000000
# 6 0.000000 0.000000 0.000000 0.008374 0.000000 0.034698
#
#
# Mechanical properties :
#
#
# Convention : Reuss Voigt Hill
#
# Bulk Modulus (GPa) = 50.99638 59.07845 55.03742
# Shear Modulus (GPa) = 28.02982 31.19337 29.61159
#
# Velocity S-wave (km/s) = 3.58967 3.78683 3.68957
# Velocity P-wave (km/s) = 6.37376 6.80290 6.59182
#
# Compressibility (1/GPa) = 0.01960924
#
# Stress axis : x y z
#
# Youngs Moduli (GPa) = 82.86950 60.96321 110.83620
#
# Poissons Ratio (x) = 0.21247 0.31503
# Poissons Ratio (y) = 0.28882 0.28975
# Poissons Ratio (z) = 0.23554 0.15937
#
# Static dielectric constant tensor:
#      x y z
#    x 3.819800 0.000000 0.038710 
#    y 0.000000 3.940360 0.000000 
#    z 0.038710 0.000000 4.099790 
# 
# 
# High freq. dielectric constant tensor:
#      x y z
#    x 1.853490 0.000000 0.009200 
#    y 0.000000 1.853440 0.000000 
#    z 0.009200 0.000000 1.868670 
# 
# From -- ./inp_files/155550.got.cif
#   From: 2010.06.25/outbox.cif.g09.slc.cpg/sg15_78_cif.got.tgz:155550.got - 2010.06.28 07:06:18.
