data_PCOD8144893
_publ_section_title
;
Structure prediction by ZEFSAII (Michael W. Deem and Ramdas Pophale) SiO2 
 PCOD8144893
Probable space group: C 2/C
;
_chemical_formula_sum "Si O2"
_cell_formula_units_Z 36
_cell_length_a 23.777108
_cell_length_b 11.696234
_cell_length_c 17.080736
_cell_angle_alpha 90.000000
_cell_angle_beta 19.100655
_cell_angle_gamma 90.000000
_cell_volume 1554.400933
_symmetry_space_group_name_H-M "C 2/C"
_symmetry_group_IT_number 15
_symmetry_cell_setting 'monoclinic'
loop_
_space_group_symop_operation_xyz
x,y,z
-x,y,1/2-z
-x,-y,-z
x,-y,1/2+z
1/2+x,1/2+y,z
1/2-x,1/2+y,1/2-z
1/2-x,1/2-y,-z
1/2+x,1/2-y,1/2+z
loop_
_atom_site_type_symbol
_atom_site_label
_atom_site_fract_x
_atom_site_fract_y
_atom_site_fract_z
Si Si1 0.218154 0.418004 0.013143
Si Si2 0.000000 0.992183 0.750000
Si Si3 0.875814 0.386205 0.530021
Si Si4 0.730047 0.684219 0.379825
Si Si5 0.007397 0.618393 0.342353
O O1 0.143653 0.549988 0.106792
O O2 0.070564 0.343143 0.251978
O O3 0.395089 0.411348 0.828349
O O4 0.244034 0.375656 0.890055
O O5 0.129109 0.067261 0.528547
O O6 0.794733 0.311558 0.705195
O O7 0.888587 0.520522 0.539702
O O8 0.891530 0.692316 0.225563
O O9 0.607364 0.792406 0.555892
#
# Coordination Sequence:
#
# PCOD8144893 Si02
#       5
#     8   4   8   8   8
#     4   8  19  37  57  79 114 144 199 219 287 325
#     4  10  22  30  56  90 114 146 182 244 280 338
#     4   9  19  39  58  79 116 158 182 234 280 343
#     4  11  22  35  58  86 123 143 191 232 293 325
#     4   9  21  35  56  86 113 149 186 235 275 340
#
# _framework density 23.160048
#
# number of rings (size 3 to 8) (size 9 to 14) (size 15 to 20)
#    1.333    1.333    0.000    0.667    6.222    2.667 
#    0.000    0.000    0.000    8.000    0.000    0.000 
#    0.000    0.000    0.000    0.000    0.000    0.000 
#
# Total GULP energy -223044.553791 kJ/mol
# GULP energy per Si atom -12391.364100 kJ/mol
# Density = 2.310733 g / cm^3
# Si number density = 23.160048 Si / 1000 Ang^3
#
#
#
# Elastic Constant Matrix: (Units=GPa)
#
#
# Indices 1 2 3 4 5 6 
#
# 1 72.3981 -6.4736 19.9787 -0.0002 -11.5546 0.0002
# 2 -6.4736 23.8027 -7.7576 -0.0002 -2.2266 0.0004
# 3 19.9787 -7.7576 58.8879 -0.0001 4.3214 0.0004
# 4 -0.0002 -0.0002 -0.0001 7.4167 0.0005 11.3585
# 5 -11.5546 -2.2266 4.3214 0.0005 49.2751 -0.0005
# 6 0.0002 0.0004 0.0004 11.3585 -0.0005 10.2953
#
#
#
# Elastic Compliance Matrix: (Units=1/GPa)
#
#
# Indices 1 2 3 4 5 6 
#
# 1 0.016300 0.003072 -0.005451 0.000000 0.004439 0.000000
# 2 0.003072 0.044584 0.004660 -0.000006 0.002326 0.000005
# 3 -0.005451 0.004660 0.019650 -0.000003 -0.002791 0.000002
# 4 0.000000 -0.000006 -0.000003 -0.195514 0.000004 0.215705
# 5 0.004439 0.002326 -0.002791 0.000004 0.021685 -0.000004
# 6 0.000000 0.000005 0.000002 0.215705 -0.000004 -0.140849
#
#
# Mechanical properties :
#
#
# Convention : Reuss Voigt Hill
#
# Bulk Modulus (GPa) = 11.75149 18.50929 15.13039
# Shear Modulus (GPa) = -23.77092 23.35352 -0.20870
#
# Velocity S-wave (km/s) = -3.20719 3.17890 -0.30051
# Velocity P-wave (km/s) = 2.93763 4.63499 2.53510
#
# Compressibility (1/GPa) = 0.08509562
#
# Stress axis : x y z
#
# Youngs Moduli (GPa) = 61.35004 22.42956 50.89179
#
# Poissons Ratio (x) = -0.06890 0.27742
# Poissons Ratio (y) = -0.18845 -0.23718
# Poissons Ratio (z) = 0.33443 -0.10453
#
# Static dielectric constant tensor:
#      x y z
#    x 4.165420 0.000000 -0.255900 
#    y 0.000000 3.614870 0.000000 
#    z -0.255900 0.000000 3.802380 
# 
# 
# High freq. dielectric constant tensor:
#      x y z
#    x 1.929350 0.000000 -0.007590 
#    y 0.000000 1.885020 0.000000 
#    z -0.007590 0.000000 1.886140 
# 
# From -- ./inp_files/222411.got.cif
#   From: 2010.06.25/outbox.cif.g09.slc.cpg/sg15_112_cif.got.tgz:222411.got - 2010.06.28 07:06:18.
