data_PCOD8144452
_publ_section_title
;
Structure prediction by ZEFSAII (Michael W. Deem and Ramdas Pophale) SiO2 
 PCOD8144452
Probable space group: C 2/C
;
_chemical_formula_sum "Si O2"
_cell_formula_units_Z 60
_cell_length_a 20.262713
_cell_length_b 11.987585
_cell_length_c 22.961547
_cell_angle_alpha 90.000000
_cell_angle_beta 149.981276
_cell_angle_gamma 90.000000
_cell_volume 2790.269624
_symmetry_space_group_name_H-M "C 2/C"
_symmetry_group_IT_number 15
_symmetry_cell_setting 'monoclinic'
loop_
_space_group_symop_operation_xyz
x,y,z
-x,y,1/2-z
-x,-y,-z
x,-y,1/2+z
1/2+x,1/2+y,z
1/2-x,1/2+y,1/2-z
1/2-x,1/2-y,-z
1/2+x,1/2-y,1/2+z
loop_
_atom_site_type_symbol
_atom_site_label
_atom_site_fract_x
_atom_site_fract_y
_atom_site_fract_z
Si Si1 0.319280 0.103628 0.224382
Si Si2 0.625197 0.304628 0.667134
Si Si3 0.372574 0.658734 0.040911
Si Si4 0.235845 0.922359 0.531539
Si Si5 0.000000 0.844248 0.750000
Si Si6 0.952141 0.731650 0.150309
Si Si7 0.747129 0.651705 0.380565
Si Si8 0.022052 0.562422 0.576891
O O1 0.188838 0.138295 0.159608
O O2 0.275084 0.060588 0.128214
O O3 0.423249 0.204468 0.295558
O O4 0.391487 0.004545 0.312052
O O5 0.486849 0.362576 0.579691
O O6 0.730726 0.317172 0.800179
O O7 0.597574 0.178458 0.626370
O O8 0.438457 0.723782 0.147388
O O9 0.316735 0.544262 0.026571
O O10 0.257424 0.732057 0.924538
O O11 0.121572 0.830832 0.438685
O O12 0.360076 0.879041 0.588130
O O13 0.880478 0.913532 0.690140
O O14 0.000000 0.774111 0.250000
O O15 0.876263 0.579681 0.491652
O O16 0.000000 0.500000 0.500000
#
# Coordination Sequence:
#
# PCOD8144452 Si02
#       8
#     8   8   8   8   4   8   8   8
#     4  11  23  40  63  92 120 170 208 253 323 374
#     4  10  23  40  60  92 128 155 215 261 308 384
#     4  10  22  38  61  89 124 162 201 262 310 372
#     4  10  22  41  61  89 123 161 209 258 317 371
#     4  10  22  38  60  92 120 162 202 248 318 370
#     4   9  22  42  61  89 124 160 211 266 307 380
#     4  10  21  43  60  92 130 160 208 265 311 381
#     4  11  23  40  66  91 125 170 210 260 322 383
#
# _framework density 21.503298999999998
#
# number of rings (size 3 to 8) (size 9 to 14) (size 15 to 20)
#    0.000    1.867    1.333    1.200    4.667    1.600 
#    3.600    0.000    0.000    0.000    0.000    0.000 
#    0.000    0.000    0.000    0.000    0.000    0.000 
#
# Total GULP energy -371729.488454 kJ/mol
# GULP energy per Si atom -12390.982948 kJ/mol
# Density = 2.145436 g / cm^3
# Si number density = 21.503299 Si / 1000 Ang^3
#
#
#
# Elastic Constant Matrix: (Units=GPa)
#
#
# Indices 1 2 3 4 5 6 
#
# 1 104.5961 26.8590 22.3622 -0.0002 19.5944 -0.0001
# 2 26.8590 87.6978 34.0954 -0.0011 -2.1004 -0.0005
# 3 22.3622 34.0954 88.0602 -0.0013 2.0296 -0.0005
# 4 -0.0002 -0.0011 -0.0013 33.9132 -0.0004 -0.7722
# 5 19.5944 -2.1004 2.0296 -0.0004 40.3274 -0.0002
# 6 -0.0001 -0.0005 -0.0005 -0.7722 -0.0002 21.9670
#
#
#
# Elastic Compliance Matrix: (Units=1/GPa)
#
#
# Indices 1 2 3 4 5 6 
#
# 1 0.011803 -0.003109 -0.001660 0.000000 -0.005813 0.000000
# 2 -0.003109 0.014280 -0.004797 0.000000 0.002496 0.000000
# 3 -0.001660 -0.004797 0.013638 0.000000 -0.000130 0.000000
# 4 0.000000 0.000000 0.000000 0.029511 0.000000 0.001037
# 5 -0.005813 0.002496 -0.000130 0.000000 0.027758 0.000000
# 6 0.000000 0.000000 0.000000 0.001037 0.000000 0.045559
#
#
# Mechanical properties :
#
#
# Convention : Reuss Voigt Hill
#
# Bulk Modulus (GPa) = 48.56866 49.66524 49.11695
# Shear Modulus (GPa) = 29.66628 32.37735 31.02182
#
# Velocity S-wave (km/s) = 3.71835 3.88453 3.80235
# Velocity P-wave (km/s) = 6.40862 6.57770 6.49371
#
# Compressibility (1/GPa) = 0.02058941
#
# Stress axis : x y z
#
# Youngs Moduli (GPa) = 84.72657 70.02974 73.32685
#
# Poissons Ratio (x) = 0.21771 0.12169
# Poissons Ratio (y) = 0.26340 0.35174
# Poissons Ratio (z) = 0.14061 0.33593
#
# Static dielectric constant tensor:
#      x y z
#    x 3.927530 0.000000 0.150970 
#    y 0.000000 3.541400 0.000000 
#    z 0.150970 0.000000 4.191290 
# 
# 
# High freq. dielectric constant tensor:
#      x y z
#    x 1.854590 0.000000 0.000470 
#    y 0.000000 1.806060 0.000000 
#    z 0.000470 0.000000 1.870940 
# 
# From -- ./inp_files/111654.got.cif
#   From: 2010.06.25/outbox.cif.g09.slc.cpg/sg15_56_cif.got.tgz:111654.got - 2010.06.28 07:06:18.
