data_PCOD8144320
_publ_section_title
;
Structure prediction by ZEFSAII (Michael W. Deem and Ramdas Pophale) SiO2 
 PCOD8144320
Probable space group: C 2/C
;
_chemical_formula_sum "Si O2"
_cell_formula_units_Z 28
_cell_length_a 11.313164
_cell_length_b 23.453388
_cell_length_c 4.831012
_cell_angle_alpha 90.000000
_cell_angle_beta 102.522838
_cell_angle_gamma 90.000000
_cell_volume 1251.327206
_symmetry_space_group_name_H-M "C 2/C"
_symmetry_group_IT_number 15
_symmetry_cell_setting 'monoclinic'
loop_
_space_group_symop_operation_xyz
x,y,z
-x,y,1/2-z
-x,-y,-z
x,-y,1/2+z
1/2+x,1/2+y,z
1/2-x,1/2+y,1/2-z
1/2-x,1/2-y,-z
1/2+x,1/2-y,1/2+z
loop_
_atom_site_type_symbol
_atom_site_label
_atom_site_fract_x
_atom_site_fract_y
_atom_site_fract_z
Si Si1 0.617094 0.185666 0.436316
Si Si2 0.500000 0.279524 0.750000
Si Si3 0.768938 0.844115 0.522947
Si Si4 0.137131 0.961627 0.771949
O O1 0.500000 0.151648 0.250000
O O2 0.566263 0.243533 0.544981
O O3 0.703519 0.197262 0.215251
O O4 0.691830 0.151102 0.702796
O O5 0.402144 0.318636 0.539841
O O6 0.774191 0.908559 0.636958
O O7 0.000000 0.940326 0.750000
O O8 0.162365 0.983652 0.476975
#
# Coordination Sequence:
#
# PCOD8144320 Si02
#       4
#     8   4   8   8
#     4  12  26  43  63  95 140 179 220 258 316 394
#     4  12  26  42  66 102 134 174 218 272 318 398
#     4  12  25  42  70  97 134 174 215 272 331 383
#     4  10  21  42  67  99 129 160 212 279 336 382
#
# _framework density 22.376239000000002
#
# number of rings (size 3 to 8) (size 9 to 14) (size 15 to 20)
#    0.000    0.571    4.286    3.429    4.000    0.000 
#    0.000    0.000    0.000   17.143    0.000    0.000 
#    0.000    0.000    0.000    0.000    0.000    0.000 
#
# Total GULP energy -173572.499484 kJ/mol
# GULP energy per Si atom -12398.035677 kJ/mol
# Density = 2.232531 g / cm^3
# Si number density = 22.376239 Si / 1000 Ang^3
#
#
#
# Elastic Constant Matrix: (Units=GPa)
#
#
# Indices 1 2 3 4 5 6 
#
# 1 100.1058 29.8422 50.2093 0.0000 22.7043 0.0000
# 2 29.8422 66.1324 19.1129 0.0000 25.8346 0.0000
# 3 50.2093 19.1129 153.5337 0.0000 34.2915 0.0000
# 4 0.0000 0.0000 0.0000 2.1081 0.0000 -5.7437
# 5 22.7043 25.8346 34.2915 0.0000 52.4867 0.0000
# 6 0.0000 0.0000 0.0000 -5.7437 0.0000 -2.6250
#
#
#
# Elastic Compliance Matrix: (Units=1/GPa)
#
#
# Indices 1 2 3 4 5 6 
#
# 1 0.013400 -0.004535 -0.003538 0.000000 -0.001253 0.000000
# 2 -0.004535 0.020269 0.000878 0.000000 -0.008589 0.000000
# 3 -0.003538 0.000878 0.008565 0.000000 -0.004498 0.000000
# 4 0.000000 0.000000 0.000000 0.068139 0.000000 -0.149095
# 5 -0.001253 -0.008589 -0.004498 0.000000 0.026761 0.000000
# 6 0.000000 0.000000 0.000000 -0.149095 0.000000 -0.054724
#
#
# Mechanical properties :
#
#
# Convention : Reuss Voigt Hill
#
# Bulk Modulus (GPa) = 35.91267 57.56673 46.73970
# Shear Modulus (GPa) = 47.13382 25.10115 36.11748
#
# Velocity S-wave (km/s) = 4.59456 3.35293 4.02194
# Velocity P-wave (km/s) = 6.65063 6.38530 6.51932
#
# Compressibility (1/GPa) = 0.02784533
#
# Stress axis : x y z
#
# Youngs Moduli (GPa) = 74.62780 49.33675 116.74800
#
# Poissons Ratio (x) = 0.22373 0.41302
# Poissons Ratio (y) = 0.33842 -0.10251
# Poissons Ratio (z) = 0.26401 -0.04332
#
# Static dielectric constant tensor:
#      x y z
#    x 4.239810 0.000000 0.275050 
#    y 0.000000 3.560820 0.000000 
#    z 0.275050 0.000000 4.401370 
# 
# 
# High freq. dielectric constant tensor:
#      x y z
#    x 1.880870 0.000000 0.007750 
#    y 0.000000 1.847830 0.000000 
#    z 0.007750 0.000000 1.907410 
# 
# From -- ./inp_files/3551.got.cif
#   From: 2010.06.25/outbox.cif.g09.slc.cpg/sg15_2_cif.got.tgz:3551.got - 2010.06.28 07:06:18.
