data_PCOD8144700
_publ_section_title
;
Structure prediction by ZEFSAII (Michael W. Deem and Ramdas Pophale) SiO2 
 PCOD8144700
Probable space group: C 2/C
;
_chemical_formula_sum "Si O2"
_cell_formula_units_Z 60
_cell_length_a 5.297968
_cell_length_b 27.321912
_cell_length_c 20.949683
_cell_angle_alpha 90.000000
_cell_angle_beta 79.195699
_cell_angle_gamma 90.000000
_cell_volume 2978.723296
_symmetry_space_group_name_H-M "C 2/C"
_symmetry_group_IT_number 15
_symmetry_cell_setting 'monoclinic'
loop_
_space_group_symop_operation_xyz
x,y,z
-x,y,1/2-z
-x,-y,-z
x,-y,1/2+z
1/2+x,1/2+y,z
1/2-x,1/2+y,1/2-z
1/2-x,1/2-y,-z
1/2+x,1/2-y,1/2+z
loop_
_atom_site_type_symbol
_atom_site_label
_atom_site_fract_x
_atom_site_fract_y
_atom_site_fract_z
Si Si1 0.243936 0.437666 0.014917
Si Si2 0.911692 0.198018 0.188502
Si Si3 0.295550 0.042221 0.436915
Si Si4 0.500000 0.275711 0.250000
Si Si5 0.574613 0.708170 0.612455
Si Si6 0.122595 0.331968 0.050199
Si Si7 0.886008 0.307641 0.597232
Si Si8 0.569777 0.113082 0.173170
O O1 0.534478 0.432552 0.974767
O O2 0.039414 0.444044 0.968197
O O3 0.235226 0.483630 0.063898
O O4 0.167857 0.389764 0.058306
O O5 0.741058 0.242531 0.221483
O O6 0.787636 0.153838 0.155215
O O7 0.000000 0.172405 0.250000
O O8 0.129799 0.221063 0.132177
O O9 0.348032 0.061814 0.362754
O O10 0.542244 0.307614 0.312436
O O11 0.371070 0.694260 0.567744
O O12 0.611093 0.768164 0.605653
O O13 0.849947 0.682542 0.592924
O O14 0.109859 0.318997 0.976761
O O15 0.861153 0.358881 0.638473
O O16 0.500000 0.103117 0.250000
#
# Coordination Sequence:
#
# PCOD8144700 Si02
#       8
#     8   8   8   4   8   8   8   8
#     4  10  21  44  65  92 118 167 210 253 317 372
#     4  12  20  38  61  86 129 176 207 254 311 395
#     4  10  22  39  69  92 122 159 206 257 313 392
#     4  12  24  42  62  86 120 180 228 252 300 390
#     4  12  26  41  63  90 124 173 211 265 311 368
#     4  12  26  41  63  95 129 164 215 265 315 367
#     4  12  24  38  59  92 134 165 206 260 318 384
#     4  12  22  36  60  99 126 165 201 259 330 384
#
# _framework density 20.142858
#
# number of rings (size 3 to 8) (size 9 to 14) (size 15 to 20)
#    0.000    0.533    6.000    3.200    1.867    0.000 
#    0.000    0.000    2.933    0.000    0.000    0.000 
#    0.000    0.000    0.000    0.000    0.000    0.000 
#
# Total GULP energy -371717.401442 kJ/mol
# GULP energy per Si atom -12390.580048 kJ/mol
# Density = 2.009701 g / cm^3
# Si number density = 20.142858 Si / 1000 Ang^3
#
#
#
# Elastic Constant Matrix: (Units=GPa)
#
#
# Indices 1 2 3 4 5 6 
#
# 1 93.6498 27.3453 28.2833 0.0000 -14.6173 0.0000
# 2 27.3453 112.7477 56.6493 0.0000 -19.0565 0.0000
# 3 28.2833 56.6493 136.2207 0.0000 -5.2543 0.0000
# 4 0.0000 0.0000 0.0000 31.0832 0.0000 -4.5078
# 5 -14.6173 -19.0565 -5.2543 0.0000 27.4535 0.0000
# 6 0.0000 0.0000 0.0000 -4.5078 0.0000 24.7005
#
#
#
# Elastic Compliance Matrix: (Units=1/GPa)
#
#
# Indices 1 2 3 4 5 6 
#
# 1 0.012437 -0.001139 -0.001898 0.000000 0.005469 0.000000
# 2 -0.001139 0.012804 -0.004804 0.000000 0.007362 0.000000
# 3 -0.001898 -0.004804 0.009637 0.000000 -0.002501 0.000000
# 4 0.000000 0.000000 0.000000 0.033046 0.000000 0.006031
# 5 0.005469 0.007362 -0.002501 0.000000 0.043968 0.000000
# 6 0.000000 0.000000 0.000000 0.006031 0.000000 0.041586
#
#
# Mechanical properties :
#
#
# Convention : Reuss Voigt Hill
#
# Bulk Modulus (GPa) = 52.09418 63.01934 57.55676
# Shear Modulus (GPa) = 28.48066 32.00347 30.24206
#
# Velocity S-wave (km/s) = 3.76431 3.99033 3.87897
# Velocity P-wave (km/s) = 6.69417 7.25151 6.97841
#
# Compressibility (1/GPa) = 0.01919600
#
# Stress axis : x y z
#
# Youngs Moduli (GPa) = 80.40341 78.10281 103.77190
#
# Poissons Ratio (x) = 0.08893 0.19695
# Poissons Ratio (y) = 0.09155 0.49854
# Poissons Ratio (z) = 0.15260 0.37522
#
# Static dielectric constant tensor:
#      x y z
#    x 4.226210 0.000000 0.032480 
#    y 0.000000 3.744270 0.000000 
#    z 0.032480 0.000000 5.900600 
# 
# 
# High freq. dielectric constant tensor:
#      x y z
#    x 1.807310 0.000000 0.006190 
#    y 0.000000 1.762120 0.000000 
#    z 0.006190 0.000000 1.786160 
# 
# From -- ./inp_files/228716.got.cif
#   From: 2010.06.25/outbox.cif.g09.slc.cpg/sg15_115_cif.got.tgz:228716.got - 2010.06.28 07:06:18.
