data_PCOD8144050
_publ_section_title
;
Structure prediction by ZEFSAII (Michael W. Deem and Ramdas Pophale) SiO2 
 PCOD8144050
Probable space group: C 2/C
;
_chemical_formula_sum "Si O2"
_cell_formula_units_Z 40
_cell_length_a 7.714981
_cell_length_b 15.218245
_cell_length_c 19.193151
_cell_angle_alpha 90.000000
_cell_angle_beta 49.054079
_cell_angle_gamma 90.000000
_cell_volume 1702.086263
_symmetry_space_group_name_H-M "C 2/C"
_symmetry_group_IT_number 15
_symmetry_cell_setting 'monoclinic'
loop_
_space_group_symop_operation_xyz
x,y,z
-x,y,1/2-z
-x,-y,-z
x,-y,1/2+z
1/2+x,1/2+y,z
1/2-x,1/2+y,1/2-z
1/2-x,1/2-y,-z
1/2+x,1/2-y,1/2+z
loop_
_atom_site_type_symbol
_atom_site_label
_atom_site_fract_x
_atom_site_fract_y
_atom_site_fract_z
Si Si1 0.251846 0.460680 0.702127
Si Si2 0.479080 0.168606 0.985712
Si Si3 0.990970 0.874107 0.369005
Si Si4 0.445274 0.367033 0.984881
Si Si5 0.741717 0.798405 0.808075
O O1 0.387731 0.543145 0.700620
O O2 0.376969 0.432098 0.598089
O O3 0.241097 0.380502 0.757563
O O4 0.000000 0.494138 0.750000
O O5 0.312253 0.116486 0.976780
O O6 0.365140 0.169801 0.091518
O O7 0.519266 0.267308 0.947438
O O8 0.721305 0.119330 0.925060
O O9 0.048851 0.883588 0.435066
O O10 0.093544 0.781642 0.314528
O O11 0.000000 0.763812 0.750000
#
# Coordination Sequence:
#
# PCOD8144050 Si02
#       5
#     8   8   8   8   8
#     4  12  24  42  66 100 134 175 221 279 330 388
#     4  10  21  43  70  96 130 179 221 267 334 401
#     4  11  24  43  68  99 132 178 223 271 330 400
#     4  10  21  41  70  98 129 175 223 271 330 401
#     4  11  22  44  66  94 139 171 216 278 336 389
#
# _framework density 23.500571000000001
#
# number of rings (size 3 to 8) (size 9 to 14) (size 15 to 20)
#    0.000    1.200    2.000    6.000    0.000    0.800 
#    3.600    1.000    0.000    0.000    0.000    0.000 
#    0.000    0.000    0.000    0.000    0.000    0.000 
#
# Total GULP energy -248085.751540 kJ/mol
# GULP energy per Si atom -12404.287577 kJ/mol
# Density = 2.344708 g / cm^3
# Si number density = 23.500571 Si / 1000 Ang^3
#
#
#
# Elastic Constant Matrix: (Units=GPa)
#
#
# Indices 1 2 3 4 5 6 
#
# 1 119.2213 51.7825 64.5012 0.0080 -34.2030 -0.0046
# 2 51.7825 122.6974 59.8237 0.0012 -14.4023 -0.0008
# 3 64.5012 59.8237 94.0523 -0.0193 -46.7455 0.0094
# 4 0.0080 0.0012 -0.0193 52.4143 -0.0075 -18.5737
# 5 -34.2030 -14.4023 -46.7455 -0.0075 44.5653 0.0036
# 6 -0.0046 -0.0008 0.0094 -18.5737 0.0036 33.6999
#
#
#
# Elastic Compliance Matrix: (Units=1/GPa)
#
#
# Indices 1 2 3 4 5 6 
#
# 1 0.013752 -0.002297 -0.006463 -0.000004 0.003033 0.000001
# 2 -0.002297 0.013965 -0.012411 -0.000005 -0.010268 0.000002
# 3 -0.006463 -0.012411 0.038649 0.000018 0.031569 -0.000005
# 4 -0.000004 -0.000005 0.000018 0.023709 0.000017 0.013067
# 5 0.003033 -0.010268 0.031569 0.000017 0.054562 -0.000005
# 6 0.000001 0.000002 -0.000005 0.013067 -0.000005 0.036876
#
#
# Mechanical properties :
#
#
# Convention : Reuss Voigt Hill
#
# Bulk Modulus (GPa) = 41.62242 76.46509 59.04375
# Shear Modulus (GPa) = 21.56445 36.79346 29.17896
#
# Velocity S-wave (km/s) = 3.03250 3.96111 3.52750
# Velocity P-wave (km/s) = 5.47824 7.31633 6.46296
#
# Compressibility (1/GPa) = 0.02402551
#
# Stress axis : x y z
#
# Youngs Moduli (GPa) = 72.71685 71.60511 25.87392
#
# Poissons Ratio (x) = 0.16446 0.16721
# Poissons Ratio (y) = 0.16701 0.32112
# Poissons Ratio (z) = 0.46994 0.88870
#
# Static dielectric constant tensor:
#      x y z
#    x 4.336450 0.000000 -0.220940 
#    y 0.000000 4.399860 0.000000 
#    z -0.220940 0.000000 4.279520 
# 
# 
# High freq. dielectric constant tensor:
#      x y z
#    x 1.933200 0.000000 -0.013130 
#    y 0.000000 1.931440 0.000000 
#    z -0.013130 0.000000 1.930700 
# 
# From -- ./inp_files/133163.got.cif
#   From: 2010.06.25/outbox.cif.g09.slc.cpg/sg15_67_cif.got.tgz:133163.got - 2010.06.28 07:06:18.
