data_PCOD8144192
_publ_section_title
;
Structure prediction by ZEFSAII (Michael W. Deem and Ramdas Pophale) SiO2 
 PCOD8144192
Probable space group: C 2/C
;
_chemical_formula_sum "Si O2"
_cell_formula_units_Z 32
_cell_length_a 22.845116
_cell_length_b 5.179593
_cell_length_c 12.898096
_cell_angle_alpha 90.000000
_cell_angle_beta 65.477805
_cell_angle_gamma 90.000000
_cell_volume 1388.547715
_symmetry_space_group_name_H-M "C 2/C"
_symmetry_group_IT_number 15
_symmetry_cell_setting 'monoclinic'
loop_
_space_group_symop_operation_xyz
x,y,z
-x,y,1/2-z
-x,-y,-z
x,-y,1/2+z
1/2+x,1/2+y,z
1/2-x,1/2+y,1/2-z
1/2-x,1/2-y,-z
1/2+x,1/2-y,1/2+z
loop_
_atom_site_type_symbol
_atom_site_label
_atom_site_fract_x
_atom_site_fract_y
_atom_site_fract_z
Si Si1 0.154023 0.676750 0.038078
Si Si2 0.956278 0.253309 0.031166
Si Si3 0.777003 0.106552 0.831797
Si Si4 0.154620 0.389163 0.237396
O O1 0.188344 0.902675 0.079409
O O2 0.143605 0.428307 0.121510
O O3 0.085614 0.763410 0.042894
O O4 0.199956 0.620672 0.905210
O O5 0.912273 0.295862 0.164657
O O6 0.000000 0.500000 0.000000
O O7 0.000000 0.000000 0.000000
O O8 0.810617 0.347669 0.744763
O O9 0.793208 0.829793 0.770427
#
# Coordination Sequence:
#
# PCOD8144192 Si02
#       4
#     8   8   8   8
#     4   9  23  41  68  92 134 154 217 268 321 387
#     4  12  28  43  60  96 132 176 220 257 309 392
#     4   9  20  40  69  97 118 164 206 272 337 368
#     4  10  21  42  64  96 124 167 211 260 336 362
#
# _framework density 23.045659000000001
#
# number of rings (size 3 to 8) (size 9 to 14) (size 15 to 20)
#    1.500    0.500    0.000    2.250    3.500    3.000 
#    0.000    0.000    0.000    0.000    0.000    0.000 
#    0.000    0.000    0.000    0.000    0.000    0.000 
#
# Total GULP energy -198215.446062 kJ/mol
# GULP energy per Si atom -12388.465379 kJ/mol
# Density = 2.299321 g / cm^3
# Si number density = 23.045659 Si / 1000 Ang^3
#
#
#
# Elastic Constant Matrix: (Units=GPa)
#
#
# Indices 1 2 3 4 5 6 
#
# 1 158.1556 41.5805 34.6926 0.0000 -21.6991 0.0000
# 2 41.5805 172.4207 48.5427 0.0001 -25.0953 0.0002
# 3 34.6926 48.5427 131.0346 0.0000 -28.2019 0.0000
# 4 0.0000 0.0001 0.0000 37.7539 0.0000 -25.3796
# 5 -21.6991 -25.0953 -28.2019 0.0000 38.1411 0.0000
# 6 0.0000 0.0002 0.0000 -25.3796 0.0000 -60.9828
#
#
#
# Elastic Compliance Matrix: (Units=1/GPa)
#
#
# Indices 1 2 3 4 5 6 
#
# 1 0.007178 -0.001080 -0.000921 0.000000 0.002692 0.000000
# 2 -0.001080 0.006931 -0.001703 0.000000 0.002686 0.000000
# 3 -0.000921 -0.001703 0.009695 0.000000 0.005524 0.000000
# 4 0.000000 0.000000 0.000000 0.020697 0.000000 -0.008614
# 5 0.002692 0.002686 0.005524 0.000000 0.033602 0.000000
# 6 0.000000 0.000000 0.000000 -0.008614 0.000000 -0.012813
#
#
# Mechanical properties :
#
#
# Convention : Reuss Voigt Hill
#
# Bulk Modulus (GPa) = 60.99213 79.02694 70.00953
# Shear Modulus (GPa) = 63.96797 25.43546 44.70171
#
# Velocity S-wave (km/s) = 5.27421 3.32580 4.40898
# Velocity P-wave (km/s) = 7.97578 7.00813 7.50756
#
# Compressibility (1/GPa) = 0.01639556
#
# Stress axis : x y z
#
# Youngs Moduli (GPa) = 139.31035 144.28428 103.14167
#
# Poissons Ratio (x) = 0.15582 0.09499
# Poissons Ratio (y) = 0.15045 0.17570
# Poissons Ratio (z) = 0.12830 0.24579
#
# Static dielectric constant tensor:
#      x y z
#    x 4.018930 0.000000 0.005490 
#    y 0.000000 3.913690 0.000000 
#    z 0.005490 0.000000 4.139460 
# 
# 
# High freq. dielectric constant tensor:
#      x y z
#    x 1.926580 0.000000 0.010740 
#    y 0.000000 1.904010 0.000000 
#    z 0.010740 0.000000 1.912320 
# 
# From -- ./inp_files/164965.got.cif
#   From: 2010.06.25/outbox.cif.g09.slc.cpg/sg15_83_cif.got.tgz:164965.got - 2010.06.28 07:06:18.
