data_PCOD8144206
_publ_section_title
;
Structure prediction by ZEFSAII (Michael W. Deem and Ramdas Pophale) SiO2 
 PCOD8144206
Probable space group: C 2/C
;
_chemical_formula_sum "Si O2"
_cell_formula_units_Z 32
_cell_length_a 11.276768
_cell_length_b 6.989684
_cell_length_c 18.676638
_cell_angle_alpha 90.000000
_cell_angle_beta 98.529372
_cell_angle_gamma 90.000000
_cell_volume 1455.830504
_symmetry_space_group_name_H-M "C 2/C"
_symmetry_group_IT_number 15
_symmetry_cell_setting 'monoclinic'
loop_
_space_group_symop_operation_xyz
x,y,z
-x,y,1/2-z
-x,-y,-z
x,-y,1/2+z
1/2+x,1/2+y,z
1/2-x,1/2+y,1/2-z
1/2-x,1/2-y,-z
1/2+x,1/2-y,1/2+z
loop_
_atom_site_type_symbol
_atom_site_label
_atom_site_fract_x
_atom_site_fract_y
_atom_site_fract_z
Si Si1 0.122744 0.299087 0.226226
Si Si2 0.321994 0.838502 0.846592
Si Si3 0.091833 0.951356 0.594061
Si Si4 0.322206 0.425743 0.537860
O O1 0.226356 0.285999 0.293931
O O2 0.106157 0.518076 0.198460
O O3 0.000000 0.226672 0.250000
O O4 0.156711 0.162422 0.162939
O O5 0.410719 0.681396 0.889719
O O6 0.254617 0.978684 0.898350
O O7 0.165085 0.918235 0.525490
O O8 0.957196 0.871366 0.573896
O O9 0.250000 0.250000 0.500000
#
# Coordination Sequence:
#
# PCOD8144206 Si02
#       4
#     8   8   8   8
#     4  12  24  38  63  94 126 165 214 257 313 376
#     4  11  23  40  63  93 126 166 208 260 316 370
#     4  10  21  42  65  91 128 164 208 264 309 372
#     4   9  20  41  67  90 127 167 208 260 311 367
#
# _framework density 21.98058
#
# number of rings (size 3 to 8) (size 9 to 14) (size 15 to 20)
#    0.000    1.500    5.000    0.000    0.000    4.000 
#    0.000   11.250    0.000    0.000    0.000    0.000 
#    0.000    0.000    0.000    0.000    0.000    0.000 
#
# Total GULP energy -198254.244628 kJ/mol
# GULP energy per Si atom -12390.890289 kJ/mol
# Density = 2.193055 g / cm^3
# Si number density = 21.980580 Si / 1000 Ang^3
#
#
#
# Elastic Constant Matrix: (Units=GPa)
#
#
# Indices 1 2 3 4 5 6 
#
# 1 84.4403 22.7262 33.6427 0.0000 1.7475 0.0000
# 2 22.7262 77.0123 31.2174 0.0000 -6.5059 0.0000
# 3 33.6427 31.2174 116.7774 0.0000 -1.8778 0.0000
# 4 0.0000 0.0000 0.0000 35.9869 0.0000 0.5136
# 5 1.7475 -6.5059 -1.8778 0.0000 25.1181 0.0000
# 6 0.0000 0.0000 0.0000 0.5136 0.0000 25.2420
#
#
#
# Elastic Compliance Matrix: (Units=1/GPa)
#
#
# Indices 1 2 3 4 5 6 
#
# 1 0.013985 -0.002971 -0.003267 0.000000 -0.001987 0.000000
# 2 -0.002971 0.015505 -0.003225 0.000000 0.003982 0.000000
# 3 -0.003267 -0.003225 0.010369 0.000000 0.000167 0.000000
# 4 0.000000 0.000000 0.000000 0.027796 0.000000 -0.000566
# 5 -0.001987 0.003982 0.000167 0.000000 0.040994 0.000000
# 6 0.000000 0.000000 0.000000 -0.000566 0.000000 0.039628
#
#
# Mechanical properties :
#
#
# Convention : Reuss Voigt Hill
#
# Bulk Modulus (GPa) = 47.76799 50.37805 49.07302
# Shear Modulus (GPa) = 28.70590 29.97897 29.34243
#
# Velocity S-wave (km/s) = 3.61774 3.69709 3.65763
# Velocity P-wave (km/s) = 6.26337 6.41823 6.34127
#
# Compressibility (1/GPa) = 0.02093452
#
# Stress axis : x y z
#
# Youngs Moduli (GPa) = 71.50604 64.49441 96.43876
#
# Poissons Ratio (x) = 0.19158 0.31504
# Poissons Ratio (y) = 0.21241 0.31103
# Poissons Ratio (z) = 0.23359 0.20800
#
# Static dielectric constant tensor:
#      x y z
#    x 3.799430 0.000000 -0.315190 
#    y 0.000000 3.533020 0.000000 
#    z -0.315190 0.000000 4.741570 
# 
# 
# High freq. dielectric constant tensor:
#      x y z
#    x 1.845890 0.000000 -0.001510 
#    y 0.000000 1.832870 0.000000 
#    z -0.001510 0.000000 1.900550 
# 
# From -- ./inp_files/194663.got.cif
#   From: 2010.06.25/outbox.cif.g09.slc.cpg/sg15_98_cif.got.tgz:194663.got - 2010.06.28 07:06:18.
