data_PCOD8144912
_publ_section_title
;
Structure prediction by ZEFSAII (Michael W. Deem and Ramdas Pophale) SiO2 
 PCOD8144912
Probable space group: C 2/C
;
_chemical_formula_sum "Si O2"
_cell_formula_units_Z 64
_cell_length_a 23.637566
_cell_length_b 14.278058
_cell_length_c 8.955940
_cell_angle_alpha 90.000000
_cell_angle_beta 94.688444
_cell_angle_gamma 90.000000
_cell_volume 3012.502660
_symmetry_space_group_name_H-M "C 2/C"
_symmetry_group_IT_number 15
_symmetry_cell_setting 'monoclinic'
loop_
_space_group_symop_operation_xyz
x,y,z
-x,y,1/2-z
-x,-y,-z
x,-y,1/2+z
1/2+x,1/2+y,z
1/2-x,1/2+y,1/2-z
1/2-x,1/2-y,-z
1/2+x,1/2-y,1/2+z
loop_
_atom_site_type_symbol
_atom_site_label
_atom_site_fract_x
_atom_site_fract_y
_atom_site_fract_z
Si Si1 0.740296 0.315306 0.242358
Si Si2 0.717519 0.100744 0.247068
Si Si3 0.041363 0.013166 0.642721
Si Si4 0.895923 0.828173 0.774623
Si Si5 0.872764 0.630594 0.749723
Si Si6 0.847579 0.491436 0.507359
Si Si7 0.649680 0.589491 0.520775
Si Si8 0.687321 0.604672 0.018819
O O1 0.720833 0.209630 0.204206
O O2 0.806921 0.334221 0.237145
O O3 0.704759 0.379690 0.123529
O O4 0.724952 0.338265 0.410610
O O5 0.671882 0.079981 0.367604
O O6 0.777355 0.069703 0.328593
O O7 0.705001 0.038551 0.096852
O O8 0.057199 0.909517 0.710528
O O9 0.000000 0.065771 0.750000
O O10 0.095246 0.079034 0.619130
O O11 0.000000 0.000000 0.500000
O O12 0.915939 0.719336 0.766312
O O13 0.859326 0.839201 0.615480
O O14 0.860778 0.828892 0.921884
O O15 0.883203 0.573790 0.597528
O O16 0.885685 0.564876 0.896096
O O17 0.659019 0.488264 0.444236
#
# Coordination Sequence:
#
# PCOD8144912 Si02
#       8
#     8   8   8   8   8   8   8   8
#     4  12  23  34  52  83 120 162 209 255 287 362
#     4  11  21  34  49  72 109 157 206 247 293 340
#     4  11  23  45  66  92 126 154 197 255 313 372
#     4  11  23  37  59  87 116 157 203 247 304 369
#     4  11  22  38  54  82 121 164 210 248 297 358
#     4  10  22  34  51  70 107 159 198 247 298 342
#     4  11  24  36  59  87 119 162 202 241 305 366
#     4  11  21  33  48  76 116 157 201 245 292 351
#
# _framework density 21.244795
#
# number of rings (size 3 to 8) (size 9 to 14) (size 15 to 20)
#    0.000    1.000    3.750    4.875    5.250    1.000 
#    0.000    0.000    0.000    0.000    0.000    0.875 
#    0.000    0.000    0.000    0.000    0.000    0.000 
#
# Total GULP energy -396502.543867 kJ/mol
# GULP energy per Si atom -12390.704496 kJ/mol
# Density = 2.119644 g / cm^3
# Si number density = 21.244795 Si / 1000 Ang^3
#
#
#
# Elastic Constant Matrix: (Units=GPa)
#
#
# Indices 1 2 3 4 5 6 
#
# 1 34.4929 -2.4550 1.3229 0.0000 -6.9892 0.0000
# 2 -2.4550 119.8200 26.2793 0.0000 -2.7791 0.0000
# 3 1.3229 26.2793 86.3375 0.0000 -4.5263 0.0000
# 4 0.0000 0.0000 0.0000 31.3681 0.0000 2.4978
# 5 -6.9892 -2.7791 -4.5263 0.0000 22.8037 0.0000
# 6 0.0000 0.0000 0.0000 2.4978 0.0000 17.4206
#
#
#
# Elastic Compliance Matrix: (Units=1/GPa)
#
#
# Indices 1 2 3 4 5 6 
#
# 1 0.031004 0.000912 -0.000251 0.000000 0.009564 0.000000
# 2 0.000912 0.008977 -0.002702 0.000000 0.000837 0.000000
# 3 -0.000251 -0.002702 0.012518 0.000000 0.002078 0.000000
# 4 0.000000 0.000000 0.000000 0.032248 0.000000 -0.004624
# 5 0.009564 0.000837 0.002078 0.000000 0.047298 0.000000
# 6 0.000000 0.000000 0.000000 -0.004624 0.000000 0.058066
#
#
# Mechanical properties :
#
#
# Convention : Reuss Voigt Hill
#
# Bulk Modulus (GPa) = 20.65457 32.32718 26.49087
# Shear Modulus (GPa) = 23.77194 28.68539 26.22866
#
# Velocity S-wave (km/s) = 3.34870 3.67854 3.51749
# Velocity P-wave (km/s) = 4.96941 5.76990 5.38455
#
# Compressibility (1/GPa) = 0.04841545
#
# Stress axis : x y z
#
# Youngs Moduli (GPa) = 32.25393 111.40012 79.88625
#
# Poissons Ratio (x) = -0.10162 0.02008
# Poissons Ratio (y) = -0.02942 0.21588
# Poissons Ratio (z) = 0.00811 0.30105
#
# Static dielectric constant tensor:
#      x y z
#    x 2.923350 0.000000 0.353600 
#    y 0.000000 4.182300 0.000000 
#    z 0.353600 0.000000 3.594090 
# 
# 
# High freq. dielectric constant tensor:
#      x y z
#    x 1.770180 0.000000 -0.011220 
#    y 0.000000 1.838390 0.000000 
#    z -0.011220 0.000000 1.853620 
# 
# From -- ./inp_files/66246.got.cif
#   From: 2010.06.25/outbox.cif.g09.slc.cpg/sg15_34_cif.got.tgz:66246.got - 2010.06.28 07:06:18.
