data_PCOD8144649
_publ_section_title
;
Structure prediction by ZEFSAII (Michael W. Deem and Ramdas Pophale) SiO2 
 PCOD8144649
Probable space group: C 2/C
;
_chemical_formula_sum "Si O2"
_cell_formula_units_Z 56
_cell_length_a 10.700322
_cell_length_b 32.716105
_cell_length_c 8.332713
_cell_angle_alpha 90.000000
_cell_angle_beta 121.685478
_cell_angle_gamma 90.000000
_cell_volume 2482.252636
_symmetry_space_group_name_H-M "C 2/C"
_symmetry_group_IT_number 15
_symmetry_cell_setting 'monoclinic'
loop_
_space_group_symop_operation_xyz
x,y,z
-x,y,1/2-z
-x,-y,-z
x,-y,1/2+z
1/2+x,1/2+y,z
1/2-x,1/2+y,1/2-z
1/2-x,1/2-y,-z
1/2+x,1/2-y,1/2+z
loop_
_atom_site_type_symbol
_atom_site_label
_atom_site_fract_x
_atom_site_fract_y
_atom_site_fract_z
Si Si1 0.000000 0.350291 0.250000
Si Si2 0.670450 0.798528 0.122814
Si Si3 0.257627 0.381832 0.607607
Si Si4 0.171004 0.538591 0.406105
Si Si5 0.000000 0.819588 0.750000
Si Si6 0.835285 0.970291 0.689891
Si Si7 0.167821 0.629074 0.397804
Si Si8 0.971442 0.772785 0.404647
O O1 0.109022 0.320995 0.233691
O O2 0.091053 0.378378 0.433063
O O3 0.795091 0.768932 0.282307
O O4 0.733765 0.833875 0.047237
O O5 0.548528 0.771511 0.949776
O O6 0.363552 0.347745 0.604750
O O7 0.311709 0.426538 0.588651
O O8 0.261554 0.374490 0.799722
O O9 0.218102 0.504576 0.563326
O O10 0.293430 0.535677 0.347541
O O11 0.179682 0.584250 0.490120
O O12 0.000000 0.530292 0.250000
O O13 0.030942 0.793719 0.608707
O O14 0.000000 0.984482 0.750000
O O15 0.000000 0.640162 0.250000
O O16 0.000000 0.794894 0.250000
#
# Coordination Sequence:
#
# PCOD8144649 Si02
#       8
#     4   8   8   8   4   8   8   8
#     4  12  25  40  72  98 130 188 232 288 346 429
#     4  12  26  46  69 101 137 178 236 290 358 422
#     4  11  24  43  69  98 136 188 228 289 352 418
#     4  10  23  41  69 102 137 187 238 290 348 425
#     4  12  25  48  68 100 146 182 240 292 352 427
#     4  11  23  43  67 103 147 185 230 292 362 416
#     4  10  21  43  71  94 137 181 229 288 349 416
#     4  12  28  45  70 101 135 184 233 295 358 424
#
# _framework density 22.560153
#
# number of rings (size 3 to 8) (size 9 to 14) (size 15 to 20)
#    0.000    0.857    3.571    3.000    3.000    2.286 
#    0.000    0.714    0.000    0.000    0.000    0.000 
#    0.000    0.000    0.000    0.000    0.000    0.000 
#
# Total GULP energy -346939.103777 kJ/mol
# GULP energy per Si atom -12390.682278 kJ/mol
# Density = 2.250881 g / cm^3
# Si number density = 22.560153 Si / 1000 Ang^3
#
#
#
# Elastic Constant Matrix: (Units=GPa)
#
#
# Indices 1 2 3 4 5 6 
#
# 1 82.0135 26.8969 25.4928 0.0000 10.1146 0.0000
# 2 26.8969 145.1875 62.9897 0.0000 12.5145 0.0000
# 3 25.4928 62.9897 99.9670 0.0000 1.5964 0.0000
# 4 0.0000 0.0000 0.0000 30.6691 0.0000 -2.0336
# 5 10.1146 12.5145 1.5964 0.0000 41.8474 0.0000
# 6 0.0000 0.0000 0.0000 -2.0336 0.0000 44.6214
#
#
#
# Elastic Compliance Matrix: (Units=1/GPa)
#
#
# Indices 1 2 3 4 5 6 
#
# 1 0.013773 -0.001099 -0.002774 0.000000 -0.002895 0.000000
# 2 -0.001099 0.009860 -0.005893 0.000000 -0.002458 0.000000
# 3 -0.002774 -0.005893 0.014394 0.000000 0.001884 0.000000
# 4 0.000000 0.000000 0.000000 0.032705 0.000000 0.001491
# 5 -0.002895 -0.002458 0.001884 0.000000 0.025259 0.000000
# 6 0.000000 0.000000 0.000000 0.001491 0.000000 0.022479
#
#
# Mechanical properties :
#
#
# Convention : Reuss Voigt Hill
#
# Bulk Modulus (GPa) = 54.06835 61.99186 58.03011
# Shear Modulus (GPa) = 34.68232 37.54682 36.11457
#
# Velocity S-wave (km/s) = 3.92513 4.08401 4.00536
# Velocity P-wave (km/s) = 6.67537 7.05528 6.86795
#
# Compressibility (1/GPa) = 0.01849511
#
# Stress axis : x y z
#
# Youngs Moduli (GPa) = 72.60814 101.42106 69.47346
#
# Poissons Ratio (x) = 0.11142 0.19270
# Poissons Ratio (y) = 0.07977 0.40943
# Poissons Ratio (z) = 0.20140 0.59771
#
# Static dielectric constant tensor:
#      x y z
#    x 4.099670 0.000000 -0.037730 
#    y 0.000000 4.223220 0.000000 
#    z -0.037730 0.000000 3.850580 
# 
# 
# High freq. dielectric constant tensor:
#      x y z
#    x 1.903070 0.000000 -0.001980 
#    y 0.000000 1.895380 0.000000 
#    z -0.001980 0.000000 1.871200 
# 
# From -- ./inp_files/35807.got.cif
#   From: 2010.06.25/outbox.cif.g09.slc.cpg/sg15_18_cif.got.tgz:35807.got - 2010.06.28 07:06:18.
