data_PCOD8144449
_publ_section_title
;
Structure prediction by ZEFSAII (Michael W. Deem and Ramdas Pophale) SiO2 
 PCOD8144449
Probable space group: C 2/C
;
_chemical_formula_sum "Si O2"
_cell_formula_units_Z 44
_cell_length_a 20.825349
_cell_length_b 10.771607
_cell_length_c 9.644138
_cell_angle_alpha 90.000000
_cell_angle_beta 70.328777
_cell_angle_gamma 90.000000
_cell_volume 2037.140486
_symmetry_space_group_name_H-M "C 2/C"
_symmetry_group_IT_number 15
_symmetry_cell_setting 'monoclinic'
loop_
_space_group_symop_operation_xyz
x,y,z
-x,y,1/2-z
-x,-y,-z
x,-y,1/2+z
1/2+x,1/2+y,z
1/2-x,1/2+y,1/2-z
1/2-x,1/2-y,-z
1/2+x,1/2-y,1/2+z
loop_
_atom_site_type_symbol
_atom_site_label
_atom_site_fract_x
_atom_site_fract_y
_atom_site_fract_z
Si Si1 0.894210 0.628302 0.378145
Si Si2 0.453144 0.338680 0.157499
Si Si3 0.931649 0.758218 0.615748
Si Si4 0.339026 0.468011 0.742755
Si Si5 0.744947 0.605018 0.461410
Si Si6 0.000000 0.560658 0.750000
O O1 0.920813 0.706674 0.226489
O O2 0.886238 0.720540 0.515059
O O3 0.823142 0.560170 0.396791
O O4 0.949899 0.524936 0.377890
O O5 0.500000 0.391753 0.250000
O O6 0.391652 0.426759 0.155130
O O7 0.499282 0.324493 0.987151
O O8 0.886311 0.849016 0.745196
O O9 0.950798 0.639057 0.689126
O O10 0.287171 0.423228 0.663278
O O11 0.296509 0.520428 0.901389
O O12 0.750000 0.750000 0.500000
#
# Coordination Sequence:
#
# PCOD8144449 Si02
#       6
#     8   8   8   8   8   4
#     4  11  23  47  70  95 142 195 225 290 367 425
#     4  10  21  42  75 100 138 183 234 295 363 410
#     4  11  24  41  68 105 137 173 243 298 356 413
#     4  12  26  45  75 103 148 188 234 304 358 433
#     4  12  26  48  72 103 150 193 238 290 365 440
#     4  12  26  40  70 102 140 178 240 304 350 420
#
# _framework density 21.598904000000001
#
# number of rings (size 3 to 8) (size 9 to 14) (size 15 to 20)
#    0.000    0.727    6.364    2.182    6.364    0.000 
#    0.000    1.818    0.000    0.000    0.000    0.000 
#    0.000    0.000    0.000    0.000    0.000    0.000 
#
# Total GULP energy -272731.078110 kJ/mol
# GULP energy per Si atom -12396.867187 kJ/mol
# Density = 2.154974 g / cm^3
# Si number density = 21.598904 Si / 1000 Ang^3
#
#
#
# Elastic Constant Matrix: (Units=GPa)
#
#
# Indices 1 2 3 4 5 6 
#
# 1 124.3247 44.8531 13.5983 0.0000 -26.9330 0.0000
# 2 44.8531 109.6687 25.1133 0.0000 -14.1526 0.0000
# 3 13.5983 25.1133 49.8068 0.0000 -15.9885 0.0000
# 4 0.0000 0.0000 0.0000 30.7326 0.0000 1.6668
# 5 -26.9330 -14.1526 -15.9885 0.0000 26.3990 0.0000
# 6 0.0000 0.0000 0.0000 1.6668 0.0000 40.2274
#
#
#
# Elastic Compliance Matrix: (Units=1/GPa)
#
#
# Indices 1 2 3 4 5 6 
#
# 1 0.011597 -0.003839 0.002367 0.000000 0.011208 0.000000
# 2 -0.003839 0.011768 -0.005111 0.000000 -0.000703 0.000000
# 3 0.002367 -0.005111 0.027190 0.000000 0.016143 0.000000
# 4 0.000000 0.000000 0.000000 0.032612 0.000000 -0.001351
# 5 0.011208 -0.000703 0.016143 0.000000 0.058714 0.000000
# 6 0.000000 0.000000 0.000000 -0.001351 0.000000 0.024915
#
#
# Mechanical properties :
#
#
# Convention : Reuss Voigt Hill
#
# Bulk Modulus (GPa) = 26.74536 50.10327 38.42432
# Shear Modulus (GPa) = 25.98395 32.82085 29.40240
#
# Velocity S-wave (km/s) = 3.47222 3.90238 3.69357
# Velocity P-wave (km/s) = 5.33711 6.59942 6.00154
#
# Compressibility (1/GPa) = 0.03738966
#
# Stress axis : x y z
#
# Youngs Moduli (GPa) = 86.22560 84.97528 36.77764
#
# Poissons Ratio (x) = 0.32621 -0.08705
# Poissons Ratio (y) = 0.33101 0.18798
# Poissons Ratio (z) = -0.20410 0.43433
#
# Static dielectric constant tensor:
#      x y z
#    x 4.248020 0.000000 -0.180170 
#    y 0.000000 3.952450 0.000000 
#    z -0.180170 0.000000 3.716790 
# 
# 
# High freq. dielectric constant tensor:
#      x y z
#    x 1.869470 0.000000 -0.010040 
#    y 0.000000 1.849000 0.000000 
#    z -0.010040 0.000000 1.825390 
# 
# From -- ./inp_files/54416.got.cif
#   From: 2010.06.25/outbox.cif.g09.slc.cpg/sg15_28_cif.got.tgz:54416.got - 2010.06.28 07:06:18.
