data_PCOD8144952
_publ_section_title
;
Structure prediction by ZEFSAII (Michael W. Deem and Ramdas Pophale) SiO2 
 PCOD8144952
Probable space group: C 2/C
;
_chemical_formula_sum "Si O2"
_cell_formula_units_Z 48
_cell_length_a 19.339793
_cell_length_b 8.640147
_cell_length_c 15.941409
_cell_angle_alpha 90.000000
_cell_angle_beta 110.007237
_cell_angle_gamma 90.000000
_cell_volume 2503.026825
_symmetry_space_group_name_H-M "C 2/C"
_symmetry_group_IT_number 15
_symmetry_cell_setting 'monoclinic'
loop_
_space_group_symop_operation_xyz
x,y,z
-x,y,1/2-z
-x,-y,-z
x,-y,1/2+z
1/2+x,1/2+y,z
1/2-x,1/2+y,1/2-z
1/2-x,1/2-y,-z
1/2+x,1/2-y,1/2+z
loop_
_atom_site_type_symbol
_atom_site_label
_atom_site_fract_x
_atom_site_fract_y
_atom_site_fract_z
Si Si1 0.670779 0.315502 0.466891
Si Si2 0.715079 0.641235 0.416408
Si Si3 0.083776 0.746814 0.274468
Si Si4 0.698865 0.071798 0.210874
Si Si5 0.079866 0.886653 0.757117
Si Si6 0.334639 0.275909 0.847651
O O1 0.750000 0.250000 0.500000
O O2 0.680605 0.493489 0.448097
O O3 0.622366 0.219519 0.380210
O O4 0.638709 0.283103 0.545540
O O5 0.750000 0.750000 0.500000
O O6 0.780010 0.620065 0.375281
O O7 0.642146 0.703155 0.338164
O O8 0.125339 0.655957 0.216230
O O9 0.000000 0.687719 0.250000
O O10 0.087559 0.928966 0.259191
O O11 0.765930 0.108265 0.302294
O O12 0.687956 0.889185 0.199555
O O13 0.091821 0.833960 0.667078
O O14 0.000000 0.828692 0.750000
#
# Coordination Sequence:
#
# PCOD8144952 Si02
#       6
#     8   8   8   8   8   8
#     4  11  20  39  60  87 119 150 196 246 295 344
#     4  10  22  35  59  89 112 149 198 247 286 349
#     4  10  22  42  61  84 120 158 192 244 300 350
#     4  11  21  37  58  88 114 155 198 235 297 347
#     4   9  21  41  59  84 119 154 196 238 298 351
#     4  11  22  36  63  88 116 158 196 243 293 348
#
# _framework density 19.176781999999999
#
# number of rings (size 3 to 8) (size 9 to 14) (size 15 to 20)
#    0.000    1.667    3.333    2.000    7.000    0.667 
#    3.000    3.333    0.000    0.000    0.000    0.000 
#    0.000    0.000    0.000    0.000    0.000    0.000 
#
# Total GULP energy -297361.372724 kJ/mol
# GULP energy per Si atom -12390.057197 kJ/mol
# Density = 1.913314 g / cm^3
# Si number density = 19.176782 Si / 1000 Ang^3
#
#
#
# Elastic Constant Matrix: (Units=GPa)
#
#
# Indices 1 2 3 4 5 6 
#
# 1 169.1812 37.1732 65.5141 0.0000 -13.9252 0.0000
# 2 37.1732 49.1446 41.1912 0.0000 -6.1104 0.0000
# 3 65.5141 41.1912 117.9487 0.0000 -13.0642 0.0000
# 4 0.0000 0.0000 0.0000 29.8353 0.0000 -2.3744
# 5 -13.9252 -6.1104 -13.0642 0.0000 30.4499 0.0000
# 6 0.0000 0.0000 0.0000 -2.3744 0.0000 27.7650
#
#
#
# Elastic Compliance Matrix: (Units=1/GPa)
#
#
# Indices 1 2 3 4 5 6 
#
# 1 0.007958 -0.003199 -0.003120 0.000000 0.001659 0.000000
# 2 -0.003199 0.030123 -0.008647 0.000000 0.000872 0.000000
# 3 -0.003120 -0.008647 0.013523 0.000000 0.002640 0.000000
# 4 0.000000 0.000000 0.000000 0.033747 0.000000 0.002886
# 5 0.001659 0.000872 0.002640 0.000000 0.034907 0.000000
# 6 0.000000 0.000000 0.000000 0.002886 0.000000 0.036263
#
#
# Mechanical properties :
#
#
# Convention : Reuss Voigt Hill
#
# Bulk Modulus (GPa) = 46.13616 69.33684 57.73650
# Shear Modulus (GPa) = 25.81615 30.43645 28.12630
#
# Velocity S-wave (km/s) = 3.67307 3.98823 3.83389
# Velocity P-wave (km/s) = 6.48838 7.57912 7.05486
#
# Compressibility (1/GPa) = 0.02167497
#
# Stress axis : x y z
#
# Youngs Moduli (GPa) = 125.65631 33.19678 73.94755
#
# Poissons Ratio (x) = 0.10619 0.23068
# Poissons Ratio (y) = 0.40193 0.63940
# Poissons Ratio (z) = 0.39199 0.28704
#
# Static dielectric constant tensor:
#      x y z
#    x 3.641070 0.000000 -0.049480 
#    y 0.000000 3.354880 0.000000 
#    z -0.049480 0.000000 3.640660 
# 
# 
# High freq. dielectric constant tensor:
#      x y z
#    x 1.746470 0.000000 -0.015470 
#    y 0.000000 1.735440 0.000000 
#    z -0.015470 0.000000 1.750330 
# 
# From -- ./inp_files/166133.got.cif
#   From: 2010.06.25/outbox.cif.g09.slc.cpg/sg15_84_cif.got.tgz:166133.got - 2010.06.28 07:06:18.
