data_PCOD8144072
_publ_section_title
;
Structure prediction by ZEFSAII (Michael W. Deem and Ramdas Pophale) SiO2 
 PCOD8144072
Probable space group: C 2/C
;
_chemical_formula_sum "Si O2"
_cell_formula_units_Z 56
_cell_length_a 8.599606
_cell_length_b 16.856136
_cell_length_c 23.982536
_cell_angle_alpha 90.000000
_cell_angle_beta 43.352116
_cell_angle_gamma 90.000000
_cell_volume 2386.489924
_symmetry_space_group_name_H-M "C 2/C"
_symmetry_group_IT_number 15
_symmetry_cell_setting 'monoclinic'
loop_
_space_group_symop_operation_xyz
x,y,z
-x,y,1/2-z
-x,-y,-z
x,-y,1/2+z
1/2+x,1/2+y,z
1/2-x,1/2+y,1/2-z
1/2-x,1/2-y,-z
1/2+x,1/2-y,1/2+z
loop_
_atom_site_type_symbol
_atom_site_label
_atom_site_fract_x
_atom_site_fract_y
_atom_site_fract_z
Si Si1 0.033736 0.675485 0.891959
Si Si2 0.810500 0.831346 0.601998
Si Si3 0.476149 0.213055 0.415560
Si Si4 0.000000 0.443062 0.750000
Si Si5 0.929194 0.010279 0.661128
Si Si6 0.371231 0.917444 0.540672
Si Si7 0.500000 0.606419 0.750000
Si Si8 0.359816 0.364062 0.082712
O O1 0.029891 0.770774 0.904558
O O2 0.283819 0.661754 0.804269
O O3 0.881462 0.636184 0.884165
O O4 0.959474 0.639580 0.969732
O O5 0.578617 0.794316 0.635982
O O6 0.709952 0.899408 0.666415
O O7 0.948445 0.868489 0.514762
O O8 0.561092 0.129170 0.419902
O O9 0.658518 0.282096 0.377465
O O10 0.250000 0.250000 0.500000
O O11 0.834842 0.492605 0.751937
O O12 0.911661 0.062443 0.609421
O O13 0.036537 0.054554 0.685317
O O14 0.100235 0.934912 0.606425
O O15 0.500000 0.000000 0.500000
#
# Coordination Sequence:
#
# PCOD8144072 Si02
#       8
#     8   8   8   4   8   8   4   8
#     4  12  24  44  73 104 141 188 237 300 362 427
#     4  11  24  45  72 105 143 186 238 303 356 433
#     4  10  21  41  72 101 137 182 245 296 346 422
#     4  12  29  46  68 105 156 180 236 298 383 436
#     4  12  28  46  70 107 145 197 239 304 371 441
#     4  12  23  42  75 107 138 184 253 301 354 429
#     4  12  27  46  66  95 150 184 230 288 379 430
#     4  11  24  45  77 103 140 188 254 291 352 438
#
# _framework density 23.465423999999999
#
# number of rings (size 3 to 8) (size 9 to 14) (size 15 to 20)
#    0.000    0.571    4.286    5.143    4.000    4.571 
#    0.000    0.000    0.000    0.000    0.000    0.000 
#    0.000    0.000    0.000    0.000    0.000    0.000 
#
# Total GULP energy -346877.679340 kJ/mol
# GULP energy per Si atom -12388.488548 kJ/mol
# Density = 2.341202 g / cm^3
# Si number density = 23.465424 Si / 1000 Ang^3
#
#
#
# Elastic Constant Matrix: (Units=GPa)
#
#
# Indices 1 2 3 4 5 6 
#
# 1 114.1953 22.9976 33.2702 0.0057 -14.1124 0.0034
# 2 22.9976 103.8353 25.1401 0.0255 -5.5636 -0.0049
# 3 33.2702 25.1401 96.8873 0.0865 -16.6073 -0.0045
# 4 0.0057 0.0255 0.0865 28.7892 0.0159 -6.2942
# 5 -14.1124 -5.5636 -16.6073 0.0159 38.5480 0.0009
# 6 0.0034 -0.0049 -0.0045 -6.2942 0.0009 42.7010
#
#
#
# Elastic Compliance Matrix: (Units=1/GPa)
#
#
# Indices 1 2 3 4 5 6 
#
# 1 0.010126 -0.001465 -0.002697 0.000006 0.002334 0.000000
# 2 -0.001465 0.010493 -0.002216 -0.000002 0.000024 0.000001
# 3 -0.002697 -0.002216 0.012523 -0.000038 0.004088 -0.000004
# 4 0.000006 -0.000002 -0.000038 0.035892 -0.000030 0.005291
# 5 0.002334 0.000024 0.004088 -0.000030 0.028561 -0.000005
# 6 0.000000 0.000001 -0.000004 0.005291 -0.000005 0.024198
#
#
# Mechanical properties :
#
#
# Convention : Reuss Voigt Hill
#
# Bulk Modulus (GPa) = 49.05068 53.08153 51.06610
# Shear Modulus (GPa) = 35.37472 37.57496 36.47484
#
# Velocity S-wave (km/s) = 3.88690 4.00595 3.94688
# Velocity P-wave (km/s) = 6.41036 6.63831 6.52533
#
# Compressibility (1/GPa) = 0.02038708
#
# Stress axis : x y z
#
# Youngs Moduli (GPa) = 98.75466 95.30398 79.85236
#
# Poissons Ratio (x) = 0.13959 0.21537
# Poissons Ratio (y) = 0.14464 0.17692
# Poissons Ratio (z) = 0.26635 0.21116
#
# Static dielectric constant tensor:
#      x y z
#    x 5.400840 -0.000080 -0.254040 
#    y -0.000080 4.704160 0.000070 
#    z -0.254040 0.000070 4.051320 
# 
# 
# High freq. dielectric constant tensor:
#      x y z
#    x 1.950690 0.000000 -0.016180 
#    y 0.000000 1.933840 0.000000 
#    z -0.016180 0.000000 1.913820 
# 
# From -- ./inp_files/289735.got.cif
#   From: 2010.06.25/outbox.cif.g09.slc.cpg/sg15_145_cif.got.tgz:289735.got - 2010.06.28 07:06:18.
