data_PCOD8144330
_publ_section_title
;
Structure prediction by ZEFSAII (Michael W. Deem and Ramdas Pophale) SiO2 
 PCOD8144330
Probable space group: C 2/C
;
_chemical_formula_sum "Si O2"
_cell_formula_units_Z 48
_cell_length_a 29.622013
_cell_length_b 16.817332
_cell_length_c 9.051880
_cell_angle_alpha 90.000000
_cell_angle_beta 31.372319
_cell_angle_gamma 90.000000
_cell_volume 2347.536112
_symmetry_space_group_name_H-M "C 2/C"
_symmetry_group_IT_number 15
_symmetry_cell_setting 'monoclinic'
loop_
_space_group_symop_operation_xyz
x,y,z
-x,y,1/2-z
-x,-y,-z
x,-y,1/2+z
1/2+x,1/2+y,z
1/2-x,1/2+y,1/2-z
1/2-x,1/2-y,-z
1/2+x,1/2-y,1/2+z
loop_
_atom_site_type_symbol
_atom_site_label
_atom_site_fract_x
_atom_site_fract_y
_atom_site_fract_z
Si Si1 0.000000 0.699127 0.750000
Si Si2 0.000000 0.312301 0.750000
Si Si3 0.475891 0.694725 0.578986
Si Si4 0.080865 0.549738 0.839752
Si Si5 0.153207 0.081261 0.733035
Si Si6 0.847288 0.583298 0.165149
Si Si7 0.584020 0.553706 0.254240
O O1 0.976540 0.751948 0.676079
O O2 0.083066 0.646851 0.472440
O O3 0.944128 0.252250 0.800965
O O4 0.056661 0.367766 0.485948
O O5 0.396561 0.646068 0.728042
O O6 0.554216 0.636392 0.413937
O O7 0.146945 0.571986 0.526164
O O8 0.132395 0.500232 0.816014
O O9 0.000000 0.500000 0.000000
O O10 0.251311 0.112041 0.477297
O O11 0.157377 0.994323 0.640162
O O12 0.109384 0.070566 0.014344
O O13 0.500000 0.500000 0.500000
#
# Coordination Sequence:
#
# PCOD8144330 Si02
#       7
#     4   4   8   8   8   8   8
#     4  12  21  42  63  86 128 172 208 254 325 404
#     4  12  23  38  67  94 124 166 218 262 323 392
#     4  11  23  41  64  92 126 168 212 258 332 394
#     4  12  21  42  65  95 120 173 219 259 315 395
#     4  11  24  42  64 100 124 168 221 277 311 379
#     4  12  24  40  67  92 130 163 223 266 319 377
#     4  10  21  42  68  90 127 170 218 260 321 389
#
# _framework density 20.446968999999999
#
# number of rings (size 3 to 8) (size 9 to 14) (size 15 to 20)
#    0.000    0.667    6.667    2.500    4.667    0.667 
#    0.000    0.833    0.000    0.000    0.000    0.000 
#    0.000    0.000    0.000    0.000    0.000    0.000 
#
# Total GULP energy -297446.676799 kJ/mol
# GULP energy per Si atom -12393.611533 kJ/mol
# Density = 2.040043 g / cm^3
# Si number density = 20.446969 Si / 1000 Ang^3
#
#
#
# Elastic Constant Matrix: (Units=GPa)
#
#
# Indices 1 2 3 4 5 6 
#
# 1 71.7540 45.7878 38.9706 0.0000 7.3320 0.0000
# 2 45.7878 127.6778 42.0338 0.0000 4.5251 0.0000
# 3 38.9706 42.0338 116.9621 0.0000 0.6737 0.0000
# 4 0.0000 0.0000 0.0000 16.8581 0.0000 17.9954
# 5 7.3320 4.5251 0.6737 0.0000 39.9177 0.0000
# 6 0.0000 0.0000 0.0000 17.9954 0.0000 50.8923
#
#
#
# Elastic Compliance Matrix: (Units=1/GPa)
#
#
# Indices 1 2 3 4 5 6 
#
# 1 0.020441 -0.005656 -0.004761 0.000000 -0.003033 0.000000
# 2 -0.005656 0.010485 -0.001883 0.000000 -0.000118 0.000000
# 3 -0.004761 -0.001883 0.010807 0.000000 0.000905 0.000000
# 4 0.000000 0.000000 0.000000 0.095283 0.000000 -0.033692
# 5 -0.003033 -0.000118 0.000905 0.000000 0.025607 0.000000
# 6 0.000000 0.000000 0.000000 -0.033692 0.000000 0.031563
#
#
# Mechanical properties :
#
#
# Convention : Reuss Voigt Hill
#
# Bulk Modulus (GPa) = 58.36191 63.33091 60.84641
# Shear Modulus (GPa) = 22.27213 34.17374 28.22294
#
# Velocity S-wave (km/s) = 3.30398 4.09263 3.71927
# Velocity P-wave (km/s) = 6.56963 7.30571 6.94742
#
# Compressibility (1/GPa) = 0.01713446
#
# Stress axis : x y z
#
# Youngs Moduli (GPa) = 48.92096 95.37877 92.52894
#
# Poissons Ratio (x) = 0.53944 0.44051
# Poissons Ratio (y) = 0.27669 0.17421
# Poissons Ratio (z) = 0.23290 0.17958
#
# Static dielectric constant tensor:
#      x y z
#    x 5.591590 0.000000 0.213530 
#    y 0.000000 4.338450 0.000000 
#    z 0.213530 0.000000 3.612510 
# 
# 
# High freq. dielectric constant tensor:
#      x y z
#    x 1.793500 0.000000 0.025290 
#    y 0.000000 1.817720 0.000000 
#    z 0.025290 0.000000 1.784410 
# 
# From -- ./inp_files/70560.got.cif
#   From: 2010.06.25/outbox.cif.g09.slc.cpg/sg15_36_cif.got.tgz:70560.got - 2010.06.28 07:06:18.
