data_PCOD8144665
_publ_section_title
;
Structure prediction by ZEFSAII (Michael W. Deem and Ramdas Pophale) SiO2 
 PCOD8144665
Probable space group: C 2/C
;
_chemical_formula_sum "Si O2"
_cell_formula_units_Z 40
_cell_length_a 16.640806
_cell_length_b 21.006832
_cell_length_c 9.214419
_cell_angle_alpha 90.000000
_cell_angle_beta 147.076876
_cell_angle_gamma 90.000000
_cell_volume 1750.705220
_symmetry_space_group_name_H-M "C 2/C"
_symmetry_group_IT_number 15
_symmetry_cell_setting 'monoclinic'
loop_
_space_group_symop_operation_xyz
x,y,z
-x,y,1/2-z
-x,-y,-z
x,-y,1/2+z
1/2+x,1/2+y,z
1/2-x,1/2+y,1/2-z
1/2-x,1/2-y,-z
1/2+x,1/2-y,1/2+z
loop_
_atom_site_type_symbol
_atom_site_label
_atom_site_fract_x
_atom_site_fract_y
_atom_site_fract_z
Si Si1 0.117321 0.633149 0.555294
Si Si2 0.081300 0.266853 0.222158
Si Si3 0.838040 0.497832 0.963010
Si Si4 0.838273 0.061299 0.542481
Si Si5 0.656145 0.692682 0.792551
O O1 0.062833 0.663032 0.623462
O O2 0.141804 0.558208 0.614679
O O3 0.268814 0.668177 0.741509
O O4 0.000000 0.644818 0.250000
O O5 0.250000 0.250000 0.500000
O O6 0.000000 0.268466 0.250000
O O7 0.007790 0.215900 0.999848
O O8 0.739003 0.519624 0.949503
O O9 0.000000 0.472216 0.250000
O O10 0.757315 0.442709 0.750018
O O11 0.852018 0.135306 0.604876
O O12 0.000000 0.033053 0.750000
O O13 0.750000 0.750000 0.000000
#
# Coordination Sequence:
#
# PCOD8144665 Si02
#       5
#     8   8   8   8   8
#     4  10  21  43  72  97 143 188 227 295 350 427
#     4  12  25  43  67 108 142 180 234 298 356 424
#     4  10  23  49  72 106 145 187 245 295 356 420
#     4  11  25  46  74 107 143 193 236 301 358 428
#     4  11  24  44  71 102 143 186 234 285 364 428
#
# _framework density 22.847936000000001
#
# number of rings (size 3 to 8) (size 9 to 14) (size 15 to 20)
#    0.000    1.200    4.000    1.200    2.800    0.000 
#   14.400    0.000    0.000    0.000    0.000    0.000 
#    0.000    0.000    0.000    0.000    0.000    0.000 
#
# Total GULP energy -248017.220516 kJ/mol
# GULP energy per Si atom -12400.861026 kJ/mol
# Density = 2.279593 g / cm^3
# Si number density = 22.847936 Si / 1000 Ang^3
#
#
#
# Elastic Constant Matrix: (Units=GPa)
#
#
# Indices 1 2 3 4 5 6 
#
# 1 130.3319 44.9511 69.0801 0.0000 11.3679 0.0000
# 2 44.9511 74.7385 71.6928 0.0000 -5.9824 0.0000
# 3 69.0801 71.6928 187.1557 0.0000 17.0643 0.0000
# 4 0.0000 0.0000 0.0000 33.4525 0.0000 -5.6366
# 5 11.3679 -5.9824 17.0643 0.0000 38.4156 0.0000
# 6 0.0000 0.0000 0.0000 -5.6366 0.0000 13.0741
#
#
#
# Elastic Compliance Matrix: (Units=1/GPa)
#
#
# Indices 1 2 3 4 5 6 
#
# 1 0.010566 -0.004964 -0.001712 0.000000 -0.003139 0.000000
# 2 -0.004964 0.025575 -0.008819 0.000000 0.009369 0.000000
# 3 -0.001712 -0.008819 0.009831 0.000000 -0.005233 0.000000
# 4 0.000000 0.000000 0.000000 0.032235 0.000000 0.013897
# 5 -0.003139 0.009369 -0.005233 0.000000 0.030744 0.000000
# 6 0.000000 0.000000 0.000000 0.013897 0.000000 0.082479
#
#
# Mechanical properties :
#
#
# Convention : Reuss Voigt Hill
#
# Bulk Modulus (GPa) = 66.74846 84.85267 75.80057
# Shear Modulus (GPa) = 21.98652 30.75526 26.37089
#
# Velocity S-wave (km/s) = 3.10546 3.67288 3.40102
# Velocity P-wave (km/s) = 6.49124 7.43003 6.97644
#
# Compressibility (1/GPa) = 0.01498162
#
# Stress axis : x y z
#
# Youngs Moduli (GPa) = 94.64278 39.10102 101.72300
#
# Poissons Ratio (x) = 0.19408 0.17419
# Poissons Ratio (y) = 0.46976 0.89709
# Poissons Ratio (z) = 0.16207 0.34483
#
# Static dielectric constant tensor:
#      x y z
#    x 4.184720 0.000000 0.082950 
#    y 0.000000 4.141130 0.000000 
#    z 0.082950 0.000000 4.167770 
# 
# 
# High freq. dielectric constant tensor:
#      x y z
#    x 1.913240 0.000000 0.008660 
#    y 0.000000 1.893220 0.000000 
#    z 0.008660 0.000000 1.906410 
# 
# From -- ./inp_files/51703.got.cif
#   From: 2010.06.25/outbox.cif.g09.slc.cpg/sg15_26_cif.got.tgz:51703.got - 2010.06.28 07:06:18.
