data_PCOD8144039
_publ_section_title
;
Structure prediction by ZEFSAII (Michael W. Deem and Ramdas Pophale) SiO2 
 PCOD8144039
Probable space group: C 2/C
;
_chemical_formula_sum "Si O2"
_cell_formula_units_Z 48
_cell_length_a 9.396192
_cell_length_b 15.446094
_cell_length_c 27.454531
_cell_angle_alpha 90.000000
_cell_angle_beta 142.878702
_cell_angle_gamma 90.000000
_cell_volume 2404.722923
_symmetry_space_group_name_H-M "C 2/C"
_symmetry_group_IT_number 15
_symmetry_cell_setting 'monoclinic'
loop_
_space_group_symop_operation_xyz
x,y,z
-x,y,1/2-z
-x,-y,-z
x,-y,1/2+z
1/2+x,1/2+y,z
1/2-x,1/2+y,1/2-z
1/2-x,1/2-y,-z
1/2+x,1/2-y,1/2+z
loop_
_atom_site_type_symbol
_atom_site_label
_atom_site_fract_x
_atom_site_fract_y
_atom_site_fract_z
Si Si1 0.253542 0.408136 0.696119
Si Si2 0.268523 0.177384 0.045591
Si Si3 0.338983 0.474384 0.051310
Si Si4 0.730476 0.409032 0.689095
Si Si5 0.130235 0.567600 0.594229
Si Si6 0.529700 0.743001 0.078936
O O1 0.500000 0.361167 0.750000
O O2 0.283960 0.437639 0.759452
O O3 0.227105 0.494809 0.656872
O O4 0.043706 0.339619 0.632150
O O5 0.127836 0.202598 0.055450
O O6 0.250000 0.250000 0.000000
O O7 0.157755 0.089935 0.993520
O O8 0.595622 0.518314 0.120900
O O9 0.285572 0.426192 0.087536
O O10 0.142467 0.548945 0.992565
O O11 0.609153 0.316315 0.645814
O O12 0.000000 0.405276 0.750000
O O13 0.142122 0.663073 0.620578
O O14 0.250000 0.750000 0.000000
#
# Coordination Sequence:
#
# PCOD8144039 Si02
#       6
#     8   8   8   8   8   8
#     4  11  24  43  69  95 133 179 222 278 338 392
#     4  11  24  43  69  99 134 176 225 271 330 403
#     4  10  21  41  70  93 130 173 223 264 325 405
#     4  12  25  44  63  99 140 170 216 284 340 383
#     4  10  21  41  70  95 122 179 226 262 322 408
#     4  12  25  42  69 101 136 175 224 279 332 397
#
# _framework density 19.960719999999998
#
# number of rings (size 3 to 8) (size 9 to 14) (size 15 to 20)
#    0.000    1.000    6.667    0.000    2.333    2.667 
#    3.000    0.833    0.000    0.000    0.000    0.000 
#    0.000    0.000    0.000    0.000    0.000    0.000 
#
# Total GULP energy -297600.656465 kJ/mol
# GULP energy per Si atom -12400.027353 kJ/mol
# Density = 1.991529 g / cm^3
# Si number density = 19.960720 Si / 1000 Ang^3
#
#
#
# Elastic Constant Matrix: (Units=GPa)
#
#
# Indices 1 2 3 4 5 6 
#
# 1 96.8061 26.2597 50.4034 0.0000 10.6692 0.0000
# 2 26.2597 92.0955 40.5090 0.0000 11.6749 0.0000
# 3 50.4034 40.5090 126.1185 -0.0001 21.6352 -0.0001
# 4 0.0000 0.0000 -0.0001 47.7482 -0.0001 -2.7536
# 5 10.6692 11.6749 21.6352 -0.0001 46.0152 0.0000
# 6 0.0000 0.0000 -0.0001 -2.7536 0.0000 29.6482
#
#
#
# Elastic Compliance Matrix: (Units=1/GPa)
#
#
# Indices 1 2 3 4 5 6 
#
# 1 0.013275 -0.001664 -0.004694 0.000000 -0.000449 0.000000
# 2 -0.001664 0.012938 -0.003257 0.000000 -0.001366 0.000000
# 3 -0.004694 -0.003257 0.011446 0.000000 -0.003467 0.000000
# 4 0.000000 0.000000 0.000000 0.021056 0.000000 0.001956
# 5 -0.000449 -0.001366 -0.003467 0.000000 0.023813 0.000000
# 6 0.000000 0.000000 0.000000 0.001956 0.000000 0.033910
#
#
# Mechanical properties :
#
#
# Convention : Reuss Voigt Hill
#
# Bulk Modulus (GPa) = 54.25786 61.04047 57.64917
# Shear Modulus (GPa) = 35.25869 37.87219 36.56544
#
# Velocity S-wave (km/s) = 4.20742 4.36057 4.28468
# Velocity P-wave (km/s) = 7.13053 7.48328 7.30903
#
# Compressibility (1/GPa) = 0.01843051
#
# Stress axis : x y z
#
# Youngs Moduli (GPa) = 75.33203 77.29045 87.36893
#
# Poissons Ratio (x) = 0.12857 0.41010
# Poissons Ratio (y) = 0.12531 0.28453
# Poissons Ratio (z) = 0.35360 0.25171
#
# Static dielectric constant tensor:
#      x y z
#    x 3.571120 0.000000 -0.000550 
#    y 0.000000 3.694470 0.000000 
#    z -0.000550 0.000000 3.860680 
# 
# 
# High freq. dielectric constant tensor:
#      x y z
#    x 1.783750 0.000000 0.002100 
#    y 0.000000 1.774910 0.000000 
#    z 0.002100 0.000000 1.788510 
# 
# From -- ./inp_files/289116.got.cif
#   From: 2010.06.25/outbox.cif.g09.slc.cpg/sg15_145_cif.got.tgz:289116.got - 2010.06.28 07:06:18.
