data_PCOD8144920
_publ_section_title
;
Structure prediction by ZEFSAII (Michael W. Deem and Ramdas Pophale) SiO2 
 PCOD8144920
Probable space group: C 2/C
;
_chemical_formula_sum "Si O2"
_cell_formula_units_Z 28
_cell_length_a 19.271361
_cell_length_b 14.387094
_cell_length_c 5.246623
_cell_angle_alpha 90.000000
_cell_angle_beta 124.032025
_cell_angle_gamma 90.000000
_cell_volume 1205.523575
_symmetry_space_group_name_H-M "C 2/C"
_symmetry_group_IT_number 15
_symmetry_cell_setting 'monoclinic'
loop_
_space_group_symop_operation_xyz
x,y,z
-x,y,1/2-z
-x,-y,-z
x,-y,1/2+z
1/2+x,1/2+y,z
1/2-x,1/2+y,1/2-z
1/2-x,1/2-y,-z
1/2+x,1/2-y,1/2+z
loop_
_atom_site_type_symbol
_atom_site_label
_atom_site_fract_x
_atom_site_fract_y
_atom_site_fract_z
Si Si1 0.333955 0.821529 0.375064
Si Si2 0.088959 0.055412 0.770739
Si Si3 0.263158 0.133592 0.229884
Si Si4 0.500000 0.724352 0.750000
O O1 0.332764 0.873080 0.647544
O O2 0.269315 0.737607 0.284054
O O3 0.426851 0.788008 0.482571
O O4 0.304348 0.892228 0.089033
O O5 0.045566 0.156240 0.637521
O O6 0.061451 0.984706 0.492462
O O7 0.188884 0.065583 0.989017
#
# Coordination Sequence:
#
# PCOD8144920 Si02
#       4
#     8   8   8   4
#     4   9  18  32  51  73 101 134 173 222 257 299
#     4  11  22  35  53  79 113 147 172 206 259 329
#     4   9  18  33  50  71 100 139 181 209 248 304
#     4  10  22  34  54  84 114 136 168 218 280 318
#
# _framework density 23.226424000000002
#
# number of rings (size 3 to 8) (size 9 to 14) (size 15 to 20)
#    0.000    2.286    0.000    2.571    0.000   10.286 
#    0.000    0.000    0.000    0.000    0.000   20.000 
#    0.000    0.000    0.000    0.000    0.000    0.000 
#
# Total GULP energy -173465.255036 kJ/mol
# GULP energy per Si atom -12390.375360 kJ/mol
# Density = 2.317356 g / cm^3
# Si number density = 23.226424 Si / 1000 Ang^3
#
#
#
# Elastic Constant Matrix: (Units=GPa)
#
#
# Indices 1 2 3 4 5 6 
#
# 1 133.1285 26.7130 80.0193 0.0000 -4.4455 0.0000
# 2 26.7130 21.6712 29.4468 0.0000 5.1849 0.0000
# 3 80.0193 29.4468 162.9978 0.0000 -16.6350 0.0000
# 4 0.0000 0.0000 0.0000 23.7223 0.0000 13.3145
# 5 -4.4455 5.1849 -16.6350 0.0000 48.5947 0.0000
# 6 0.0000 0.0000 0.0000 13.3145 0.0000 23.3946
#
#
#
# Elastic Compliance Matrix: (Units=1/GPa)
#
#
# Indices 1 2 3 4 5 6 
#
# 1 0.011831 -0.009204 -0.004077 0.000000 0.000669 0.000000
# 2 -0.009204 0.074179 -0.010130 0.000000 -0.012224 0.000000
# 3 -0.004077 -0.010130 0.010402 0.000000 0.004269 0.000000
# 4 0.000000 0.000000 0.000000 0.061940 0.000000 -0.035252
# 5 0.000669 -0.012224 0.004269 0.000000 0.023405 0.000000
# 6 0.000000 0.000000 0.000000 -0.035252 0.000000 0.062807
#
#
# Mechanical properties :
#
#
# Convention : Reuss Voigt Hill
#
# Bulk Modulus (GPa) = 20.16529 65.57287 42.86908
# Shear Modulus (GPa) = 16.23810 31.25021 23.74415
#
# Velocity S-wave (km/s) = 2.64696 3.67203 3.20080
# Velocity P-wave (km/s) = 4.24768 6.80233 5.67073
#
# Compressibility (1/GPa) = 0.04959015
#
# Stress axis : x y z
#
# Youngs Moduli (GPa) = 84.52085 13.48094 96.13075
#
# Poissons Ratio (x) = 0.12407 0.39196
# Poissons Ratio (y) = 0.77790 0.97383
# Poissons Ratio (z) = 0.34462 0.13657
#
# Static dielectric constant tensor:
#      x y z
#    x 4.210450 0.000000 -0.092260 
#    y 0.000000 3.651510 0.000000 
#    z -0.092260 0.000000 4.328550 
# 
# 
# High freq. dielectric constant tensor:
#      x y z
#    x 1.920370 0.000000 0.001310 
#    y 0.000000 1.867460 0.000000 
#    z 0.001310 0.000000 1.917970 
# 
# From -- ./inp_files/158.got.cif
#   From: 2010.06.25/outbox.cif.g09.slc.cpg/sg15_1_cif.got.tgz:158.got - 2010.06.28 07:06:18.
