data_PCOD8144220
_publ_section_title
;
Structure prediction by ZEFSAII (Michael W. Deem and Ramdas Pophale) SiO2 
 PCOD8144220
Probable space group: C 2/C
;
_chemical_formula_sum "Si O2"
_cell_formula_units_Z 44
_cell_length_a 17.708197
_cell_length_b 8.928120
_cell_length_c 14.510502
_cell_angle_alpha 90.000000
_cell_angle_beta 75.166641
_cell_angle_gamma 90.000000
_cell_volume 2217.670720
_symmetry_space_group_name_H-M "C 2/C"
_symmetry_group_IT_number 15
_symmetry_cell_setting 'monoclinic'
loop_
_space_group_symop_operation_xyz
x,y,z
-x,y,1/2-z
-x,-y,-z
x,-y,1/2+z
1/2+x,1/2+y,z
1/2-x,1/2+y,1/2-z
1/2-x,1/2-y,-z
1/2+x,1/2-y,1/2+z
loop_
_atom_site_type_symbol
_atom_site_label
_atom_site_fract_x
_atom_site_fract_y
_atom_site_fract_z
Si Si1 0.420772 0.917889 0.002714
Si Si2 0.000000 0.795522 0.750000
Si Si3 0.120340 0.452758 0.167977
Si Si4 0.061217 0.908923 0.920534
Si Si5 0.178572 0.426477 0.825000
Si Si6 0.787327 0.915539 0.165952
O O1 0.424628 0.750978 0.038330
O O2 0.348171 0.008376 0.069210
O O3 0.500000 0.000000 0.000000
O O4 0.406721 0.924515 0.897857
O O5 0.932345 0.695739 0.817731
O O6 0.965920 0.897323 0.677773
O O7 0.111567 0.528966 0.271252
O O8 0.211627 0.408919 0.122122
O O9 0.143406 0.993045 0.902426
O O10 0.000000 0.000000 0.000000
O O11 0.183383 0.249434 0.822725
O O12 0.261273 0.501643 0.769426
#
# Coordination Sequence:
#
# PCOD8144220 Si02
#       6
#     8   4   8   8   8   8
#     4  12  22  41  68  96 133 177 229 277 333 415
#     4  12  22  48  70  98 138 188 218 284 352 406
#     4  10  23  40  72  96 131 179 225 274 350 398
#     4  12  26  44  67 101 138 176 231 284 336 413
#     4  10  21  42  65  94 136 169 224 276 336 407
#     4  10  23  44  63 101 135 176 220 286 339 397
#
# _framework density 19.840637000000001
#
# number of rings (size 3 to 8) (size 9 to 14) (size 15 to 20)
#    1.091    0.000    3.636    3.273    0.000    2.909 
#    3.273    0.000    0.000    0.000    0.000    0.000 
#    0.000    0.000    0.000    0.000    0.000    0.000 
#
# Total GULP energy -272724.337380 kJ/mol
# GULP energy per Si atom -12396.560790 kJ/mol
# Density = 1.979548 g / cm^3
# Si number density = 19.840637 Si / 1000 Ang^3
#
#
#
# Elastic Constant Matrix: (Units=GPa)
#
#
# Indices 1 2 3 4 5 6 
#
# 1 104.9042 31.5033 34.3179 0.0000 -19.1994 0.0000
# 2 31.5033 136.4432 36.2104 0.0000 -19.0119 0.0000
# 3 34.3179 36.2104 88.3910 0.0000 -7.5065 0.0000
# 4 0.0000 0.0000 0.0000 41.5125 0.0000 -10.8075
# 5 -19.1994 -19.0119 -7.5065 0.0000 51.4953 0.0000
# 6 0.0000 0.0000 0.0000 -10.8075 0.0000 29.1189
#
#
#
# Elastic Compliance Matrix: (Units=1/GPa)
#
#
# Indices 1 2 3 4 5 6 
#
# 1 0.011756 -0.001244 -0.003768 0.000000 0.003375 0.000000
# 2 -0.001244 0.008707 -0.002886 0.000000 0.002330 0.000000
# 3 -0.003768 -0.002886 0.013921 0.000000 -0.000441 0.000000
# 4 0.000000 0.000000 0.000000 0.026666 0.000000 0.009897
# 5 0.003375 0.002330 -0.000441 0.000000 0.021473 0.000000
# 6 0.000000 0.000000 0.000000 0.009897 0.000000 0.038015
#
#
# Mechanical properties :
#
#
# Convention : Reuss Voigt Hill
#
# Bulk Modulus (GPa) = 53.79847 59.31127 56.55487
# Shear Modulus (GPa) = 35.07997 39.60578 37.34287
#
# Velocity S-wave (km/s) = 4.20942 4.47273 4.34307
# Velocity P-wave (km/s) = 7.12740 7.52545 7.32913
#
# Compressibility (1/GPa) = 0.01858789
#
# Stress axis : x y z
#
# Youngs Moduli (GPa) = 85.05954 114.85169 71.83304
#
# Poissons Ratio (x) = 0.14290 0.27068
# Poissons Ratio (y) = 0.10583 0.20731
# Poissons Ratio (z) = 0.32052 0.33146
#
# Static dielectric constant tensor:
#      x y z
#    x 3.673300 0.000000 -0.082780 
#    y 0.000000 3.710790 0.000000 
#    z -0.082780 0.000000 3.637500 
# 
# 
# High freq. dielectric constant tensor:
#      x y z
#    x 1.777530 0.000000 -0.011170 
#    y 0.000000 1.773190 0.000000 
#    z -0.011170 0.000000 1.773990 
# 
# From -- ./inp_files/159227.got.cif
#   From: 2010.06.25/outbox.cif.g09.slc.cpg/sg15_80_cif.got.tgz:159227.got - 2010.06.28 07:06:18.
