data_PCOD8144249
_publ_section_title
;
Structure prediction by ZEFSAII (Michael W. Deem and Ramdas Pophale) SiO2 
 PCOD8144249
Probable space group: C 2/C
;
_chemical_formula_sum "Si O2"
_cell_formula_units_Z 48
_cell_length_a 10.203663
_cell_length_b 23.638988
_cell_length_c 10.883985
_cell_angle_alpha 90.000000
_cell_angle_beta 57.868783
_cell_angle_gamma 90.000000
_cell_volume 2223.157953
_symmetry_space_group_name_H-M "C 2/C"
_symmetry_group_IT_number 15
_symmetry_cell_setting 'monoclinic'
loop_
_space_group_symop_operation_xyz
x,y,z
-x,y,1/2-z
-x,-y,-z
x,-y,1/2+z
1/2+x,1/2+y,z
1/2-x,1/2+y,1/2-z
1/2-x,1/2-y,-z
1/2+x,1/2-y,1/2+z
loop_
_atom_site_type_symbol
_atom_site_label
_atom_site_fract_x
_atom_site_fract_y
_atom_site_fract_z
Si Si1 0.631349 0.841689 0.006638
Si Si2 0.314901 0.889177 0.865685
Si Si3 0.297213 0.163545 0.764778
Si Si4 0.649376 0.773379 0.752557
Si Si5 0.823029 0.059081 0.292966
Si Si6 0.320577 0.568030 0.820500
O O1 0.721217 0.818716 0.082780
O O2 0.464057 0.857847 0.139590
O O3 0.616839 0.795054 0.907453
O O4 0.713568 0.898808 0.922213
O O5 0.500000 0.897229 0.750000
O O6 0.267088 0.824123 0.862546
O O7 0.202638 0.927882 0.838472
O O8 0.277293 0.901888 0.024281
O O9 0.255301 0.218202 0.704596
O O10 0.192743 0.108037 0.792596
O O11 0.500000 0.755038 0.750000
O O12 0.000000 0.066781 0.250000
O O13 0.757804 0.995661 0.339562
O O14 0.500000 0.562238 0.750000
#
# Coordination Sequence:
#
# PCOD8144249 Si02
#       6
#     8   8   8   8   8   8
#     4  10  24  43  62  95 132 171 215 262 328 389
#     4  10  23  43  67  94 128 177 222 260 328 398
#     4  11  23  40  64  99 132 163 216 274 318 380
#     4  10  21  42  66  90 132 174 211 261 324 393
#     4  10  24  44  66  90 132 175 215 267 332 389
#     4  11  25  39  66 100 129 168 222 272 319 384
#
# _framework density 21.590909
#
# number of rings (size 3 to 8) (size 9 to 14) (size 15 to 20)
#    0.000    1.667    0.000    4.000    4.667    8.000 
#   15.000    0.000    0.000    0.000    0.000    0.000 
#    0.000    0.000    0.000    0.000    0.000    0.000 
#
# Total GULP energy -297452.495731 kJ/mol
# GULP energy per Si atom -12393.853989 kJ/mol
# Density = 2.154177 g / cm^3
# Si number density = 21.590909 Si / 1000 Ang^3
#
#
#
# Elastic Constant Matrix: (Units=GPa)
#
#
# Indices 1 2 3 4 5 6 
#
# 1 104.8313 65.3227 34.3214 0.0000 30.2640 0.0000
# 2 65.3227 144.4435 36.8071 0.0000 4.8156 0.0000
# 3 34.3214 36.8071 85.7583 0.0000 13.5407 0.0000
# 4 0.0000 0.0000 0.0000 21.1275 0.0000 1.9629
# 5 30.2640 4.8156 13.5407 0.0000 31.1882 0.0000
# 6 0.0000 0.0000 0.0000 1.9629 0.0000 29.3470
#
#
#
# Elastic Compliance Matrix: (Units=1/GPa)
#
#
# Indices 1 2 3 4 5 6 
#
# 1 0.020296 -0.008118 -0.001854 0.000000 -0.017637 0.000000
# 2 -0.008118 0.011023 -0.002638 0.000000 0.007321 0.000000
# 3 -0.001854 -0.002638 0.014157 0.000000 -0.003940 0.000000
# 4 0.000000 0.000000 0.000000 0.047628 0.000000 -0.003186
# 5 -0.017637 0.007321 -0.003940 0.000000 0.049758 0.000000
# 6 0.000000 0.000000 0.000000 -0.003186 0.000000 0.034288
#
#
# Mechanical properties :
#
#
# Convention : Reuss Voigt Hill
#
# Bulk Modulus (GPa) = 49.36805 67.54837 58.45821
# Shear Modulus (GPa) = 23.90963 29.57134 26.74049
#
# Velocity S-wave (km/s) = 3.33136 3.70485 3.52306
# Velocity P-wave (km/s) = 6.14102 7.04661 6.60934
#
# Compressibility (1/GPa) = 0.02025601
#
# Stress axis : x y z
#
# Youngs Moduli (GPa) = 49.27002 90.72235 70.63734
#
# Poissons Ratio (x) = 0.73652 0.13094
# Poissons Ratio (y) = 0.39999 0.18632
# Poissons Ratio (z) = 0.09133 0.23930
#
# Static dielectric constant tensor:
#      x y z
#    x 4.160020 0.000000 0.450590 
#    y 0.000000 4.009450 0.000000 
#    z 0.450590 0.000000 3.716560 
# 
# 
# High freq. dielectric constant tensor:
#      x y z
#    x 1.861140 0.000000 0.019280 
#    y 0.000000 1.853440 0.000000 
#    z 0.019280 0.000000 1.841430 
# 
# From -- ./inp_files/79753.got.cif
#   From: 2010.06.25/outbox.cif.g09.slc.cpg/sg15_40_cif.got.tgz:79753.got - 2010.06.28 07:06:18.
