data_PCOD8144651
_publ_section_title
;
Structure prediction by ZEFSAII (Michael W. Deem and Ramdas Pophale) SiO2 
 PCOD8144651
Probable space group: C 2/C
;
_chemical_formula_sum "Si O2"
_cell_formula_units_Z 48
_cell_length_a 30.786926
_cell_length_b 13.978155
_cell_length_c 14.409621
_cell_angle_alpha 90.000000
_cell_angle_beta 21.283860
_cell_angle_gamma 90.000000
_cell_volume 2250.929629
_symmetry_space_group_name_H-M "C 2/C"
_symmetry_group_IT_number 15
_symmetry_cell_setting 'monoclinic'
loop_
_space_group_symop_operation_xyz
x,y,z
-x,y,1/2-z
-x,-y,-z
x,-y,1/2+z
1/2+x,1/2+y,z
1/2-x,1/2+y,1/2-z
1/2-x,1/2-y,-z
1/2+x,1/2-y,1/2+z
loop_
_atom_site_type_symbol
_atom_site_label
_atom_site_fract_x
_atom_site_fract_y
_atom_site_fract_z
Si Si1 0.750603 0.359311 0.136089
Si Si2 0.016090 0.327196 0.611198
Si Si3 0.359263 0.504224 0.783728
Si Si4 0.791454 0.520734 0.737540
Si Si5 0.298240 0.309764 0.820161
Si Si6 0.138153 0.311772 0.960105
O O1 0.679794 0.398715 0.188659
O O2 0.740360 0.426736 0.247796
O O3 0.694421 0.255935 0.269322
O O4 0.886554 0.350998 0.827661
O O5 0.106794 0.415678 0.414740
O O6 0.068324 0.229633 0.464682
O O7 0.000000 0.305294 0.750000
O O8 0.500000 0.500000 0.500000
O O9 0.302050 0.420580 0.836018
O O10 0.316157 0.497659 0.976139
O O11 0.852187 0.421334 0.589397
O O12 0.210619 0.291331 0.909205
O O13 0.250000 0.250000 0.000000
O O14 0.000000 0.284797 0.250000
#
# Coordination Sequence:
#
# PCOD8144651 Si02
#       6
#     8   8   8   8   8   8
#     4  11  25  45  71 102 136 187 232 286 346 414
#     4  10  21  43  71  97 135 178 236 277 339 421
#     4  12  29  44  69 105 143 181 231 292 356 416
#     4  11  24  47  67 102 137 183 236 280 350 418
#     4  12  24  46  72 104 136 187 232 287 353 414
#     4  12  26  44  73 101 141 185 231 287 350 415
#
# _framework density 21.324522999999999
#
# number of rings (size 3 to 8) (size 9 to 14) (size 15 to 20)
#    0.000    0.667    6.667    1.500    7.000    2.667 
#    0.000    0.000    0.000    0.000    0.000    0.000 
#    0.000    0.000    0.000    0.000    0.000    0.000 
#
# Total GULP energy -297686.645094 kJ/mol
# GULP energy per Si atom -12403.610212 kJ/mol
# Density = 2.127599 g / cm^3
# Si number density = 21.324523 Si / 1000 Ang^3
#
#
#
# Elastic Constant Matrix: (Units=GPa)
#
#
# Indices 1 2 3 4 5 6 
#
# 1 59.8815 3.3358 32.5263 0.0000 -0.0365 0.0000
# 2 3.3358 74.3849 -1.9580 0.0000 5.3637 0.0000
# 3 32.5263 -1.9580 137.0058 0.0000 0.6492 0.0000
# 4 0.0000 0.0000 0.0000 35.5777 0.0000 7.8817
# 5 -0.0365 5.3637 0.6492 0.0000 33.4816 0.0000
# 6 0.0000 0.0000 0.0000 7.8817 0.0000 30.3533
#
#
#
# Elastic Compliance Matrix: (Units=1/GPa)
#
#
# Indices 1 2 3 4 5 6 
#
# 1 0.019246 -0.001003 -0.004585 0.000000 0.000271 0.000000
# 2 -0.001003 0.013659 0.000444 0.000000 -0.002198 0.000000
# 3 -0.004585 0.000444 0.008395 0.000000 -0.000239 0.000000
# 4 0.000000 0.000000 0.000000 0.029823 0.000000 -0.007744
# 5 0.000271 -0.002198 -0.000239 0.000000 0.030224 0.000000
# 6 0.000000 0.000000 0.000000 -0.007744 0.000000 0.034956
#
#
# Mechanical properties :
#
#
# Convention : Reuss Voigt Hill
#
# Bulk Modulus (GPa) = 32.24648 37.67561 34.96105
# Shear Modulus (GPa) = 31.86160 35.70706 33.78433
#
# Velocity S-wave (km/s) = 3.86959 4.09646 3.98464
# Velocity P-wave (km/s) = 5.92618 6.33093 6.13190
#
# Compressibility (1/GPa) = 0.03101113
#
# Stress axis : x y z
#
# Youngs Moduli (GPa) = 51.95869 73.21319 119.11991
#
# Poissons Ratio (x) = 0.07345 0.54614
# Poissons Ratio (y) = 0.05213 -0.05287
# Poissons Ratio (z) = 0.23822 -0.03249
#
# Static dielectric constant tensor:
#      x y z
#    x 3.541880 0.000000 -0.214800 
#    y 0.000000 3.859970 0.000000 
#    z -0.214800 0.000000 4.107510 
# 
# 
# High freq. dielectric constant tensor:
#      x y z
#    x 1.828630 0.000000 0.007110 
#    y 0.000000 1.849610 0.000000 
#    z 0.007110 0.000000 1.847380 
# 
# From -- ./inp_files/182411.got.cif
#   From: 2010.06.25/outbox.cif.g09.slc.cpg/sg15_92_cif.got.tgz:182411.got - 2010.06.28 07:06:18.
