data_PCOD8144817
_publ_section_title
;
Structure prediction by ZEFSAII (Michael W. Deem and Ramdas Pophale) SiO2 
 PCOD8144817
Probable space group: C 2/C
;
_chemical_formula_sum "Si O2"
_cell_formula_units_Z 44
_cell_length_a 24.251438
_cell_length_b 11.579070
_cell_length_c 19.889939
_cell_angle_alpha 90.000000
_cell_angle_beta 159.751847
_cell_angle_gamma 90.000000
_cell_volume 1932.990314
_symmetry_space_group_name_H-M "C 2/C"
_symmetry_group_IT_number 15
_symmetry_cell_setting 'monoclinic'
loop_
_space_group_symop_operation_xyz
x,y,z
-x,y,1/2-z
-x,-y,-z
x,-y,1/2+z
1/2+x,1/2+y,z
1/2-x,1/2+y,1/2-z
1/2-x,1/2-y,-z
1/2+x,1/2-y,1/2+z
loop_
_atom_site_type_symbol
_atom_site_label
_atom_site_fract_x
_atom_site_fract_y
_atom_site_fract_z
Si Si1 0.947749 0.747558 0.408570
Si Si2 0.784246 0.381014 0.613467
Si Si3 0.500000 0.228225 0.250000
Si Si4 0.898321 0.007106 0.816744
Si Si5 0.396126 0.599800 0.068151
Si Si6 0.224844 0.705784 0.161286
O O1 0.890401 0.637013 0.301560
O O2 0.926188 0.723178 0.463468
O O3 0.137220 0.765023 0.625928
O O4 0.856339 0.856313 0.266556
O O5 0.619261 0.308959 0.428887
O O6 0.738875 0.514597 0.558019
O O7 0.892088 0.353019 0.672755
O O8 0.746135 0.922621 0.653877
O O9 0.995805 0.966181 0.863262
O O10 0.000000 0.000000 0.000000
O O11 0.500000 0.643316 0.250000
O O12 0.298561 0.707219 0.927124
#
# Coordination Sequence:
#
# PCOD8144817 Si02
#       6
#     8   8   4   8   8   8
#     4  11  23  42  73  97 133 170 224 287 330 397
#     4  11  22  42  67 103 137 177 218 280 338 402
#     4  10  22  40  64 102 144 172 226 264 344 412
#     4  10  21  45  68  94 133 179 214 273 341 395
#     4  12  25  44  69  95 141 185 216 276 345 402
#     4  11  23  44  68 101 127 177 230 266 342 400
#
# _framework density 22.762661000000001
#
# number of rings (size 3 to 8) (size 9 to 14) (size 15 to 20)
#    0.000    1.091    4.545    4.364    2.545    1.455 
#    3.273    0.000    4.000    0.000    0.000    0.000 
#    0.000    0.000    0.000    0.000    0.000    0.000 
#
# Total GULP energy -272683.717702 kJ/mol
# GULP energy per Si atom -12394.714441 kJ/mol
# Density = 2.271085 g / cm^3
# Si number density = 22.762661 Si / 1000 Ang^3
#
#
#
# Elastic Constant Matrix: (Units=GPa)
#
#
# Indices 1 2 3 4 5 6 
#
# 1 88.6113 25.8933 12.1719 0.0008 -5.9756 0.0009
# 2 25.8933 103.6349 28.4440 -0.0006 -7.7873 0.0015
# 3 12.1719 28.4440 70.7399 -0.0022 -25.7976 -0.0008
# 4 0.0008 -0.0006 -0.0022 36.2755 0.0003 -1.1157
# 5 -5.9756 -7.7873 -25.7976 0.0003 39.0238 0.0013
# 6 0.0009 0.0015 -0.0008 -1.1157 0.0013 25.9201
#
#
#
# Elastic Compliance Matrix: (Units=1/GPa)
#
#
# Indices 1 2 3 4 5 6 
#
# 1 0.012258 -0.002817 -0.000655 0.000000 0.000882 0.000000
# 2 -0.002817 0.011520 -0.004568 0.000000 -0.001152 -0.000001
# 3 -0.000655 -0.004568 0.020709 0.000001 0.012679 0.000000
# 4 0.000000 0.000000 0.000001 0.027603 0.000000 0.001188
# 5 0.000882 -0.001152 0.012679 0.000000 0.033912 -0.000001
# 6 0.000000 -0.000001 0.000000 0.001188 -0.000001 0.038631
#
#
# Mechanical properties :
#
#
# Convention : Reuss Voigt Hill
#
# Bulk Modulus (GPa) = 35.20044 44.00049 39.60047
# Shear Modulus (GPa) = 29.38039 33.34233 31.36136
#
# Velocity S-wave (km/s) = 3.59657 3.83140 3.71584
# Velocity P-wave (km/s) = 5.72230 6.24059 5.98705
#
# Compressibility (1/GPa) = 0.02840873
#
# Stress axis : x y z
#
# Youngs Moduli (GPa) = 81.58121 86.80507 48.28769
#
# Poissons Ratio (x) = 0.24449 0.03163
# Poissons Ratio (y) = 0.22978 0.22056
# Poissons Ratio (z) = 0.05343 0.39649
#
# Static dielectric constant tensor:
#      x y z
#    x 3.963990 0.000000 0.016280 
#    y 0.000000 4.979330 0.000000 
#    z 0.016280 0.000000 3.921380 
# 
# 
# High freq. dielectric constant tensor:
#      x y z
#    x 1.907010 0.000000 -0.003910 
#    y 0.000000 1.889470 0.000000 
#    z -0.003910 0.000000 1.887910 
# 
# From -- ./inp_files/257550.got.cif
#   From: 2010.06.25/outbox.cif.g09.slc.cpg/sg15_129_cif.got.tgz:257550.got - 2010.06.28 07:06:18.
