data_PCOD8144720
_publ_section_title
;
Structure prediction by ZEFSAII (Michael W. Deem and Ramdas Pophale) SiO2 
 PCOD8144720
Probable space group: C 2/C
;
_chemical_formula_sum "Si O2"
_cell_formula_units_Z 40
_cell_length_a 6.901821
_cell_length_b 7.384975
_cell_length_c 24.543059
_cell_angle_alpha 90.000000
_cell_angle_beta 94.419042
_cell_angle_gamma 90.000000
_cell_volume 1247.235372
_symmetry_space_group_name_H-M "C 2/C"
_symmetry_group_IT_number 15
_symmetry_cell_setting 'monoclinic'
loop_
_space_group_symop_operation_xyz
x,y,z
-x,y,1/2-z
-x,-y,-z
x,-y,1/2+z
1/2+x,1/2+y,z
1/2-x,1/2+y,1/2-z
1/2-x,1/2-y,-z
1/2+x,1/2-y,1/2+z
loop_
_atom_site_type_symbol
_atom_site_label
_atom_site_fract_x
_atom_site_fract_y
_atom_site_fract_z
Si Si1 0.702368 0.718819 0.664245
Si Si2 0.667215 0.080398 0.040632
Si Si3 0.218538 0.885779 0.733061
Si Si4 0.430702 0.461096 0.434782
Si Si5 0.885334 0.299880 0.372174
O O1 0.641247 0.862882 0.709857
O O2 0.792270 0.563757 0.705171
O O3 0.524058 0.642291 0.623052
O O4 0.887119 0.760974 0.628703
O O5 0.690952 0.300533 0.037551
O O6 0.869949 0.986696 0.026273
O O7 0.634379 0.006020 0.103226
O O8 0.500000 0.000000 0.000000
O O9 0.000000 0.906690 0.750000
O O10 0.228539 0.723091 0.687509
O O11 0.317662 0.648102 0.417030
#
# Coordination Sequence:
#
# PCOD8144720 Si02
#       5
#     8   8   8   8   8
#     4  10  21  44  67 102 142 192 236 298 375 452
#     4  12  28  47  74 106 139 195 256 313 388 454
#     4   9  21  38  63 100 141 182 237 288 368 457
#     4  11  25  47  71 102 146 183 244 311 373 449
#     4  10  24  46  69 103 146 187 240 305 375 448
#
# _framework density 32.070934999999999
#
# number of rings (size 3 to 8) (size 9 to 14) (size 15 to 20)
#    0.000    1.600    2.000    0.600    8.400    1.600 
#    0.000    0.000    0.000    0.000    0.000    0.000 
#    0.000    0.000    0.000    0.000    0.000    0.000 
#
# Total GULP energy -247824.104125 kJ/mol
# GULP energy per Si atom -12391.205206 kJ/mol
# Density = 3.199794 g / cm^3
# Si number density = 32.070935 Si / 1000 Ang^3
#
#
#
# Elastic Constant Matrix: (Units=GPa)
#
#
# Indices 1 2 3 4 5 6 
#
# 1 58.9251 29.9921 49.0918 0.0000 11.0265 0.0000
# 2 29.9921 152.9790 10.5326 0.0000 -5.6895 0.0000
# 3 49.0918 10.5326 175.6140 0.0000 16.3246 0.0000
# 4 0.0000 0.0000 0.0000 64.8779 0.0000 -7.8982
# 5 11.0265 -5.6895 16.3246 0.0000 59.6288 0.0000
# 6 0.0000 0.0000 0.0000 -7.8982 0.0000 36.9844
#
#
#
# Elastic Compliance Matrix: (Units=1/GPa)
#
#
# Indices 1 2 3 4 5 6 
#
# 1 0.025388 -0.004654 -0.006506 0.000000 -0.003358 0.000000
# 2 -0.004654 0.007450 0.000727 0.000000 0.001373 0.000000
# 3 -0.006506 0.000727 0.007543 0.000000 -0.000793 0.000000
# 4 0.000000 0.000000 0.000000 0.015825 0.000000 0.003379
# 5 -0.003358 0.001373 -0.000793 0.000000 0.017739 0.000000
# 6 0.000000 0.000000 0.000000 0.003379 0.000000 0.027760
#
#
# Mechanical properties :
#
#
# Convention : Reuss Voigt Hill
#
# Bulk Modulus (GPa) = 51.24390 62.97234 57.10812
# Shear Modulus (GPa) = 38.73624 52.15834 45.44729
#
# Velocity S-wave (km/s) = 3.47916 4.03717 3.76850
# Velocity P-wave (km/s) = 5.67030 6.43503 6.06473
#
# Compressibility (1/GPa) = 0.01951452
#
# Stress axis : x y z
#
# Youngs Moduli (GPa) = 39.38835 134.22130 132.57195
#
# Poissons Ratio (x) = 0.62472 0.86249
# Poissons Ratio (y) = 0.18333 -0.09634
# Poissons Ratio (z) = 0.25625 -0.09754
#
# Static dielectric constant tensor:
#      x y z
#    x 5.277150 0.000000 -0.238340 
#    y 0.000000 6.234910 0.000000 
#    z -0.238340 0.000000 7.906060 
# 
# 
# High freq. dielectric constant tensor:
#      x y z
#    x 2.289440 0.000000 -0.005550 
#    y 0.000000 2.343160 0.000000 
#    z -0.005550 0.000000 2.397380 
# 
# From -- ./inp_files/287081.got.cif
#   From: 2010.06.25/outbox.cif.g09.slc.cpg/sg15_144_cif.got.tgz:287081.got - 2010.06.28 07:06:18.
