data_PCOD8144939
_publ_section_title
;
Structure prediction by ZEFSAII (Michael W. Deem and Ramdas Pophale) SiO2 
 PCOD8144939
Probable space group: C 2/C
;
_chemical_formula_sum "Si O2"
_cell_formula_units_Z 64
_cell_length_a 20.879170
_cell_length_b 22.818809
_cell_length_c 9.698909
_cell_angle_alpha 90.000000
_cell_angle_beta 52.256005
_cell_angle_gamma 90.000000
_cell_volume 3654.015115
_symmetry_space_group_name_H-M "C 2/C"
_symmetry_group_IT_number 15
_symmetry_cell_setting 'monoclinic'
loop_
_space_group_symop_operation_xyz
x,y,z
-x,y,1/2-z
-x,-y,-z
x,-y,1/2+z
1/2+x,1/2+y,z
1/2-x,1/2+y,1/2-z
1/2-x,1/2-y,-z
1/2+x,1/2-y,1/2+z
loop_
_atom_site_type_symbol
_atom_site_label
_atom_site_fract_x
_atom_site_fract_y
_atom_site_fract_z
Si Si1 0.949127 0.250700 0.183459
Si Si2 0.787295 0.200491 0.353058
Si Si3 0.561729 0.233515 0.279867
Si Si4 0.333248 0.122987 0.384377
Si Si5 0.297547 0.299379 0.514671
Si Si6 0.142874 0.369207 0.127626
Si Si7 0.419701 0.066528 0.048771
Si Si8 0.908204 0.432399 0.055714
O O1 0.883323 0.197870 0.258069
O O2 0.901140 0.312393 0.249428
O O3 0.000000 0.238323 0.250000
O O4 0.013340 0.246403 0.976972
O O5 0.750000 0.250000 0.500000
O O6 0.779769 0.210961 0.199636
O O7 0.735792 0.142299 0.458278
O O8 0.500000 0.208059 0.250000
O O9 0.622089 0.180563 0.235456
O O10 0.608343 0.289961 0.150965
O O11 0.237093 0.138688 0.501541
O O12 0.347983 0.071634 0.254770
O O13 0.367325 0.105351 0.488483
O O14 0.250000 0.250000 0.500000
O O15 0.146845 0.420336 0.237324
O O16 0.089725 0.391062 0.068915
O O17 0.415898 0.999928 0.000643
O O18 0.500921 0.086902 0.022243
#
# Coordination Sequence:
#
# PCOD8144939 Si02
#       8
#     8   8   8   8   8   8   8   8
#     4  11  22  33  53  79 104 140 177 212 264 317
#     4  10  22  36  52  75 107 138 176 219 262 317
#     4  11  20  33  53  74 107 137 179 218 254 318
#     4  11  21  34  52  73 105 143 178 213 266 311
#     4  10  22  35  51  76 104 141 177 219 262 312
#     4  11  21  36  54  73 109 146 178 213 270 317
#     4  11  21  37  51  74 108 139 184 228 254 301
#     4  11  23  33  52  78 103 142 184 225 258 298
#
# _framework density 17.514979
#
# number of rings (size 3 to 8) (size 9 to 14) (size 15 to 20)
#    0.000    1.250    2.500    5.250   10.500    2.000 
#    0.000    0.000    0.000    0.000    0.000    0.000 
#    0.000   20.000    0.000    0.000    0.000    0.000 
#
# Total GULP energy -396501.105773 kJ/mol
# GULP energy per Si atom -12390.659555 kJ/mol
# Density = 1.747511 g / cm^3
# Si number density = 17.514979 Si / 1000 Ang^3
#
#
#
# Elastic Constant Matrix: (Units=GPa)
#
#
# Indices 1 2 3 4 5 6 
#
# 1 81.4936 26.2945 38.5934 0.0000 9.0698 0.0000
# 2 26.2945 43.4151 27.2911 0.0000 -5.2366 0.0000
# 3 38.5934 27.2911 121.2391 0.0000 9.5090 0.0000
# 4 0.0000 0.0000 0.0000 26.3608 0.0000 -1.7998
# 5 9.0698 -5.2366 9.5090 0.0000 32.1278 0.0000
# 6 0.0000 0.0000 0.0000 -1.7998 0.0000 28.4935
#
#
#
# Elastic Compliance Matrix: (Units=1/GPa)
#
#
# Indices 1 2 3 4 5 6 
#
# 1 0.017284 -0.009254 -0.002987 0.000000 -0.005504 0.000000
# 2 -0.009254 0.033094 -0.005254 0.000000 0.009562 0.000000
# 3 -0.002987 -0.005254 0.010629 0.000000 -0.003159 0.000000
# 4 0.000000 0.000000 0.000000 0.038099 0.000000 0.002407
# 5 -0.005504 0.009562 -0.003159 0.000000 0.035173 0.000000
# 6 0.000000 0.000000 0.000000 0.002407 0.000000 0.035248
#
#
# Mechanical properties :
#
#
# Convention : Reuss Voigt Hill
#
# Bulk Modulus (GPa) = 38.43555 47.83395 43.13475
# Shear Modulus (GPa) = 23.45329 27.66101 25.55715
#
# Velocity S-wave (km/s) = 3.66326 3.97832 3.82404
# Velocity P-wave (km/s) = 6.31543 6.96221 6.64669
#
# Compressibility (1/GPa) = 0.02601758
#
# Stress axis : x y z
#
# Youngs Moduli (GPa) = 57.85701 30.21694 94.07867
#
# Poissons Ratio (x) = 0.27963 0.28103
# Poissons Ratio (y) = 0.53542 0.49425
# Poissons Ratio (z) = 0.17283 0.15875
#
# Static dielectric constant tensor:
#      x y z
#    x 3.603030 0.000000 -0.449180 
#    y 0.000000 2.921520 0.000000 
#    z -0.449180 0.000000 3.576570 
# 
# 
# High freq. dielectric constant tensor:
#      x y z
#    x 1.678710 0.000000 0.016430 
#    y 0.000000 1.634690 0.000000 
#    z 0.016430 0.000000 1.690880 
# 
# From -- ./inp_files/58630.got.cif
#   From: 2010.06.25/outbox.cif.g09.slc.cpg/sg15_30_cif.got.tgz:58630.got - 2010.06.28 07:06:18.
