data_PCOD8144768
_publ_section_title
;
Structure prediction by ZEFSAII (Michael W. Deem and Ramdas Pophale) SiO2 
 PCOD8144768
Probable space group: C 2/C
;
_chemical_formula_sum "Si O2"
_cell_formula_units_Z 64
_cell_length_a 14.402417
_cell_length_b 12.236634
_cell_length_c 17.912297
_cell_angle_alpha 90.000000
_cell_angle_beta 89.505873
_cell_angle_gamma 90.000000
_cell_volume 3156.693982
_symmetry_space_group_name_H-M "C 2/C"
_symmetry_group_IT_number 15
_symmetry_cell_setting 'monoclinic'
loop_
_space_group_symop_operation_xyz
x,y,z
-x,y,1/2-z
-x,-y,-z
x,-y,1/2+z
1/2+x,1/2+y,z
1/2-x,1/2+y,1/2-z
1/2-x,1/2-y,-z
1/2+x,1/2-y,1/2+z
loop_
_atom_site_type_symbol
_atom_site_label
_atom_site_fract_x
_atom_site_fract_y
_atom_site_fract_z
Si Si1 0.667769 0.224958 0.944396
Si Si2 0.383123 0.614040 0.330089
Si Si3 0.576325 0.850162 0.814950
Si Si4 0.592361 0.597497 0.337137
Si Si5 0.991093 0.625211 0.018782
Si Si6 0.190663 0.873536 0.318783
Si Si7 0.777802 0.545272 0.675391
Si Si8 0.312681 0.796316 0.435788
O O1 0.651536 0.334407 0.896371
O O2 0.689481 0.121438 0.892200
O O3 0.750000 0.250000 0.000000
O O4 0.578754 0.196472 0.994295
O O5 0.485292 0.597146 0.363238
O O6 0.391131 0.651422 0.243890
O O7 0.322487 0.505443 0.343949
O O8 0.330082 0.708000 0.372600
O O9 0.500000 0.855920 0.750000
O O10 0.523488 0.854261 0.893900
O O11 0.634352 0.738779 0.809717
O O12 0.645795 0.952603 0.807972
O O13 0.618507 0.471452 0.327789
O O14 0.000000 0.500000 0.000000
O O15 0.905764 0.659809 0.968986
O O16 0.262081 0.883809 0.249584
O O17 0.251784 0.886369 0.393465
O O18 0.250000 0.750000 0.500000
#
# Coordination Sequence:
#
# PCOD8144768 Si02
#       8
#     8   8   8   8   8   8   8   8
#     4  12  28  45  69 103 145 185 230 295 350 418
#     4  10  21  44  70  96 134 176 235 289 340 415
#     4  12  28  48  70 105 142 188 235 286 354 422
#     4  10  24  44  68 103 133 181 233 290 352 407
#     4  12  27  48  69 103 144 186 236 288 352 419
#     4  11  26  43  75 102 139 183 235 290 355 416
#     4  11  25  46  69 103 139 184 234 290 349 421
#     4  12  23  45  71  96 138 185 232 291 341 421
#
# _framework density 20.274377000000001
#
# number of rings (size 3 to 8) (size 9 to 14) (size 15 to 20)
#    0.000    0.750    5.000    0.750   10.500    0.000 
#    2.250    1.875    0.000    0.000    0.000    0.000 
#    0.000    0.000    0.000    0.000    0.000    0.000 
#
# Total GULP energy -396801.675648 kJ/mol
# GULP energy per Si atom -12400.052364 kJ/mol
# Density = 2.022823 g / cm^3
# Si number density = 20.274377 Si / 1000 Ang^3
#
#
#
# Elastic Constant Matrix: (Units=GPa)
#
#
# Indices 1 2 3 4 5 6 
#
# 1 144.9072 56.7499 69.4579 0.0000 10.2368 0.0000
# 2 56.7499 121.6790 62.5493 0.0000 -0.3477 0.0000
# 3 69.4579 62.5493 141.4910 0.0000 4.7482 0.0000
# 4 0.0000 0.0000 0.0000 24.9973 0.0000 2.3269
# 5 10.2368 -0.3477 4.7482 0.0000 48.9109 0.0000
# 6 0.0000 0.0000 0.0000 2.3269 0.0000 26.0458
#
#
#
# Elastic Compliance Matrix: (Units=1/GPa)
#
#
# Indices 1 2 3 4 5 6 
#
# 1 0.009796 -0.002758 -0.003532 0.000000 -0.001727 0.000000
# 2 -0.002758 0.011426 -0.003731 0.000000 0.001021 0.000000
# 3 -0.003532 -0.003731 0.010461 0.000000 -0.000303 0.000000
# 4 0.000000 0.000000 0.000000 0.040340 0.000000 -0.003604
# 5 -0.001727 0.001021 -0.000303 0.000000 0.020843 0.000000
# 6 0.000000 0.000000 0.000000 -0.003604 0.000000 0.038716
#
#
# Mechanical properties :
#
#
# Convention : Reuss Voigt Hill
#
# Bulk Modulus (GPa) = 85.90701 87.28793 86.59747
# Shear Modulus (GPa) = 32.15357 34.61216 33.38287
#
# Velocity S-wave (km/s) = 3.98668 4.13629 4.06218
# Velocity P-wave (km/s) = 7.97845 8.12150 8.05029
#
# Compressibility (1/GPa) = 0.01164049
#
# Stress axis : x y z
#
# Youngs Moduli (GPa) = 102.08308 87.52172 95.59468
#
# Poissons Ratio (x) = 0.24141 0.33759
# Poissons Ratio (y) = 0.28158 0.35668
# Poissons Ratio (z) = 0.36051 0.32656
#
# Static dielectric constant tensor:
#      x y z
#    x 3.900270 0.000000 -0.107400 
#    y 0.000000 3.656870 0.000000 
#    z -0.107400 0.000000 3.914410 
# 
# 
# High freq. dielectric constant tensor:
#      x y z
#    x 1.812180 0.000000 -0.005140 
#    y 0.000000 1.796900 0.000000 
#    z -0.005140 0.000000 1.805140 
# 
# From -- ./inp_files/204482.got.cif
#   From: 2010.06.25/outbox.cif.g09.slc.cpg/sg15_103_cif.got.tgz:204482.got - 2010.06.28 07:06:18.
