data_PCOD8144755
_publ_section_title
;
Structure prediction by ZEFSAII (Michael W. Deem and Ramdas Pophale) SiO2 
 PCOD8144755
Probable space group: C 2/C
;
_chemical_formula_sum "Si O2"
_cell_formula_units_Z 60
_cell_length_a 11.108565
_cell_length_b 30.570334
_cell_length_c 10.636045
_cell_angle_alpha 90.000000
_cell_angle_beta 47.614124
_cell_angle_gamma 90.000000
_cell_volume 2667.843069
_symmetry_space_group_name_H-M "C 2/C"
_symmetry_group_IT_number 15
_symmetry_cell_setting 'monoclinic'
loop_
_space_group_symop_operation_xyz
x,y,z
-x,y,1/2-z
-x,-y,-z
x,-y,1/2+z
1/2+x,1/2+y,z
1/2-x,1/2+y,1/2-z
1/2-x,1/2-y,-z
1/2+x,1/2-y,1/2+z
loop_
_atom_site_type_symbol
_atom_site_label
_atom_site_fract_x
_atom_site_fract_y
_atom_site_fract_z
Si Si1 0.845764 0.060251 0.033911
Si Si2 0.772904 0.169330 0.884931
Si Si3 0.434532 0.184967 0.058422
Si Si4 0.896943 0.490403 0.196378
Si Si5 0.884256 0.843377 0.580353
Si Si6 0.307179 0.425217 0.285577
Si Si7 0.337703 0.280975 0.105521
Si Si8 0.500000 0.807093 0.250000
O O1 0.751210 0.025175 0.185643
O O2 0.868392 0.104371 0.099365
O O3 0.746410 0.066365 0.972670
O O4 0.028540 0.047594 0.862822
O O5 0.833599 0.127111 0.759375
O O6 0.800689 0.211864 0.780027
O O7 0.577638 0.167921 0.050728
O O8 0.871659 0.172898 0.944293
O O9 0.261481 0.174070 0.233674
O O10 0.441625 0.236789 0.022146
O O11 0.472638 0.163126 0.894164
O O12 0.824520 0.442150 0.221864
O O13 0.000000 0.488885 0.250000
O O14 0.000000 0.500000 0.000000
O O15 0.047944 0.821685 0.522413
O O16 0.167283 0.278587 0.149014
#
# Coordination Sequence:
#
# PCOD8144755 Si02
#       8
#     8   8   8   8   8   8   8   4
#     4  10  22  42  71  96 131 181 219 265 337 417
#     4  10  22  40  62  99 135 169 211 274 343 395
#     4  11  24  38  63  91 131 177 224 277 330 388
#     4  12  25  44  71 105 136 171 225 279 337 408
#     4  11  22  38  67  98 129 168 222 272 338 408
#     4  10  21  44  69  94 138 179 215 268 337 408
#     4  11  22  41  64  93 126 177 223 274 332 395
#     4  10  24  44  60  80 126 176 236 272 334 392
#
# _framework density 22.490079999999999
#
# number of rings (size 3 to 8) (size 9 to 14) (size 15 to 20)
#    0.000    1.333    2.667    3.200    1.867    3.733 
#    4.800    0.000    2.933    0.000    0.000    0.000 
#    0.000    0.000    0.000    0.000    0.000    0.000 
#
# Total GULP energy -371742.345923 kJ/mol
# GULP energy per Si atom -12391.411531 kJ/mol
# Density = 2.243889 g / cm^3
# Si number density = 22.490080 Si / 1000 Ang^3
#
#
#
# Elastic Constant Matrix: (Units=GPa)
#
#
# Indices 1 2 3 4 5 6 
#
# 1 123.7999 46.2061 23.1146 0.0000 -18.5226 0.0000
# 2 46.2061 80.7945 31.5176 0.0000 -1.4932 0.0000
# 3 23.1146 31.5176 100.2261 0.0000 -10.9479 0.0000
# 4 0.0000 0.0000 0.0000 24.0645 0.0000 -6.3083
# 5 -18.5226 -1.4932 -10.9479 0.0000 34.9175 0.0000
# 6 0.0000 0.0000 0.0000 -6.3083 0.0000 25.2604
#
#
#
# Elastic Compliance Matrix: (Units=1/GPa)
#
#
# Indices 1 2 3 4 5 6 
#
# 1 0.011309 -0.006370 0.000021 0.000000 0.005733 0.000000
# 2 -0.006370 0.017718 -0.004545 0.000000 -0.004046 0.000000
# 3 0.000021 -0.004545 0.011785 0.000000 0.003512 0.000000
# 4 0.000000 0.000000 0.000000 0.044466 0.000000 0.011104
# 5 0.005733 -0.004046 0.003512 0.000000 0.032608 0.000000
# 6 0.000000 0.000000 0.000000 0.011104 0.000000 0.042361
#
#
# Mechanical properties :
#
#
# Convention : Reuss Voigt Hill
#
# Bulk Modulus (GPa) = 52.56040 56.27745 54.41893
# Shear Modulus (GPa) = 26.54277 30.44731 28.49504
#
# Velocity S-wave (km/s) = 3.43913 3.68341 3.56336
# Velocity P-wave (km/s) = 6.26030 6.57020 6.41712
#
# Compressibility (1/GPa) = 0.01902573
#
# Stress axis : x y z
#
# Youngs Moduli (GPa) = 88.42683 56.43979 84.85152
#
# Poissons Ratio (x) = 0.35951 -0.00180
# Poissons Ratio (y) = 0.56326 0.38562
# Poissons Ratio (z) = -0.00188 0.25650
#
# Static dielectric constant tensor:
#      x y z
#    x 4.181480 0.000000 -0.116480 
#    y 0.000000 3.834010 0.000000 
#    z -0.116480 0.000000 4.207980 
# 
# 
# High freq. dielectric constant tensor:
#      x y z
#    x 1.883540 0.000000 -0.017620 
#    y 0.000000 1.855610 0.000000 
#    z -0.017620 0.000000 1.904130 
# 
# From -- ./inp_files/92598.got.cif
#   From: 2010.06.25/outbox.cif.g09.slc.cpg/sg15_47_cif.got.tgz:92598.got - 2010.06.28 07:06:18.
