data_PCOD8144295
_publ_section_title
;
Structure prediction by ZEFSAII (Michael W. Deem and Ramdas Pophale) SiO2 
 PCOD8144295
Probable space group: C 2/C
;
_chemical_formula_sum "Si O2"
_cell_formula_units_Z 40
_cell_length_a 8.606211
_cell_length_b 15.633489
_cell_length_c 20.840174
_cell_angle_alpha 90.000000
_cell_angle_beta 42.066846
_cell_angle_gamma 90.000000
_cell_volume 1878.634128
_symmetry_space_group_name_H-M "C 2/C"
_symmetry_group_IT_number 15
_symmetry_cell_setting 'monoclinic'
loop_
_space_group_symop_operation_xyz
x,y,z
-x,y,1/2-z
-x,-y,-z
x,-y,1/2+z
1/2+x,1/2+y,z
1/2-x,1/2+y,1/2-z
1/2-x,1/2-y,-z
1/2+x,1/2-y,1/2+z
loop_
_atom_site_type_symbol
_atom_site_label
_atom_site_fract_x
_atom_site_fract_y
_atom_site_fract_z
Si Si1 0.259132 0.701336 0.659108
Si Si2 0.797547 0.014633 0.471429
Si Si3 0.293468 0.991376 0.360830
Si Si4 0.097808 0.306885 0.999616
Si Si5 0.891826 0.862087 0.348365
O O1 0.244520 0.610389 0.628159
O O2 0.387158 0.770692 0.576541
O O3 0.407000 0.692655 0.678856
O O4 0.000000 0.735616 0.750000
O O5 0.658130 0.986333 0.579174
O O6 0.681130 0.095472 0.473948
O O7 0.793476 0.937662 0.422554
O O8 0.061790 0.039316 0.408736
O O9 0.500000 0.019950 0.250000
O O10 0.250000 0.250000 0.000000
O O11 0.826803 0.302059 0.102433
O O12 0.000000 0.900367 0.250000
#
# Coordination Sequence:
#
# PCOD8144295 Si02
#       5
#     8   8   8   8   8
#     4  10  21  42  67  92 127 171 211 262 330 387
#     4  10  22  39  65  97 122 171 219 265 313 381
#     4   9  19  40  68  91 132 171 211 260 327 383
#     4  12  23  41  65  94 132 164 214 271 322 383
#     4  11  25  43  66  92 128 177 219 262 322 383
#
# _framework density 21.292064
#
# number of rings (size 3 to 8) (size 9 to 14) (size 15 to 20)
#    0.000    1.600    2.000    2.400    5.600    0.800 
#    3.600    1.000    0.000    0.000    0.000    0.000 
#    0.000    0.000    0.000    0.000    0.000    0.000 
#
# Total GULP energy -248015.624213 kJ/mol
# GULP energy per Si atom -12400.781211 kJ/mol
# Density = 2.124360 g / cm^3
# Si number density = 21.292064 Si / 1000 Ang^3
#
#
#
# Elastic Constant Matrix: (Units=GPa)
#
#
# Indices 1 2 3 4 5 6 
#
# 1 126.6469 43.5585 66.0683 0.0014 1.6678 0.0000
# 2 43.5585 40.1165 42.9490 0.0162 2.9150 -0.0022
# 3 66.0683 42.9490 178.5198 -0.0273 12.7044 -0.0031
# 4 0.0014 0.0162 -0.0273 30.1889 0.0226 7.7685
# 5 1.6678 2.9150 12.7044 0.0226 47.6504 -0.0026
# 6 0.0000 -0.0022 -0.0031 7.7685 -0.0026 29.6015
#
#
#
# Elastic Compliance Matrix: (Units=1/GPa)
#
#
# Indices 1 2 3 4 5 6 
#
# 1 0.013103 -0.012166 -0.001980 0.000004 0.000814 -0.000002
# 2 -0.012166 0.044872 -0.006247 -0.000031 -0.000654 0.000011
# 3 -0.001980 -0.006247 0.007956 0.000013 -0.001670 -0.000003
# 4 0.000004 -0.000031 0.000013 0.035524 -0.000019 -0.009323
# 5 0.000814 -0.000654 -0.001670 -0.000019 0.021443 0.000007
# 6 -0.000002 0.000011 -0.000003 -0.009323 0.000007 0.036229
#
#
# Mechanical properties :
#
#
# Convention : Reuss Voigt Hill
#
# Bulk Modulus (GPa) = 39.76809 72.27054 56.01932
# Shear Modulus (GPa) = 24.00458 34.33532 29.16995
#
# Velocity S-wave (km/s) = 3.36131 4.02006 3.70536
# Velocity P-wave (km/s) = 5.81228 7.45413 6.68381
#
# Compressibility (1/GPa) = 0.02514579
#
# Stress axis : x y z
#
# Youngs Moduli (GPa) = 76.32117 22.28541 125.69012
#
# Poissons Ratio (x) = 0.27112 0.24887
# Poissons Ratio (y) = 0.92852 0.78513
# Poissons Ratio (z) = 0.15112 0.13921
#
# Static dielectric constant tensor:
#      x y z
#    x 4.046320 -0.000010 -0.099630 
#    y -0.000010 3.568280 0.000020 
#    z -0.099630 0.000020 4.057770 
# 
# 
# High freq. dielectric constant tensor:
#      x y z
#    x 1.851160 0.000000 -0.002830 
#    y 0.000000 1.803680 0.000000 
#    z -0.002830 0.000000 1.844350 
# 
# From -- ./inp_files/133076.got.cif
#   From: 2010.06.25/outbox.cif.g09.slc.cpg/sg15_67_cif.got.tgz:133076.got - 2010.06.28 07:06:18.
