data_PCOD8144884
_publ_section_title
;
Structure prediction by ZEFSAII (Michael W. Deem and Ramdas Pophale) SiO2 
 PCOD8144884
Probable space group: C 2/C
;
_chemical_formula_sum "Si O2"
_cell_formula_units_Z 40
_cell_length_a 17.483472
_cell_length_b 7.055514
_cell_length_c 14.155758
_cell_angle_alpha 90.000000
_cell_angle_beta 123.147224
_cell_angle_gamma 90.000000
_cell_volume 1462.022756
_symmetry_space_group_name_H-M "C 2/C"
_symmetry_group_IT_number 15
_symmetry_cell_setting 'monoclinic'
loop_
_space_group_symop_operation_xyz
x,y,z
-x,y,1/2-z
-x,-y,-z
x,-y,1/2+z
1/2+x,1/2+y,z
1/2-x,1/2+y,1/2-z
1/2-x,1/2-y,-z
1/2+x,1/2-y,1/2+z
loop_
_atom_site_type_symbol
_atom_site_label
_atom_site_fract_x
_atom_site_fract_y
_atom_site_fract_z
Si Si1 0.828898 0.400854 0.530179
Si Si2 0.390378 0.668893 0.910551
Si Si3 0.805720 0.252895 0.147937
Si Si4 0.414591 0.236470 0.910375
Si Si5 0.095554 0.883643 0.295755
O O1 0.750000 0.250000 0.500000
O O2 0.814591 0.611553 0.563128
O O3 0.859879 0.409987 0.440974
O O4 0.911489 0.300035 0.642200
O O5 0.295989 0.752835 0.882323
O O6 0.394008 0.446049 0.937604
O O7 0.392707 0.696320 0.800578
O O8 0.475042 0.785977 0.014384
O O9 0.878432 0.298143 0.279787
O O10 0.822913 0.034646 0.124987
O O11 0.000000 0.994783 0.250000
#
# Coordination Sequence:
#
# PCOD8144884 Si02
#       5
#     8   8   8   8   8
#     4  12  24  47  75 110 152 200 253 316 385 450
#     4  10  21  46  76 106 156 203 251 313 384 452
#     4  11  26  46  79 116 145 198 272 309 369 474
#     4  10  22  46  78 107 157 204 246 317 391 443
#     4  11  25  47  72 103 156 203 249 316 382 451
#
# _framework density 27.359352999999999
#
# number of rings (size 3 to 8) (size 9 to 14) (size 15 to 20)
#    0.000    1.200    4.000    1.200    2.800    1.600 
#    0.000    5.000    0.000    0.000    0.000    0.000 
#    0.000    0.000    0.000    0.000    0.000    0.000 
#
# Total GULP energy -248021.335001 kJ/mol
# GULP energy per Si atom -12401.066750 kJ/mol
# Density = 2.729708 g / cm^3
# Si number density = 27.359353 Si / 1000 Ang^3
#
#
#
# Elastic Constant Matrix: (Units=GPa)
#
#
# Indices 1 2 3 4 5 6 
#
# 1 127.3256 22.5037 21.8950 0.0000 11.2608 0.0000
# 2 22.5037 113.3449 18.7637 0.0000 -4.2538 0.0000
# 3 21.8950 18.7637 132.5033 0.0000 -10.6671 0.0000
# 4 0.0000 0.0000 0.0000 43.3476 0.0000 -2.6874
# 5 11.2608 -4.2538 -10.6671 0.0000 53.8643 0.0000
# 6 0.0000 0.0000 0.0000 -2.6874 0.0000 27.6113
#
#
#
# Elastic Compliance Matrix: (Units=1/GPa)
#
#
# Indices 1 2 3 4 5 6 
#
# 1 0.008557 -0.001554 -0.001370 0.000000 -0.002183 0.000000
# 2 -0.001554 0.009328 -0.000995 0.000000 0.000865 0.000000
# 3 -0.001370 -0.000995 0.008059 0.000000 0.001804 0.000000
# 4 0.000000 0.000000 0.000000 0.023209 0.000000 0.002259
# 5 -0.002183 0.000865 0.001804 0.000000 0.019447 0.000000
# 6 0.000000 0.000000 0.000000 0.002259 0.000000 0.036437
#
#
# Mechanical properties :
#
#
# Convention : Reuss Voigt Hill
#
# Bulk Modulus (GPa) = 55.22390 55.49985 55.36187
# Shear Modulus (GPa) = 42.04830 45.63205 43.84018
#
# Velocity S-wave (km/s) = 3.92457 4.08840 4.00732
# Velocity P-wave (km/s) = 6.38473 6.52811 6.45682
#
# Compressibility (1/GPa) = 0.01810810
#
# Stress axis : x y z
#
# Youngs Moduli (GPa) = 116.86139 107.20084 124.07927
#
# Poissons Ratio (x) = 0.16660 0.16994
# Poissons Ratio (y) = 0.18162 0.12340
# Poissons Ratio (z) = 0.16006 0.10662
#
# Static dielectric constant tensor:
#      x y z
#    x 4.967480 0.000000 0.266850 
#    y 0.000000 5.530170 0.000000 
#    z 0.266850 0.000000 5.815450 
# 
# 
# High freq. dielectric constant tensor:
#      x y z
#    x 2.111190 0.000000 0.012670 
#    y 0.000000 2.105780 0.000000 
#    z 0.012670 0.000000 2.131870 
# 
# From -- ./inp_files/159484.got.cif
#   From: 2010.06.25/outbox.cif.g09.slc.cpg/sg15_80_cif.got.tgz:159484.got - 2010.06.28 07:06:18.
