data_PCOD8144058
_publ_section_title
;
Structure prediction by ZEFSAII (Michael W. Deem and Ramdas Pophale) SiO2 
 PCOD8144058
Probable space group: C 2/C
;
_chemical_formula_sum "Si O2"
_cell_formula_units_Z 48
_cell_length_a 9.887249
_cell_length_b 14.002450
_cell_length_c 17.452403
_cell_angle_alpha 90.000000
_cell_angle_beta 126.122662
_cell_angle_gamma 90.000000
_cell_volume 1951.710263
_symmetry_space_group_name_H-M "C 2/C"
_symmetry_group_IT_number 15
_symmetry_cell_setting 'monoclinic'
loop_
_space_group_symop_operation_xyz
x,y,z
-x,y,1/2-z
-x,-y,-z
x,-y,1/2+z
1/2+x,1/2+y,z
1/2-x,1/2+y,1/2-z
1/2-x,1/2-y,-z
1/2+x,1/2-y,1/2+z
loop_
_atom_site_type_symbol
_atom_site_label
_atom_site_fract_x
_atom_site_fract_y
_atom_site_fract_z
Si Si1 0.406180 0.128669 0.413680
Si Si2 0.768408 0.463344 0.457845
Si Si3 0.100434 0.801253 0.989040
Si Si4 0.382785 0.555698 0.879580
Si Si5 0.820346 0.153079 0.709084
Si Si6 0.284905 0.646385 0.303625
O O1 0.576980 0.077627 0.439070
O O2 0.460243 0.233937 0.460721
O O3 0.266923 0.131402 0.300891
O O4 0.310048 0.072981 0.450767
O O5 0.583770 0.451511 0.431635
O O6 0.800632 0.401216 0.390222
O O7 0.142026 0.903411 0.042773
O O8 0.250000 0.750000 0.000000
O O9 0.971976 0.812566 0.875921
O O10 0.286825 0.623368 0.786276
O O11 0.284798 0.454457 0.848405
O O12 0.826349 0.267949 0.697815
O O13 0.000000 0.109377 0.750000
#
# Coordination Sequence:
#
# PCOD8144058 Si02
#       6
#     8   8   8   8   8   8
#     4  11  23  42  72 104 136 187 244 296 358 423
#     4  10  22  44  74 101 136 184 243 299 354 427
#     4  12  27  44  67 103 146 191 234 287 358 431
#     4  11  24  45  71 100 140 188 239 293 358 425
#     4  10  21  41  71 104 133 181 242 296 352 426
#     4  12  24  44  69 104 142 186 235 293 361 423
#
# _framework density 24.593814999999999
#
# number of rings (size 3 to 8) (size 9 to 14) (size 15 to 20)
#    0.000    1.000    5.000    1.500    0.000    4.000 
#    0.000    3.333    0.000    0.000    0.000    0.000 
#    0.000    0.000    0.000    0.000    0.000    0.000 
#
# Total GULP energy -297358.504992 kJ/mol
# GULP energy per Si atom -12389.937708 kJ/mol
# Density = 2.453784 g / cm^3
# Si number density = 24.593815 Si / 1000 Ang^3
#
#
#
# Elastic Constant Matrix: (Units=GPa)
#
#
# Indices 1 2 3 4 5 6 
#
# 1 42.4338 14.5216 17.6822 0.0000 3.7186 0.0000
# 2 14.5216 152.2792 53.1998 0.0000 3.3803 0.0000
# 3 17.6822 53.1998 169.6627 0.0000 -0.5391 0.0000
# 4 0.0000 0.0000 0.0000 54.4149 0.0000 -3.0048
# 5 3.7186 3.3803 -0.5391 0.0000 24.0809 0.0000
# 6 0.0000 0.0000 0.0000 -3.0048 0.0000 26.6466
#
#
#
# Elastic Compliance Matrix: (Units=1/GPa)
#
#
# Indices 1 2 3 4 5 6 
#
# 1 0.025333 -0.001579 -0.002157 0.000000 -0.003739 0.000000
# 2 -0.001579 0.007502 -0.002190 0.000000 -0.000858 0.000000
# 3 -0.002157 -0.002190 0.006808 0.000000 0.000793 0.000000
# 4 0.000000 0.000000 0.000000 0.018492 0.000000 0.002085
# 5 -0.003739 -0.000858 0.000793 0.000000 0.042242 0.000000
# 6 0.000000 0.000000 0.000000 0.002085 0.000000 0.037763
#
#
# Mechanical properties :
#
#
# Convention : Reuss Voigt Hill
#
# Bulk Modulus (GPa) = 35.98444 59.46477 47.72460
# Shear Modulus (GPa) = 31.39572 39.62662 35.51117
#
# Velocity S-wave (km/s) = 3.57679 4.01838 3.80400
# Velocity P-wave (km/s) = 5.63215 6.76470 6.22424
#
# Compressibility (1/GPa) = 0.02778979
#
# Stress axis : x y z
#
# Youngs Moduli (GPa) = 39.47427 133.30181 146.88213
#
# Poissons Ratio (x) = 0.21052 0.31680
# Poissons Ratio (y) = 0.06234 0.32173
# Poissons Ratio (z) = 0.08514 0.29198
#
# Static dielectric constant tensor:
#      x y z
#    x 3.770660 0.000000 -0.108230 
#    y 0.000000 5.053620 0.000000 
#    z -0.108230 0.000000 5.096400 
# 
# 
# High freq. dielectric constant tensor:
#      x y z
#    x 1.927510 0.000000 0.003370 
#    y 0.000000 2.005320 0.000000 
#    z 0.003370 0.000000 2.000120 
# 
# From -- ./inp_files/144384.got.cif
#   From: 2010.06.25/outbox.cif.g09.slc.cpg/sg15_73_cif.got.tgz:144384.got - 2010.06.28 07:06:18.
