data_PCOD8144554
_publ_section_title
;
Structure prediction by ZEFSAII (Michael W. Deem and Ramdas Pophale) SiO2 
 PCOD8144554
Probable space group: C 2/C
;
_chemical_formula_sum "Si O2"
_cell_formula_units_Z 52
_cell_length_a 15.795290
_cell_length_b 6.627988
_cell_length_c 24.316230
_cell_angle_alpha 90.000000
_cell_angle_beta 112.482975
_cell_angle_gamma 90.000000
_cell_volume 2352.200492
_symmetry_space_group_name_H-M "C 2/C"
_symmetry_group_IT_number 15
_symmetry_cell_setting 'monoclinic'
loop_
_space_group_symop_operation_xyz
x,y,z
-x,y,1/2-z
-x,-y,-z
x,-y,1/2+z
1/2+x,1/2+y,z
1/2-x,1/2+y,1/2-z
1/2-x,1/2-y,-z
1/2+x,1/2-y,1/2+z
loop_
_atom_site_type_symbol
_atom_site_label
_atom_site_fract_x
_atom_site_fract_y
_atom_site_fract_z
Si Si1 0.255120 0.666871 0.175395
Si Si2 0.498103 0.560645 0.106773
Si Si3 0.616191 0.110420 0.870065
Si Si4 0.000000 0.429548 0.750000
Si Si5 0.877052 0.881529 0.273769
Si Si6 0.572436 0.840917 0.951751
Si Si7 0.607391 0.899028 0.081585
O O1 0.291843 0.825165 0.139007
O O2 0.200287 0.800388 0.204924
O O3 0.339979 0.563513 0.227367
O O4 0.196335 0.487946 0.133568
O O5 0.413935 0.706164 0.098878
O O6 0.534823 0.457594 0.171180
O O7 0.452262 0.394441 0.056145
O O8 0.582307 0.676273 0.097905
O O9 0.531152 0.067734 0.808284
O O10 0.633322 0.916982 0.914578
O O11 0.911016 0.298515 0.743365
O O12 0.475895 0.954207 0.925775
O O13 0.627042 0.886801 0.021345
#
# Coordination Sequence:
#
# PCOD8144554 Si02
#       7
#     8   8   8   4   8   8   8
#     4  12  24  40  60 103 131 166 206 285 326 384
#     4  11  20  43  65  94 119 175 219 260 312 399
#     4  11  24  39  65  94 132 162 220 260 328 380
#     4  12  22  44  66  90 126 178 210 268 308 410
#     4  12  23  40  67  91 131 165 216 260 337 374
#     4  10  21  43  67  91 126 179 217 262 304 404
#     4  10  22  40  67  95 128 167 224 260 324 375
#
# _framework density 22.106959
#
# number of rings (size 3 to 8) (size 9 to 14) (size 15 to 20)
#    0.000    0.923    3.077    5.077    0.000    0.615 
#    0.000    0.769    0.000    0.000    0.000    0.000 
#    0.000    0.000    0.000    0.000    0.000    0.000 
#
# Total GULP energy -322529.966088 kJ/mol
# GULP energy per Si atom -12404.998696 kJ/mol
# Density = 2.205664 g / cm^3
# Si number density = 22.106959 Si / 1000 Ang^3
#
#
#
# Elastic Constant Matrix: (Units=GPa)
#
#
# Indices 1 2 3 4 5 6 
#
# 1 101.1076 32.3982 15.5060 0.0000 -23.9778 0.0000
# 2 32.3982 100.8086 13.2832 0.0000 -17.2263 0.0000
# 3 15.5060 13.2832 75.8644 0.0000 -20.9888 0.0000
# 4 0.0000 0.0000 0.0000 29.4802 0.0000 -1.8447
# 5 -23.9778 -17.2263 -20.9888 0.0000 30.7060 0.0000
# 6 0.0000 0.0000 0.0000 -1.8447 0.0000 35.0007
#
#
#
# Elastic Compliance Matrix: (Units=1/GPa)
#
#
# Indices 1 2 3 4 5 6 
#
# 1 0.012752 -0.002655 0.000248 0.000000 0.008638 0.000000
# 2 -0.002655 0.011529 -0.000321 0.000000 0.004175 0.000000
# 3 0.000248 -0.000321 0.016267 0.000000 0.011133 0.000000
# 4 0.000000 0.000000 0.000000 0.034033 0.000000 0.001794
# 5 0.008638 0.004175 0.011133 0.000000 0.049264 0.000000
# 6 0.000000 0.000000 0.000000 0.001794 0.000000 0.028665
#
#
# Mechanical properties :
#
#
# Convention : Reuss Voigt Hill
#
# Bulk Modulus (GPa) = 28.49609 44.46171 36.47890
# Shear Modulus (GPa) = 29.47030 33.47693 31.47362
#
# Velocity S-wave (km/s) = 3.65509 3.89564 3.77728
# Velocity P-wave (km/s) = 5.54356 6.35535 5.96328
#
# Compressibility (1/GPa) = 0.03509254
#
# Stress axis : x y z
#
# Youngs Moduli (GPa) = 78.42197 86.73960 61.47454
#
# Poissons Ratio (x) = 0.23028 -0.01526
# Poissons Ratio (y) = 0.20819 0.01972
# Poissons Ratio (z) = -0.01947 0.02783
#
# Static dielectric constant tensor:
#      x y z
#    x 3.798450 0.000000 -0.299670 
#    y 0.000000 4.184330 0.000000 
#    z -0.299670 0.000000 3.950150 
# 
# 
# High freq. dielectric constant tensor:
#      x y z
#    x 1.855290 0.000000 -0.019830 
#    y 0.000000 1.882840 0.000000 
#    z -0.019830 0.000000 1.869380 
# 
# From -- ./inp_files/297684.got.cif
#   From: 2010.06.25/outbox.cif.g09.slc.cpg/sg15_149_cif.got.tgz:297684.got - 2010.06.28 07:06:18.
