data_PCOD8144951
_publ_section_title
;
Structure prediction by ZEFSAII (Michael W. Deem and Ramdas Pophale) SiO2 
 PCOD8144951
Probable space group: C 2/C
;
_chemical_formula_sum "Si O2"
_cell_formula_units_Z 40
_cell_length_a 11.937919
_cell_length_b 14.403438
_cell_length_c 13.620825
_cell_angle_alpha 90.000000
_cell_angle_beta 60.770960
_cell_angle_gamma 90.000000
_cell_volume 2043.857402
_symmetry_space_group_name_H-M "C 2/C"
_symmetry_group_IT_number 15
_symmetry_cell_setting 'monoclinic'
loop_
_space_group_symop_operation_xyz
x,y,z
-x,y,1/2-z
-x,-y,-z
x,-y,1/2+z
1/2+x,1/2+y,z
1/2-x,1/2+y,1/2-z
1/2-x,1/2-y,-z
1/2+x,1/2-y,1/2+z
loop_
_atom_site_type_symbol
_atom_site_label
_atom_site_fract_x
_atom_site_fract_y
_atom_site_fract_z
Si Si1 0.063033 0.315641 0.825231
Si Si2 0.948000 0.387497 0.068093
Si Si3 0.723502 0.143076 0.528321
Si Si4 0.739761 0.044545 0.335669
Si Si5 0.796648 0.131593 0.715980
O O1 0.197830 0.370897 0.781929
O O2 0.091447 0.205459 0.813151
O O3 0.000000 0.345796 0.750000
O O4 0.965508 0.337216 0.955694
O O5 0.101728 0.505254 0.921656
O O6 0.834152 0.333345 0.175420
O O7 0.072921 0.378466 0.082815
O O8 0.750000 0.250000 0.500000
O O9 0.799419 0.085517 0.410701
O O10 0.775140 0.111999 0.610709
O O11 0.835599 0.969997 0.244755
#
# Coordination Sequence:
#
# PCOD8144951 Si02
#       5
#     8   8   8   8   8
#     4  11  21  37  59  83 118 150 192 239 281 340
#     4   9  21  35  56  90 112 145 195 233 292 335
#     4  11  17  35  60  87 118 144 194 246 281 339
#     4   9  22  34  58  91 110 149 194 236 289 334
#     4  10  22  35  59  85 121 149 184 244 293 335
#
# _framework density 19.570837000000001
#
# number of rings (size 3 to 8) (size 9 to 14) (size 15 to 20)
#    1.200    0.800    4.000    3.000    5.600    0.800 
#    0.000    0.000    4.400    2.400    0.000    0.000 
#    0.000    0.000    0.000    0.000    0.000    0.000 
#
# Total GULP energy -247804.984193 kJ/mol
# GULP energy per Si atom -12390.249210 kJ/mol
# Density = 1.952629 g / cm^3
# Si number density = 19.570837 Si / 1000 Ang^3
#
#
#
# Elastic Constant Matrix: (Units=GPa)
#
#
# Indices 1 2 3 4 5 6 
#
# 1 24.3953 14.9962 20.8224 0.0000 12.6439 0.0000
# 2 14.9962 123.6035 50.7689 0.0000 11.6620 0.0000
# 3 20.8224 50.7689 118.1970 0.0000 34.0757 0.0000
# 4 0.0000 0.0000 0.0000 41.8203 0.0000 0.4230
# 5 12.6439 11.6620 34.0757 0.0000 17.7341 0.0000
# 6 0.0000 0.0000 0.0000 0.4230 0.0000 34.0114
#
#
#
# Elastic Compliance Matrix: (Units=1/GPa)
#
#
# Indices 1 2 3 4 5 6 
#
# 1 0.069320 -0.005887 0.007733 0.000000 -0.060411 0.000000
# 2 -0.005887 0.010433 -0.006000 0.000000 0.008865 0.000000
# 3 0.007733 -0.006000 0.022705 0.000000 -0.045194 0.000000
# 4 0.000000 0.000000 0.000000 0.023915 0.000000 -0.000297
# 5 -0.060411 0.008865 -0.045194 0.000000 0.180470 0.000000
# 6 0.000000 0.000000 0.000000 -0.000297 0.000000 0.029406
#
#
# Mechanical properties :
#
#
# Convention : Reuss Voigt Hill
#
# Bulk Modulus (GPa) = 10.62137 48.81898 29.72018
# Shear Modulus (GPa) = 13.30005 30.68704 21.99355
#
# Velocity S-wave (km/s) = 2.60971 3.96409 3.35594
# Velocity P-wave (km/s) = 3.81048 6.77871 5.49867
#
# Compressibility (1/GPa) = 0.09414978
#
# Stress axis : x y z
#
# Youngs Moduli (GPa) = 14.42579 95.85416 44.04409
#
# Poissons Ratio (x) = 0.56426 -0.34058
# Poissons Ratio (y) = 0.08492 0.26425
# Poissons Ratio (z) = -0.11155 0.57510
#
# Static dielectric constant tensor:
#      x y z
#    x 3.131910 0.000000 0.270200 
#    y 0.000000 3.602790 0.000000 
#    z 0.270200 0.000000 3.895580 
# 
# 
# High freq. dielectric constant tensor:
#      x y z
#    x 1.718250 0.000000 0.018420 
#    y 0.000000 1.770400 0.000000 
#    z 0.018420 0.000000 1.767480 
# 
# From -- ./inp_files/95601.got.cif
#   From: 2010.06.25/outbox.cif.g09.slc.cpg/sg15_48_cif.got.tgz:95601.got - 2010.06.28 07:06:18.
