data_PCOD8144142
_publ_section_title
;
Structure prediction by ZEFSAII (Michael W. Deem and Ramdas Pophale) SiO2 
 PCOD8144142
Probable space group: C 2/C
;
_chemical_formula_sum "Si O2"
_cell_formula_units_Z 48
_cell_length_a 12.225376
_cell_length_b 17.207812
_cell_length_c 12.429099
_cell_angle_alpha 90.000000
_cell_angle_beta 117.924869
_cell_angle_gamma 90.000000
_cell_volume 2310.280820
_symmetry_space_group_name_H-M "C 2/C"
_symmetry_group_IT_number 15
_symmetry_cell_setting 'monoclinic'
loop_
_space_group_symop_operation_xyz
x,y,z
-x,y,1/2-z
-x,-y,-z
x,-y,1/2+z
1/2+x,1/2+y,z
1/2-x,1/2+y,1/2-z
1/2-x,1/2-y,-z
1/2+x,1/2-y,1/2+z
loop_
_atom_site_type_symbol
_atom_site_label
_atom_site_fract_x
_atom_site_fract_y
_atom_site_fract_z
Si Si1 0.144550 0.520865 0.683947
Si Si2 0.666075 0.691976 0.897152
Si Si3 0.093290 0.784281 0.132089
Si Si4 0.636562 0.524390 0.858931
Si Si5 0.241710 0.910043 0.061591
Si Si6 0.946256 0.382899 0.981053
O O1 0.277980 0.495422 0.698862
O O2 0.168745 0.540113 0.819485
O O3 0.062595 0.443910 0.622974
O O4 0.073761 0.596157 0.601376
O O5 0.533737 0.676580 0.891516
O O6 0.669226 0.726370 0.777497
O O7 0.711961 0.603510 0.922110
O O8 0.750000 0.750000 0.000000
O O9 0.171751 0.838554 0.087053
O O10 0.051186 0.703402 0.062463
O O11 0.500000 0.537459 0.750000
O O12 0.636974 0.465661 0.960215
O O13 0.329806 0.881447 0.007483
#
# Coordination Sequence:
#
# PCOD8144142 Si02
#       6
#     8   8   8   8   8   8
#     4  10  21  42  63  92 126 168 210 262 310 388
#     4  11  23  41  63  92 127 168 209 264 314 377
#     4  11  23  42  62  96 127 162 215 263 318 380
#     4  11  22  42  62  92 127 165 216 255 316 379
#     4  11  23  41  67  90 130 167 211 264 316 383
#     4  10  23  41  64  95 128 164 215 261 325 371
#
# _framework density 20.776696000000001
#
# number of rings (size 3 to 8) (size 9 to 14) (size 15 to 20)
#    0.000    1.333    3.333    2.000    2.333    2.667 
#    9.000    1.667    0.000    0.000    0.000    0.000 
#    0.000    0.000    0.000    0.000    0.000    0.000 
#
# Total GULP energy -297331.129906 kJ/mol
# GULP energy per Si atom -12388.797079 kJ/mol
# Density = 2.072941 g / cm^3
# Si number density = 20.776696 Si / 1000 Ang^3
#
#
#
# Elastic Constant Matrix: (Units=GPa)
#
#
# Indices 1 2 3 4 5 6 
#
# 1 66.3280 15.4661 21.6245 0.0000 2.2312 0.0000
# 2 15.4661 94.8613 58.8546 0.0000 1.1125 0.0000
# 3 21.6245 58.8546 97.8862 0.0000 6.6957 0.0000
# 4 0.0000 0.0000 0.0000 35.1971 0.0000 0.2590
# 5 2.2312 1.1125 6.6957 0.0000 32.2998 0.0000
# 6 0.0000 0.0000 0.0000 0.2590 0.0000 29.3451
#
#
#
# Elastic Compliance Matrix: (Units=1/GPa)
#
#
# Indices 1 2 3 4 5 6 
#
# 1 0.016280 -0.000697 -0.003147 0.000000 -0.000448 0.000000
# 2 -0.000697 0.016919 -0.010126 0.000000 0.001564 0.000000
# 3 -0.003147 -0.010126 0.017205 0.000000 -0.003000 0.000000
# 4 0.000000 0.000000 0.000000 0.028413 0.000000 -0.000251
# 5 -0.000448 0.001564 -0.003000 0.000000 0.031559 0.000000
# 6 0.000000 0.000000 0.000000 -0.000251 0.000000 0.034079
#
#
# Mechanical properties :
#
#
# Convention : Reuss Voigt Hill
#
# Bulk Modulus (GPa) = 44.51361 50.10731 47.31046
# Shear Modulus (GPa) = 27.79577 30.24374 29.01976
#
# Velocity S-wave (km/s) = 3.66161 3.81945 3.74136
# Velocity P-wave (km/s) = 6.27278 6.60457 6.44081
#
# Compressibility (1/GPa) = 0.02246504
#
# Stress axis : x y z
#
# Youngs Moduli (GPa) = 61.42466 59.10383 58.12356
#
# Poissons Ratio (x) = 0.04117 0.18292
# Poissons Ratio (y) = 0.04278 0.58856
# Poissons Ratio (z) = 0.19331 0.59849
#
# Static dielectric constant tensor:
#      x y z
#    x 3.859140 0.000000 0.125490 
#    y 0.000000 4.040770 0.000000 
#    z 0.125490 0.000000 3.986260 
# 
# 
# High freq. dielectric constant tensor:
#      x y z
#    x 1.823560 0.000000 0.000110 
#    y 0.000000 1.810960 0.000000 
#    z 0.000110 0.000000 1.813020 
# 
# From -- ./inp_files/87860.got.cif
#   From: 2010.06.25/outbox.cif.g09.slc.cpg/sg15_44_cif.got.tgz:87860.got - 2010.06.28 07:06:18.
