data_PCOD8144693
_publ_section_title
;
Structure prediction by ZEFSAII (Michael W. Deem and Ramdas Pophale) SiO2 
 PCOD8144693
Probable space group: C 2/C
;
_chemical_formula_sum "Si O2"
_cell_formula_units_Z 48
_cell_length_a 13.744908
_cell_length_b 8.845743
_cell_length_c 16.984033
_cell_angle_alpha 90.000000
_cell_angle_beta 95.666510
_cell_angle_gamma 90.000000
_cell_volume 2054.894726
_symmetry_space_group_name_H-M "C 2/C"
_symmetry_group_IT_number 15
_symmetry_cell_setting 'monoclinic'
loop_
_space_group_symop_operation_xyz
x,y,z
-x,y,1/2-z
-x,-y,-z
x,-y,1/2+z
1/2+x,1/2+y,z
1/2-x,1/2+y,1/2-z
1/2-x,1/2-y,-z
1/2+x,1/2-y,1/2+z
loop_
_atom_site_type_symbol
_atom_site_label
_atom_site_fract_x
_atom_site_fract_y
_atom_site_fract_z
Si Si1 0.398227 0.988812 0.207268
Si Si2 0.930232 0.965260 0.842555
Si Si3 0.846157 0.771177 0.956654
Si Si4 0.504521 0.779786 0.898623
Si Si5 0.128124 0.160301 0.329725
Si Si6 0.326464 0.970173 0.867007
O O1 0.500000 0.927370 0.250000
O O2 0.346401 0.839165 0.168869
O O3 0.418018 0.121352 0.146045
O O4 0.334234 0.056066 0.273390
O O5 0.852286 0.926650 0.906215
O O6 0.882579 0.920695 0.755916
O O7 0.027619 0.866161 0.868698
O O8 0.963045 0.139840 0.844470
O O9 0.846920 0.642044 0.890808
O O10 0.750000 0.750000 0.000000
O O11 0.940977 0.771849 0.019085
O O12 0.410096 0.874892 0.917996
O O13 0.217966 0.082001 0.383524
#
# Coordination Sequence:
#
# PCOD8144693 Si02
#       6
#     8   8   8   8   8   8
#     4  10  21  44  64 100 140 183 232 295 347 411
#     4  11  24  44  68 106 139 184 237 296 351 426
#     4  12  26  48  69 100 147 191 230 294 362 429
#     4  11  26  42  72 101 142 186 237 290 360 432
#     4  11  23  41  72  97 144 180 238 293 358 407
#     4  11  25  41  68 103 137 184 236 290 353 423
#
# _framework density 23.358861000000001
#
# number of rings (size 3 to 8) (size 9 to 14) (size 15 to 20)
#    0.000    1.000    3.333    3.000   11.667    0.000 
#    0.000    2.500    0.000    0.000    0.000    0.000 
#    0.000    0.000    0.000    0.000    0.000    0.000 
#
# Total GULP energy -297580.944869 kJ/mol
# GULP energy per Si atom -12399.206036 kJ/mol
# Density = 2.330570 g / cm^3
# Si number density = 23.358861 Si / 1000 Ang^3
#
#
#
# Elastic Constant Matrix: (Units=GPa)
#
#
# Indices 1 2 3 4 5 6 
#
# 1 92.0189 6.7399 14.8886 0.0000 -4.8232 0.0000
# 2 6.7399 128.7730 29.6827 0.0000 4.4664 0.0000
# 3 14.8886 29.6827 69.2605 0.0000 -8.9290 0.0000
# 4 0.0000 0.0000 0.0000 25.8199 0.0000 0.4392
# 5 -4.8232 4.4664 -8.9290 0.0000 28.7320 0.0000
# 6 0.0000 0.0000 0.0000 0.4392 0.0000 28.1069
#
#
#
# Elastic Compliance Matrix: (Units=1/GPa)
#
#
# Indices 1 2 3 4 5 6 
#
# 1 0.011300 -0.000123 -0.002218 0.000000 0.001227 0.000000
# 2 -0.000123 0.008807 -0.004091 0.000000 -0.002661 0.000000
# 3 -0.002218 -0.004091 0.017400 0.000000 0.005671 0.000000
# 4 0.000000 0.000000 0.000000 0.038740 0.000000 -0.000605
# 5 0.001227 -0.002661 0.005671 0.000000 0.037186 0.000000
# 6 0.000000 0.000000 0.000000 -0.000605 0.000000 0.035588
#
#
# Mechanical properties :
#
#
# Convention : Reuss Voigt Hill
#
# Bulk Modulus (GPa) = 40.58104 43.63052 42.10578
# Shear Modulus (GPa) = 29.39461 32.44783 30.92122
#
# Velocity S-wave (km/s) = 3.55123 3.73111 3.64228
# Velocity P-wave (km/s) = 5.85026 6.10577 5.97938
#
# Compressibility (1/GPa) = 0.02464205
#
# Stress axis : x y z
#
# Youngs Moduli (GPa) = 88.49931 113.54120 57.47272
#
# Poissons Ratio (x) = 0.01392 0.12749
# Poissons Ratio (y) = 0.01085 0.23514
# Poissons Ratio (z) = 0.19632 0.46453
#
# Static dielectric constant tensor:
#      x y z
#    x 4.335790 0.000000 -0.110140 
#    y 0.000000 4.148750 0.000000 
#    z -0.110140 0.000000 3.959780 
# 
# 
# High freq. dielectric constant tensor:
#      x y z
#    x 1.930300 0.000000 -0.003100 
#    y 0.000000 1.927760 0.000000 
#    z -0.003100 0.000000 1.904210 
# 
# From -- ./inp_files/203010.got.cif
#   From: 2010.06.25/outbox.cif.g09.slc.cpg/sg15_102_cif.got.tgz:203010.got - 2010.06.28 07:06:18.
