data_PCOD8144053
_publ_section_title
;
Structure prediction by ZEFSAII (Michael W. Deem and Ramdas Pophale) SiO2 
 PCOD8144053
Probable space group: C 2/C
;
_chemical_formula_sum "Si O2"
_cell_formula_units_Z 48
_cell_length_a 16.759018
_cell_length_b 12.061654
_cell_length_c 19.384996
_cell_angle_alpha 90.000000
_cell_angle_beta 148.977938
_cell_angle_gamma 90.000000
_cell_volume 2019.475909
_symmetry_space_group_name_H-M "C 2/C"
_symmetry_group_IT_number 15
_symmetry_cell_setting 'monoclinic'
loop_
_space_group_symop_operation_xyz
x,y,z
-x,y,1/2-z
-x,-y,-z
x,-y,1/2+z
1/2+x,1/2+y,z
1/2-x,1/2+y,1/2-z
1/2-x,1/2-y,-z
1/2+x,1/2-y,1/2+z
loop_
_atom_site_type_symbol
_atom_site_label
_atom_site_fract_x
_atom_site_fract_y
_atom_site_fract_z
Si Si1 0.263096 0.309388 0.253755
Si Si2 0.938348 0.790993 0.521756
Si Si3 0.175389 0.926847 0.445512
Si Si4 0.168389 0.732532 0.344311
Si Si5 0.682245 0.651497 0.384673
Si Si6 0.888069 0.015630 0.289416
O O1 0.377747 0.276164 0.399889
O O2 0.317496 0.238432 0.227750
O O3 0.274201 0.441833 0.250861
O O4 0.086471 0.287000 0.142784
O O5 0.805818 0.753877 0.480650
O O6 0.986371 0.917866 0.571361
O O7 0.234953 0.845561 0.428613
O O8 0.233706 0.876277 0.561108
O O9 0.227731 0.054614 0.472516
O O10 0.986020 0.932343 0.310972
O O11 0.000000 0.710069 0.250000
O O12 0.500000 0.687818 0.250000
O O13 0.712162 0.600359 0.330334
#
# Coordination Sequence:
#
# PCOD8144053 Si02
#       6
#     8   8   8   8   8   8
#     4  12  25  44  72 104 145 186 233 299 356 426
#     4  12  27  47  69 107 144 191 236 289 364 431
#     4  10  21  41  70  99 133 181 236 296 347 412
#     4  11  21  40  68 102 135 179 241 289 349 417
#     4  10  22  46  75  97 137 190 237 294 351 423
#     4  11  22  47  68 100 140 189 236 292 356 416
#
# _framework density 23.768543000000001
#
# number of rings (size 3 to 8) (size 9 to 14) (size 15 to 20)
#    0.000    1.000    5.000    2.000    2.333    3.333 
#    6.000    0.000    0.000    0.000    0.000    0.000 
#    0.000    0.000    0.000    0.000    0.000    0.000 
#
# Total GULP energy -297517.918681 kJ/mol
# GULP energy per Si atom -12396.579945 kJ/mol
# Density = 2.371444 g / cm^3
# Si number density = 23.768543 Si / 1000 Ang^3
#
#
#
# Elastic Constant Matrix: (Units=GPa)
#
#
# Indices 1 2 3 4 5 6 
#
# 1 87.0629 26.6643 23.2917 0.0000 4.9105 0.0000
# 2 26.6643 119.3840 49.1737 0.0004 13.0587 0.0002
# 3 23.2917 49.1737 92.1211 0.0007 5.7961 0.0002
# 4 0.0000 0.0004 0.0007 31.9417 0.0002 23.1001
# 5 4.9105 13.0587 5.7961 0.0002 39.1341 0.0001
# 6 0.0000 0.0002 0.0002 23.1001 0.0001 8.4981
#
#
#
# Elastic Compliance Matrix: (Units=1/GPa)
#
#
# Indices 1 2 3 4 5 6 
#
# 1 0.012674 -0.001867 -0.002167 0.000000 -0.000646 0.000000
# 2 -0.001867 0.011316 -0.005396 0.000000 -0.002743 0.000000
# 3 -0.002167 -0.005396 0.014286 0.000000 -0.000044 0.000000
# 4 0.000000 0.000000 0.000000 -0.032415 0.000000 0.088111
# 5 -0.000646 -0.002743 -0.000044 0.000000 0.026556 0.000000
# 6 0.000000 0.000000 0.000000 0.088111 0.000000 -0.121836
#
#
# Mechanical properties :
#
#
# Convention : Reuss Voigt Hill
#
# Bulk Modulus (GPa) = 51.50435 55.20305 53.35370
# Shear Modulus (GPa) = -78.01966 29.21067 -24.40449
#
# Velocity S-wave (km/s) = -5.73550 3.50946 -3.20778
# Velocity P-wave (km/s) = 4.70587 6.30059 2.96245
#
# Compressibility (1/GPa) = 0.01941584
#
# Stress axis : x y z
#
# Youngs Moduli (GPa) = 78.90132 88.37166 69.99837
#
# Poissons Ratio (x) = 0.16503 0.15168
# Poissons Ratio (y) = 0.14735 0.37768
# Poissons Ratio (z) = 0.17098 0.47682
#
# Static dielectric constant tensor:
#      x y z
#    x 4.418730 0.000000 -0.144910 
#    y 0.000000 4.405220 0.000000 
#    z -0.144910 0.000000 4.204020 
# 
# 
# High freq. dielectric constant tensor:
#      x y z
#    x 1.947560 0.000000 -0.015130 
#    y 0.000000 1.943560 0.000000 
#    z -0.015130 0.000000 1.927470 
# 
# From -- ./inp_files/277306.got.cif
#   From: 2010.06.25/outbox.cif.g09.slc.cpg/sg15_139_cif.got.tgz:277306.got - 2010.06.28 07:06:18.
