data_PCOD8144538
_publ_section_title
;
Structure prediction by ZEFSAII (Michael W. Deem and Ramdas Pophale) SiO2 
 PCOD8144538
Probable space group: C 2/C
;
_chemical_formula_sum "Si O2"
_cell_formula_units_Z 52
_cell_length_a 12.113649
_cell_length_b 28.014107
_cell_length_c 7.456124
_cell_angle_alpha 90.000000
_cell_angle_beta 58.101760
_cell_angle_gamma 90.000000
_cell_volume 2148.158891
_symmetry_space_group_name_H-M "C 2/C"
_symmetry_group_IT_number 15
_symmetry_cell_setting 'monoclinic'
loop_
_space_group_symop_operation_xyz
x,y,z
-x,y,1/2-z
-x,-y,-z
x,-y,1/2+z
1/2+x,1/2+y,z
1/2-x,1/2+y,1/2-z
1/2-x,1/2-y,-z
1/2+x,1/2-y,1/2+z
loop_
_atom_site_type_symbol
_atom_site_label
_atom_site_fract_x
_atom_site_fract_y
_atom_site_fract_z
Si Si1 0.470454 0.096475 0.475961
Si Si2 0.397491 0.351438 0.690401
Si Si3 0.230087 0.436817 0.857839
Si Si4 0.269533 0.764178 0.777162
Si Si5 0.237120 0.043909 0.582926
Si Si6 0.500000 0.397218 0.250000
Si Si7 0.536320 0.799151 0.412727
O O1 0.500000 0.078957 0.250000
O O2 0.582458 0.081151 0.521287
O O3 0.341261 0.065956 0.635497
O O4 0.444981 0.153271 0.486224
O O5 0.500000 0.330658 0.750000
O O6 0.333121 0.397849 0.839658
O O7 0.281090 0.315632 0.741215
O O8 0.459648 0.362361 0.444841
O O9 0.263094 0.486856 0.919895
O O10 0.241557 0.438187 0.635291
O O11 0.424450 0.763683 0.593646
O O12 0.175699 0.726240 0.760244
O O13 0.250000 0.750000 0.000000
O O14 0.101714 0.066912 0.756435
O O15 0.500000 0.817958 0.250000
#
# Coordination Sequence:
#
# PCOD8144538 Si02
#       7
#     8   8   8   8   8   4   8
#     4  10  21  43  66  97 137 186 236 294 359 433
#     4  11  26  46  73 102 149 187 242 306 363 445
#     4  10  22  41  65 100 140 183 243 291 361 428
#     4  12  27  49  76 106 141 195 242 302 377 449
#     4  10  23  37  66  95 140 185 237 295 354 435
#     4  10  26  42  66 110 138 194 246 290 372 436
#     4  12  27  45  74 108 145 182 245 305 375 444
#
# _framework density 24.206776000000001
#
# number of rings (size 3 to 8) (size 9 to 14) (size 15 to 20)
#    0.000    1.231    1.538    2.769    9.692    3.692 
#    0.000    0.000    0.000    0.000    0.000    0.000 
#    0.000    0.000    0.000    0.000    0.000    0.000 
#
# Total GULP energy -322258.348777 kJ/mol
# GULP energy per Si atom -12394.551876 kJ/mol
# Density = 2.415168 g / cm^3
# Si number density = 24.206776 Si / 1000 Ang^3
#
#
#
# Elastic Constant Matrix: (Units=GPa)
#
#
# Indices 1 2 3 4 5 6 
#
# 1 82.7694 9.8192 5.1242 0.0000 -2.0081 0.0000
# 2 9.8192 88.6876 -1.8837 0.0000 2.5488 0.0000
# 3 5.1242 -1.8837 36.3971 0.0000 -6.9452 0.0000
# 4 0.0000 0.0000 0.0000 24.5881 0.0000 -2.2126
# 5 -2.0081 2.5488 -6.9452 0.0000 28.5023 0.0000
# 6 0.0000 0.0000 0.0000 -2.2126 0.0000 47.5357
#
#
#
# Elastic Compliance Matrix: (Units=1/GPa)
#
#
# Indices 1 2 3 4 5 6 
#
# 1 0.012370 -0.001423 -0.001704 0.000000 0.000584 0.000000
# 2 -0.001423 0.011474 0.000607 0.000000 -0.000978 0.000000
# 3 -0.001704 0.000607 0.029064 0.000000 0.006908 0.000000
# 4 0.000000 0.000000 0.000000 0.040841 0.000000 0.001901
# 5 0.000584 -0.000978 0.006908 0.000000 0.036897 0.000000
# 6 0.000000 0.000000 0.000000 0.001901 0.000000 0.021125
#
#
# Mechanical properties :
#
#
# Convention : Reuss Voigt Hill
#
# Bulk Modulus (GPa) = 20.88966 25.99704 23.44335
# Shear Modulus (GPa) = 28.94083 33.11150 31.02617
#
# Velocity S-wave (km/s) = 3.46145 3.70247 3.58399
# Velocity P-wave (km/s) = 4.96225 5.38894 5.17999
#
# Compressibility (1/GPa) = 0.04787058
#
# Stress axis : x y z
#
# Youngs Moduli (GPa) = 80.83968 87.15316 34.40659
#
# Poissons Ratio (x) = 0.12398 0.05862
# Poissons Ratio (y) = 0.11500 -0.02090
# Poissons Ratio (z) = 0.13774 -0.05294
#
# Static dielectric constant tensor:
#      x y z
#    x 5.004750 0.000000 -0.478640 
#    y 0.000000 4.228500 0.000000 
#    z -0.478640 0.000000 4.287200 
# 
# 
# High freq. dielectric constant tensor:
#      x y z
#    x 1.975100 0.000000 -0.005780 
#    y 0.000000 1.960770 0.000000 
#    z -0.005780 0.000000 1.953440 
# 
# From -- ./inp_files/34118.got.cif
#   From: 2010.06.25/outbox.cif.g09.slc.cpg/sg15_18_cif.got.tgz:34118.got - 2010.06.28 07:06:18.
