data_PCOD8144040
_publ_section_title
;
Structure prediction by ZEFSAII (Michael W. Deem and Ramdas Pophale) SiO2 
 PCOD8144040
Probable space group: C 2/C
;
_chemical_formula_sum "Si O2"
_cell_formula_units_Z 48
_cell_length_a 14.121406
_cell_length_b 11.786767
_cell_length_c 27.860324
_cell_angle_alpha 90.000000
_cell_angle_beta 148.653675
_cell_angle_gamma 90.000000
_cell_volume 2412.333365
_symmetry_space_group_name_H-M "C 2/C"
_symmetry_group_IT_number 15
_symmetry_cell_setting 'monoclinic'
loop_
_space_group_symop_operation_xyz
x,y,z
-x,y,1/2-z
-x,-y,-z
x,-y,1/2+z
1/2+x,1/2+y,z
1/2-x,1/2+y,1/2-z
1/2-x,1/2-y,-z
1/2+x,1/2-y,1/2+z
loop_
_atom_site_type_symbol
_atom_site_label
_atom_site_fract_x
_atom_site_fract_y
_atom_site_fract_z
Si Si1 0.000000 0.010536 0.750000
Si Si2 0.071338 0.504517 0.682584
Si Si3 0.459732 0.772076 0.090169
Si Si4 0.792824 0.688328 0.888657
Si Si5 0.475675 0.536939 0.342487
Si Si6 0.697802 0.129932 0.499132
Si Si7 0.000000 0.620386 0.250000
O O1 0.971288 0.936189 0.689981
O O2 0.171678 0.090251 0.812866
O O3 0.283426 0.524617 0.763895
O O4 0.990816 0.630112 0.642600
O O5 0.978432 0.419607 0.603950
O O6 0.038303 0.460211 0.721666
O O7 0.527302 0.804250 0.066108
O O8 0.558159 0.656072 0.146613
O O9 0.250000 0.750000 0.000000
O O10 0.677508 0.804724 0.839090
O O11 0.854836 0.651783 0.968481
O O12 0.632924 0.457555 0.433369
O O13 0.750000 0.250000 0.500000
#
# Coordination Sequence:
#
# PCOD8144040 Si02
#       7
#     4   8   8   8   8   8   4
#     4   9  20  39  68  94 120 175 231 256 324 404
#     4  12  25  43  69  99 137 177 220 279 340 394
#     4  12  25  44  63 100 141 169 215 289 338 378
#     4  10  21  41  70  93 130 177 222 268 327 402
#     4  11  24  42  68  97 136 173 223 282 330 395
#     4  11  24  44  70 100 129 180 233 265 327 417
#     4  11  22  43  68 100 130 181 225 266 332 414
#
# _framework density 19.897746999999999
#
# number of rings (size 3 to 8) (size 9 to 14) (size 15 to 20)
#    0.000    1.000    6.667    0.000    2.333    2.667 
#    3.000    2.500    0.000    0.000    0.000    0.000 
#    0.000    0.000    0.000    0.000    0.000    0.000 
#
# Total GULP energy -297588.649219 kJ/mol
# GULP energy per Si atom -12399.527051 kJ/mol
# Density = 1.985246 g / cm^3
# Si number density = 19.897747 Si / 1000 Ang^3
#
#
#
# Elastic Constant Matrix: (Units=GPa)
#
#
# Indices 1 2 3 4 5 6 
#
# 1 134.6002 35.2262 50.5073 0.0000 -4.1836 0.0000
# 2 35.2262 105.1560 27.1752 0.0000 -12.6941 0.0000
# 3 50.5073 27.1752 88.4759 0.0002 -1.8761 0.0002
# 4 0.0000 0.0000 0.0002 30.1571 0.0000 -7.1769
# 5 -4.1836 -12.6941 -1.8761 0.0000 40.3113 0.0000
# 6 0.0000 0.0000 0.0002 -7.1769 0.0000 27.6569
#
#
#
# Elastic Compliance Matrix: (Units=1/GPa)
#
#
# Indices 1 2 3 4 5 6 
#
# 1 0.009829 -0.001981 -0.004999 0.000000 0.000164 0.000000
# 2 -0.001981 0.011133 -0.002221 0.000000 0.003197 0.000000
# 3 -0.004999 -0.002221 0.014827 0.000000 -0.000528 0.000000
# 4 0.000000 0.000000 0.000000 0.035342 0.000000 0.009171
# 5 0.000164 0.003197 -0.000528 0.000000 0.025806 0.000000
# 6 0.000000 0.000000 0.000000 0.009171 0.000000 0.038537
#
#
# Mechanical properties :
#
#
# Convention : Reuss Voigt Hill
#
# Bulk Modulus (GPa) = 57.51252 61.56104 59.53678
# Shear Modulus (GPa) = 31.31423 33.97996 32.64710
#
# Velocity S-wave (km/s) = 3.97137 4.13695 4.05500
# Velocity P-wave (km/s) = 7.07077 7.33655 7.20489
#
# Compressibility (1/GPa) = 0.01738752
#
# Stress axis : x y z
#
# Youngs Moduli (GPa) = 101.74281 89.82204 67.44398
#
# Poissons Ratio (x) = 0.17793 0.33715
# Poissons Ratio (y) = 0.20154 0.14979
# Poissons Ratio (z) = 0.50860 0.19949
#
# Static dielectric constant tensor:
#      x y z
#    x 3.632420 0.000000 -0.193540 
#    y 0.000000 3.483310 0.000000 
#    z -0.193540 0.000000 3.941790 
# 
# 
# High freq. dielectric constant tensor:
#      x y z
#    x 1.783080 0.000000 -0.000210 
#    y 0.000000 1.779150 0.000000 
#    z -0.000210 0.000000 1.778920 
# 
# From -- ./inp_files/151895.got.cif
#   From: 2010.06.25/outbox.cif.g09.slc.cpg/sg15_76_cif.got.tgz:151895.got - 2010.06.28 07:06:18.
