data_PCOD8144214
_publ_section_title
;
Structure prediction by ZEFSAII (Michael W. Deem and Ramdas Pophale) SiO2 
 PCOD8144214
Probable space group: C 2/C
;
_chemical_formula_sum "Si O2"
_cell_formula_units_Z 56
_cell_length_a 8.433076
_cell_length_b 14.836917
_cell_length_c 23.547522
_cell_angle_alpha 90.000000
_cell_angle_beta 57.285552
_cell_angle_gamma 90.000000
_cell_volume 2478.929932
_symmetry_space_group_name_H-M "C 2/C"
_symmetry_group_IT_number 15
_symmetry_cell_setting 'monoclinic'
loop_
_space_group_symop_operation_xyz
x,y,z
-x,y,1/2-z
-x,-y,-z
x,-y,1/2+z
1/2+x,1/2+y,z
1/2-x,1/2+y,1/2-z
1/2-x,1/2-y,-z
1/2+x,1/2-y,1/2+z
loop_
_atom_site_type_symbol
_atom_site_label
_atom_site_fract_x
_atom_site_fract_y
_atom_site_fract_z
Si Si1 0.033955 0.276449 0.654890
Si Si2 0.558949 0.598278 0.874443
Si Si3 0.180385 0.062447 0.969881
Si Si4 0.817469 0.772301 0.701355
Si Si5 0.634312 0.919082 0.273723
Si Si6 0.533303 0.049733 0.389585
Si Si7 0.373932 0.591830 0.401119
O O1 0.050523 0.193309 0.607508
O O2 0.819823 0.292841 0.719131
O O3 0.087770 0.369166 0.614002
O O4 0.187626 0.257386 0.672402
O O5 0.697646 0.605673 0.903096
O O6 0.662003 0.590794 0.793893
O O7 0.421890 0.513090 0.902779
O O8 0.374233 0.012087 0.948701
O O9 0.150903 0.131037 0.029294
O O10 0.000000 0.000000 0.000000
O O11 0.930782 0.679127 0.690358
O O12 0.966168 0.853299 0.663802
O O13 0.500000 0.955951 0.250000
O O14 0.647389 0.992496 0.320644
O O15 0.678141 0.094130 0.405592
#
# Coordination Sequence:
#
# PCOD8144214 Si02
#       7
#     8   8   8   8   8   8   8
#     4  10  22  39  65  93 128 162 209 258 319 380
#     4  10  21  42  65  93 128 169 207 260 320 370
#     4  10  22  43  64  87 126 170 215 258 307 379
#     4  10  23  40  61  94 129 163 205 259 320 383
#     4  11  23  39  67  93 129 157 209 266 321 375
#     4  12  24  39  65  95 124 167 211 263 319 372
#     4  11  24  41  64  93 130 169 213 255 312 378
#
# _framework density 22.590392999999999
#
# number of rings (size 3 to 8) (size 9 to 14) (size 15 to 20)
#    0.000    1.429    1.429    3.857    6.000    2.857 
#    0.000   10.714    0.000    0.000    0.000    0.000 
#    0.000    0.000    0.000    0.000    0.000    0.000 
#
# Total GULP energy -347052.331721 kJ/mol
# GULP energy per Si atom -12394.726133 kJ/mol
# Density = 2.253898 g / cm^3
# Si number density = 22.590393 Si / 1000 Ang^3
#
#
#
# Elastic Constant Matrix: (Units=GPa)
#
#
# Indices 1 2 3 4 5 6 
#
# 1 98.0784 8.3312 27.7140 0.0001 6.1552 -0.0002
# 2 8.3312 80.6088 24.6385 0.0001 7.6275 -0.0001
# 3 27.7140 24.6385 83.8216 0.0001 12.1506 -0.0002
# 4 0.0001 0.0001 0.0001 18.0760 -0.0001 4.5608
# 5 6.1552 7.6275 12.1506 -0.0001 33.6025 0.0002
# 6 -0.0002 -0.0001 -0.0002 4.5608 0.0002 30.4886
#
#
#
# Elastic Compliance Matrix: (Units=1/GPa)
#
#
# Indices 1 2 3 4 5 6 
#
# 1 0.011265 0.000014 -0.003619 0.000000 -0.000758 0.000000
# 2 0.000014 0.013727 -0.003786 0.000000 -0.001749 0.000000
# 3 -0.003619 -0.003786 0.014794 0.000000 -0.003827 0.000000
# 4 0.000000 0.000000 0.000000 0.057492 0.000000 -0.008600
# 5 -0.000758 -0.001749 -0.003827 0.000000 0.031680 0.000000
# 6 0.000000 0.000000 0.000000 -0.008600 0.000000 0.034086
#
#
# Mechanical properties :
#
#
# Convention : Reuss Voigt Hill
#
# Bulk Modulus (GPa) = 39.99336 42.65293 41.32314
# Shear Modulus (GPa) = 26.85874 29.88845 28.37360
#
# Velocity S-wave (km/s) = 3.45185 3.64134 3.54786
# Velocity P-wave (km/s) = 5.79906 6.04988 5.92580
#
# Compressibility (1/GPa) = 0.02500415
#
# Stress axis : x y z
#
# Youngs Moduli (GPa) = 88.77169 72.84986 67.59450
#
# Poissons Ratio (x) = -0.00098 0.24460
# Poissons Ratio (y) = -0.00120 0.25590
# Poissons Ratio (z) = 0.32123 0.27579
#
# Static dielectric constant tensor:
#      x y z
#    x 4.002440 0.000000 0.337460 
#    y 0.000000 4.011040 0.000000 
#    z 0.337460 0.000000 4.565780 
# 
# 
# High freq. dielectric constant tensor:
#      x y z
#    x 1.891630 0.000000 0.011450 
#    y 0.000000 1.878050 0.000000 
#    z 0.011450 0.000000 1.891490 
# 
# From -- ./inp_files/264607.got.cif
#   From: 2010.06.25/outbox.cif.g09.slc.cpg/sg15_133_cif.got.tgz:264607.got - 2010.06.28 07:06:18.
