data_PCOD8144541
_publ_section_title
;
Structure prediction by ZEFSAII (Michael W. Deem and Ramdas Pophale) SiO2 
 PCOD8144541
Probable space group: C 2/C
;
_chemical_formula_sum "Si O2"
_cell_formula_units_Z 40
_cell_length_a 10.304887
_cell_length_b 17.307567
_cell_length_c 15.487683
_cell_angle_alpha 90.000000
_cell_angle_beta 138.850913
_cell_angle_gamma 90.000000
_cell_volume 1817.628816
_symmetry_space_group_name_H-M "C 2/C"
_symmetry_group_IT_number 15
_symmetry_cell_setting 'monoclinic'
loop_
_space_group_symop_operation_xyz
x,y,z
-x,y,1/2-z
-x,-y,-z
x,-y,1/2+z
1/2+x,1/2+y,z
1/2-x,1/2+y,1/2-z
1/2-x,1/2-y,-z
1/2+x,1/2-y,1/2+z
loop_
_atom_site_type_symbol
_atom_site_label
_atom_site_fract_x
_atom_site_fract_y
_atom_site_fract_z
Si Si1 0.681172 0.294475 0.779769
Si Si2 0.034569 0.589909 0.028350
Si Si3 0.507188 0.318531 0.986250
Si Si4 0.864630 0.411311 0.105357
Si Si5 0.164928 0.405389 0.902064
O O1 0.500000 0.271676 0.750000
O O2 0.747353 0.384638 0.827344
O O3 0.629478 0.278078 0.654336
O O4 0.875578 0.245060 0.900817
O O5 0.882370 0.623506 0.023580
O O6 0.021801 0.620314 0.923262
O O7 0.000000 0.500000 0.000000
O O8 0.376370 0.370083 0.985225
O O9 0.651028 0.373457 0.003847
O O10 0.829798 0.502338 0.093082
O O11 0.000000 0.380519 0.250000
O O12 0.000000 0.378083 0.750000
#
# Coordination Sequence:
#
# PCOD8144541 Si02
#       5
#     8   8   8   8   8
#     4  12  25  43  69  97 134 179 227 276 329 398
#     4  10  22  43  68  95 132 169 219 275 338 390
#     4  12  25  42  68  97 134 178 225 270 331 397
#     4  10  22  41  71  97 131 169 225 276 327 398
#     4  10  21  43  66  99 133 171 215 280 339 390
#
# _framework density 22.006692999999999
#
# number of rings (size 3 to 8) (size 9 to 14) (size 15 to 20)
#    0.000    1.200    4.000    1.800    2.800    0.800 
#    0.000    1.000    0.000    0.000    0.000    0.000 
#    0.000    0.000    0.000    0.000    0.000    0.000 
#
# Total GULP energy -247827.392975 kJ/mol
# GULP energy per Si atom -12391.369649 kJ/mol
# Density = 2.195660 g / cm^3
# Si number density = 22.006693 Si / 1000 Ang^3
#
#
#
# Elastic Constant Matrix: (Units=GPa)
#
#
# Indices 1 2 3 4 5 6 
#
# 1 188.9180 47.6488 72.3698 -0.0002 -35.4393 -0.0001
# 2 47.6488 72.5788 49.5766 0.0000 11.3142 0.0000
# 3 72.3698 49.5766 151.3286 -0.0008 -17.8565 -0.0002
# 4 -0.0002 0.0000 -0.0008 36.3933 -0.0003 17.3847
# 5 -35.4393 11.3142 -17.8565 -0.0003 35.5175 -0.0001
# 6 -0.0001 0.0000 -0.0002 17.3847 -0.0001 19.5319
#
#
#
# Elastic Compliance Matrix: (Units=1/GPa)
#
#
# Indices 1 2 3 4 5 6 
#
# 1 0.009742 -0.007741 -0.000728 0.000000 0.011821 0.000000
# 2 -0.007741 0.027195 -0.007591 -0.000001 -0.020204 0.000000
# 3 -0.000728 -0.007591 0.010251 0.000000 0.006846 0.000000
# 4 0.000000 -0.000001 0.000000 0.047801 0.000001 -0.042546
# 5 0.011821 -0.020204 0.006846 0.000001 0.049827 0.000000
# 6 0.000000 0.000000 0.000000 -0.042546 0.000000 0.089067
#
#
# Mechanical properties :
#
#
# Convention : Reuss Voigt Hill
#
# Bulk Modulus (GPa) = 66.36914 83.55730 74.96322
# Shear Modulus (GPa) = 18.44826 34.50390 26.47608
#
# Velocity S-wave (km/s) = 2.89849 3.96395 3.47232
# Velocity P-wave (km/s) = 6.43628 7.68127 7.08617
#
# Compressibility (1/GPa) = 0.01506724
#
# Stress axis : x y z
#
# Youngs Moduli (GPa) = 102.64696 36.77099 97.55061
#
# Poissons Ratio (x) = 0.28465 0.07102
# Poissons Ratio (y) = 0.79461 0.74055
# Poissons Ratio (z) = 0.07474 0.27914
#
# Static dielectric constant tensor:
#      x y z
#    x 4.327320 0.000000 -0.274750 
#    y 0.000000 3.980650 0.000000 
#    z -0.274750 0.000000 4.110100 
# 
# 
# High freq. dielectric constant tensor:
#      x y z
#    x 1.876520 0.000000 -0.016660 
#    y 0.000000 1.866120 0.000000 
#    z -0.016660 0.000000 1.858220 
# 
# From -- ./inp_files/136306.got.cif
#   From: 2010.06.25/outbox.cif.g09.slc.cpg/sg15_69_cif.got.tgz:136306.got - 2010.06.28 07:06:18.
