data_PCOD8144875
_publ_section_title
;
Structure prediction by ZEFSAII (Michael W. Deem and Ramdas Pophale) SiO2 
 PCOD8144875
Probable space group: C 2/C
;
_chemical_formula_sum "Si O2"
_cell_formula_units_Z 48
_cell_length_a 11.012255
_cell_length_b 20.622140
_cell_length_c 9.254275
_cell_angle_alpha 90.000000
_cell_angle_beta 72.872323
_cell_angle_gamma 90.000000
_cell_volume 2008.406641
_symmetry_space_group_name_H-M "C 2/C"
_symmetry_group_IT_number 15
_symmetry_cell_setting 'monoclinic'
loop_
_space_group_symop_operation_xyz
x,y,z
-x,y,1/2-z
-x,-y,-z
x,-y,1/2+z
1/2+x,1/2+y,z
1/2-x,1/2+y,1/2-z
1/2-x,1/2-y,-z
1/2+x,1/2-y,1/2+z
loop_
_atom_site_type_symbol
_atom_site_label
_atom_site_fract_x
_atom_site_fract_y
_atom_site_fract_z
Si Si1 0.210297 0.065288 0.039556
Si Si2 0.096872 0.736358 0.345234
Si Si3 0.780295 0.865510 0.678690
Si Si4 0.455827 0.131671 0.923960
Si Si5 0.023514 0.126358 0.906059
Si Si6 0.594374 0.955445 0.595641
O O1 0.169468 0.082641 0.218607
O O2 0.306439 0.121658 0.961762
O O3 0.090290 0.068215 0.972488
O O4 0.283002 0.996938 0.996566
O O5 0.233804 0.703872 0.259819
O O6 0.020785 0.696345 0.493695
O O7 0.116363 0.811071 0.386539
O O8 0.000000 0.741568 0.250000
O O9 0.650731 0.891925 0.652585
O O10 0.888533 0.854696 0.522907
O O11 0.500000 0.144378 0.750000
O O12 0.515749 0.066767 0.980158
O O13 0.000000 0.102323 0.750000
O O14 0.500000 0.988370 0.750000
#
# Coordination Sequence:
#
# PCOD8144875 Si02
#       6
#     8   8   8   8   8   8
#     4  11  26  42  68 104 144 191 236 294 359 438
#     4  10  21  46  72 105 140 191 242 302 367 428
#     4  11  24  46  75  99 147 190 236 302 367 435
#     4  11  23  38  72 113 136 175 243 306 367 417
#     4  11  28  46  70 106 147 195 245 293 369 441
#     4  12  23  47  74 105 142 189 245 302 364 423
#
# _framework density 23.899540999999999
#
# number of rings (size 3 to 8) (size 9 to 14) (size 15 to 20)
#    0.000    1.000    5.000    1.500    4.667    8.667 
#    0.000    0.000    0.000    0.000    0.000    0.000 
#    0.000    0.000    0.000    0.000    0.000    0.000 
#
# Total GULP energy -297495.112628 kJ/mol
# GULP energy per Si atom -12395.629693 kJ/mol
# Density = 2.384514 g / cm^3
# Si number density = 23.899541 Si / 1000 Ang^3
#
#
#
# Elastic Constant Matrix: (Units=GPa)
#
#
# Indices 1 2 3 4 5 6 
#
# 1 90.4324 20.9075 43.5807 0.0000 -2.7224 0.0000
# 2 20.9075 42.2470 14.9277 0.0000 4.3484 0.0000
# 3 43.5807 14.9277 160.0696 0.0000 -2.7163 0.0000
# 4 0.0000 0.0000 0.0000 -10.6850 0.0000 3.5177
# 5 -2.7224 4.3484 -2.7163 0.0000 26.8193 0.0000
# 6 0.0000 0.0000 0.0000 3.5177 0.0000 29.6142
#
#
#
# Elastic Compliance Matrix: (Units=1/GPa)
#
#
# Indices 1 2 3 4 5 6 
#
# 1 0.014075 -0.006037 -0.003234 0.000000 0.002080 0.000000
# 2 -0.006037 0.027549 -0.001014 0.000000 -0.005182 0.000000
# 3 -0.003234 -0.001014 0.007232 0.000000 0.000569 0.000000
# 4 0.000000 0.000000 0.000000 -0.090067 0.000000 0.010699
# 5 0.002080 -0.005182 0.000569 0.000000 0.038396 0.000000
# 6 0.000000 0.000000 0.000000 0.010699 0.000000 0.032497
#
#
# Mechanical properties :
#
#
# Convention : Reuss Voigt Hill
#
# Bulk Modulus (GPa) = 35.35099 50.17566 42.76333
# Shear Modulus (GPa) = 83.78224 23.37190 53.57707
#
# Velocity S-wave (km/s) = 5.92723 3.13057 4.73986
# Velocity P-wave (km/s) = 7.85280 5.84014 6.92003
#
# Compressibility (1/GPa) = 0.02828775
#
# Stress axis : x y z
#
# Youngs Moduli (GPa) = 71.04970 36.29843 138.27691
#
# Poissons Ratio (x) = 0.21913 0.44715
# Poissons Ratio (y) = 0.42892 0.14015
# Poissons Ratio (z) = 0.22975 0.03679
#
# Static dielectric constant tensor:
#      x y z
#    x 4.104920 0.000000 -0.071170 
#    y 0.000000 4.398050 0.000000 
#    z -0.071170 0.000000 5.409780 
# 
# 
# High freq. dielectric constant tensor:
#      x y z
#    x 1.939980 0.000000 0.009590 
#    y 0.000000 1.938650 0.000000 
#    z 0.009590 0.000000 1.957530 
# 
# From -- ./inp_files/32546.got.cif
#   From: 2010.06.25/outbox.cif.g09.slc.cpg/sg15_17_cif.got.tgz:32546.got - 2010.06.28 07:06:18.
