data_PCOD8144432
_publ_section_title
;
Structure prediction by ZEFSAII (Michael W. Deem and Ramdas Pophale) SiO2 
 PCOD8144432
Probable space group: C 2/C
;
_chemical_formula_sum "Si O2"
_cell_formula_units_Z 48
_cell_length_a 28.179550
_cell_length_b 8.893434
_cell_length_c 14.008679
_cell_angle_alpha 90.000000
_cell_angle_beta 142.937812
_cell_angle_gamma 90.000000
_cell_volume 2115.868053
_symmetry_space_group_name_H-M "C 2/C"
_symmetry_group_IT_number 15
_symmetry_cell_setting 'monoclinic'
loop_
_space_group_symop_operation_xyz
x,y,z
-x,y,1/2-z
-x,-y,-z
x,-y,1/2+z
1/2+x,1/2+y,z
1/2-x,1/2+y,1/2-z
1/2-x,1/2-y,-z
1/2+x,1/2-y,1/2+z
loop_
_atom_site_type_symbol
_atom_site_label
_atom_site_fract_x
_atom_site_fract_y
_atom_site_fract_z
Si Si1 0.664427 0.617379 0.858062
Si Si2 0.811943 0.318528 0.321762
Si Si3 0.343495 0.494751 0.458634
Si Si4 0.958625 0.125791 0.994084
Si Si5 0.433668 0.106386 0.851624
Si Si6 0.680498 0.064429 0.468749
O O1 0.608261 0.683284 0.685874
O O2 0.693898 0.765098 0.958100
O O3 0.627093 0.519777 0.884857
O O4 0.731071 0.507808 0.916207
O O5 0.724502 0.367336 0.148910
O O6 0.811138 0.145661 0.354977
O O7 0.873707 0.340128 0.336359
O O8 0.838233 0.432682 0.448809
O O9 0.420818 0.435224 0.530143
O O10 0.021822 0.251992 0.122390
O O11 0.000000 0.000000 0.000000
O O12 0.387890 0.026356 0.692450
O O13 0.500000 0.000000 0.000000
#
# Coordination Sequence:
#
# PCOD8144432 Si02
#       6
#     8   8   8   8   8   8
#     4  10  21  42  73  96 135 183 233 277 356 427
#     4  11  24  44  72 101 138 187 243 285 360 434
#     4  11  24  44  73 101 137 191 238 291 355 435
#     4  12  25  46  66 103 148 183 228 302 358 417
#     4  12  25  44  70 103 146 181 238 298 354 419
#     4  10  21  42  72 101 130 184 233 284 344 428
#
# _framework density 22.685725000000001
#
# number of rings (size 3 to 8) (size 9 to 14) (size 15 to 20)
#    0.000    1.000    6.667    0.000    2.333    1.333 
#    3.000    4.167    0.000    0.000    0.000    0.000 
#    0.000    0.000    0.000    0.000    0.000    0.000 
#
# Total GULP energy -297434.338939 kJ/mol
# GULP energy per Si atom -12393.097456 kJ/mol
# Density = 2.263409 g / cm^3
# Si number density = 22.685725 Si / 1000 Ang^3
#
#
#
# Elastic Constant Matrix: (Units=GPa)
#
#
# Indices 1 2 3 4 5 6 
#
# 1 157.2150 49.0278 40.6908 0.0000 9.1080 0.0000
# 2 49.0278 79.7732 12.8273 0.0000 11.2618 0.0000
# 3 40.6908 12.8273 79.8357 0.0000 2.7342 0.0000
# 4 0.0000 0.0000 0.0000 45.4905 0.0000 9.3004
# 5 9.1080 11.2618 2.7342 0.0000 41.2292 0.0000
# 6 0.0000 0.0000 0.0000 9.3004 0.0000 36.7601
#
#
#
# Elastic Compliance Matrix: (Units=1/GPa)
#
#
# Indices 1 2 3 4 5 6 
#
# 1 0.008837 -0.004776 -0.003723 0.000000 -0.000401 0.000000
# 2 -0.004776 0.015938 -0.000014 0.000000 -0.003298 0.000000
# 3 -0.003723 -0.000014 0.014430 0.000000 -0.000131 0.000000
# 4 0.000000 0.000000 0.000000 0.023182 0.000000 -0.005865
# 5 -0.000401 -0.003298 -0.000131 0.000000 0.025253 0.000000
# 6 0.000000 0.000000 0.000000 -0.005865 0.000000 0.028687
#
#
# Mechanical properties :
#
#
# Convention : Reuss Voigt Hill
#
# Bulk Modulus (GPa) = 45.08522 57.99063 51.53792
# Shear Modulus (GPa) = 35.52516 38.98115 37.25316
#
# Velocity S-wave (km/s) = 3.96153 4.14975 4.05673
# Velocity P-wave (km/s) = 6.39077 6.96984 6.68657
#
# Compressibility (1/GPa) = 0.02218022
#
# Stress axis : x y z
#
# Youngs Moduli (GPa) = 113.16224 62.74128 69.30045
#
# Poissons Ratio (x) = 0.29964 0.25800
# Poissons Ratio (y) = 0.54044 0.00095
# Poissons Ratio (z) = 0.42130 0.00086
#
# Static dielectric constant tensor:
#      x y z
#    x 4.257420 0.000000 0.068590 
#    y 0.000000 3.963020 0.000000 
#    z 0.068590 0.000000 3.503570 
# 
# 
# High freq. dielectric constant tensor:
#      x y z
#    x 1.912180 0.000000 -0.002140 
#    y 0.000000 1.887890 0.000000 
#    z -0.002140 0.000000 1.891850 
# 
# From -- ./inp_files/180904.got.cif
#   From: 2010.06.25/outbox.cif.g09.slc.cpg/sg15_91_cif.got.tgz:180904.got - 2010.06.28 07:06:18.
