data_PCOD8144599
_publ_section_title
;
Structure prediction by ZEFSAII (Michael W. Deem and Ramdas Pophale) SiO2 
 PCOD8144599
Probable space group: C 2/C
;
_chemical_formula_sum "Si O2"
_cell_formula_units_Z 52
_cell_length_a 9.342186
_cell_length_b 16.507337
_cell_length_c 18.374141
_cell_angle_alpha 90.000000
_cell_angle_beta 51.726849
_cell_angle_gamma 90.000000
_cell_volume 2224.534455
_symmetry_space_group_name_H-M "C 2/C"
_symmetry_group_IT_number 15
_symmetry_cell_setting 'monoclinic'
loop_
_space_group_symop_operation_xyz
x,y,z
-x,y,1/2-z
-x,-y,-z
x,-y,1/2+z
1/2+x,1/2+y,z
1/2-x,1/2+y,1/2-z
1/2-x,1/2-y,-z
1/2+x,1/2-y,1/2+z
loop_
_atom_site_type_symbol
_atom_site_label
_atom_site_fract_x
_atom_site_fract_y
_atom_site_fract_z
Si Si1 0.268623 0.612287 0.707864
Si Si2 0.118953 0.611706 0.079909
Si Si3 0.000000 0.742206 0.750000
Si Si4 0.500000 0.981459 0.750000
Si Si5 0.497637 0.646250 0.499313
Si Si6 0.341802 0.191215 0.064263
Si Si7 0.000000 0.032824 0.750000
Si Si8 0.192582 0.961269 0.552373
O O1 0.180037 0.536016 0.694704
O O2 0.433866 0.636753 0.602997
O O3 0.345423 0.590061 0.763055
O O4 0.122532 0.684662 0.763954
O O5 0.991101 0.572317 0.180812
O O6 0.994899 0.676941 0.077797
O O7 0.285005 0.657530 0.067729
O O8 0.199906 0.541777 0.002668
O O9 0.862918 0.797421 0.839706
O O10 0.402986 0.729044 0.499087
O O11 0.447791 0.568535 0.465649
O O12 0.338988 0.111209 0.015403
O O13 0.086614 0.975947 0.660989
#
# Coordination Sequence:
#
# PCOD8144599 Si02
#       8
#     8   8   4   4   8   8   4   8
#     4  10  21  43  69 101 133 185 232 289 349 416
#     4  12  24  44  73 105 140 181 238 289 346 410
#     4   9  23  46  68  92 146 188 230 274 368 422
#     4  11  22  40  72 100 141 184 236 280 349 420
#     4  11  23  48  70  98 142 191 225 286 357 420
#     4  11  25  44  69 104 143 181 232 292 345 416
#     4  12  23  40  74 108 137 170 246 302 337 400
#     4  12  24  44  72 106 140 184 231 291 349 410
#
# _framework density 23.375679000000002
#
# number of rings (size 3 to 8) (size 9 to 14) (size 15 to 20)
#    0.000    0.923    3.077    4.154    0.000    1.231 
#    2.769    3.077    0.000    0.000    0.000    0.000 
#    0.000    0.000    0.000    0.000    0.000    0.000 
#
# Total GULP energy -322447.381027 kJ/mol
# GULP energy per Si atom -12401.822347 kJ/mol
# Density = 2.332247 g / cm^3
# Si number density = 23.375679 Si / 1000 Ang^3
#
#
#
# Elastic Constant Matrix: (Units=GPa)
#
#
# Indices 1 2 3 4 5 6 
#
# 1 113.2631 20.6580 11.9567 0.0003 -0.8314 -0.0003
# 2 20.6580 93.0932 29.7721 0.0001 -1.9609 -0.0001
# 3 11.9567 29.7721 85.1915 0.0003 -2.2740 -0.0003
# 4 0.0003 0.0001 0.0003 14.1740 -0.0003 6.0683
# 5 -0.8314 -1.9609 -2.2740 -0.0003 33.0771 0.0002
# 6 -0.0003 -0.0001 -0.0003 6.0683 0.0002 30.4445
#
#
#
# Elastic Compliance Matrix: (Units=1/GPa)
#
#
# Indices 1 2 3 4 5 6 
#
# 1 0.009234 -0.001839 -0.000651 0.000000 0.000078 0.000000
# 2 -0.001839 0.012466 -0.004087 0.000000 0.000412 0.000000
# 3 -0.000651 -0.004087 0.013276 0.000000 0.000654 0.000000
# 4 0.000000 0.000000 0.000000 0.077134 0.000001 -0.015375
# 5 0.000078 0.000412 0.000654 0.000001 0.030304 0.000000
# 6 0.000000 0.000000 0.000000 -0.015375 0.000000 0.035911
#
#
# Mechanical properties :
#
#
# Convention : Reuss Voigt Hill
#
# Bulk Modulus (GPa) = 45.82979 46.25793 46.04386
# Shear Modulus (GPa) = 25.15685 30.81651 27.98668
#
# Velocity S-wave (km/s) = 3.28410 3.63480 3.46389
# Velocity P-wave (km/s) = 5.83342 6.11944 5.97814
#
# Compressibility (1/GPa) = 0.02181987
#
# Stress axis : x y z
#
# Youngs Moduli (GPa) = 108.29831 80.21885 75.32651
#
# Poissons Ratio (x) = 0.14753 0.04905
# Poissons Ratio (y) = 0.19918 0.30789
# Poissons Ratio (z) = 0.07052 0.32788
#
# Static dielectric constant tensor:
#      x y z
#    x 4.337000 0.000000 -0.158820 
#    y 0.000000 4.375980 0.000000 
#    z -0.158820 0.000000 3.964840 
# 
# 
# High freq. dielectric constant tensor:
#      x y z
#    x 1.933600 0.000000 -0.006980 
#    y 0.000000 1.933270 0.000000 
#    z -0.006980 0.000000 1.907110 
# 
# From -- ./inp_files/190876.got.cif
#   From: 2010.06.25/outbox.cif.g09.slc.cpg/sg15_96_cif.got.tgz:190876.got - 2010.06.28 07:06:18.
