data_PCOD8144525
_publ_section_title
;
Structure prediction by ZEFSAII (Michael W. Deem and Ramdas Pophale) SiO2 
 PCOD8144525
Probable space group: C 2/C
;
_chemical_formula_sum "Si O2"
_cell_formula_units_Z 52
_cell_length_a 5.258515
_cell_length_b 29.088879
_cell_length_c 18.026974
_cell_angle_alpha 90.000000
_cell_angle_beta 116.674835
_cell_angle_gamma 90.000000
_cell_volume 2464.000873
_symmetry_space_group_name_H-M "C 2/C"
_symmetry_group_IT_number 15
_symmetry_cell_setting 'monoclinic'
loop_
_space_group_symop_operation_xyz
x,y,z
-x,y,1/2-z
-x,-y,-z
x,-y,1/2+z
1/2+x,1/2+y,z
1/2-x,1/2+y,1/2-z
1/2-x,1/2-y,-z
1/2+x,1/2-y,1/2+z
loop_
_atom_site_type_symbol
_atom_site_label
_atom_site_fract_x
_atom_site_fract_y
_atom_site_fract_z
Si Si1 0.520400 0.508889 0.670706
Si Si2 0.500000 0.082997 0.750000
Si Si3 0.671309 0.075064 0.539578
Si Si4 0.334539 0.756803 0.302967
Si Si5 0.336731 0.655264 0.304736
Si Si6 0.719400 0.852747 0.162531
Si Si7 0.004078 0.925225 0.931302
O O1 0.500000 0.487236 0.750000
O O2 0.228572 0.531776 0.602135
O O3 0.625027 0.467805 0.632085
O O4 0.728549 0.551787 0.702402
O O5 0.501467 0.114944 0.822913
O O6 0.757848 0.124021 0.587517
O O7 0.343303 0.072229 0.475466
O O8 0.871594 0.070648 0.494656
O O9 0.500000 0.769649 0.250000
O O10 0.436731 0.706586 0.344143
O O11 0.396755 0.800450 0.365161
O O12 0.000000 0.752334 0.250000
O O13 0.500000 0.641996 0.250000
O O14 0.420433 0.622327 0.382426
O O15 0.000000 0.651835 0.250000
O O16 0.000000 0.851001 0.250000
#
# Coordination Sequence:
#
# PCOD8144525 Si02
#       7
#     8   4   8   8   8   8   8
#     4  12  26  41  66  93 121 169 220 262 303 371
#     4  12  20  38  66  94 122 148 222 256 314 350
#     4  12  25  44  60  95 132 171 200 260 319 380
#     4   9  19  34  65  95 120 153 211 269 308 349
#     4  10  21  43  66  93 122 167 219 259 300 374
#     4  11  21  39  65  94 124 164 209 264 312 369
#     4  12  28  42  64  90 136 169 205 254 323 371
#
# _framework density 21.103888000000001
#
# number of rings (size 3 to 8) (size 9 to 14) (size 15 to 20)
#    0.000    0.923    3.846    3.231    3.231    0.000 
#    0.000    1.538    0.000    0.000    0.000    0.000 
#    0.000    0.000    0.000    0.000    0.000    0.000 
#
# Total GULP energy -322290.362387 kJ/mol
# GULP energy per Si atom -12395.783169 kJ/mol
# Density = 2.105585 g / cm^3
# Si number density = 21.103888 Si / 1000 Ang^3
#
#
#
# Elastic Constant Matrix: (Units=GPa)
#
#
# Indices 1 2 3 4 5 6 
#
# 1 91.4976 13.1027 19.4575 0.0000 -5.7204 0.0000
# 2 13.1027 144.8318 55.0313 0.0000 -11.0545 0.0000
# 3 19.4575 55.0313 91.4104 0.0000 -13.0355 0.0000
# 4 0.0000 0.0000 0.0000 -24.1565 0.0000 -65.2906
# 5 -5.7204 -11.0545 -13.0355 0.0000 27.6513 0.0000
# 6 0.0000 0.0000 0.0000 -65.2906 0.0000 -57.6800
#
#
#
# Elastic Compliance Matrix: (Units=1/GPa)
#
#
# Indices 1 2 3 4 5 6 
#
# 1 0.011493 -0.000106 -0.002197 0.000000 0.001299 0.000000
# 2 -0.000106 0.008985 -0.005229 0.000000 0.001105 0.000000
# 3 -0.002197 -0.005229 0.015216 0.000000 0.004628 0.000000
# 4 0.000000 0.000000 0.000000 0.020101 0.000000 -0.022753
# 5 0.001299 0.001105 0.004628 0.000000 0.039057 0.000000
# 6 0.000000 0.000000 0.000000 -0.022753 0.000000 0.008418
#
#
# Mechanical properties :
#
#
# Convention : Reuss Voigt Hill
#
# Bulk Modulus (GPa) = 48.47541 55.88030 52.17786
# Shear Modulus (GPa) = 39.93241 5.17283 22.55262
#
# Velocity S-wave (km/s) = 4.35464 1.56731 3.27256
# Velocity P-wave (km/s) = 6.95008 5.45998 6.24960
#
# Compressibility (1/GPa) = 0.02062902
#
# Stress axis : x y z
#
# Youngs Moduli (GPa) = 87.01006 111.29083 65.72201
#
# Poissons Ratio (x) = 0.01175 0.14442
# Poissons Ratio (y) = 0.00919 0.34369
# Poissons Ratio (z) = 0.19120 0.58198
#
# Static dielectric constant tensor:
#      x y z
#    x 3.933640 0.000000 -0.068570 
#    y 0.000000 4.465170 0.000000 
#    z -0.068570 0.000000 3.839150 
# 
# 
# High freq. dielectric constant tensor:
#      x y z
#    x 1.837680 0.000000 -0.008640 
#    y 0.000000 1.849270 0.000000 
#    z -0.008640 0.000000 1.799370 
# 
# From -- ./inp_files/185936.got.cif
#   From: 2010.06.25/outbox.cif.g09.slc.cpg/sg15_93_cif.got.tgz:185936.got - 2010.06.28 07:06:18.
