data_PCOD8144161
_publ_section_title
;
Structure prediction by ZEFSAII (Michael W. Deem and Ramdas Pophale) SiO2 
 PCOD8144161
Probable space group: C 2/C
;
_chemical_formula_sum "Si O2"
_cell_formula_units_Z 60
_cell_length_a 17.868330
_cell_length_b 30.381521
_cell_length_c 8.780851
_cell_angle_alpha 90.000000
_cell_angle_beta 38.377250
_cell_angle_gamma 90.000000
_cell_volume 2959.425188
_symmetry_space_group_name_H-M "C 2/C"
_symmetry_group_IT_number 15
_symmetry_cell_setting 'monoclinic'
loop_
_space_group_symop_operation_xyz
x,y,z
-x,y,1/2-z
-x,-y,-z
x,-y,1/2+z
1/2+x,1/2+y,z
1/2-x,1/2+y,1/2-z
1/2-x,1/2-y,-z
1/2+x,1/2-y,1/2+z
loop_
_atom_site_type_symbol
_atom_site_label
_atom_site_fract_x
_atom_site_fract_y
_atom_site_fract_z
Si Si1 0.000000 0.678763 0.750000
Si Si2 0.774011 0.378928 0.688540
Si Si3 0.471749 0.334874 0.470168
Si Si4 0.129638 0.448563 0.480283
Si Si5 0.950692 0.261717 0.060012
Si Si6 0.373210 0.959929 0.373925
Si Si7 0.824863 0.716831 0.480142
Si Si8 0.787708 0.876995 0.370509
O O1 0.102322 0.648631 0.511314
O O2 0.069877 0.710582 0.755127
O O3 0.780597 0.423062 0.578241
O O4 0.663566 0.351875 0.793160
O O5 0.747236 0.392309 0.904510
O O6 0.500000 0.322823 0.250000
O O7 0.485564 0.288996 0.540684
O O8 0.566842 0.371796 0.377504
O O9 0.114741 0.458799 0.326569
O O10 0.172199 0.492150 0.501785
O O11 0.233551 0.412273 0.339069
O O12 0.000000 0.431917 0.750000
O O13 0.832924 0.263276 0.138789
O O14 0.049311 0.288271 0.806206
O O15 0.500000 0.949477 0.250000
O O16 0.750000 0.750000 0.500000
O O17 0.764526 0.669930 0.587824
#
# Coordination Sequence:
#
# PCOD8144161 Si02
#       8
#     4   8   8   8   8   8   8   8
#     4  12  26  38  58  94 132 166 208 272 326 374
#     4  11  23  40  64  91 129 165 208 260 321 378
#     4  10  21  42  64  87 121 173 218 260 307 375
#     4  11  24  39  68  99 125 163 204 259 317 374
#     4  11  23  38  59  89 122 169 218 268 314 364
#     4  11  22  43  65  96 132 157 201 260 321 376
#     4  11  20  38  64  84 120 166 224 262 301 370
#     4  11  22  39  66  92 124 164 221 260 313 375
#
# _framework density 20.274207000000001
#
# number of rings (size 3 to 8) (size 9 to 14) (size 15 to 20)
#    0.000    1.067    4.667    4.000    3.733    0.533 
#    2.400    0.667    0.000    0.000    0.000    0.000 
#    0.000    0.000    0.000    0.000    0.000    0.000 
#
# Total GULP energy -372002.277195 kJ/mol
# GULP energy per Si atom -12400.075906 kJ/mol
# Density = 2.022806 g / cm^3
# Si number density = 20.274207 Si / 1000 Ang^3
#
#
#
# Elastic Constant Matrix: (Units=GPa)
#
#
# Indices 1 2 3 4 5 6 
#
# 1 125.9760 50.1732 34.4246 0.0000 10.0137 0.0000
# 2 50.1732 122.0688 32.9813 0.0000 -4.6458 0.0000
# 3 34.4246 32.9813 61.3031 0.0000 -5.8038 0.0000
# 4 0.0000 0.0000 0.0000 19.5962 0.0000 0.5910
# 5 10.0137 -4.6458 -5.8038 0.0000 37.0439 0.0000
# 6 0.0000 0.0000 0.0000 0.5910 0.0000 39.8358
#
#
#
# Elastic Compliance Matrix: (Units=1/GPa)
#
#
# Indices 1 2 3 4 5 6 
#
# 1 0.010885 -0.003362 -0.004692 0.000000 -0.004099 0.000000
# 2 -0.003362 0.010630 -0.003673 0.000000 0.001667 0.000000
# 3 -0.004692 -0.003673 0.021316 0.000000 0.004147 0.000000
# 4 0.000000 0.000000 0.000000 0.051053 0.000000 -0.000757
# 5 -0.004099 0.001667 0.004147 0.000000 0.028962 0.000000
# 6 0.000000 0.000000 0.000000 -0.000757 0.000000 0.025114
#
#
# Mechanical properties :
#
#
# Convention : Reuss Voigt Hill
#
# Bulk Modulus (GPa) = 51.60847 60.50067 56.05457
# Shear Modulus (GPa) = 28.10997 32.07978 30.09488
#
# Velocity S-wave (km/s) = 3.72760 3.98212 3.85696
# Velocity P-wave (km/s) = 6.63605 7.14486 6.89515
#
# Compressibility (1/GPa) = 0.01937667
#
# Stress axis : x y z
#
# Youngs Moduli (GPa) = 91.86893 94.07371 46.91383
#
# Poissons Ratio (x) = 0.31632 0.22010
# Poissons Ratio (y) = 0.30890 0.17231
# Poissons Ratio (z) = 0.43101 0.34553
#
# Static dielectric constant tensor:
#      x y z
#    x 4.083440 0.000000 -0.167960 
#    y 0.000000 3.403130 0.000000 
#    z -0.167960 0.000000 3.596670 
# 
# 
# High freq. dielectric constant tensor:
#      x y z
#    x 1.797520 0.000000 -0.000240 
#    y 0.000000 1.793460 0.000000 
#    z -0.000240 0.000000 1.771860 
# 
# From -- ./inp_files/52828.got.cif
#   From: 2010.06.25/outbox.cif.g09.slc.cpg/sg15_27_cif.got.tgz:52828.got - 2010.06.28 07:06:18.
