data_PCOD8144635
_publ_section_title
;
Structure prediction by ZEFSAII (Michael W. Deem and Ramdas Pophale) SiO2 
 PCOD8144635
Probable space group: C 2/C
;
_chemical_formula_sum "Si O2"
_cell_formula_units_Z 64
_cell_length_a 11.450501
_cell_length_b 13.961954
_cell_length_c 28.655862
_cell_angle_alpha 90.000000
_cell_angle_beta 139.929203
_cell_angle_gamma 90.000000
_cell_volume 2949.106097
_symmetry_space_group_name_H-M "C 2/C"
_symmetry_group_IT_number 15
_symmetry_cell_setting 'monoclinic'
loop_
_space_group_symop_operation_xyz
x,y,z
-x,y,1/2-z
-x,-y,-z
x,-y,1/2+z
1/2+x,1/2+y,z
1/2-x,1/2+y,1/2-z
1/2-x,1/2-y,-z
1/2+x,1/2-y,1/2+z
loop_
_atom_site_type_symbol
_atom_site_label
_atom_site_fract_x
_atom_site_fract_y
_atom_site_fract_z
Si Si1 0.299068 0.629205 0.686522
Si Si2 0.583356 0.980611 0.824519
Si Si3 0.950915 0.876111 0.939852
Si Si4 0.514675 0.781693 0.587850
Si Si5 0.251614 0.659650 0.902761
Si Si6 0.230043 0.578715 0.206052
Si Si7 0.263163 0.200704 0.929638
Si Si8 0.547701 0.291683 0.655623
O O1 0.500000 0.673537 0.750000
O O2 0.303538 0.524048 0.711608
O O3 0.257187 0.620892 0.617596
O O4 0.173937 0.702599 0.677516
O O5 0.500000 0.947910 0.750000
O O6 0.590647 0.095254 0.831584
O O7 0.793222 0.953785 0.896583
O O8 0.458104 0.933930 0.824626
O O9 0.884645 0.778120 0.941400
O O10 0.990683 0.865089 0.897594
O O11 0.140662 0.900109 0.023821
O O12 0.602684 0.687584 0.591947
O O13 0.674557 0.857946 0.644704
O O14 0.369736 0.833620 0.508823
O O15 0.425976 0.745645 0.609592
O O16 0.150086 0.753181 0.890986
O O17 0.372428 0.641826 0.278824
#
# Coordination Sequence:
#
# PCOD8144635 Si02
#       8
#     8   8   8   8   8   8   8   8
#     4  11  25  42  67  94 131 177 230 277 337 406
#     4  12  24  42  65 100 132 174 230 278 329 404
#     4  10  21  43  70  97 129 178 223 277 336 407
#     4  10  22  40  68  93 131 175 218 275 335 405
#     4  11  25  42  66  98 138 171 219 281 345 394
#     4  12  25  42  64  97 134 172 224 283 339 398
#     4   9  20  42  67  94 124 178 227 263 335 406
#     4  11  24  43  69  96 133 176 222 281 338 407
#
# _framework density 21.70149
#
# number of rings (size 3 to 8) (size 9 to 14) (size 15 to 20)
#    0.000    1.250    3.750    1.500    5.250    1.500 
#    0.000    0.000    0.000    0.000    0.000    0.000 
#    0.000    0.000    0.000    0.000    0.000    0.000 
#
# Total GULP energy -396563.556942 kJ/mol
# GULP energy per Si atom -12392.611154 kJ/mol
# Density = 2.165210 g / cm^3
# Si number density = 21.701490 Si / 1000 Ang^3
#
#
#
# Elastic Constant Matrix: (Units=GPa)
#
#
# Indices 1 2 3 4 5 6 
#
# 1 80.4414 14.4878 38.5856 0.0000 -0.9113 0.0000
# 2 14.4878 61.0228 46.7669 0.0000 -6.3982 0.0000
# 3 38.5856 46.7669 114.7842 0.0000 -12.6311 0.0000
# 4 0.0000 0.0000 0.0000 32.7397 0.0000 2.2053
# 5 -0.9113 -6.3982 -12.6311 0.0000 33.4399 0.0000
# 6 0.0000 0.0000 0.0000 2.2053 0.0000 26.0920
#
#
#
# Elastic Compliance Matrix: (Units=1/GPa)
#
#
# Indices 1 2 3 4 5 6 
#
# 1 0.014904 0.000392 -0.005339 0.000000 -0.001535 0.000000
# 2 0.000392 0.023866 -0.009757 0.000000 0.000891 0.000000
# 3 -0.005339 -0.009757 0.014879 0.000000 0.003608 0.000000
# 4 0.000000 0.000000 0.000000 0.030719 0.000000 -0.002596
# 5 -0.001535 0.000891 0.003608 0.000000 0.031396 0.000000
# 6 0.000000 0.000000 0.000000 -0.002596 0.000000 0.038545
#
#
# Mechanical properties :
#
#
# Convention : Reuss Voigt Hill
#
# Bulk Modulus (GPa) = 41.25275 50.65878 45.95577
# Shear Modulus (GPa) = 26.06913 28.88153 27.47533
#
# Velocity S-wave (km/s) = 3.46968 3.65205 3.56203
# Velocity P-wave (km/s) = 5.92470 6.41696 6.17573
#
# Compressibility (1/GPa) = 0.02424081
#
# Stress axis : x y z
#
# Youngs Moduli (GPa) = 67.09454 41.90142 67.20787
#
# Poissons Ratio (x) = -0.01643 0.35882
# Poissons Ratio (y) = -0.02631 0.65577
# Poissons Ratio (z) = 0.35821 0.40885
#
# Static dielectric constant tensor:
#      x y z
#    x 3.948210 0.000000 -0.156560 
#    y 0.000000 3.644610 0.000000 
#    z -0.156560 0.000000 4.266680 
# 
# 
# High freq. dielectric constant tensor:
#      x y z
#    x 1.859170 0.000000 -0.002330 
#    y 0.000000 1.832890 0.000000 
#    z -0.002330 0.000000 1.862690 
# 
# From -- ./inp_files/293099.got.cif
#   From: 2010.06.25/outbox.cif.g09.slc.cpg/sg15_147_cif.got.tgz:293099.got - 2010.06.28 07:06:18.
