data_PCOD8144840
_publ_section_title
;
Structure prediction by ZEFSAII (Michael W. Deem and Ramdas Pophale) SiO2 
 PCOD8144840
Probable space group: C 2/C
;
_chemical_formula_sum "Si O2"
_cell_formula_units_Z 36
_cell_length_a 16.086650
_cell_length_b 11.470460
_cell_length_c 10.808409
_cell_angle_alpha 90.000000
_cell_angle_beta 133.161248
_cell_angle_gamma 90.000000
_cell_volume 1454.764534
_symmetry_space_group_name_H-M "C 2/C"
_symmetry_group_IT_number 15
_symmetry_cell_setting 'monoclinic'
loop_
_space_group_symop_operation_xyz
x,y,z
-x,y,1/2-z
-x,-y,-z
x,-y,1/2+z
1/2+x,1/2+y,z
1/2-x,1/2+y,1/2-z
1/2-x,1/2-y,-z
1/2+x,1/2-y,1/2+z
loop_
_atom_site_type_symbol
_atom_site_label
_atom_site_fract_x
_atom_site_fract_y
_atom_site_fract_z
Si Si1 0.840959 0.585539 0.922944
Si Si2 0.000000 0.166225 0.250000
Si Si3 0.599967 0.477274 0.198383
Si Si4 0.948843 0.351756 0.007967
Si Si5 0.885629 0.727843 0.190561
O O1 0.720902 0.535847 0.749588
O O2 0.916722 0.649420 0.895904
O O3 0.914713 0.472248 0.040682
O O4 0.800066 0.678155 0.993439
O O5 0.067958 0.244975 0.417012
O O6 0.098892 0.087197 0.289743
O O7 0.583710 0.363389 0.265983
O O8 0.500000 0.500000 0.000000
O O9 0.865841 0.330249 0.805107
O O10 0.000000 0.668106 0.250000
#
# Coordination Sequence:
#
# PCOD8144840 Si02
#       5
#     8   4   8   8   8
#     4  10  25  44  77  99 140 190 247 299 358 443
#     4  12  26  44  70 106 154 176 240 308 370 434
#     4  12  25  46  67 107 147 192 234 298 374 444
#     4  10  24  46  69 107 138 183 246 304 360 428
#     4  10  21  45  71  99 138 189 244 291 358 436
#
# _framework density 24.746272000000001
#
# number of rings (size 3 to 8) (size 9 to 14) (size 15 to 20)
#    0.000    1.333    3.333    0.667    7.778    4.444 
#    0.000    0.000    0.000    0.000    0.000    0.000 
#    0.000    0.000    0.000    0.000    0.000    0.000 
#
# Total GULP energy -223024.873682 kJ/mol
# GULP energy per Si atom -12390.270760 kJ/mol
# Density = 2.468995 g / cm^3
# Si number density = 24.746272 Si / 1000 Ang^3
#
#
#
# Elastic Constant Matrix: (Units=GPa)
#
#
# Indices 1 2 3 4 5 6 
#
# 1 93.7701 49.6986 56.2632 0.0000 -0.2161 0.0000
# 2 49.6986 184.4315 57.7780 0.0000 -22.6989 0.0000
# 3 56.2632 57.7780 142.7474 0.0000 -4.2864 0.0000
# 4 0.0000 0.0000 0.0000 541.9770 0.0000 1127.6149
# 5 -0.2161 -22.6989 -4.2864 0.0000 36.8329 0.0000
# 6 0.0000 0.0000 0.0000 1127.6149 0.0000 2617.1011
#
#
#
# Elastic Compliance Matrix: (Units=1/GPa)
#
#
# Indices 1 2 3 4 5 6 
#
# 1 0.015069 -0.002807 -0.004869 0.000000 -0.002208 0.000000
# 2 -0.002807 0.007231 -0.001693 0.000000 0.004243 0.000000
# 3 -0.004869 -0.001693 0.009611 0.000000 0.000047 0.000000
# 4 0.000000 0.000000 0.000000 0.017816 0.000000 -0.007676
# 5 -0.002208 0.004243 0.000047 0.000000 0.029757 0.000000
# 6 0.000000 0.000000 0.000000 -0.007676 0.000000 0.003690
#
#
# Mechanical properties :
#
#
# Convention : Reuss Voigt Hill
#
# Bulk Modulus (GPa) = 75.91717 83.15872 79.53795
# Shear Modulus (GPa) = 47.03527 656.32947 351.68237
#
# Velocity S-wave (km/s) = 4.36443 16.30335 11.93414
# Velocity P-wave (km/s) = 7.49283 19.69966 14.90334
#
# Compressibility (1/GPa) = 0.01317225
#
# Stress axis : x y z
#
# Youngs Moduli (GPa) = 66.36295 138.29355 104.04367
#
# Poissons Ratio (x) = 0.38816 0.50664
# Poissons Ratio (y) = 0.18627 0.17616
# Poissons Ratio (z) = 0.32315 0.23415
#
# Static dielectric constant tensor:
#      x y z
#    x 4.782670 0.000000 0.104020 
#    y 0.000000 4.677750 0.000000 
#    z 0.104020 0.000000 4.456630 
# 
# 
# High freq. dielectric constant tensor:
#      x y z
#    x 1.989570 0.000000 0.008140 
#    y 0.000000 2.007400 0.000000 
#    z 0.008140 0.000000 1.962770 
# 
# From -- ./inp_files/103990.got.cif
#   From: 2010.06.25/outbox.cif.g09.slc.cpg/sg15_52_cif.got.tgz:103990.got - 2010.06.28 07:06:18.
