data_PCOD8144396
_publ_section_title
;
Structure prediction by ZEFSAII (Michael W. Deem and Ramdas Pophale) SiO2 
 PCOD8144396
Probable space group: C 2/C
;
_chemical_formula_sum "Si O2"
_cell_formula_units_Z 64
_cell_length_a 17.593674
_cell_length_b 8.724099
_cell_length_c 28.300940
_cell_angle_alpha 90.000000
_cell_angle_beta 137.037552
_cell_angle_gamma 90.000000
_cell_volume 2960.437371
_symmetry_space_group_name_H-M "C 2/C"
_symmetry_group_IT_number 15
_symmetry_cell_setting 'monoclinic'
loop_
_space_group_symop_operation_xyz
x,y,z
-x,y,1/2-z
-x,-y,-z
x,-y,1/2+z
1/2+x,1/2+y,z
1/2-x,1/2+y,1/2-z
1/2-x,1/2-y,-z
1/2+x,1/2-y,1/2+z
loop_
_atom_site_type_symbol
_atom_site_label
_atom_site_fract_x
_atom_site_fract_y
_atom_site_fract_z
Si Si1 0.199818 0.402240 0.274017
Si Si2 0.038655 0.425275 0.968937
Si Si3 0.257586 0.734426 0.447781
Si Si4 0.385960 0.192224 0.319418
Si Si5 0.136803 0.726255 0.976853
Si Si6 0.266519 0.903495 0.103669
Si Si7 0.960294 0.131645 0.681218
Si Si8 0.978205 0.214093 0.165133
O O1 0.294182 0.320762 0.286407
O O2 0.173044 0.561372 0.237373
O O3 0.248186 0.434195 0.347895
O O4 0.091083 0.299033 0.229030
O O5 0.112434 0.548118 0.973829
O O6 0.931959 0.376446 0.889517
O O7 0.118559 0.278878 0.014207
O O8 0.000000 0.500000 0.000000
O O9 0.250000 0.750000 0.500000
O O10 0.224263 0.563145 0.419173
O O11 0.172448 0.851129 0.383694
O O12 0.486146 0.265817 0.335505
O O13 0.038049 0.795405 0.899291
O O14 0.250000 0.750000 0.000000
O O15 0.154064 0.815942 0.034221
O O16 0.376626 0.803950 0.143372
O O17 0.000000 0.194642 0.750000
O O18 0.991922 0.954633 0.691868
#
# Coordination Sequence:
#
# PCOD8144396 Si02
#       8
#     8   8   8   8   8   8   8   8
#     4  12  25  45  68  96 145 184 234 294 360 431
#     4  12  26  47  72 105 148 189 238 301 369 434
#     4  12  23  45  74 104 143 186 237 299 353 428
#     4  12  27  47  67 100 142 191 237 298 367 429
#     4  10  21  42  70 102 137 186 232 289 356 421
#     4  11  23  41  72 106 134 181 239 290 355 427
#     4  12  25  43  72 104 138 182 243 294 357 427
#     4  11  22  43  70 102 139 182 233 293 356 426
#
# _framework density 21.618427000000001
#
# number of rings (size 3 to 8) (size 9 to 14) (size 15 to 20)
#    0.000    0.500    2.500    7.875    0.000    3.000 
#    2.250    1.250    0.000    0.000    0.000    0.000 
#    0.000    0.000    0.000    0.000    0.000    0.000 
#
# Total GULP energy -396952.289365 kJ/mol
# GULP energy per Si atom -12404.759043 kJ/mol
# Density = 2.156922 g / cm^3
# Si number density = 21.618427 Si / 1000 Ang^3
#
#
#
# Elastic Constant Matrix: (Units=GPa)
#
#
# Indices 1 2 3 4 5 6 
#
# 1 61.9602 37.8663 31.3497 0.0000 -9.5786 0.0000
# 2 37.8663 110.1173 32.3905 0.0000 -4.1226 0.0000
# 3 31.3497 32.3905 125.1106 0.0000 -29.4396 0.0000
# 4 0.0000 0.0000 0.0000 45.0142 0.0000 4.6633
# 5 -9.5786 -4.1226 -29.4396 0.0000 33.6668 0.0000
# 6 0.0000 0.0000 0.0000 4.6633 0.0000 31.9808
#
#
#
# Elastic Compliance Matrix: (Units=1/GPa)
#
#
# Indices 1 2 3 4 5 6 
#
# 1 0.022215 -0.006589 -0.003227 0.000000 0.002692 0.000000
# 2 -0.006589 0.011829 -0.001903 0.000000 -0.002090 0.000000
# 3 -0.003227 -0.001903 0.011361 0.000000 0.008783 0.000000
# 4 0.000000 0.000000 0.000000 0.022556 0.000000 -0.003289
# 5 0.002692 -0.002090 0.008783 0.000000 0.037893 0.000000
# 6 0.000000 0.000000 0.000000 -0.003289 0.000000 0.031748
#
#
# Mechanical properties :
#
#
# Convention : Reuss Voigt Hill
#
# Bulk Modulus (GPa) = 45.52566 55.60013 50.56290
# Shear Modulus (GPa) = 29.69757 35.17111 32.43434
#
# Velocity S-wave (km/s) = 3.71039 4.03787 3.87759
# Velocity P-wave (km/s) = 6.28175 6.89303 6.59448
#
# Compressibility (1/GPa) = 0.02196563
#
# Stress axis : x y z
#
# Youngs Moduli (GPa) = 45.01396 84.54082 88.01919
#
# Poissons Ratio (x) = 0.55705 0.28407
# Poissons Ratio (y) = 0.29660 0.16752
# Poissons Ratio (z) = 0.14528 0.16090
#
# Static dielectric constant tensor:
#      x y z
#    x 4.057670 0.000000 -0.296080 
#    y 0.000000 4.036910 0.000000 
#    z -0.296080 0.000000 4.646050 
# 
# 
# High freq. dielectric constant tensor:
#      x y z
#    x 1.834120 0.000000 -0.010100 
#    y 0.000000 1.859210 0.000000 
#    z -0.010100 0.000000 1.873600 
# 
# From -- ./inp_files/315721.got.cif
#   From: 2010.06.25/outbox.cif.g09.slc.cpg/sg15_158_cif.got.tgz:315721.got - 2010.06.28 07:06:18.
