data_PCOD8144775
_publ_section_title
;
Structure prediction by ZEFSAII (Michael W. Deem and Ramdas Pophale) SiO2 
 PCOD8144775
Probable space group: C 2/C
;
_chemical_formula_sum "Si O2"
_cell_formula_units_Z 64
_cell_length_a 23.568131
_cell_length_b 17.747388
_cell_length_c 14.042981
_cell_angle_alpha 90.000000
_cell_angle_beta 148.551794
_cell_angle_gamma 90.000000
_cell_volume 3064.521662
_symmetry_space_group_name_H-M "C 2/C"
_symmetry_group_IT_number 15
_symmetry_cell_setting 'monoclinic'
loop_
_space_group_symop_operation_xyz
x,y,z
-x,y,1/2-z
-x,-y,-z
x,-y,1/2+z
1/2+x,1/2+y,z
1/2-x,1/2+y,1/2-z
1/2-x,1/2-y,-z
1/2+x,1/2-y,1/2+z
loop_
_atom_site_type_symbol
_atom_site_label
_atom_site_fract_x
_atom_site_fract_y
_atom_site_fract_z
Si Si1 0.237775 0.053003 0.183367
Si Si2 0.208138 0.184551 0.373328
Si Si3 0.214533 0.983235 0.951658
Si Si4 0.073897 0.686869 0.442681
Si Si5 0.504656 0.577370 0.645567
Si Si6 0.615117 0.980388 0.951726
Si Si7 0.484885 0.283202 0.472718
Si Si8 0.777801 0.284876 0.761756
O O1 0.265685 0.137104 0.185555
O O2 0.240071 0.995036 0.099496
O O3 0.329254 0.033981 0.391437
O O4 0.117251 0.051655 0.060399
O O5 0.250000 0.250000 0.500000
O O6 0.233571 0.104145 0.456416
O O7 0.267776 0.192935 0.357842
O O8 0.079160 0.190839 0.178429
O O9 0.302132 0.031522 0.017533
O O10 0.091345 0.010361 0.752062
O O11 0.092286 0.598173 0.470365
O O12 0.186056 0.729988 0.592333
O O13 0.000000 0.713040 0.250000
O O14 0.017624 0.708747 0.461289
O O15 0.500000 0.600069 0.750000
O O16 0.543171 0.649477 0.640514
O O17 0.500000 0.015021 0.750000
O O18 0.387317 0.260556 0.401362
#
# Coordination Sequence:
#
# PCOD8144775 Si02
#       8
#     8   8   8   8   8   8   8   8
#     4  11  24  44  70 100 138 174 230 283 345 404
#     4  11  26  49  65  97 138 175 232 280 330 414
#     4  11  25  44  73 100 134 182 223 292 346 395
#     4  10  23  40  64  98 136 170 223 273 331 415
#     4  10  21  44  71 107 136 167 223 290 348 402
#     4  11  25  44  62  98 136 181 233 274 331 413
#     4  11  23  41  71  97 137 180 219 277 343 398
#     4  11  24  44  68  98 132 178 220 278 341 404
#
# _framework density 20.884173000000001
#
# number of rings (size 3 to 8) (size 9 to 14) (size 15 to 20)
#    0.000    1.250    3.750    1.125    8.750    5.500 
#    4.500    0.000    0.000    0.000    0.000    0.000 
#    0.000    0.000    0.000    0.000    0.000    0.000 
#
# Total GULP energy -396850.704649 kJ/mol
# GULP energy per Si atom -12401.584520 kJ/mol
# Density = 2.083664 g / cm^3
# Si number density = 20.884173 Si / 1000 Ang^3
#
#
#
# Elastic Constant Matrix: (Units=GPa)
#
#
# Indices 1 2 3 4 5 6 
#
# 1 99.2544 43.9736 51.1998 0.0000 20.3401 0.0000
# 2 43.9736 98.7012 46.7284 0.0000 7.1382 0.0000
# 3 51.1998 46.7284 136.1180 0.0000 8.4264 0.0000
# 4 0.0000 0.0000 0.0000 31.1873 0.0000 -3.0684
# 5 20.3401 7.1382 8.4264 0.0000 24.6876 0.0000
# 6 0.0000 0.0000 0.0000 -3.0684 0.0000 27.0476
#
#
#
# Elastic Compliance Matrix: (Units=1/GPa)
#
#
# Indices 1 2 3 4 5 6 
#
# 1 0.016361 -0.004670 -0.003882 0.000000 -0.010804 0.000000
# 2 -0.004670 0.013541 -0.002950 0.000000 0.000939 0.000000
# 3 -0.003882 -0.002950 0.009775 0.000000 0.000715 0.000000
# 4 0.000000 0.000000 0.000000 0.032426 0.000000 0.003679
# 5 -0.010804 0.000939 0.000715 0.000000 0.048892 0.000000
# 6 0.000000 0.000000 0.000000 0.003679 0.000000 0.037389
#
#
# Mechanical properties :
#
#
# Convention : Reuss Voigt Hill
#
# Bulk Modulus (GPa) = 59.97741 68.65303 64.31522
# Shear Modulus (GPa) = 26.74573 29.39597 28.07085
#
# Velocity S-wave (km/s) = 3.58253 3.75583 3.67020
# Velocity P-wave (km/s) = 6.77452 7.19395 6.98738
#
# Compressibility (1/GPa) = 0.01667294
#
# Stress axis : x y z
#
# Youngs Moduli (GPa) = 61.12240 73.85069 102.29928
#
# Poissons Ratio (x) = 0.34487 0.39712
# Poissons Ratio (y) = 0.28543 0.30179
# Poissons Ratio (z) = 0.23728 0.21787
#
# Static dielectric constant tensor:
#      x y z
#    x 3.870620 0.000000 0.070940 
#    y 0.000000 3.746170 0.000000 
#    z 0.070940 0.000000 4.033110 
# 
# 
# High freq. dielectric constant tensor:
#      x y z
#    x 1.813080 0.000000 0.002030 
#    y 0.000000 1.821660 0.000000 
#    z 0.002030 0.000000 1.828130 
# 
# From -- ./inp_files/174252.got.cif
#   From: 2010.06.25/outbox.cif.g09.slc.cpg/sg15_88_cif.got.tgz:174252.got - 2010.06.28 07:06:18.
