data_PCOD8144450
_publ_section_title
;
Structure prediction by ZEFSAII (Michael W. Deem and Ramdas Pophale) SiO2 
 PCOD8144450
Probable space group: C 2/C
;
_chemical_formula_sum "Si O2"
_cell_formula_units_Z 32
_cell_length_a 17.709852
_cell_length_b 15.802067
_cell_length_c 5.523032
_cell_angle_alpha 90.000000
_cell_angle_beta 67.839338
_cell_angle_gamma 90.000000
_cell_volume 1431.456784
_symmetry_space_group_name_H-M "C 2/C"
_symmetry_group_IT_number 15
_symmetry_cell_setting 'monoclinic'
loop_
_space_group_symop_operation_xyz
x,y,z
-x,y,1/2-z
-x,-y,-z
x,-y,1/2+z
1/2+x,1/2+y,z
1/2-x,1/2+y,1/2-z
1/2-x,1/2-y,-z
1/2+x,1/2-y,1/2+z
loop_
_atom_site_type_symbol
_atom_site_label
_atom_site_fract_x
_atom_site_fract_y
_atom_site_fract_z
Si Si1 0.375270 0.829537 0.757716
Si Si2 0.500000 0.949585 0.750000
Si Si3 0.000000 0.265299 0.250000
Si Si4 0.586292 0.334690 0.029035
Si Si5 0.265912 0.550757 0.174370
O O1 0.416453 0.895071 0.894537
O O2 0.448246 0.827503 0.476357
O O3 0.363360 0.735093 0.876358
O O4 0.291467 0.866182 0.752039
O O5 0.500000 0.000000 0.500000
O O6 0.067028 0.205062 0.293553
O O7 0.500000 0.360361 0.250000
O O8 0.640701 0.418172 0.936934
O O9 0.249721 0.500267 0.443999
#
# Coordination Sequence:
#
# PCOD8144450 Si02
#       5
#     8   4   4   8   8
#     4  11  23  44  69 105 139 186 235 282 350 429
#     4  12  23  36  64  99 140 176 210 276 347 412
#     4  10  21  42  78  99 132 182 248 286 337 412
#     4  10  24  46  75 101 133 190 246 287 343 420
#     4  12  30  47  68 106 148 186 230 296 357 411
#
# _framework density 22.354849000000002
#
# number of rings (size 3 to 8) (size 9 to 14) (size 15 to 20)
#    0.000    1.000    3.750    3.000   10.500    2.000 
#    0.000    0.000    0.000    0.000    0.000    0.000 
#    0.000    0.000    0.000    0.000    0.000    0.000 
#
# Total GULP energy -198284.133224 kJ/mol
# GULP energy per Si atom -12392.758327 kJ/mol
# Density = 2.230397 g / cm^3
# Si number density = 22.354849 Si / 1000 Ang^3
#
#
#
# Elastic Constant Matrix: (Units=GPa)
#
#
# Indices 1 2 3 4 5 6 
#
# 1 109.6407 27.6471 24.8998 0.0000 -1.0675 0.0000
# 2 27.6471 51.2414 31.4005 0.0000 -3.9684 0.0000
# 3 24.8998 31.4005 103.2460 0.0000 27.3819 0.0000
# 4 0.0000 0.0000 0.0000 14.0780 0.0000 -8.9968
# 5 -1.0675 -3.9684 27.3819 0.0000 22.0514 0.0000
# 6 0.0000 0.0000 0.0000 -8.9968 0.0000 55.9017
#
#
#
# Elastic Compliance Matrix: (Units=1/GPa)
#
#
# Indices 1 2 3 4 5 6 
#
# 1 0.010673 -0.004645 -0.001605 0.000000 0.001674 0.000000
# 2 -0.004645 0.033800 -0.015973 0.000000 0.025692 0.000000
# 3 -0.001605 -0.015973 0.023429 0.000000 -0.032045 0.000000
# 4 0.000000 0.000000 0.000000 0.079176 0.000000 0.012743
# 5 0.001674 0.025692 -0.032045 0.000000 0.089845 0.000000
# 6 0.000000 0.000000 0.000000 0.012743 0.000000 0.019939
#
#
# Mechanical properties :
#
#
# Convention : Reuss Voigt Hill
#
# Bulk Modulus (GPa) = 42.63478 48.00255 45.31867
# Shear Modulus (GPa) = 16.17450 30.41826 23.29638
#
# Velocity S-wave (km/s) = 2.69278 3.69277 3.23169
# Velocity P-wave (km/s) = 5.36482 6.30093 5.85162
#
# Compressibility (1/GPa) = 0.02345503
#
# Stress axis : x y z
#
# Youngs Moduli (GPa) = 93.69542 29.58588 42.68129
#
# Poissons Ratio (x) = 0.13744 0.06851
# Poissons Ratio (y) = 0.43524 0.68176
# Poissons Ratio (z) = 0.15039 0.47258
#
# Static dielectric constant tensor:
#      x y z
#    x 4.175240 0.000000 0.317880 
#    y 0.000000 3.879080 0.000000 
#    z 0.317880 0.000000 5.001850 
# 
# 
# High freq. dielectric constant tensor:
#      x y z
#    x 1.888440 0.000000 0.005850 
#    y 0.000000 1.876930 0.000000 
#    z 0.005850 0.000000 1.879720 
# 
# From -- ./inp_files/6437.got.cif
#   From: 2010.06.25/outbox.cif.g09.slc.cpg/sg15_4_cif.got.tgz:6437.got - 2010.06.28 07:06:18.
