data_PCOD8144779
_publ_section_title
;
Structure prediction by ZEFSAII (Michael W. Deem and Ramdas Pophale) SiO2 
 PCOD8144779
Probable space group: C 2/C
;
_chemical_formula_sum "Si O2"
_cell_formula_units_Z 40
_cell_length_a 10.889892
_cell_length_b 14.787219
_cell_length_c 11.703365
_cell_angle_alpha 90.000000
_cell_angle_beta 108.602647
_cell_angle_gamma 90.000000
_cell_volume 1786.143320
_symmetry_space_group_name_H-M "C 2/C"
_symmetry_group_IT_number 15
_symmetry_cell_setting 'monoclinic'
loop_
_space_group_symop_operation_xyz
x,y,z
-x,y,1/2-z
-x,-y,-z
x,-y,1/2+z
1/2+x,1/2+y,z
1/2-x,1/2+y,1/2-z
1/2-x,1/2-y,-z
1/2+x,1/2-y,1/2+z
loop_
_atom_site_type_symbol
_atom_site_label
_atom_site_fract_x
_atom_site_fract_y
_atom_site_fract_z
Si Si1 0.400165 0.755184 0.053145
Si Si2 0.866296 0.899552 0.706825
Si Si3 0.376240 0.954373 0.018934
Si Si4 0.735320 0.879425 0.905334
Si Si5 0.935668 0.210852 0.617214
O O1 0.432059 0.688120 0.164931
O O2 0.250000 0.750000 0.000000
O O3 0.431055 0.860818 0.087862
O O4 0.460588 0.723074 0.951810
O O5 0.742933 0.941329 0.605513
O O6 0.822960 0.871339 0.819962
O O7 0.000000 0.962015 0.750000
O O8 0.500000 0.000000 0.000000
O O9 0.322043 0.019484 0.102182
O O10 0.618793 0.808684 0.862987
O O11 0.821485 0.855934 0.042525
O O12 0.000000 0.168274 0.750000
#
# Coordination Sequence:
#
# PCOD8144779 Si02
#       5
#     8   8   8   8   8
#     4  10  21  44  71  98 138 188 234 283 362 427
#     4  11  24  47  70  99 150 188 234 297 359 435
#     4  11  24  45  71 106 140 185 244 299 357 420
#     4  11  25  44  69 107 141 183 240 297 356 422
#     4  11  22  43  73  98 142 188 235 286 359 427
#
# _framework density 22.39462
#
# number of rings (size 3 to 8) (size 9 to 14) (size 15 to 20)
#    0.000    1.200    4.000    2.400    0.000    1.600 
#   18.000    0.000    0.000    0.000    0.000    0.000 
#    0.000    0.000    0.000    0.000    0.000    0.000 
#
# Total GULP energy -247793.095530 kJ/mol
# GULP energy per Si atom -12389.654777 kJ/mol
# Density = 2.234365 g / cm^3
# Si number density = 22.394620 Si / 1000 Ang^3
#
#
#
# Elastic Constant Matrix: (Units=GPa)
#
#
# Indices 1 2 3 4 5 6 
#
# 1 157.6506 33.8939 50.1895 0.0000 -11.7596 0.0000
# 2 33.8939 98.1106 20.2948 0.0000 -22.3217 0.0000
# 3 50.1895 20.2948 115.7295 0.0000 -13.5642 0.0000
# 4 0.0000 0.0000 0.0000 11.7392 0.0000 -5.2340
# 5 -11.7596 -22.3217 -13.5642 0.0000 50.8465 0.0000
# 6 0.0000 0.0000 0.0000 -5.2340 0.0000 31.0121
#
#
#
# Elastic Compliance Matrix: (Units=1/GPa)
#
#
# Indices 1 2 3 4 5 6 
#
# 1 0.007739 -0.002033 -0.002988 0.000000 0.000100 0.000000
# 2 -0.002033 0.012098 -0.000694 0.000000 0.004656 0.000000
# 3 -0.002988 -0.000694 0.010263 0.000000 0.001742 0.000000
# 4 0.000000 0.000000 0.000000 0.092117 0.000000 0.015547
# 5 0.000100 0.004656 0.001742 0.000000 0.022199 0.000000
# 6 0.000000 0.000000 0.000000 0.015547 0.000000 0.034869
#
#
# Mechanical properties :
#
#
# Convention : Reuss Voigt Hill
#
# Bulk Modulus (GPa) = 53.56400 64.47188 59.01794
# Shear Modulus (GPa) = 25.38888 36.52706 30.95797
#
# Velocity S-wave (km/s) = 3.37071 4.04302 3.72208
# Velocity P-wave (km/s) = 6.25452 7.11662 6.69945
#
# Compressibility (1/GPa) = 0.01866925
#
# Stress axis : x y z
#
# Youngs Moduli (GPa) = 129.21772 82.66101 97.44138
#
# Poissons Ratio (x) = 0.16802 0.29115
# Poissons Ratio (y) = 0.26265 0.06766
# Poissons Ratio (z) = 0.38610 0.05739
#
# Static dielectric constant tensor:
#      x y z
#    x 4.222900 0.000000 0.035370 
#    y 0.000000 3.064500 0.000000 
#    z 0.035370 0.000000 3.689280 
# 
# 
# High freq. dielectric constant tensor:
#      x y z
#    x 1.914840 0.000000 0.009190 
#    y 0.000000 1.869880 0.000000 
#    z 0.009190 0.000000 1.878810 
# 
# From -- ./inp_files/86246.got.cif
#   From: 2010.06.25/outbox.cif.g09.slc.cpg/sg15_44_cif.got.tgz:86246.got - 2010.06.28 07:06:18.
