data_PCOD8144725
_publ_section_title
;
Structure prediction by ZEFSAII (Michael W. Deem and Ramdas Pophale) SiO2 
 PCOD8144725
Probable space group: C 2/C
;
_chemical_formula_sum "Si O2"
_cell_formula_units_Z 48
_cell_length_a 10.918226
_cell_length_b 15.620694
_cell_length_c 17.694866
_cell_angle_alpha 90.000000
_cell_angle_beta 130.372155
_cell_angle_gamma 90.000000
_cell_volume 2299.169429
_symmetry_space_group_name_H-M "C 2/C"
_symmetry_group_IT_number 15
_symmetry_cell_setting 'monoclinic'
loop_
_space_group_symop_operation_xyz
x,y,z
-x,y,1/2-z
-x,-y,-z
x,-y,1/2+z
1/2+x,1/2+y,z
1/2-x,1/2+y,1/2-z
1/2-x,1/2-y,-z
1/2+x,1/2-y,1/2+z
loop_
_atom_site_type_symbol
_atom_site_label
_atom_site_fract_x
_atom_site_fract_y
_atom_site_fract_z
Si Si1 0.676162 0.145503 0.095808
Si Si2 0.097664 0.067520 0.588039
Si Si3 0.064451 0.234213 0.924923
Si Si4 0.652119 0.971251 0.722406
Si Si5 0.500000 0.746444 0.250000
Si Si6 0.000000 0.329345 0.750000
Si Si7 0.110068 0.613317 0.896472
O O1 0.526744 0.208326 0.049928
O O2 0.661601 0.060321 0.140054
O O3 0.668203 0.119523 0.005487
O O4 0.842531 0.188502 0.187285
O O5 0.228721 0.114701 0.588758
O O6 0.975130 0.135227 0.575444
O O7 0.186893 0.022746 0.694055
O O8 0.000000 0.000000 0.500000
O O9 0.023370 0.262814 0.825264
O O10 0.250000 0.250000 0.000000
O O11 0.642504 0.892808 0.778862
O O12 0.490231 0.028041 0.661504
O O13 0.497113 0.805487 0.173081
#
# Coordination Sequence:
#
# PCOD8144725 Si02
#       7
#     8   8   8   8   4   4   8
#     4  11  27  41  73 104 133 181 232 297 345 415
#     4  12  25  42  70 100 139 186 234 283 354 422
#     4  11  25  44  65 101 135 182 225 284 346 413
#     4  11  22  46  68  99 137 184 228 290 348 413
#     4  12  23  46  69 100 138 174 238 286 351 414
#     4  10  21  44  67  92 138 178 228 274 347 404
#     4  12  23  47  70 101 137 183 235 287 357 410
#
# _framework density 20.877103999999999
#
# number of rings (size 3 to 8) (size 9 to 14) (size 15 to 20)
#    0.000    0.667    5.000    2.000    4.667    4.000 
#    3.000    0.000    0.000    0.000    0.000    0.000 
#    0.000    0.000    0.000    0.000    0.000    0.000 
#
# Total GULP energy -297548.128535 kJ/mol
# GULP energy per Si atom -12397.838689 kJ/mol
# Density = 2.082959 g / cm^3
# Si number density = 20.877104 Si / 1000 Ang^3
#
#
#
# Elastic Constant Matrix: (Units=GPa)
#
#
# Indices 1 2 3 4 5 6 
#
# 1 96.8446 59.3669 53.7287 0.0000 8.4526 0.0000
# 2 59.3669 127.4930 64.8521 0.0000 6.4635 0.0000
# 3 53.7287 64.8521 107.2477 0.0000 7.7973 0.0000
# 4 0.0000 0.0000 0.0000 38.1319 0.0000 -5.6364
# 5 8.4526 6.4635 7.7973 0.0000 45.3007 0.0000
# 6 0.0000 0.0000 0.0000 -5.6364 0.0000 37.6900
#
#
#
# Elastic Compliance Matrix: (Units=1/GPa)
#
#
# Indices 1 2 3 4 5 6 
#
# 1 0.016291 -0.004931 -0.005073 0.000000 -0.001463 0.000000
# 2 -0.004931 0.012829 -0.005287 0.000000 0.000000 0.000000
# 3 -0.005073 -0.005287 0.015129 0.000000 -0.000903 0.000000
# 4 0.000000 0.000000 0.000000 0.026818 0.000000 0.004011
# 5 -0.001463 0.000000 -0.000903 0.000000 0.022503 0.000000
# 6 0.000000 0.000000 0.000000 0.004011 0.000000 0.027132
#
#
# Mechanical properties :
#
#
# Convention : Reuss Voigt Hill
#
# Bulk Modulus (GPa) = 73.17713 76.38673 74.78193
# Shear Modulus (GPa) = 32.08415 34.46702 33.27559
#
# Velocity S-wave (km/s) = 3.92447 4.06759 3.99667
# Velocity P-wave (km/s) = 7.46075 7.66346 7.56278
#
# Compressibility (1/GPa) = 0.01366547
#
# Stress axis : x y z
#
# Youngs Moduli (GPa) = 61.38403 77.94671 66.09947
#
# Poissons Ratio (x) = 0.38436 0.33534
# Poissons Ratio (y) = 0.30269 0.34950
# Poissons Ratio (z) = 0.31142 0.41214
#
# Static dielectric constant tensor:
#      x y z
#    x 3.827970 0.000000 0.043960 
#    y 0.000000 3.850510 0.000000 
#    z 0.043960 0.000000 3.767220 
# 
# 
# High freq. dielectric constant tensor:
#      x y z
#    x 1.816710 0.000000 -0.003100 
#    y 0.000000 1.829110 0.000000 
#    z -0.003100 0.000000 1.825150 
# 
# From -- ./inp_files/269614.got.cif
#   From: 2010.06.25/outbox.cif.g09.slc.cpg/sg15_135_cif.got.tgz:269614.got - 2010.06.28 07:06:18.
