data_PCOD8144993
_publ_section_title
;
Structure prediction by ZEFSAII (Michael W. Deem and Ramdas Pophale) SiO2 
 PCOD8144993
Probable space group: C 2/C
;
_chemical_formula_sum "Si O2"
_cell_formula_units_Z 56
_cell_length_a 10.948307
_cell_length_b 10.609418
_cell_length_c 27.375485
_cell_angle_alpha 90.000000
_cell_angle_beta 52.183690
_cell_angle_gamma 90.000000
_cell_volume 2511.983170
_symmetry_space_group_name_H-M "C 2/C"
_symmetry_group_IT_number 15
_symmetry_cell_setting 'monoclinic'
loop_
_space_group_symop_operation_xyz
x,y,z
-x,y,1/2-z
-x,-y,-z
x,-y,1/2+z
1/2+x,1/2+y,z
1/2-x,1/2+y,1/2-z
1/2-x,1/2-y,-z
1/2+x,1/2-y,1/2+z
loop_
_atom_site_type_symbol
_atom_site_label
_atom_site_fract_x
_atom_site_fract_y
_atom_site_fract_z
Si Si1 0.110746 0.619372 0.306521
Si Si2 0.555152 0.875446 0.181931
Si Si3 0.129664 0.827438 0.943394
Si Si4 0.657240 0.482236 0.188801
Si Si5 0.408254 0.655719 0.889328
Si Si6 0.814212 0.235767 0.180544
Si Si7 0.610407 0.392342 0.429667
O O1 0.205237 0.580121 0.332256
O O2 0.225101 0.624075 0.231254
O O3 0.977056 0.518157 0.328049
O O4 0.036038 0.755360 0.332592
O O5 0.500000 0.856967 0.250000
O O6 0.466456 0.773017 0.172077
O O7 0.734541 0.837718 0.132541
O O8 0.259447 0.742395 0.937967
O O9 0.126190 0.805697 0.886646
O O10 0.156547 0.976531 0.944542
O O11 0.964113 0.799353 0.010716
O O12 0.500000 0.537169 0.250000
O O13 0.640416 0.458462 0.134911
O O14 0.694834 0.350784 0.206254
O O15 0.478334 0.592086 0.920340
#
# Coordination Sequence:
#
# PCOD8144993 Si02
#       7
#     8   8   8   8   8   8   8
#     4  11  22  37  64  92 126 162 200 261 318 360
#     4  11  23  38  62  96 124 156 211 254 310 384
#     4  10  23  42  64  87 123 170 208 257 306 366
#     4  10  22  36  58  93 126 156 208 251 313 379
#     4  11  22  42  65  90 127 166 204 263 312 366
#     4  10  22  39  60  89 128 166 199 256 320 360
#     4  11  23  41  66  92 118 166 217 246 311 380
#
# _framework density 22.293142
#
# number of rings (size 3 to 8) (size 9 to 14) (size 15 to 20)
#    0.000    1.429    2.857    2.143    6.000    2.286 
#    0.000    0.000    0.000    3.429    0.000    0.000 
#    0.000    0.000    0.000    0.000    0.000    0.000 
#
# Total GULP energy -347160.956678 kJ/mol
# GULP energy per Si atom -12398.605596 kJ/mol
# Density = 2.224240 g / cm^3
# Si number density = 22.293142 Si / 1000 Ang^3
#
#
#
# Elastic Constant Matrix: (Units=GPa)
#
#
# Indices 1 2 3 4 5 6 
#
# 1 109.9905 14.1091 44.4007 0.0000 -1.5384 0.0000
# 2 14.1091 36.1426 13.2136 0.0000 -2.4480 0.0000
# 3 44.4007 13.2136 139.9581 0.0000 -13.5026 0.0000
# 4 0.0000 0.0000 0.0000 4.4735 0.0000 8.3769
# 5 -1.5384 -2.4480 -13.5026 0.0000 29.4743 0.0000
# 6 0.0000 0.0000 0.0000 8.3769 0.0000 21.1790
#
#
#
# Elastic Compliance Matrix: (Units=1/GPa)
#
#
# Indices 1 2 3 4 5 6 
#
# 1 0.010782 -0.003104 -0.003241 0.000000 -0.001180 0.000000
# 2 -0.003104 0.029591 -0.001661 0.000000 0.001535 0.000000
# 3 -0.003241 -0.001661 0.008684 0.000000 0.003671 0.000000
# 4 0.000000 0.000000 0.000000 0.861972 0.000000 -0.340935
# 5 -0.001180 0.001535 0.003671 0.000000 0.035676 0.000000
# 6 0.000000 0.000000 0.000000 -0.340935 0.000000 0.182067
#
#
# Mechanical properties :
#
#
# Convention : Reuss Voigt Hill
#
# Bulk Modulus (GPa) = 30.26185 47.72645 38.99415
# Shear Modulus (GPa) = 4.32601 25.31655 14.82128
#
# Velocity S-wave (km/s) = 1.39453 3.37355 2.58124
# Velocity P-wave (km/s) = 4.02454 6.05223 5.13938
#
# Compressibility (1/GPa) = 0.03304491
#
# Stress axis : x y z
#
# Youngs Moduli (GPa) = 92.74939 33.79405 115.15104
#
# Poissons Ratio (x) = 0.10489 0.37323
# Poissons Ratio (y) = 0.28788 0.19126
# Poissons Ratio (z) = 0.30062 0.05613
#
# Static dielectric constant tensor:
#      x y z
#    x 4.233770 0.000000 -0.009690 
#    y 0.000000 3.929940 0.000000 
#    z -0.009690 0.000000 4.113210 
# 
# 
# High freq. dielectric constant tensor:
#      x y z
#    x 1.885390 0.000000 -0.001700 
#    y 0.000000 1.860010 0.000000 
#    z -0.001700 0.000000 1.873700 
# 
# From -- ./inp_files/292207.got.cif
#   From: 2010.06.25/outbox.cif.g09.slc.cpg/sg15_147_cif.got.tgz:292207.got - 2010.06.28 07:06:18.
