data_PCOD8144855
_publ_section_title
;
Structure prediction by ZEFSAII (Michael W. Deem and Ramdas Pophale) SiO2 
 PCOD8144855
Probable space group: C 2/C
;
_chemical_formula_sum "Si O2"
_cell_formula_units_Z 60
_cell_length_a 12.790642
_cell_length_b 13.644772
_cell_length_c 17.374833
_cell_angle_alpha 90.000000
_cell_angle_beta 76.988791
_cell_angle_gamma 90.000000
_cell_volume 2954.497144
_symmetry_space_group_name_H-M "C 2/C"
_symmetry_group_IT_number 15
_symmetry_cell_setting 'monoclinic'
loop_
_space_group_symop_operation_xyz
x,y,z
-x,y,1/2-z
-x,-y,-z
x,-y,1/2+z
1/2+x,1/2+y,z
1/2-x,1/2+y,1/2-z
1/2-x,1/2-y,-z
1/2+x,1/2-y,1/2+z
loop_
_atom_site_type_symbol
_atom_site_label
_atom_site_fract_x
_atom_site_fract_y
_atom_site_fract_z
Si Si1 0.670582 0.219098 0.825234
Si Si2 0.796023 0.512497 0.750813
Si Si3 0.377936 0.380513 0.789606
Si Si4 0.557282 0.318109 0.974239
Si Si5 0.274052 0.524108 0.071715
Si Si6 0.863770 0.708912 0.392031
Si Si7 0.673843 0.658415 0.027327
Si Si8 0.500000 0.119301 0.250000
O O1 0.660607 0.110289 0.795353
O O2 0.659075 0.289868 0.755080
O O3 0.576457 0.239730 0.902497
O O4 0.783932 0.237757 0.846692
O O5 0.702241 0.470246 0.712418
O O6 0.747225 0.529612 0.843596
O O7 0.897832 0.442377 0.740620
O O8 0.500000 0.411797 0.750000
O O9 0.367050 0.347571 0.879153
O O10 0.609798 0.422869 0.943478
O O11 0.430996 0.329883 0.009138
O O12 0.613418 0.281039 0.042142
O O13 0.185426 0.606981 0.068171
O O14 0.267142 0.442200 0.006558
O O15 0.972521 0.686868 0.327789
O O16 0.750000 0.750000 0.000000
#
# Coordination Sequence:
#
# PCOD8144855 Si02
#       8
#     8   8   8   8   8   8   8   4
#     4  11  22  44  66  96 126 176 218 266 329 398
#     4  11  24  40  70  94 130 171 219 272 331 388
#     4  12  24  46  64  95 136 173 219 267 330 398
#     4  11  23  43  66  93 128 177 212 271 329 388
#     4  10  21  46  64  92 128 169 216 270 321 382
#     4  10  23  42  67  92 129 169 223 269 326 389
#     4  12  27  40  65  98 133 170 217 273 328 391
#     4  10  22  44  62  98 132 170 208 284 326 388
#
# _framework density 20.308022999999999
#
# number of rings (size 3 to 8) (size 9 to 14) (size 15 to 20)
#    0.000    1.067    5.333    2.800    6.533    3.200 
#    1.200    1.333    0.000    0.000    0.000    0.000 
#    0.000    0.000    0.000    0.000    0.000    0.000 
#
# Total GULP energy -372077.607735 kJ/mol
# GULP energy per Si atom -12402.586924 kJ/mol
# Density = 2.026180 g / cm^3
# Si number density = 20.308023 Si / 1000 Ang^3
#
#
#
# Elastic Constant Matrix: (Units=GPa)
#
#
# Indices 1 2 3 4 5 6 
#
# 1 71.5845 -2.3389 32.6325 0.0000 -2.1523 0.0000
# 2 -2.3389 60.9246 34.5301 0.0000 -3.4460 0.0000
# 3 32.6325 34.5301 105.3967 0.0000 -5.8352 0.0000
# 4 0.0000 0.0000 0.0000 38.0556 0.0000 1.2463
# 5 -2.1523 -3.4460 -5.8352 0.0000 35.9615 0.0000
# 6 0.0000 0.0000 0.0000 1.2463 0.0000 10.7912
#
#
#
# Elastic Compliance Matrix: (Units=1/GPa)
#
#
# Indices 1 2 3 4 5 6 
#
# 1 0.017229 0.004536 -0.006800 0.000000 0.000362 0.000000
# 2 0.004536 0.021378 -0.008355 0.000000 0.000964 0.000000
# 3 -0.006800 -0.008355 0.014393 0.000000 0.001128 0.000000
# 4 0.000000 0.000000 0.000000 0.026377 0.000000 -0.003046
# 5 0.000362 0.000964 0.001128 0.000000 0.028105 0.000000
# 6 0.000000 0.000000 0.000000 -0.003046 0.000000 0.093020
#
#
# Mechanical properties :
#
#
# Convention : Reuss Voigt Hill
#
# Bulk Modulus (GPa) = 31.48486 40.83926 36.16206
# Shear Modulus (GPa) = 21.52144 28.50046 25.01095
#
# Velocity S-wave (km/s) = 3.25891 3.75027 3.51319
# Velocity P-wave (km/s) = 5.44959 6.23749 5.85680
#
# Compressibility (1/GPa) = 0.03176129
#
# Stress axis : x y z
#
# Youngs Moduli (GPa) = 58.04301 46.77783 69.47773
#
# Poissons Ratio (x) = -0.21219 0.47247
# Poissons Ratio (y) = -0.26329 0.58047
# Poissons Ratio (z) = 0.39471 0.39082
#
# Static dielectric constant tensor:
#      x y z
#    x 3.747670 0.000000 -0.146470 
#    y 0.000000 3.636300 0.000000 
#    z -0.146470 0.000000 3.890260 
# 
# 
# High freq. dielectric constant tensor:
#      x y z
#    x 1.795820 0.000000 -0.005430 
#    y 0.000000 1.787490 0.000000 
#    z -0.005430 0.000000 1.805770 
# 
# From -- ./inp_files/197853.got.cif
#   From: 2010.06.25/outbox.cif.g09.slc.cpg/sg15_99_cif.got.tgz:197853.got - 2010.06.28 07:06:18.
