data_PCOD8144481
_publ_section_title
;
Structure prediction by ZEFSAII (Michael W. Deem and Ramdas Pophale) SiO2 
 PCOD8144481
Probable space group: C 2/C
;
_chemical_formula_sum "Si O2"
_cell_formula_units_Z 48
_cell_length_a 8.847365
_cell_length_b 15.316844
_cell_length_c 26.381283
_cell_angle_alpha 90.000000
_cell_angle_beta 139.976894
_cell_angle_gamma 90.000000
_cell_volume 2299.086345
_symmetry_space_group_name_H-M "C 2/C"
_symmetry_group_IT_number 15
_symmetry_cell_setting 'monoclinic'
loop_
_space_group_symop_operation_xyz
x,y,z
-x,y,1/2-z
-x,-y,-z
x,-y,1/2+z
1/2+x,1/2+y,z
1/2-x,1/2+y,1/2-z
1/2-x,1/2-y,-z
1/2+x,1/2-y,1/2+z
loop_
_atom_site_type_symbol
_atom_site_label
_atom_site_fract_x
_atom_site_fract_y
_atom_site_fract_z
Si Si1 0.796921 0.571260 0.947329
Si Si2 0.997623 0.794531 0.688705
Si Si3 0.011241 0.090548 0.974261
Si Si4 0.411007 0.235807 0.492107
Si Si5 0.513693 0.107762 0.694894
Si Si6 0.094895 0.980376 0.719265
O O1 0.706531 0.587906 0.980866
O O2 0.576671 0.540286 0.857606
O O3 0.000000 0.500000 0.000000
O O4 0.899406 0.659578 0.949048
O O5 0.123850 0.702361 0.706325
O O6 0.126635 0.883338 0.702338
O O7 0.000000 0.794026 0.750000
O O8 0.738924 0.793399 0.596156
O O9 0.062313 0.175209 0.022488
O O10 0.751118 0.106962 0.889430
O O11 0.000000 0.000000 0.000000
O O12 0.250000 0.250000 0.500000
O O13 0.500000 0.092079 0.750000
O O14 0.658644 0.028268 0.708701
O O15 0.000000 0.962116 0.750000
#
# Coordination Sequence:
#
# PCOD8144481 Si02
#       6
#     8   8   8   8   8   8
#     4  12  24  43  67  96 133 172 225 272 334 394
#     4   9  21  41  65  89 128 174 211 268 332 390
#     4  11  25  42  66  97 133 177 217 273 334 394
#     4  11  24  42  69  98 136 171 222 283 333 395
#     4  10  21  43  64  89 130 166 216 268 327 390
#     4  11  24  41  67  96 128 174 219 272 334 399
#
# _framework density 20.877858
#
# number of rings (size 3 to 8) (size 9 to 14) (size 15 to 20)
#    0.000    1.333    3.333    1.500    7.000    0.000 
#    3.000    0.833    0.000    0.000    0.000    0.000 
#    0.000    0.000    0.000    0.000    0.000    0.000 
#
# Total GULP energy -297346.748452 kJ/mol
# GULP energy per Si atom -12389.447852 kJ/mol
# Density = 2.083034 g / cm^3
# Si number density = 20.877858 Si / 1000 Ang^3
#
#
#
# Elastic Constant Matrix: (Units=GPa)
#
#
# Indices 1 2 3 4 5 6 
#
# 1 120.1578 64.9354 11.5084 0.0000 5.4723 0.0000
# 2 64.9354 205.7861 10.2600 0.0000 12.3379 0.0000
# 3 11.5084 10.2600 37.3901 -0.0001 -8.4210 0.0000
# 4 0.0000 0.0000 -0.0001 38.5960 -0.0001 4.0604
# 5 5.4723 12.3379 -8.4210 -0.0001 30.9067 0.0000
# 6 0.0000 0.0000 0.0000 4.0604 0.0000 40.0430
#
#
#
# Elastic Compliance Matrix: (Units=1/GPa)
#
#
# Indices 1 2 3 4 5 6 
#
# 1 0.010272 -0.003031 -0.002629 0.000000 -0.001325 0.000000
# 2 -0.003031 0.006007 -0.001209 0.000000 -0.002191 0.000000
# 3 -0.002629 -0.001209 0.029936 0.000000 0.009105 0.000000
# 4 0.000000 0.000000 0.000000 0.026189 0.000000 -0.002656
# 5 -0.001325 -0.002191 0.009105 0.000000 0.035945 0.000000
# 6 0.000000 0.000000 0.000000 -0.002656 0.000000 0.025242
#
#
# Mechanical properties :
#
#
# Convention : Reuss Voigt Hill
#
# Bulk Modulus (GPa) = 30.78879 59.63796 45.21337
# Shear Modulus (GPa) = 31.61427 40.35114 35.98271
#
# Velocity S-wave (km/s) = 3.89556 4.40105 4.15599
# Velocity P-wave (km/s) = 5.91717 7.37921 6.68826
#
# Compressibility (1/GPa) = 0.03247935
#
# Stress axis : x y z
#
# Youngs Moduli (GPa) = 97.34753 166.45959 33.40418
#
# Poissons Ratio (x) = 0.50453 0.08780
# Poissons Ratio (y) = 0.29506 0.04039
# Poissons Ratio (z) = 0.25588 0.20125
#
# Static dielectric constant tensor:
#      x y z
#    x 3.625560 0.000000 -0.028220 
#    y 0.000000 4.173190 0.000000 
#    z -0.028220 0.000000 3.562840 
# 
# 
# High freq. dielectric constant tensor:
#      x y z
#    x 1.790980 0.000000 -0.012590 
#    y 0.000000 1.855050 0.000000 
#    z -0.012590 0.000000 1.814180 
# 
# From -- ./inp_files/289110.got.cif
#   From: 2010.06.25/outbox.cif.g09.slc.cpg/sg15_145_cif.got.tgz:289110.got - 2010.06.28 07:06:18.
