data_PCOD8144575
_publ_section_title
;
Structure prediction by ZEFSAII (Michael W. Deem and Ramdas Pophale) SiO2 
 PCOD8144575
Probable space group: C 2/C
;
_chemical_formula_sum "Si O2"
_cell_formula_units_Z 64
_cell_length_a 18.274781
_cell_length_b 26.880720
_cell_length_c 12.276981
_cell_angle_alpha 90.000000
_cell_angle_beta 28.487640
_cell_angle_gamma 90.000000
_cell_volume 2876.570146
_symmetry_space_group_name_H-M "C 2/C"
_symmetry_group_IT_number 15
_symmetry_cell_setting 'monoclinic'
loop_
_space_group_symop_operation_xyz
x,y,z
-x,y,1/2-z
-x,-y,-z
x,-y,1/2+z
1/2+x,1/2+y,z
1/2-x,1/2+y,1/2-z
1/2-x,1/2-y,-z
1/2+x,1/2-y,1/2+z
loop_
_atom_site_type_symbol
_atom_site_label
_atom_site_fract_x
_atom_site_fract_y
_atom_site_fract_z
Si Si1 0.256782 0.671374 0.354883
Si Si2 0.167393 0.365884 0.583806
Si Si3 0.836896 0.567880 0.071923
Si Si4 0.220548 0.335142 0.143119
Si Si5 0.177333 0.551919 0.648026
Si Si6 0.676710 0.451838 0.990512
Si Si7 0.597102 0.319497 0.387975
Si Si8 0.901990 0.292449 0.635509
O O1 0.140135 0.625344 0.492331
O O2 0.239893 0.692040 0.500337
O O3 0.205902 0.710984 0.330547
O O4 0.431218 0.654608 0.103840
O O5 0.216767 0.418858 0.569480
O O6 0.285040 0.352381 0.334625
O O7 0.176417 0.322772 0.663316
O O8 0.000000 0.371173 0.750000
O O9 0.699082 0.565732 0.337532
O O10 0.794924 0.539662 0.015872
O O11 0.996503 0.548132 0.913526
O O12 0.239971 0.394613 0.103480
O O13 0.351815 0.316600 0.053002
O O14 0.060047 0.320029 0.405166
O O15 0.272836 0.509223 0.581906
O O16 0.500000 0.445227 0.250000
O O17 0.576462 0.264980 0.360262
#
# Coordination Sequence:
#
# PCOD8144575 Si02
#       8
#     8   8   8   8   8   8   8   8
#     4  11  23  41  71  96 138 179 227 288 347 417
#     4  12  27  47  69  96 142 190 239 292 350 428
#     4  10  21  43  67  98 133 185 227 282 346 424
#     4  11  23  45  68 103 142 182 230 289 355 423
#     4  10  23  41  73  98 138 185 234 285 356 420
#     4  12  26  44  72 105 137 182 236 298 354 417
#     4  12  27  42  68 105 142 177 235 298 350 412
#     4  12  24  46  70  99 136 191 234 281 356 429
#
# _framework density 22.248719000000001
#
# number of rings (size 3 to 8) (size 9 to 14) (size 15 to 20)
#    0.000    0.750    3.750    3.000    1.750    6.500 
#    0.000    0.000    0.000    0.000    0.000    0.000 
#    0.000    0.000    0.000    0.000    0.000    0.000 
#
# Total GULP energy -396802.166961 kJ/mol
# GULP energy per Si atom -12400.067718 kJ/mol
# Density = 2.219808 g / cm^3
# Si number density = 22.248719 Si / 1000 Ang^3
#
#
#
# Elastic Constant Matrix: (Units=GPa)
#
#
# Indices 1 2 3 4 5 6 
#
# 1 83.4859 27.1884 25.1111 -0.0280 -1.9771 0.0129
# 2 27.1884 94.2118 11.9789 -0.0020 -2.4635 -0.0009
# 3 25.1111 11.9789 112.8331 -0.0212 8.0248 0.0149
# 4 -0.0280 -0.0020 -0.0212 21.6887 0.0224 -1.7097
# 5 -1.9771 -2.4635 8.0248 0.0224 32.3282 -0.0203
# 6 0.0129 -0.0009 0.0149 -1.7097 -0.0203 20.8038
#
#
#
# Elastic Compliance Matrix: (Units=1/GPa)
#
#
# Indices 1 2 3 4 5 6 
#
# 1 0.014052 -0.003662 -0.002830 0.000013 0.001283 -0.000004
# 2 -0.003662 0.011754 -0.000489 -0.000005 0.000793 0.000003
# 3 -0.002830 -0.000489 0.009731 0.000008 -0.002626 -0.000007
# 4 0.000013 -0.000005 0.000008 0.046408 -0.000031 0.003814
# 5 0.001283 0.000793 -0.002626 -0.000031 0.031724 0.000030
# 6 -0.000004 0.000003 -0.000007 0.003814 0.000030 0.048382
#
#
# Mechanical properties :
#
#
# Convention : Reuss Voigt Hill
#
# Bulk Modulus (GPa) = 46.34923 46.56530 46.45726
# Shear Modulus (GPa) = 27.29196 30.04761 28.66978
#
# Velocity S-wave (km/s) = 3.50619 3.67895 3.59361
# Velocity P-wave (km/s) = 6.10481 6.24668 6.17615
#
# Compressibility (1/GPa) = 0.02157533
#
# Stress axis : x y z
#
# Youngs Moduli (GPa) = 71.16335 85.07641 102.76297
#
# Poissons Ratio (x) = 0.31155 0.29080
# Poissons Ratio (y) = 0.26060 0.05028
# Poissons Ratio (z) = 0.20138 0.04163
#
# Static dielectric constant tensor:
#      x y z
#    x 4.157160 -0.000030 0.111130 
#    y -0.000030 3.838990 0.000040 
#    z 0.111130 0.000040 3.983700 
# 
# 
# High freq. dielectric constant tensor:
#      x y z
#    x 1.880110 0.000000 0.005800 
#    y 0.000000 1.868790 0.000000 
#    z 0.005800 0.000000 1.882900 
# 
# From -- ./inp_files/108635.got.cif
#   From: 2010.06.25/outbox.cif.g09.slc.cpg/sg15_55_cif.got.tgz:108635.got - 2010.06.28 07:06:18.
