data_PCOD8144609
_publ_section_title
;
Structure prediction by ZEFSAII (Michael W. Deem and Ramdas Pophale) SiO2 
 PCOD8144609
Probable space group: C 2/C
;
_chemical_formula_sum "Si O2"
_cell_formula_units_Z 40
_cell_length_a 16.728884
_cell_length_b 7.531479
_cell_length_c 17.284022
_cell_angle_alpha 90.000000
_cell_angle_beta 132.652087
_cell_angle_gamma 90.000000
_cell_volume 1601.635803
_symmetry_space_group_name_H-M "C 2/C"
_symmetry_group_IT_number 15
_symmetry_cell_setting 'monoclinic'
loop_
_space_group_symop_operation_xyz
x,y,z
-x,y,1/2-z
-x,-y,-z
x,-y,1/2+z
1/2+x,1/2+y,z
1/2-x,1/2+y,1/2-z
1/2-x,1/2-y,-z
1/2+x,1/2-y,1/2+z
loop_
_atom_site_type_symbol
_atom_site_label
_atom_site_fract_x
_atom_site_fract_y
_atom_site_fract_z
Si Si1 0.849963 0.703429 0.219373
Si Si2 0.012743 0.834169 0.850816
Si Si3 0.896957 0.462303 0.984654
Si Si4 0.786430 0.061167 0.250013
Si Si5 0.909541 0.769052 0.094513
O O1 0.768383 0.554301 0.199797
O O2 0.829489 0.744837 0.115694
O O3 0.977320 0.663928 0.314750
O O4 0.821946 0.862673 0.258364
O O5 0.894651 0.818540 0.814100
O O6 0.000000 0.817450 0.750000
O O7 0.083401 0.674290 0.931571
O O8 0.070731 0.022656 0.908706
O O9 0.857593 0.656967 0.990079
O O10 0.801334 0.377256 0.871424
O O11 0.000000 0.500000 0.000000
#
# Coordination Sequence:
#
# PCOD8144609 Si02
#       5
#     8   8   8   8   8
#     4  10  21  43  69  95 141 178 227 278 351 405
#     4  11  25  48  70  99 145 184 228 290 352 410
#     4  12  26  42  71 108 138 179 242 287 341 418
#     4  11  23  44  69 106 135 183 233 282 352 411
#     4  10  22  47  67  97 140 186 220 290 348 405
#
# _framework density 24.974464999999999
#
# number of rings (size 3 to 8) (size 9 to 14) (size 15 to 20)
#    0.000    1.200    6.000    1.200    2.800    2.400 
#    3.600    0.000    0.000    0.000    0.000    0.000 
#    0.000    0.000    0.000    0.000    0.000    0.000 
#
# Total GULP energy -247890.786309 kJ/mol
# GULP energy per Si atom -12394.539315 kJ/mol
# Density = 2.491762 g / cm^3
# Si number density = 24.974465 Si / 1000 Ang^3
#
#
#
# Elastic Constant Matrix: (Units=GPa)
#
#
# Indices 1 2 3 4 5 6 
#
# 1 166.1650 44.3566 22.6959 0.0000 -13.3967 0.0000
# 2 44.3566 109.8531 44.1838 0.0000 -16.5637 0.0000
# 3 22.6959 44.1838 66.3240 0.0000 -5.2473 0.0000
# 4 0.0000 0.0000 0.0000 31.2415 0.0000 -13.0582
# 5 -13.3967 -16.5637 -5.2473 0.0000 29.2370 0.0000
# 6 0.0000 0.0000 0.0000 -13.0582 0.0000 34.7735
#
#
#
# Elastic Compliance Matrix: (Units=1/GPa)
#
#
# Indices 1 2 3 4 5 6 
#
# 1 0.006849 -0.002204 -0.000736 0.000000 0.001757 0.000000
# 2 -0.002204 0.014133 -0.008224 0.000000 0.005521 0.000000
# 3 -0.000736 -0.008224 0.020707 0.000000 -0.001280 0.000000
# 4 0.000000 0.000000 0.000000 0.037968 0.000000 0.014258
# 5 0.001757 0.005521 -0.001280 0.000000 0.037906 0.000000
# 6 0.000000 0.000000 0.000000 0.014258 0.000000 0.034112
#
#
# Mechanical properties :
#
#
# Convention : Reuss Voigt Hill
#
# Bulk Modulus (GPa) = 51.65385 62.75718 57.20552
# Shear Modulus (GPa) = 27.70724 34.45746 31.08235
#
# Velocity S-wave (km/s) = 3.33441 3.71847 3.53167
# Velocity P-wave (km/s) = 5.96255 6.60448 6.29171
#
# Compressibility (1/GPa) = 0.01935964
#
# Stress axis : x y z
#
# Youngs Moduli (GPa) = 146.01160 70.75394 48.29291
#
# Poissons Ratio (x) = 0.15597 0.03555
# Poissons Ratio (y) = 0.32187 0.39718
# Poissons Ratio (z) = 0.10748 0.58190
#
# Static dielectric constant tensor:
#      x y z
#    x 5.473400 0.000000 0.128900 
#    y 0.000000 4.407940 0.000000 
#    z 0.128900 0.000000 4.433090 
# 
# 
# High freq. dielectric constant tensor:
#      x y z
#    x 2.019720 0.000000 0.003750 
#    y 0.000000 1.985260 0.000000 
#    z 0.003750 0.000000 1.984590 
# 
# From -- ./inp_files/202819.got.cif
#   From: 2010.06.25/outbox.cif.g09.slc.cpg/sg15_102_cif.got.tgz:202819.got - 2010.06.28 07:06:18.
