data_PCOD8144771
_publ_section_title
;
Structure prediction by ZEFSAII (Michael W. Deem and Ramdas Pophale) SiO2 
 PCOD8144771
Probable space group: C 2/C
;
_chemical_formula_sum "Si O2"
_cell_formula_units_Z 32
_cell_length_a 19.224218
_cell_length_b 6.223180
_cell_length_c 25.381156
_cell_angle_alpha 90.000000
_cell_angle_beta 151.775304
_cell_angle_gamma 90.000000
_cell_volume 1436.050942
_symmetry_space_group_name_H-M "C 2/C"
_symmetry_group_IT_number 15
_symmetry_cell_setting 'monoclinic'
loop_
_space_group_symop_operation_xyz
x,y,z
-x,y,1/2-z
-x,-y,-z
x,-y,1/2+z
1/2+x,1/2+y,z
1/2-x,1/2+y,1/2-z
1/2-x,1/2-y,-z
1/2+x,1/2-y,1/2+z
loop_
_atom_site_type_symbol
_atom_site_label
_atom_site_fract_x
_atom_site_fract_y
_atom_site_fract_z
Si Si1 0.175228 0.674566 0.524221
Si Si2 0.853706 0.127628 0.388336
Si Si3 0.364508 0.560233 0.076710
Si Si4 0.084691 0.646253 0.679485
O O1 0.179384 0.690551 0.589995
O O2 0.331621 0.579132 0.607473
O O3 0.039502 0.529556 0.415042
O O4 0.155904 0.913412 0.488506
O O5 0.861810 0.247481 0.338651
O O6 0.721270 0.958633 0.300071
O O7 0.000000 0.000000 0.500000
O O8 0.525671 0.668423 0.180115
O O9 0.250000 0.750000 0.000000
#
# Coordination Sequence:
#
# PCOD8144771 Si02
#       4
#     8   8   8   8
#     4  10  21  44  70  98 137 177 223 287 347 402
#     4  12  24  43  71  99 138 183 226 283 352 411
#     4   9  20  43  70  97 135 172 226 287 332 418
#     4  11  24  43  70 100 136 178 234 282 342 420
#
# _framework density 22.283331
#
# number of rings (size 3 to 8) (size 9 to 14) (size 15 to 20)
#    0.000    1.500    2.500    2.250    0.000    0.000 
#    0.000   13.750    0.000    0.000    0.000    0.000 
#    0.000    0.000    0.000    0.000    0.000    0.000 
#
# Total GULP energy -198371.589260 kJ/mol
# GULP energy per Si atom -12398.224329 kJ/mol
# Density = 2.223261 g / cm^3
# Si number density = 22.283331 Si / 1000 Ang^3
#
#
#
# Elastic Constant Matrix: (Units=GPa)
#
#
# Indices 1 2 3 4 5 6 
#
# 1 152.4821 53.1514 56.4825 0.0048 16.1532 -0.0032
# 2 53.1514 113.0635 41.4524 0.0129 20.4168 -0.0175
# 3 56.4825 41.4524 106.0839 0.0016 19.1417 -0.0024
# 4 0.0048 0.0129 0.0016 24.3099 -0.0001 5.8742
# 5 16.1532 20.4168 19.1417 -0.0001 21.4364 0.0009
# 6 -0.0032 -0.0175 -0.0024 5.8742 0.0009 66.0427
#
#
#
# Elastic Compliance Matrix: (Units=1/GPa)
#
#
# Indices 1 2 3 4 5 6 
#
# 1 0.008910 -0.002726 -0.003500 0.000000 -0.000992 0.000000
# 2 -0.002726 0.012255 -0.001909 -0.000007 -0.007913 0.000004
# 3 -0.003500 -0.001909 0.013389 0.000001 -0.007500 0.000000
# 4 0.000000 -0.000007 0.000001 0.042039 0.000006 -0.003739
# 5 -0.000992 -0.007913 -0.007500 0.000006 0.061632 -0.000004
# 6 0.000000 0.000004 0.000000 -0.003739 -0.000004 0.015474
#
#
# Mechanical properties :
#
#
# Convention : Reuss Voigt Hill
#
# Bulk Modulus (GPa) = 54.69293 74.86690 64.77991
# Shear Modulus (GPa) = 28.39872 37.06069 32.72971
#
# Velocity S-wave (km/s) = 3.57380 4.08261 3.83665
# Velocity P-wave (km/s) = 6.45190 7.47624 6.98288
#
# Compressibility (1/GPa) = 0.01828390
#
# Stress axis : x y z
#
# Youngs Moduli (GPa) = 112.23467 81.59818 74.68699
#
# Poissons Ratio (x) = 0.22246 0.26137
# Poissons Ratio (y) = 0.30599 0.14260
# Poissons Ratio (z) = 0.39277 0.15580
#
# Static dielectric constant tensor:
#      x y z
#    x 4.813870 -0.000030 0.236540 
#    y -0.000030 4.552860 0.000020 
#    z 0.236540 0.000020 3.627300 
# 
# 
# High freq. dielectric constant tensor:
#      x y z
#    x 1.908770 0.000000 0.012940 
#    y 0.000000 1.897790 0.000000 
#    z 0.012940 0.000000 1.840400 
# 
# From -- ./inp_files/115299.got.cif
#   From: 2010.06.25/outbox.cif.g09.slc.cpg/sg15_58_cif.got.tgz:115299.got - 2010.06.28 07:06:18.
