data_PCOD8144647
_publ_section_title
;
Structure prediction by ZEFSAII (Michael W. Deem and Ramdas Pophale) SiO2 
 PCOD8144647
Probable space group: C 2/C
;
_chemical_formula_sum "Si O2"
_cell_formula_units_Z 64
_cell_length_a 26.192973
_cell_length_b 19.057544
_cell_length_c 14.170978
_cell_angle_alpha 90.000000
_cell_angle_beta 21.950973
_cell_angle_gamma 90.000000
_cell_volume 2644.271507
_symmetry_space_group_name_H-M "C 2/C"
_symmetry_group_IT_number 15
_symmetry_cell_setting 'monoclinic'
loop_
_space_group_symop_operation_xyz
x,y,z
-x,y,1/2-z
-x,-y,-z
x,-y,1/2+z
1/2+x,1/2+y,z
1/2-x,1/2+y,1/2-z
1/2-x,1/2-y,-z
1/2+x,1/2-y,1/2+z
loop_
_atom_site_type_symbol
_atom_site_label
_atom_site_fract_x
_atom_site_fract_y
_atom_site_fract_z
Si Si1 0.158098 0.148808 0.160914
Si Si2 0.122837 0.096841 0.848290
Si Si3 0.780636 0.458633 0.579824
Si Si4 0.788132 0.358654 0.239797
Si Si5 0.279965 0.832892 0.925401
Si Si6 0.528949 0.263664 0.032652
Si Si7 0.515665 0.041472 0.378293
Si Si8 0.861567 0.881577 0.518235
O O1 0.273224 0.109577 0.024990
O O2 0.101689 0.221031 0.305992
O O3 0.037623 0.091804 0.360340
O O4 0.210789 0.164229 0.966898
O O5 0.185507 0.137012 0.830154
O O6 0.148577 0.150118 0.716799
O O7 0.171260 0.018688 0.743203
O O8 0.749482 0.431880 0.739716
O O9 0.928343 0.493348 0.304286
O O10 0.902437 0.300105 0.028744
O O11 0.863727 0.433969 0.111103
O O12 0.364993 0.758892 0.801342
O O13 0.387533 0.893030 0.766778
O O14 0.226150 0.839956 0.910193
O O15 0.558894 0.329452 0.047422
O O16 0.500000 0.000000 0.500000
O O17 0.000000 0.925066 0.250000
#
# Coordination Sequence:
#
# PCOD8144647 Si02
#       8
#     8   8   8   8   8   8   8   8
#     4  11  22  43  67  95 135 184 218 290 348 412
#     4  11  25  40  67 101 137 176 227 284 345 425
#     4  10  23  42  67 102 135 171 235 277 350 424
#     4  11  24  42  67  99 134 179 231 282 351 404
#     4  10  24  44  66 101 135 181 235 284 345 409
#     4  10  25  43  70  96 135 180 240 285 340 418
#     4  10  21  43  71  93 134 179 220 291 341 413
#     4  11  25  43  70 102 141 187 224 295 349 411
#
# _framework density 24.203263
#
# number of rings (size 3 to 8) (size 9 to 14) (size 15 to 20)
#    0.000    1.500    1.250    2.625    5.250    7.000 
#    0.000    0.000    0.000    0.000    0.000    0.000 
#    0.000    0.000    0.000    0.000    0.000    0.000 
#
# Total GULP energy -396566.134793 kJ/mol
# GULP energy per Si atom -12392.691712 kJ/mol
# Density = 2.414817 g / cm^3
# Si number density = 24.203263 Si / 1000 Ang^3
#
#
#
# Elastic Constant Matrix: (Units=GPa)
#
#
# Indices 1 2 3 4 5 6 
#
# 1 120.2208 29.9649 34.9611 0.0028 15.1719 -0.0027
# 2 29.9649 94.5059 22.7561 0.0012 7.1882 -0.0021
# 3 34.9611 22.7561 107.8266 0.0016 15.8164 -0.0020
# 4 0.0028 0.0012 0.0016 28.5338 -0.0010 5.7278
# 5 15.1719 7.1882 15.8164 -0.0010 29.8078 0.0016
# 6 -0.0027 -0.0021 -0.0020 5.7278 0.0016 26.6709
#
#
#
# Elastic Compliance Matrix: (Units=1/GPa)
#
#
# Indices 1 2 3 4 5 6 
#
# 1 0.009982 -0.002371 -0.002250 -0.000001 -0.003315 0.000001
# 2 -0.002371 0.011778 -0.001602 0.000000 -0.000783 0.000001
# 3 -0.002250 -0.001602 0.010971 -0.000001 -0.004290 0.000001
# 4 -0.000001 0.000000 -0.000001 0.036625 0.000003 -0.007866
# 5 -0.003315 -0.000783 -0.004290 0.000003 0.037701 -0.000004
# 6 0.000001 0.000001 0.000001 -0.007866 -0.000004 0.039183
#
#
# Mechanical properties :
#
#
# Convention : Reuss Voigt Hill
#
# Bulk Modulus (GPa) = 49.29656 55.32417 52.31036
# Shear Modulus (GPa) = 30.22105 32.66058 31.44081
#
# Velocity S-wave (km/s) = 3.53744 3.67744 3.60812
# Velocity P-wave (km/s) = 6.09069 6.39838 6.24643
#
# Compressibility (1/GPa) = 0.02028539
#
# Stress axis : x y z
#
# Youngs Moduli (GPa) = 100.18442 84.90058 91.14976
#
# Poissons Ratio (x) = 0.20130 0.20506
# Poissons Ratio (y) = 0.23754 0.14603
# Poissons Ratio (z) = 0.22539 0.13602
#
# Static dielectric constant tensor:
#      x y z
#    x 4.243650 0.000000 0.127890 
#    y 0.000000 5.241300 -0.000020 
#    z 0.127890 -0.000020 4.535400 
# 
# 
# High freq. dielectric constant tensor:
#      x y z
#    x 1.963410 0.000000 -0.004220 
#    y 0.000000 1.971480 0.000000 
#    z -0.004220 0.000000 1.975470 
# 
# From -- ./inp_files/183121.got.cif
#   From: 2010.06.25/outbox.cif.g09.slc.cpg/sg15_92_cif.got.tgz:183121.got - 2010.06.28 07:06:18.
