data_PCOD8144605
_publ_section_title
;
Structure prediction by ZEFSAII (Michael W. Deem and Ramdas Pophale) SiO2 
 PCOD8144605
Probable space group: C 2/C
;
_chemical_formula_sum "Si O2"
_cell_formula_units_Z 64
_cell_length_a 13.607242
_cell_length_b 18.848260
_cell_length_c 22.559221
_cell_angle_alpha 90.000000
_cell_angle_beta 31.604722
_cell_angle_gamma 90.000000
_cell_volume 3032.098119
_symmetry_space_group_name_H-M "C 2/C"
_symmetry_group_IT_number 15
_symmetry_cell_setting 'monoclinic'
loop_
_space_group_symop_operation_xyz
x,y,z
-x,y,1/2-z
-x,-y,-z
x,-y,1/2+z
1/2+x,1/2+y,z
1/2-x,1/2+y,1/2-z
1/2-x,1/2-y,-z
1/2+x,1/2-y,1/2+z
loop_
_atom_site_type_symbol
_atom_site_label
_atom_site_fract_x
_atom_site_fract_y
_atom_site_fract_z
Si Si1 0.721130 0.973906 0.780291
Si Si2 0.207671 0.060300 0.125318
Si Si3 0.011351 0.945153 0.440601
Si Si4 0.673110 0.317656 0.788807
Si Si5 0.184575 0.448496 0.522904
Si Si6 0.448164 0.296430 0.021600
Si Si7 0.909592 0.708481 0.452429
Si Si8 0.320937 0.711390 0.404458
O O1 0.689690 0.970455 0.868220
O O2 0.814985 0.901692 0.711763
O O3 0.514419 0.984304 0.858589
O O4 0.849968 0.035156 0.685276
O O5 0.280798 0.134510 0.058145
O O6 0.000000 0.078643 0.250000
O O7 0.202493 0.998556 0.079568
O O8 0.801561 0.937677 0.522818
O O9 0.080051 0.870686 0.431102
O O10 0.000000 0.000000 0.500000
O O11 0.547645 0.298225 0.794627
O O12 0.879738 0.282556 0.683076
O O13 0.558412 0.296074 0.904263
O O14 0.146101 0.373110 0.511899
O O15 0.581536 0.243016 0.988296
O O16 0.240172 0.263876 0.117685
O O17 0.750000 0.750000 0.500000
O O18 0.250000 0.750000 0.500000
#
# Coordination Sequence:
#
# PCOD8144605 Si02
#       8
#     8   8   8   8   8   8   8   8
#     4  11  23  43  72  99 136 182 231 277 348 410
#     4  12  22  43  74  98 139 184 223 291 349 401
#     4  12  24  45  70 100 140 176 236 283 339 416
#     4  10  21  43  69  93 130 183 220 273 353 412
#     4  11  25  45  71 100 134 180 236 277 343 419
#     4  11  24  43  68 100 137 177 221 291 341 409
#     4  11  24  45  63  96 135 179 228 277 334 410
#     4  10  22  41  69 100 133 173 225 280 353 412
#
# _framework density 21.107496000000001
#
# number of rings (size 3 to 8) (size 9 to 14) (size 15 to 20)
#    0.000    1.000    5.000    1.875    1.750    1.000 
#    9.000    1.250    0.000    0.000    0.000    0.000 
#    0.000    0.000    0.000    0.000    0.000    0.000 
#
# Total GULP energy -396494.097086 kJ/mol
# GULP energy per Si atom -12390.440534 kJ/mol
# Density = 2.105945 g / cm^3
# Si number density = 21.107496 Si / 1000 Ang^3
#
#
#
# Elastic Constant Matrix: (Units=GPa)
#
#
# Indices 1 2 3 4 5 6 
#
# 1 155.5545 68.3903 48.3262 -0.0106 -18.0172 0.0014
# 2 68.3903 127.6775 45.0885 0.0291 1.0765 0.0027
# 3 48.3262 45.0885 75.2154 0.0817 -11.2902 0.0205
# 4 -0.0106 0.0291 0.0817 32.4167 0.0036 5.1544
# 5 -18.0172 1.0765 -11.2902 0.0036 35.4692 -0.0078
# 6 0.0014 0.0027 0.0205 5.1544 -0.0078 44.4985
#
#
#
# Elastic Compliance Matrix: (Units=1/GPa)
#
#
# Indices 1 2 3 4 5 6 
#
# 1 0.009681 -0.004107 -0.003152 0.000014 0.004039 0.000000
# 2 -0.004107 0.011861 -0.005081 0.000001 -0.004063 0.000001
# 3 -0.003152 -0.005081 0.019060 -0.000045 0.004620 -0.000002
# 4 0.000014 0.000001 -0.000045 0.031427 -0.000011 -0.003640
# 5 0.004039 -0.004063 0.004620 -0.000011 0.031839 0.000005
# 6 0.000000 0.000001 -0.000002 -0.003640 0.000005 0.022894
#
#
# Mechanical properties :
#
#
# Convention : Reuss Voigt Hill
#
# Bulk Modulus (GPa) = 62.80818 75.78417 69.29617
# Shear Modulus (GPa) = 31.89786 35.58635 33.74210
#
# Velocity S-wave (km/s) = 3.89165 4.11050 4.00257
# Velocity P-wave (km/s) = 7.07207 7.64919 7.36628
#
# Compressibility (1/GPa) = 0.01592149
#
# Stress axis : x y z
#
# Youngs Moduli (GPa) = 103.29254 84.31240 52.46567
#
# Poissons Ratio (x) = 0.34624 0.16538
# Poissons Ratio (y) = 0.42418 0.26660
# Poissons Ratio (z) = 0.32560 0.42842
#
# Static dielectric constant tensor:
#      x y z
#    x 4.499590 -0.000050 -0.135220 
#    y -0.000050 3.948340 0.000030 
#    z -0.135220 0.000030 3.700220 
# 
# 
# High freq. dielectric constant tensor:
#      x y z
#    x 1.850190 0.000000 -0.006740 
#    y 0.000000 1.831340 0.000010 
#    z -0.006740 0.000010 1.814300 
# 
# From -- ./inp_files/274809.got.cif
#   From: 2010.06.25/outbox.cif.g09.slc.cpg/sg15_138_cif.got.tgz:274809.got - 2010.06.28 07:06:18.
