data_PCOD8144031
_publ_section_title
;
Structure prediction by ZEFSAII (Michael W. Deem and Ramdas Pophale) SiO2 
 PCOD8144031
Probable space group: C 2/C
;
_chemical_formula_sum "Si O2"
_cell_formula_units_Z 64
_cell_length_a 28.590855
_cell_length_b 8.398090
_cell_length_c 11.330775
_cell_angle_alpha 90.000000
_cell_angle_beta 92.036712
_cell_angle_gamma 90.000000
_cell_volume 2718.897500
_symmetry_space_group_name_H-M "C 2/C"
_symmetry_group_IT_number 15
_symmetry_cell_setting 'monoclinic'
loop_
_space_group_symop_operation_xyz
x,y,z
-x,y,1/2-z
-x,-y,-z
x,-y,1/2+z
1/2+x,1/2+y,z
1/2-x,1/2+y,1/2-z
1/2-x,1/2-y,-z
1/2+x,1/2-y,1/2+z
loop_
_atom_site_type_symbol
_atom_site_label
_atom_site_fract_x
_atom_site_fract_y
_atom_site_fract_z
Si Si1 0.305603 0.998163 0.783752
Si Si2 0.629635 0.422890 0.918705
Si Si3 0.563904 0.396239 0.128351
Si Si4 0.530304 0.151287 0.972467
Si Si5 0.393511 0.064632 0.945839
Si Si6 0.775114 0.208438 0.119346
Si Si7 0.123791 0.743096 0.324811
Si Si8 0.442397 0.724807 0.258306
O O1 0.256526 0.921387 0.817113
O O2 0.334313 0.872911 0.708242
O O3 0.339943 0.046225 0.896275
O O4 0.290085 0.151552 0.708894
O O5 0.679696 0.352908 0.943983
O O6 0.642736 0.582536 0.850033
O O7 0.601347 0.305664 0.830880
O O8 0.604050 0.453703 0.040823
O O9 0.583832 0.263995 0.221751
O O10 0.542221 0.554600 0.185606
O O11 0.521531 0.305582 0.055168
O O12 0.519193 0.205272 0.835023
O O13 0.500000 0.000000 0.000000
O O14 0.584801 0.103442 0.006001
O O15 0.427334 0.140745 0.849457
O O16 0.398583 0.179827 0.057270
O O17 0.750000 0.250000 0.000000
#
# Coordination Sequence:
#
# PCOD8144031 Si02
#       8
#     8   8   8   8   8   8   8   8
#     4  12  25  43  63 100 144 195 242 312 368 436
#     4  10  21  41  69  98 136 187 243 298 359 438
#     4  10  21  44  75 107 142 188 244 300 371 444
#     4  11  26  46  78 112 147 188 244 306 372 448
#     4  12  23  44  72 103 143 191 243 294 378 442
#     4  12  26  41  64  97 142 186 249 310 362 429
#     4  11  22  39  69  97 132 188 242 287 364 436
#     4  10  22  44  75 106 142 193 240 296 368 448
#
# _framework density 23.538954
#
# number of rings (size 3 to 8) (size 9 to 14) (size 15 to 20)
#    0.000    1.000    3.750    3.000    3.500    2.500 
#    0.000    3.125    5.500    0.000    0.000    0.000 
#    0.000    0.000    0.000    0.000    0.000    0.000 
#
# Total GULP energy -396595.248314 kJ/mol
# GULP energy per Si atom -12393.601510 kJ/mol
# Density = 2.348538 g / cm^3
# Si number density = 23.538954 Si / 1000 Ang^3
#
#
#
# Elastic Constant Matrix: (Units=GPa)
#
#
# Indices 1 2 3 4 5 6 
#
# 1 77.2704 39.0087 42.0549 0.0000 -11.3855 0.0000
# 2 39.0087 105.3559 63.4893 0.0000 -3.0136 0.0000
# 3 42.0549 63.4893 166.4383 0.0000 5.6659 0.0000
# 4 0.0000 0.0000 0.0000 54.3609 0.0000 -0.9244
# 5 -11.3855 -3.0136 5.6659 0.0000 42.4840 0.0000
# 6 0.0000 0.0000 0.0000 -0.9244 0.0000 40.7688
#
#
#
# Elastic Compliance Matrix: (Units=1/GPa)
#
#
# Indices 1 2 3 4 5 6 
#
# 1 0.017522 -0.004657 -0.002812 0.000000 0.004740 0.000000
# 2 -0.004657 0.013660 -0.004043 0.000000 0.000260 0.000000
# 3 -0.002812 -0.004043 0.008334 0.000000 -0.002152 0.000000
# 4 0.000000 0.000000 0.000000 0.018403 0.000000 0.000417
# 5 0.004740 0.000260 -0.002152 0.000000 0.025114 0.000000
# 6 0.000000 0.000000 0.000000 0.000417 0.000000 0.024538
#
#
# Mechanical properties :
#
#
# Convention : Reuss Voigt Hill
#
# Bulk Modulus (GPa) = 60.63779 70.90782 65.77280
# Shear Modulus (GPa) = 36.73997 41.15684 38.94840
#
# Velocity S-wave (km/s) = 3.95500 4.18599 4.07213
# Velocity P-wave (km/s) = 6.83173 7.31795 7.07902
#
# Compressibility (1/GPa) = 0.01649137
#
# Stress axis : x y z
#
# Youngs Moduli (GPa) = 57.07207 73.20838 119.98831
#
# Poissons Ratio (x) = 0.34095 0.33742
# Poissons Ratio (y) = 0.26580 0.48507
# Poissons Ratio (z) = 0.16049 0.29596
#
# Static dielectric constant tensor:
#      x y z
#    x 5.435120 0.000000 -0.477030 
#    y 0.000000 4.500480 0.000000 
#    z -0.477030 0.000000 5.135020 
# 
# 
# High freq. dielectric constant tensor:
#      x y z
#    x 1.928910 0.000000 0.012910 
#    y 0.000000 1.950090 0.000000 
#    z 0.012910 0.000000 1.957660 
# 
# From -- ./inp_files/125919.got.cif
#   From: 2010.06.25/outbox.cif.g09.slc.cpg/sg15_63_cif.got.tgz:125919.got - 2010.06.28 07:06:18.
