data_PCOD8144923
_publ_section_title
;
Structure prediction by ZEFSAII (Michael W. Deem and Ramdas Pophale) SiO2 
 PCOD8144923
Probable space group: C 2/C
;
_chemical_formula_sum "Si O2"
_cell_formula_units_Z 64
_cell_length_a 24.478454
_cell_length_b 20.342864
_cell_length_c 8.436152
_cell_angle_alpha 90.000000
_cell_angle_beta 47.769475
_cell_angle_gamma 90.000000
_cell_volume 3110.528856
_symmetry_space_group_name_H-M "C 2/C"
_symmetry_group_IT_number 15
_symmetry_cell_setting 'monoclinic'
loop_
_space_group_symop_operation_xyz
x,y,z
-x,y,1/2-z
-x,-y,-z
x,-y,1/2+z
1/2+x,1/2+y,z
1/2-x,1/2+y,1/2-z
1/2-x,1/2-y,-z
1/2+x,1/2-y,1/2+z
loop_
_atom_site_type_symbol
_atom_site_label
_atom_site_fract_x
_atom_site_fract_y
_atom_site_fract_z
Si Si1 0.206590 0.098167 0.055428
Si Si2 0.933824 0.652357 0.263714
Si Si3 0.674182 0.796861 0.274334
Si Si4 0.781195 0.199587 0.063729
Si Si5 0.926199 0.785528 0.103680
Si Si6 0.411734 0.298116 0.768447
Si Si7 0.253872 0.004660 0.701160
Si Si8 0.175406 0.418629 0.711653
O O1 0.273024 0.150693 0.912048
O O2 0.202815 0.044779 0.921926
O O3 0.131319 0.137677 0.202682
O O4 0.210880 0.058048 0.211791
O O5 0.862783 0.664745 0.509443
O O6 0.951870 0.716039 0.126163
O O7 0.907726 0.597996 0.184515
O O8 0.000000 0.628962 0.250000
O O9 0.717088 0.733751 0.265669
O O10 0.613543 0.768337 0.272074
O O11 0.722900 0.141322 0.189946
O O12 0.750000 0.250000 0.000000
O O13 0.864578 0.180277 0.838163
O O14 0.896134 0.780864 0.983030
O O15 0.005261 0.821255 0.937701
O O16 0.277883 0.056154 0.526015
O O17 0.326378 0.975767 0.652005
#
# Coordination Sequence:
#
# PCOD8144923 Si02
#       8
#     8   8   8   8   8   8   8   8
#     4  11  22  39  61  86 122 153 212 249 292 349
#     4  11  21  38  58  85 123 157 184 237 310 379
#     4  11  21  34  59  92 119 150 195 250 308 368
#     4  11  19  34  62  89 114 155 194 241 316 360
#     4  10  22  34  56  88 127 152 183 236 320 369
#     4  11  22  36  56  91 126 154 186 255 310 356
#     4  10  23  39  60  85 113 164 213 248 277 340
#     4  11  21  39  61  82 117 157 201 250 287 346
#
# _framework density 20.575278999999998
#
# number of rings (size 3 to 8) (size 9 to 14) (size 15 to 20)
#    0.000    1.250    5.000    2.625    1.750    0.000 
#    0.000    0.625    0.000   13.500    0.000    0.000 
#    0.000    0.000    0.000    0.000    0.000    0.000 
#
# Total GULP energy -396509.161514 kJ/mol
# GULP energy per Si atom -12390.911297 kJ/mol
# Density = 2.052845 g / cm^3
# Si number density = 20.575279 Si / 1000 Ang^3
#
#
#
# Elastic Constant Matrix: (Units=GPa)
#
#
# Indices 1 2 3 4 5 6 
#
# 1 90.8454 33.7549 8.3234 0.0000 -4.2370 0.0000
# 2 33.7549 70.0532 16.6512 0.0000 -1.9248 0.0000
# 3 8.3234 16.6512 35.1818 0.0000 -5.0314 0.0000
# 4 0.0000 0.0000 0.0000 21.9332 0.0000 8.9839
# 5 -4.2370 -1.9248 -5.0314 0.0000 33.8799 0.0000
# 6 0.0000 0.0000 0.0000 8.9839 0.0000 38.3213
#
#
#
# Elastic Compliance Matrix: (Units=1/GPa)
#
#
# Indices 1 2 3 4 5 6 
#
# 1 0.013467 -0.006468 0.000065 0.000000 0.001326 0.000000
# 2 -0.006468 0.019192 -0.007676 0.000000 -0.000858 0.000000
# 3 0.000065 -0.007676 0.032674 0.000000 0.004424 0.000000
# 4 0.000000 0.000000 0.000000 0.050436 0.000000 -0.011824
# 5 0.001326 -0.000858 0.004424 0.000000 0.030290 0.000000
# 6 0.000000 0.000000 0.000000 -0.011824 0.000000 0.028867
#
#
# Mechanical properties :
#
#
# Convention : Reuss Voigt Hill
#
# Bulk Modulus (GPa) = 26.89977 34.83771 30.86874
# Shear Modulus (GPa) = 23.20433 27.98362 25.59397
#
# Velocity S-wave (km/s) = 3.36188 3.69190 3.53075
# Velocity P-wave (km/s) = 5.30772 5.92808 5.62645
#
# Compressibility (1/GPa) = 0.03717504
#
# Stress axis : x y z
#
# Youngs Moduli (GPa) = 74.25626 52.10396 30.60521
#
# Poissons Ratio (x) = 0.33701 -0.00198
# Poissons Ratio (y) = 0.48028 0.23493
# Poissons Ratio (z) = -0.00482 0.39996
#
# Static dielectric constant tensor:
#      x y z
#    x 3.326470 0.000000 0.776450 
#    y 0.000000 5.767020 0.000000 
#    z 0.776450 0.000000 3.390260 
# 
# 
# High freq. dielectric constant tensor:
#      x y z
#    x 1.820630 0.000000 0.023000 
#    y 0.000000 1.788430 0.000000 
#    z 0.023000 0.000000 1.792770 
# 
# From -- ./inp_files/63411.got.cif
#   From: 2010.06.25/outbox.cif.g09.slc.cpg/sg15_32_cif.got.tgz:63411.got - 2010.06.28 07:06:18.
