data_PCOD8144337
_publ_section_title
;
Structure prediction by ZEFSAII (Michael W. Deem and Ramdas Pophale) SiO2 
 PCOD8144337
Probable space group: C 2/C
;
_chemical_formula_sum "Si O2"
_cell_formula_units_Z 40
_cell_length_a 15.354725
_cell_length_b 11.027051
_cell_length_c 10.924547
_cell_angle_alpha 90.000000
_cell_angle_beta 99.682030
_cell_angle_gamma 90.000000
_cell_volume 1823.368338
_symmetry_space_group_name_H-M "C 2/C"
_symmetry_group_IT_number 15
_symmetry_cell_setting 'monoclinic'
loop_
_space_group_symop_operation_xyz
x,y,z
-x,y,1/2-z
-x,-y,-z
x,-y,1/2+z
1/2+x,1/2+y,z
1/2-x,1/2+y,1/2-z
1/2-x,1/2-y,-z
1/2+x,1/2-y,1/2+z
loop_
_atom_site_type_symbol
_atom_site_label
_atom_site_fract_x
_atom_site_fract_y
_atom_site_fract_z
Si Si1 0.776170 0.066401 0.595336
Si Si2 0.542953 0.557216 0.388559
Si Si3 0.998382 0.318865 0.449389
Si Si4 0.646919 0.813238 0.887639
Si Si5 0.605953 0.032202 0.159135
O O1 0.726069 0.104165 0.458692
O O2 0.815105 0.190329 0.663912
O O3 0.853682 0.972710 0.584453
O O4 0.709099 0.002598 0.672767
O O5 0.500000 0.509370 0.250000
O O6 0.500000 0.500000 0.500000
O O7 0.535332 0.702525 0.388379
O O8 0.922581 0.274923 0.525117
O O9 0.953197 0.411398 0.342950
O O10 0.078305 0.389244 0.534377
O O11 0.592017 0.889795 0.776944
#
# Coordination Sequence:
#
# PCOD8144337 Si02
#       5
#     8   8   8   8   8
#     4  10  24  40  65 101 129 183 230 289 340 408
#     4  12  28  45  73 102 140 179 237 290 349 412
#     4  10  23  44  66 102 134 185 228 282 345 418
#     4  10  21  42  68  93 143 181 230 283 348 413
#     4  10  23  40  70 100 139 182 229 279 352 410
#
# _framework density 21.937422000000002
#
# number of rings (size 3 to 8) (size 9 to 14) (size 15 to 20)
#    0.000    1.600    2.000    0.600    5.600    5.600 
#    0.000    0.000    0.000    0.000    0.000    0.000 
#    0.000    0.000    0.000    0.000    0.000    0.000 
#
# Total GULP energy -248035.037076 kJ/mol
# GULP energy per Si atom -12401.751854 kJ/mol
# Density = 2.188749 g / cm^3
# Si number density = 21.937422 Si / 1000 Ang^3
#
#
#
# Elastic Constant Matrix: (Units=GPa)
#
#
# Indices 1 2 3 4 5 6 
#
# 1 107.0117 51.5896 36.1114 0.0000 20.6611 0.0000
# 2 51.5896 124.0699 45.2609 0.0000 11.5994 0.0000
# 3 36.1114 45.2609 84.7696 0.0000 -0.6971 0.0000
# 4 0.0000 0.0000 0.0000 31.5561 0.0000 -2.1353
# 5 20.6611 11.5994 -0.6971 0.0000 21.3745 0.0000
# 6 0.0000 0.0000 0.0000 -2.1353 0.0000 43.3841
#
#
#
# Elastic Compliance Matrix: (Units=1/GPa)
#
#
# Indices 1 2 3 4 5 6 
#
# 1 0.015030 -0.003317 -0.004738 0.000000 -0.012883 0.000000
# 2 -0.003317 0.011462 -0.004733 0.000000 -0.003168 0.000000
# 3 -0.004738 -0.004733 0.016405 0.000000 0.007683 0.000000
# 4 0.000000 0.000000 0.000000 0.031795 0.000000 0.001565
# 5 -0.012883 -0.003168 0.007683 0.000000 0.061208 0.000000
# 6 0.000000 0.000000 0.000000 0.001565 0.000000 0.023127
#
#
# Mechanical properties :
#
#
# Convention : Reuss Voigt Hill
#
# Bulk Modulus (GPa) = 57.72982 64.64165 61.18574
# Shear Modulus (GPa) = 26.26384 31.45555 28.85969
#
# Velocity S-wave (km/s) = 3.46383 3.79076 3.63098
# Velocity P-wave (km/s) = 6.50925 6.97784 6.74761
#
# Compressibility (1/GPa) = 0.01732207
#
# Stress axis : x y z
#
# Youngs Moduli (GPa) = 66.53417 87.24515 60.95657
#
# Poissons Ratio (x) = 0.28938 0.28879
# Poissons Ratio (y) = 0.22069 0.28850
# Poissons Ratio (z) = 0.31521 0.41293
#
# Static dielectric constant tensor:
#      x y z
#    x 3.944300 0.000000 0.179070 
#    y 0.000000 4.049870 0.000000 
#    z 0.179070 0.000000 3.790430 
# 
# 
# High freq. dielectric constant tensor:
#      x y z
#    x 1.869370 0.000000 0.012620 
#    y 0.000000 1.872050 0.000000 
#    z 0.012620 0.000000 1.847480 
# 
# From -- ./inp_files/95119.got.cif
#   From: 2010.06.25/outbox.cif.g09.slc.cpg/sg15_48_cif.got.tgz:95119.got - 2010.06.28 07:06:18.
