data_PCOD8144902
_publ_section_title
;
Structure prediction by ZEFSAII (Michael W. Deem and Ramdas Pophale) SiO2 
 PCOD8144902
Probable space group: C 2/C
;
_chemical_formula_sum "Si O2"
_cell_formula_units_Z 60
_cell_length_a 24.972117
_cell_length_b 17.496693
_cell_length_c 8.432102
_cell_angle_alpha 90.000000
_cell_angle_beta 60.830218
_cell_angle_gamma 90.000000
_cell_volume 3216.996536
_symmetry_space_group_name_H-M "C 2/C"
_symmetry_group_IT_number 15
_symmetry_cell_setting 'monoclinic'
loop_
_space_group_symop_operation_xyz
x,y,z
-x,y,1/2-z
-x,-y,-z
x,-y,1/2+z
1/2+x,1/2+y,z
1/2-x,1/2+y,1/2-z
1/2-x,1/2-y,-z
1/2+x,1/2-y,1/2+z
loop_
_atom_site_type_symbol
_atom_site_label
_atom_site_fract_x
_atom_site_fract_y
_atom_site_fract_z
Si Si1 0.701136 0.462803 0.284085
Si Si2 0.000000 0.973210 0.250000
Si Si3 0.544250 0.034514 0.064534
Si Si4 0.203125 0.319735 0.906334
Si Si5 0.677405 0.334921 0.573586
Si Si6 0.777747 0.570658 0.377950
Si Si7 0.374410 0.053164 0.820712
Si Si8 0.585505 0.438205 0.860207
O O1 0.697034 0.406507 0.438464
O O2 0.746846 0.530020 0.270111
O O3 0.635763 0.497958 0.333891
O O4 0.729631 0.419493 0.090742
O O5 0.959019 0.920508 0.425975
O O6 0.954692 0.028510 0.222299
O O7 0.500000 0.082833 0.250000
O O8 0.575768 0.964966 0.116125
O O9 0.595137 0.081078 0.891088
O O10 0.500000 0.000000 0.000000
O O11 0.272661 0.313036 0.866659
O O12 0.202444 0.346689 0.722637
O O13 0.167961 0.238465 0.973007
O O14 0.169107 0.378877 0.068722
O O15 0.615964 0.358871 0.757575
O O16 0.837770 0.525673 0.345928
#
# Coordination Sequence:
#
# PCOD8144902 Si02
#       8
#     8   4   8   8   8   8   8   8
#     4  12  19  34  60  86 116 150 185 238 289 343
#     4  10  22  32  64  90 104 148 222 236 274 328
#     4   9  19  31  53  81 104 135 190 241 267 306
#     4  11  23  36  56  89 118 155 181 230 309 359
#     4  11  23  38  56  85 126 150 181 239 307 348
#     4  12  19  32  59  90 109 149 195 228 286 355
#     4  11  17  33  57  80 107 145 188 236 267 344
#     4  11  19  37  59  88 112 151 197 251 275 339
#
# _framework density 18.650936000000002
#
# number of rings (size 3 to 8) (size 9 to 14) (size 15 to 20)
#    0.000    1.067    8.000    0.000    0.000    0.533 
#    0.000    0.000    5.867    0.000    0.000    0.000 
#    0.000    0.000    0.000    0.000    0.000    0.000 
#
# Total GULP energy -371815.665149 kJ/mol
# GULP energy per Si atom -12393.855505 kJ/mol
# Density = 1.860849 g / cm^3
# Si number density = 18.650936 Si / 1000 Ang^3
#
#
#
# Elastic Constant Matrix: (Units=GPa)
#
#
# Indices 1 2 3 4 5 6 
#
# 1 91.5751 17.8978 20.8257 0.0000 -1.7730 0.0000
# 2 17.8978 68.0360 23.6680 0.0000 -6.3779 0.0000
# 3 20.8257 23.6680 142.0595 0.0000 -14.0815 0.0000
# 4 0.0000 0.0000 0.0000 27.1494 0.0000 1.8449
# 5 -1.7730 -6.3779 -14.0815 0.0000 27.6392 0.0000
# 6 0.0000 0.0000 0.0000 1.8449 0.0000 14.9836
#
#
#
# Elastic Compliance Matrix: (Units=1/GPa)
#
#
# Indices 1 2 3 4 5 6 
#
# 1 0.011734 -0.002676 -0.001328 0.000000 -0.000541 0.000000
# 2 -0.002676 0.016365 -0.002082 0.000000 0.002544 0.000000
# 3 -0.001328 -0.002082 0.007925 0.000000 0.003472 0.000000
# 4 0.000000 0.000000 0.000000 0.037144 0.000000 -0.004573
# 5 -0.000541 0.002544 0.003472 0.000000 0.038502 0.000000
# 6 0.000000 0.000000 0.000000 -0.004573 0.000000 0.067303
#
#
# Mechanical properties :
#
#
# Convention : Reuss Voigt Hill
#
# Bulk Modulus (GPa) = 41.92415 47.38371 44.65393
# Shear Modulus (GPa) = 25.11361 29.90638 27.50999
#
# Velocity S-wave (km/s) = 3.67346 4.00869 3.84473
# Velocity P-wave (km/s) = 6.36549 6.84740 6.61084
#
# Compressibility (1/GPa) = 0.02385260
#
# Stress axis : x y z
#
# Youngs Moduli (GPa) = 85.21889 61.10702 126.18221
#
# Poissons Ratio (x) = 0.16350 0.16759
# Poissons Ratio (y) = 0.22801 0.26272
# Poissons Ratio (z) = 0.11318 0.12723
#
# Static dielectric constant tensor:
#      x y z
#    x 3.549470 0.000000 -0.194560 
#    y 0.000000 3.145930 0.000000 
#    z -0.194560 0.000000 4.333560 
# 
# 
# High freq. dielectric constant tensor:
#      x y z
#    x 1.730670 0.000000 -0.000460 
#    y 0.000000 1.666150 0.000000 
#    z -0.000460 0.000000 1.753820 
# 
# From -- ./inp_files/56664.got.cif
#   From: 2010.06.25/outbox.cif.g09.slc.cpg/sg15_29_cif.got.tgz:56664.got - 2010.06.28 07:06:18.
