data_PCOD8144522
_publ_section_title
;
Structure prediction by ZEFSAII (Michael W. Deem and Ramdas Pophale) SiO2 
 PCOD8144522
Probable space group: C 2/C
;
_chemical_formula_sum "Si O2"
_cell_formula_units_Z 28
_cell_length_a 10.928334
_cell_length_b 15.242525
_cell_length_c 12.937210
_cell_angle_alpha 90.000000
_cell_angle_beta 137.138690
_cell_angle_gamma 90.000000
_cell_volume 1465.901415
_symmetry_space_group_name_H-M "C 2/C"
_symmetry_group_IT_number 15
_symmetry_cell_setting 'monoclinic'
loop_
_space_group_symop_operation_xyz
x,y,z
-x,y,1/2-z
-x,-y,-z
x,-y,1/2+z
1/2+x,1/2+y,z
1/2-x,1/2+y,1/2-z
1/2-x,1/2-y,-z
1/2+x,1/2-y,1/2+z
loop_
_atom_site_type_symbol
_atom_site_label
_atom_site_fract_x
_atom_site_fract_y
_atom_site_fract_z
Si Si1 0.841520 0.839744 0.849264
Si Si2 0.906683 0.825939 0.302275
Si Si3 0.795338 0.501963 0.340947
Si Si4 0.500000 0.395756 0.750000
O O1 0.698818 0.763316 0.744333
O O2 0.989520 0.836024 0.847264
O O3 0.734632 0.932760 0.775696
O O4 0.934952 0.832528 0.016810
O O5 0.767561 0.905279 0.229219
O O6 0.000000 0.826095 0.250000
O O7 0.676021 0.540584 0.362545
O O8 0.000000 0.500000 0.500000
#
# Coordination Sequence:
#
# PCOD8144522 Si02
#       4
#     8   8   8   4
#     4  10  23  40  64  94 127 163 211 260 314 366
#     4  12  22  41  65  90 132 164 213 261 307 373
#     4  10  21  43  66  92 126 165 207 257 321 370
#     4   8  22  44  62  90 134 148 220 254 308 378
#
# _framework density 19.100874999999998
#
# number of rings (size 3 to 8) (size 9 to 14) (size 15 to 20)
#    1.714    0.000    1.429    3.429    0.000    1.143 
#    0.000    2.857    0.000    0.000    0.000    0.000 
#    0.000    0.000    0.000    0.000    0.000    0.000 
#
# Total GULP energy -173493.961139 kJ/mol
# GULP energy per Si atom -12392.425796 kJ/mol
# Density = 1.905740 g / cm^3
# Si number density = 19.100875 Si / 1000 Ang^3
#
#
#
# Elastic Constant Matrix: (Units=GPa)
#
#
# Indices 1 2 3 4 5 6 
#
# 1 96.6071 44.3229 67.6465 0.0000 -1.7245 0.0000
# 2 44.3229 112.4956 26.3459 0.0001 12.3230 -0.0001
# 3 67.6465 26.3459 134.1598 -0.0001 7.1548 -0.0002
# 4 0.0000 0.0001 -0.0001 65.7056 -0.0001 7.3515
# 5 -1.7245 12.3230 7.1548 -0.0001 39.2934 -0.0001
# 6 0.0000 -0.0001 -0.0002 7.3515 -0.0001 39.4749
#
#
#
# Elastic Compliance Matrix: (Units=1/GPa)
#
#
# Indices 1 2 3 4 5 6 
#
# 1 0.019374 -0.006046 -0.008814 0.000000 0.004351 0.000000
# 2 -0.006046 0.011478 0.001010 0.000000 -0.004049 0.000000
# 3 -0.008814 0.001010 0.011852 0.000000 -0.002862 0.000000
# 4 0.000000 0.000000 0.000000 0.015543 0.000000 -0.002895
# 5 0.004351 -0.004049 -0.002862 0.000000 0.027431 0.000000
# 6 0.000000 0.000000 0.000000 -0.002895 0.000000 0.025872
#
#
# Mechanical properties :
#
#
# Convention : Reuss Voigt Hill
#
# Bulk Modulus (GPa) = 66.63982 68.87699 67.75840
# Shear Modulus (GPa) = 34.66164 42.55792 38.60978
#
# Velocity S-wave (km/s) = 4.26451 4.72536 4.50083
# Velocity P-wave (km/s) = 7.69494 8.11849 7.90955
#
# Compressibility (1/GPa) = 0.01500604
#
# Stress axis : x y z
#
# Youngs Moduli (GPa) = 51.61470 87.12142 84.37319
#
# Poissons Ratio (x) = 0.52673 0.74365
# Poissons Ratio (y) = 0.31206 -0.08525
# Poissons Ratio (z) = 0.45492 -0.08803
#
# Static dielectric constant tensor:
#      x y z
#    x 3.486940 0.000000 -0.000670 
#    y 0.000000 3.869090 0.000000 
#    z -0.000670 0.000000 3.298860 
# 
# 
# High freq. dielectric constant tensor:
#      x y z
#    x 1.735030 0.000000 0.006130 
#    y 0.000000 1.756640 0.000000 
#    z 0.006130 0.000000 1.736710 
# 
# From -- ./inp_files/27345.got.cif
#   From: 2010.06.25/outbox.cif.g09.slc.cpg/sg15_14_cif.got.tgz:27345.got - 2010.06.28 07:06:18.
