data_PCOD8144706
_publ_section_title
;
Structure prediction by ZEFSAII (Michael W. Deem and Ramdas Pophale) SiO2 
 PCOD8144706
Probable space group: C 2/C
;
_chemical_formula_sum "Si O2"
_cell_formula_units_Z 64
_cell_length_a 28.761938
_cell_length_b 11.789023
_cell_length_c 15.141450
_cell_angle_alpha 90.000000
_cell_angle_beta 144.518385
_cell_angle_gamma 90.000000
_cell_volume 2980.039551
_symmetry_space_group_name_H-M "C 2/C"
_symmetry_group_IT_number 15
_symmetry_cell_setting 'monoclinic'
loop_
_space_group_symop_operation_xyz
x,y,z
-x,y,1/2-z
-x,-y,-z
x,-y,1/2+z
1/2+x,1/2+y,z
1/2-x,1/2+y,1/2-z
1/2-x,1/2-y,-z
1/2+x,1/2-y,1/2+z
loop_
_atom_site_type_symbol
_atom_site_label
_atom_site_fract_x
_atom_site_fract_y
_atom_site_fract_z
Si Si1 0.851241 0.009888 0.464417
Si Si2 0.679585 0.970573 0.124978
Si Si3 0.105422 0.519462 0.701256
Si Si4 0.201753 0.627705 0.001783
Si Si5 0.983280 0.689194 0.451508
Si Si6 0.649355 0.632112 0.369849
Si Si7 0.079150 0.744608 0.434579
Si Si8 0.978992 0.904065 0.537642
O O1 0.866517 0.144183 0.493489
O O2 0.774529 0.968169 0.290093
O O3 0.842510 0.974571 0.552673
O O4 0.927191 0.950720 0.537351
O O5 0.634161 0.995931 0.145105
O O6 0.642295 0.858855 0.020643
O O7 0.666454 0.072035 0.035044
O O8 0.173793 0.566059 0.869240
O O9 0.030650 0.606144 0.592529
O O10 0.080573 0.393049 0.696266
O O11 0.177006 0.758221 0.967686
O O12 0.298106 0.617412 0.138847
O O13 0.046975 0.744798 0.484092
O O14 0.937489 0.794023 0.427907
O O15 0.559278 0.648697 0.201140
O O16 0.000000 0.738390 0.250000
O O17 0.000000 0.000000 0.500000
#
# Coordination Sequence:
#
# PCOD8144706 Si02
#       8
#     8   8   8   8   8   8   8   8
#     4  12  26  43  67 100 138 179 234 286 350 418
#     4  11  26  43  73 103 133 186 232 287 350 414
#     4  10  21  44  65  99 136 171 228 290 337 414
#     4  11  23  44  71  96 136 176 231 280 352 408
#     4  10  22  39  67  94 133 177 222 279 345 405
#     4  11  25  43  69  96 137 180 230 285 346 416
#     4  11  24  46  68  95 143 184 228 283 358 415
#     4  12  23  41  65  98 135 181 228 274 347 424
#
# _framework density 21.476224999999999
#
# number of rings (size 3 to 8) (size 9 to 14) (size 15 to 20)
#    0.000    1.000    3.750    2.625    3.500    0.000 
#    0.000    0.625    0.000    0.000    0.000    0.000 
#    0.000    0.000    0.000    0.000    0.000    0.000 
#
# Total GULP energy -396706.842123 kJ/mol
# GULP energy per Si atom -12397.088816 kJ/mol
# Density = 2.142734 g / cm^3
# Si number density = 21.476225 Si / 1000 Ang^3
#
#
#
# Elastic Constant Matrix: (Units=GPa)
#
#
# Indices 1 2 3 4 5 6 
#
# 1 78.8818 31.4356 6.7600 0.0000 1.6482 0.0000
# 2 31.4356 130.6774 21.9089 0.0000 3.7712 0.0000
# 3 6.7600 21.9089 83.1263 0.0000 14.6802 0.0000
# 4 0.0000 0.0000 0.0000 29.1169 0.0000 2.2129
# 5 1.6482 3.7712 14.6802 0.0000 34.5978 0.0000
# 6 0.0000 0.0000 0.0000 2.2129 0.0000 39.5029
#
#
#
# Elastic Compliance Matrix: (Units=1/GPa)
#
#
# Indices 1 2 3 4 5 6 
#
# 1 0.014028 -0.003331 -0.000226 0.000000 -0.000209 0.000000
# 2 -0.003331 0.008797 -0.002061 0.000000 0.000074 0.000000
# 3 -0.000226 -0.002061 0.013566 0.000000 -0.005521 0.000000
# 4 0.000000 0.000000 0.000000 0.034491 0.000000 -0.001932
# 5 -0.000209 0.000074 -0.005521 0.000000 0.031248 0.000000
# 6 0.000000 0.000000 0.000000 -0.001932 0.000000 0.025423
#
#
# Mechanical properties :
#
#
# Convention : Reuss Voigt Hill
#
# Bulk Modulus (GPa) = 39.75078 45.87717 42.81398
# Shear Modulus (GPa) = 33.97330 36.14890 35.06110
#
# Velocity S-wave (km/s) = 3.98163 4.10714 4.04487
# Velocity P-wave (km/s) = 6.29978 6.62568 6.46478
#
# Compressibility (1/GPa) = 0.02515674
#
# Stress axis : x y z
#
# Youngs Moduli (GPa) = 71.28460 113.67479 73.71145
#
# Poissons Ratio (x) = 0.37862 0.01666
# Poissons Ratio (y) = 0.23743 0.15191
# Poissons Ratio (z) = 0.01611 0.23426
#
# Static dielectric constant tensor:
#      x y z
#    x 3.840530 0.000000 0.074950 
#    y 0.000000 4.055460 0.000000 
#    z 0.074950 0.000000 4.028530 
# 
# 
# High freq. dielectric constant tensor:
#      x y z
#    x 1.838890 0.000000 0.003600 
#    y 0.000000 1.856130 0.000000 
#    z 0.003600 0.000000 1.839880 
# 
# From -- ./inp_files/177870.got.cif
#   From: 2010.06.25/outbox.cif.g09.slc.cpg/sg15_89_cif.got.tgz:177870.got - 2010.06.28 07:06:18.
