data_PCOD8144488
_publ_section_title
;
Structure prediction by ZEFSAII (Michael W. Deem and Ramdas Pophale) SiO2 
 PCOD8144488
Probable space group: C 2/C
;
_chemical_formula_sum "Si O2"
_cell_formula_units_Z 40
_cell_length_a 9.569017
_cell_length_b 14.182032
_cell_length_c 33.487615
_cell_angle_alpha 90.000000
_cell_angle_beta 155.780048
_cell_angle_gamma 90.000000
_cell_volume 1864.355296
_symmetry_space_group_name_H-M "C 2/C"
_symmetry_group_IT_number 15
_symmetry_cell_setting 'monoclinic'
loop_
_space_group_symop_operation_xyz
x,y,z
-x,y,1/2-z
-x,-y,-z
x,-y,1/2+z
1/2+x,1/2+y,z
1/2-x,1/2+y,1/2-z
1/2-x,1/2-y,-z
1/2+x,1/2-y,1/2+z
loop_
_atom_site_type_symbol
_atom_site_label
_atom_site_fract_x
_atom_site_fract_y
_atom_site_fract_z
Si Si1 0.259239 0.013613 0.353079
Si Si2 0.398198 0.519214 0.104177
Si Si3 0.354182 0.323687 0.359087
Si Si4 0.711404 0.639769 0.495920
Si Si5 0.662382 0.341935 0.521416
O O1 0.032470 0.049705 0.331874
O O2 0.564056 0.085945 0.425028
O O3 0.000000 0.005750 0.250000
O O4 0.421497 0.910592 0.403894
O O5 0.614290 0.427127 0.150832
O O6 0.488919 0.599221 0.095137
O O7 0.000000 0.500000 0.000000
O O8 0.368270 0.327364 0.411216
O O9 0.660553 0.258048 0.423079
O O10 0.000000 0.280865 0.250000
O O11 0.750000 0.750000 0.500000
O O12 0.496841 0.616920 0.479774
#
# Coordination Sequence:
#
# PCOD8144488 Si02
#       5
#     8   8   8   8   8
#     4  11  24  42  69  98 131 171 219 265 328 393
#     4  10  21  43  64  94 130 172 206 273 325 376
#     4  11  24  40  69  96 131 173 221 263 329 390
#     4  11  24  43  67  92 134 176 217 268 328 374
#     4  11  23  43  66  95 134 172 215 273 322 388
#
# _framework density 21.455137000000001
#
# number of rings (size 3 to 8) (size 9 to 14) (size 15 to 20)
#    0.000    1.200    4.000    3.600    5.600    0.000 
#    0.000    1.000    0.000    0.000    0.000    0.000 
#    0.000    0.000    0.000    0.000    0.000    0.000 
#
# Total GULP energy -247975.278248 kJ/mol
# GULP energy per Si atom -12398.763912 kJ/mol
# Density = 2.140630 g / cm^3
# Si number density = 21.455137 Si / 1000 Ang^3
#
#
#
# Elastic Constant Matrix: (Units=GPa)
#
#
# Indices 1 2 3 4 5 6 
#
# 1 176.1942 40.0078 55.0015 0.0005 -40.3813 -0.0003
# 2 40.0078 112.0623 34.0017 0.0041 -16.6087 0.0008
# 3 55.0015 34.0017 137.1717 0.0124 -34.1786 0.0024
# 4 0.0005 0.0041 0.0124 19.3162 0.0036 -4.6018
# 5 -40.3813 -16.6087 -34.1786 0.0036 34.7466 0.0000
# 6 -0.0003 0.0008 0.0024 -4.6018 0.0000 33.1636
#
#
#
# Elastic Compliance Matrix: (Units=1/GPa)
#
#
# Indices 1 2 3 4 5 6 
#
# 1 0.008080 -0.001446 -0.000946 -0.000001 0.007768 0.000000
# 2 -0.001446 0.010149 -0.001518 -0.000002 0.001677 0.000000
# 3 -0.000946 -0.001518 0.010055 -0.000008 0.008067 -0.000002
# 4 -0.000001 -0.000002 -0.000008 0.053540 -0.000015 0.007429
# 5 0.007768 0.001677 0.008067 -0.000015 0.046545 -0.000003
# 6 0.000000 0.000000 -0.000002 0.007429 -0.000003 0.031184
#
#
# Mechanical properties :
#
#
# Convention : Reuss Voigt Hill
#
# Bulk Modulus (GPa) = 48.86449 75.93890 62.40169
# Shear Modulus (GPa) = 28.70363 37.20641 32.95502
#
# Velocity S-wave (km/s) = 3.66162 4.16883 3.92343
# Velocity P-wave (km/s) = 6.37976 7.65789 7.04786
#
# Compressibility (1/GPa) = 0.02046476
#
# Stress axis : x y z
#
# Youngs Moduli (GPa) = 123.76976 98.53098 99.44838
#
# Poissons Ratio (x) = 0.14250 0.09403
# Poissons Ratio (y) = 0.17900 0.15095
# Poissons Ratio (z) = 0.11703 0.14956
#
# Static dielectric constant tensor:
#      x y z
#    x 18.695680 -0.000060 -1.053640 
#    y -0.000060 3.924100 0.000000 
#    z -1.053640 0.000000 3.887940 
# 
# 
# High freq. dielectric constant tensor:
#      x y z
#    x 1.853860 0.000000 -0.023300 
#    y 0.000000 1.845200 0.000000 
#    z -0.023300 0.000000 1.824830 
# 
# From -- ./inp_files/133154.got.cif
#   From: 2010.06.25/outbox.cif.g09.slc.cpg/sg15_67_cif.got.tgz:133154.got - 2010.06.28 07:06:18.
