data_PCOD8144585
_publ_section_title
;
Structure prediction by ZEFSAII (Michael W. Deem and Ramdas Pophale) SiO2 
 PCOD8144585
Probable space group: C 2/C
;
_chemical_formula_sum "Si O2"
_cell_formula_units_Z 44
_cell_length_a 20.425684
_cell_length_b 9.168063
_cell_length_c 12.924945
_cell_angle_alpha 90.000000
_cell_angle_beta 57.482166
_cell_angle_gamma 90.000000
_cell_volume 2040.919828
_symmetry_space_group_name_H-M "C 2/C"
_symmetry_group_IT_number 15
_symmetry_cell_setting 'monoclinic'
loop_
_space_group_symop_operation_xyz
x,y,z
-x,y,1/2-z
-x,-y,-z
x,-y,1/2+z
1/2+x,1/2+y,z
1/2-x,1/2+y,1/2-z
1/2-x,1/2-y,-z
1/2+x,1/2-y,1/2+z
loop_
_atom_site_type_symbol
_atom_site_label
_atom_site_fract_x
_atom_site_fract_y
_atom_site_fract_z
Si Si1 0.574614 0.433318 0.991493
Si Si2 0.701273 0.349526 0.432607
Si Si3 0.000000 0.180757 0.750000
Si Si4 0.845358 0.353532 0.164530
Si Si5 0.803593 0.538474 0.011330
Si Si6 0.571087 0.957351 0.751407
O O1 0.644200 0.547671 0.917534
O O2 0.604933 0.284005 0.915359
O O3 0.500000 0.500000 0.000000
O O4 0.555041 0.416158 0.130175
O O5 0.781201 0.312362 0.303806
O O6 0.721032 0.427059 0.526119
O O7 0.659426 0.194251 0.486770
O O8 0.048916 0.286408 0.787097
O O9 0.909659 0.464591 0.156778
O O10 0.797285 0.430449 0.113603
O O11 0.854617 0.455723 0.884372
O O12 0.500000 0.036714 0.750000
#
# Coordination Sequence:
#
# PCOD8144585 Si02
#       6
#     8   8   4   8   8   8
#     4  12  28  44  69 109 143 177 225 299 355 405
#     4  10  25  42  66 104 133 181 228 292 339 407
#     4  10  24  44  62 102 138 176 226 274 364 384
#     4  11  22  44  71  98 131 189 233 274 349 414
#     4  10  21  43  68  91 132 175 236 269 334 416
#     4   9  21  38  68  94 124 178 228 278 327 418
#
# _framework density 21.558906
#
# number of rings (size 3 to 8) (size 9 to 14) (size 15 to 20)
#    0.545    1.091    1.818    1.091    5.091    8.000 
#    0.000    0.000    0.000    0.000    0.000    0.000 
#    0.000    0.000    0.000    0.000    0.000    0.000 
#
# Total GULP energy -272655.293934 kJ/mol
# GULP energy per Si atom -12393.422452 kJ/mol
# Density = 2.150984 g / cm^3
# Si number density = 21.558906 Si / 1000 Ang^3
#
#
#
# Elastic Constant Matrix: (Units=GPa)
#
#
# Indices 1 2 3 4 5 6 
#
# 1 94.1545 45.7274 28.8431 0.0000 6.9853 0.0000
# 2 45.7274 90.0569 25.5953 0.0000 3.9360 0.0000
# 3 28.8431 25.5953 87.0511 0.0000 2.2756 0.0000
# 4 0.0000 0.0000 0.0000 29.5997 0.0000 2.5693
# 5 6.9853 3.9360 2.2756 0.0000 29.4135 0.0000
# 6 0.0000 0.0000 0.0000 2.5693 0.0000 43.6730
#
#
#
# Elastic Compliance Matrix: (Units=1/GPa)
#
#
# Indices 1 2 3 4 5 6 
#
# 1 0.014922 -0.006638 -0.002929 0.000000 -0.002429 0.000000
# 2 -0.006638 0.015123 -0.002240 0.000000 -0.000274 0.000000
# 3 -0.002929 -0.002240 0.013117 0.000000 -0.000020 0.000000
# 4 0.000000 0.000000 0.000000 0.033958 0.000000 -0.001998
# 5 -0.002429 -0.000274 -0.000020 0.000000 0.034613 0.000000
# 6 0.000000 0.000000 0.000000 -0.001998 0.000000 0.023015
#
#
# Mechanical properties :
#
#
# Convention : Reuss Voigt Hill
#
# Bulk Modulus (GPa) = 51.15560 52.39935 51.77748
# Shear Modulus (GPa) = 30.32529 31.94370 31.13449
#
# Velocity S-wave (km/s) = 3.75457 3.85345 3.80433
# Velocity P-wave (km/s) = 6.52499 6.64506 6.58530
#
# Compressibility (1/GPa) = 0.01954820
#
# Stress axis : x y z
#
# Youngs Moduli (GPa) = 67.01382 66.12268 76.23644
#
# Poissons Ratio (x) = 0.43895 0.22329
# Poissons Ratio (y) = 0.44486 0.17077
# Poissons Ratio (z) = 0.19628 0.14811
#
# Static dielectric constant tensor:
#      x y z
#    x 3.914930 0.000000 0.145810 
#    y 0.000000 3.869840 0.000000 
#    z 0.145810 0.000000 3.786500 
# 
# 
# High freq. dielectric constant tensor:
#      x y z
#    x 1.838720 0.000000 0.004520 
#    y 0.000000 1.845000 0.000000 
#    z 0.004520 0.000000 1.846560 
# 
# From -- ./inp_files/109975.got.cif
#   From: 2010.06.25/outbox.cif.g09.slc.cpg/sg15_55_cif.got.tgz:109975.got - 2010.06.28 07:06:18.
