data_PCOD8144744
_publ_section_title
;
Structure prediction by ZEFSAII (Michael W. Deem and Ramdas Pophale) SiO2 
 PCOD8144744
Probable space group: C 2/C
;
_chemical_formula_sum "Si O2"
_cell_formula_units_Z 56
_cell_length_a 10.554365
_cell_length_b 15.910157
_cell_length_c 27.288963
_cell_angle_alpha 90.000000
_cell_angle_beta 31.029894
_cell_angle_gamma 90.000000
_cell_volume 2362.162843
_symmetry_space_group_name_H-M "C 2/C"
_symmetry_group_IT_number 15
_symmetry_cell_setting 'monoclinic'
loop_
_space_group_symop_operation_xyz
x,y,z
-x,y,1/2-z
-x,-y,-z
x,-y,1/2+z
1/2+x,1/2+y,z
1/2-x,1/2+y,1/2-z
1/2-x,1/2-y,-z
1/2+x,1/2-y,1/2+z
loop_
_atom_site_type_symbol
_atom_site_label
_atom_site_fract_x
_atom_site_fract_y
_atom_site_fract_z
Si Si1 0.232462 0.750253 0.780054
Si Si2 0.524684 0.780059 0.898931
Si Si3 0.581849 0.115124 0.891604
Si Si4 0.341409 0.247125 0.040776
Si Si5 0.282887 0.935977 0.787621
Si Si6 0.413297 0.428181 0.990718
Si Si7 0.247559 0.551269 0.313371
O O1 0.341154 0.731500 0.690179
O O2 0.345139 0.837263 0.760790
O O3 0.292869 0.671163 0.794593
O O4 0.935525 0.752619 0.887245
O O5 0.687402 0.760822 0.892020
O O6 0.528943 0.880550 0.889344
O O7 0.250000 0.750000 0.000000
O O8 0.711835 0.027394 0.862415
O O9 0.477971 0.165830 0.972593
O O10 0.378262 0.078962 0.920232
O O11 0.495347 0.333087 0.979159
O O12 0.500000 0.974877 0.750000
O O13 0.246875 0.977253 0.745911
O O14 0.029883 0.951046 0.899858
O O15 0.500000 0.500000 0.000000
O O16 0.500000 0.593834 0.250000
#
# Coordination Sequence:
#
# PCOD8144744 Si02
#       7
#     8   8   8   8   8   8   8
#     4  10  21  44  68  99 140 186 236 298 367 442
#     4  11  26  42  69 102 141 185 244 298 359 432
#     4  11  23  43  72 101 141 191 244 291 372 444
#     4  11  22  44  69 102 139 196 237 296 372 443
#     4  11  22  41  71  99 139 189 241 304 365 421
#     4  11  23  40  70 102 143 181 244 306 363 436
#     4  11  27  47  69 104 149 193 241 299 366 439
#
# _framework density 23.707086
#
# number of rings (size 3 to 8) (size 9 to 14) (size 15 to 20)
#    0.000    1.143    2.857    3.857    6.000    3.429 
#    0.000    1.429    0.000    0.000    0.000    0.000 
#    0.000    0.000    0.000    0.000    0.000    0.000 
#
# Total GULP energy -346908.227677 kJ/mol
# GULP energy per Si atom -12389.579560 kJ/mol
# Density = 2.365313 g / cm^3
# Si number density = 23.707086 Si / 1000 Ang^3
#
#
#
# Elastic Constant Matrix: (Units=GPa)
#
#
# Indices 1 2 3 4 5 6 
#
# 1 86.8474 0.5227 18.9980 0.0221 9.7416 -0.0275
# 2 0.5227 102.4683 49.6986 -0.0932 -3.2426 -0.0324
# 3 18.9980 49.6986 124.4282 -0.0389 23.2578 -0.0913
# 4 0.0221 -0.0932 -0.0389 33.9742 -0.0401 1.8186
# 5 9.7416 -3.2426 23.2578 -0.0401 32.3245 0.0257
# 6 -0.0275 -0.0324 -0.0913 1.8186 0.0257 25.4518
#
#
#
# Elastic Compliance Matrix: (Units=1/GPa)
#
#
# Indices 1 2 3 4 5 6 
#
# 1 0.012145 0.000677 -0.001679 -0.000011 -0.002384 0.000011
# 2 0.000677 0.013024 -0.006368 0.000035 0.005684 -0.000014
# 3 -0.001679 -0.006368 0.012549 -0.000015 -0.009162 0.000045
# 4 -0.000011 0.000035 -0.000015 0.029547 0.000056 -0.002111
# 5 -0.002384 0.005684 -0.009162 0.000056 0.038817 -0.000071
# 6 0.000011 -0.000014 0.000045 -0.002111 -0.000071 0.039441
#
#
# Mechanical properties :
#
#
# Convention : Reuss Voigt Hill
#
# Bulk Modulus (GPa) = 43.51922 50.24249 46.88086
# Shear Modulus (GPa) = 29.77549 34.65175 32.21362
#
# Velocity S-wave (km/s) = 3.54782 3.82732 3.69021
# Velocity P-wave (km/s) = 5.93124 6.38515 6.16238
#
# Compressibility (1/GPa) = 0.02297835
#
# Stress axis : x y z
#
# Youngs Moduli (GPa) = 82.33759 76.78091 79.68676
#
# Poissons Ratio (x) = -0.05198 0.13380
# Poissons Ratio (y) = -0.05574 0.50743
# Poissons Ratio (z) = 0.13825 0.48893
#
# Static dielectric constant tensor:
#      x y z
#    x 4.274830 0.000000 0.135110 
#    y 0.000000 4.430390 0.000290 
#    z 0.135110 0.000290 4.238000 
# 
# 
# High freq. dielectric constant tensor:
#      x y z
#    x 1.932730 0.000010 0.006470 
#    y 0.000010 1.933700 0.000000 
#    z 0.006470 0.000000 1.941350 
# 
# From -- ./inp_files/311303.got.cif
#   From: 2010.06.25/outbox.cif.g09.slc.cpg/sg15_156_cif.got.tgz:311303.got - 2010.06.28 07:06:18.
