data_PCOD8144536
_publ_section_title
;
Structure prediction by ZEFSAII (Michael W. Deem and Ramdas Pophale) SiO2 
 PCOD8144536
Probable space group: C 2/C
;
_chemical_formula_sum "Si O2"
_cell_formula_units_Z 56
_cell_length_a 11.588518
_cell_length_b 16.658182
_cell_length_c 16.922518
_cell_angle_alpha 90.000000
_cell_angle_beta 129.545046
_cell_angle_gamma 90.000000
_cell_volume 2519.096783
_symmetry_space_group_name_H-M "C 2/C"
_symmetry_group_IT_number 15
_symmetry_cell_setting 'monoclinic'
loop_
_space_group_symop_operation_xyz
x,y,z
-x,y,1/2-z
-x,-y,-z
x,-y,1/2+z
1/2+x,1/2+y,z
1/2-x,1/2+y,1/2-z
1/2-x,1/2-y,-z
1/2+x,1/2-y,1/2+z
loop_
_atom_site_type_symbol
_atom_site_label
_atom_site_fract_x
_atom_site_fract_y
_atom_site_fract_z
Si Si1 0.184517 0.403410 0.450707
Si Si2 0.127511 0.796100 0.070709
Si Si3 0.361305 0.955765 0.339808
Si Si4 0.149460 0.825479 0.655388
Si Si5 0.771135 0.379213 0.864072
Si Si6 0.363941 0.326177 0.250266
Si Si7 0.168223 0.462397 0.829670
O O1 0.219328 0.334533 0.399927
O O2 0.291912 0.393572 0.574744
O O3 0.208556 0.493053 0.428489
O O4 0.011932 0.401446 0.405986
O O5 0.131094 0.701493 0.088351
O O6 0.082387 0.836929 0.134792
O O7 0.013069 0.810598 0.949522
O O8 0.225867 0.904730 0.319039
O O9 0.375423 0.043550 0.387362
O O10 0.313179 0.969765 0.228596
O O11 0.143751 0.864427 0.741723
O O12 0.248257 0.746492 0.698391
O O13 0.222051 0.888361 0.627282
O O14 0.500000 0.310739 0.250000
O O15 0.000000 0.428061 0.750000
#
# Coordination Sequence:
#
# PCOD8144536 Si02
#       7
#     8   8   8   8   8   8   8
#     4  11  21  39  71 100 132 180 227 281 340 412
#     4  11  24  43  68 102 137 178 231 281 347 407
#     4  10  21  43  66  97 135 177 223 283 339 407
#     4  10  23  42  63  96 141 178 219 282 336 408
#     4  10  23  42  65  97 140 180 229 273 343 415
#     4  11  24  43  68  96 133 179 231 279 339 414
#     4   9  19  38  65  92 129 175 221 269 340 403
#
# _framework density 22.23019
#
# number of rings (size 3 to 8) (size 9 to 14) (size 15 to 20)
#    0.000    1.714    1.429    2.143    0.000    4.000 
#    5.143    0.000    0.000    0.000    0.000    0.000 
#    0.000    0.000    0.000    0.000    0.000    0.000 
#
# Total GULP energy -346894.206790 kJ/mol
# GULP energy per Si atom -12389.078814 kJ/mol
# Density = 2.217959 g / cm^3
# Si number density = 22.230190 Si / 1000 Ang^3
#
#
#
# Elastic Constant Matrix: (Units=GPa)
#
#
# Indices 1 2 3 4 5 6 
#
# 1 77.9257 28.2836 48.1979 0.0000 -21.8839 0.0000
# 2 28.2836 102.8292 50.5789 0.0000 -1.0769 0.0000
# 3 48.1979 50.5789 105.9211 0.0000 -16.5601 0.0000
# 4 0.0000 0.0000 0.0000 28.5150 0.0000 -7.0642
# 5 -21.8839 -1.0769 -16.5601 0.0000 35.6902 0.0000
# 6 0.0000 0.0000 0.0000 -7.0642 0.0000 21.9456
#
#
#
# Elastic Compliance Matrix: (Units=1/GPa)
#
#
# Indices 1 2 3 4 5 6 
#
# 1 0.020451 -0.002178 -0.006810 0.000000 0.009314 0.000000
# 2 -0.002178 0.013174 -0.005872 0.000000 -0.003663 0.000000
# 3 -0.006810 -0.005872 0.015810 0.000000 0.002983 0.000000
# 4 0.000000 0.000000 0.000000 0.038108 0.000000 0.012267
# 5 0.009314 -0.003663 0.002983 0.000000 0.035004 0.000000
# 6 0.000000 0.000000 0.000000 0.012267 0.000000 0.049516
#
#
# Mechanical properties :
#
#
# Convention : Reuss Voigt Hill
#
# Bulk Modulus (GPa) = 50.72273 60.08856 55.40564
# Shear Modulus (GPa) = 23.99754 27.87119 25.93436
#
# Velocity S-wave (km/s) = 3.28914 3.54468 3.41930
# Velocity P-wave (km/s) = 6.10665 6.62132 6.36919
#
# Compressibility (1/GPa) = 0.01971503
#
# Stress axis : x y z
#
# Youngs Moduli (GPa) = 48.89772 75.90687 63.25063
#
# Poissons Ratio (x) = 0.16533 0.43071
# Poissons Ratio (y) = 0.10650 0.37143
# Poissons Ratio (z) = 0.33297 0.44575
#
# Static dielectric constant tensor:
#      x y z
#    x 3.862340 0.000000 -0.358660 
#    y 0.000000 4.013330 0.000000 
#    z -0.358660 0.000000 4.142860 
# 
# 
# High freq. dielectric constant tensor:
#      x y z
#    x 1.855960 0.000000 -0.024590 
#    y 0.000000 1.885570 0.000000 
#    z -0.024590 0.000000 1.872650 
# 
# From -- ./inp_files/199609.got.cif
#   From: 2010.06.25/outbox.cif.g09.slc.cpg/sg15_100_cif.got.tgz:199609.got - 2010.06.28 07:06:18.
