data_PCOD8144185
_publ_section_title
;
Structure prediction by ZEFSAII (Michael W. Deem and Ramdas Pophale) SiO2 
 PCOD8144185
Probable space group: C 2/C
;
_chemical_formula_sum "Si O2"
_cell_formula_units_Z 64
_cell_length_a 11.755119
_cell_length_b 29.640592
_cell_length_c 17.741527
_cell_angle_alpha 90.000000
_cell_angle_beta 152.274482
_cell_angle_gamma 90.000000
_cell_volume 2875.931391
_symmetry_space_group_name_H-M "C 2/C"
_symmetry_group_IT_number 15
_symmetry_cell_setting 'monoclinic'
loop_
_space_group_symop_operation_xyz
x,y,z
-x,y,1/2-z
-x,-y,-z
x,-y,1/2+z
1/2+x,1/2+y,z
1/2-x,1/2+y,1/2-z
1/2-x,1/2-y,-z
1/2+x,1/2-y,1/2+z
loop_
_atom_site_type_symbol
_atom_site_label
_atom_site_fract_x
_atom_site_fract_y
_atom_site_fract_z
Si Si1 0.378138 0.502713 0.756157
Si Si2 0.625309 0.796189 0.905502
Si Si3 0.971947 0.432556 0.530823
Si Si4 0.978741 0.801217 0.587240
Si Si5 0.856140 0.663101 0.390954
Si Si6 0.978655 0.701714 0.861615
Si Si7 0.251000 0.560433 0.442804
Si Si8 0.502352 0.350133 0.053372
O O1 0.500000 0.485040 0.750000
O O2 0.206914 0.463451 0.688932
O O3 0.207803 0.545328 0.635827
O O4 0.579774 0.516426 0.938283
O O5 0.500000 0.793250 0.750000
O O6 0.454723 0.813872 0.871936
O O7 0.750000 0.750000 0.000000
O O8 0.845549 0.832191 0.031083
O O9 0.053918 0.386836 0.539551
O O10 0.831302 0.420258 0.524789
O O11 0.116267 0.753169 0.685888
O O12 0.684501 0.798534 0.416531
O O13 0.071257 0.821793 0.563180
O O14 0.064284 0.835963 0.703222
O O15 0.905316 0.694626 0.489389
O O16 0.786640 0.661450 0.734381
O O17 0.424985 0.596751 0.500983
O O18 0.000000 0.548290 0.250000
#
# Coordination Sequence:
#
# PCOD8144185 Si02
#       8
#     8   8   8   8   8   8   8   8
#     4   9  21  41  68  94 125 170 214 275 338 425
#     4  12  25  40  61  96 134 177 217 271 327 392
#     4  10  21  42  64  94 131 162 217 271 345 404
#     4  11  23  43  60  87 129 177 223 274 327 384
#     4  12  23  39  65  94 127 170 217 273 328 393
#     4  11  25  40  62  89 126 178 228 271 321 388
#     4  11  22  41  65  95 129 167 210 270 352 411
#     4  12  23  40  63  90 130 171 219 272 333 399
#
# _framework density 22.25366
#
# number of rings (size 3 to 8) (size 9 to 14) (size 15 to 20)
#    0.000    1.000    2.500    4.875    1.750    3.500 
#    0.000    1.250    0.000    0.000    0.000    0.000 
#    0.000    0.000    0.000    0.000    0.000    0.000 
#
# Total GULP energy -396480.754054 kJ/mol
# GULP energy per Si atom -12390.023564 kJ/mol
# Density = 2.220301 g / cm^3
# Si number density = 22.253660 Si / 1000 Ang^3
#
#
#
# Elastic Constant Matrix: (Units=GPa)
#
#
# Indices 1 2 3 4 5 6 
#
# 1 54.2543 32.0944 10.6363 -0.0002 3.9303 0.0007
# 2 32.0944 75.1565 23.8720 -0.0005 8.6536 0.0000
# 3 10.6363 23.8720 111.8453 -0.0025 9.7602 0.0024
# 4 -0.0002 -0.0005 -0.0025 31.2763 -0.0007 7.6194
# 5 3.9303 8.6536 9.7602 -0.0007 27.3507 0.0013
# 6 0.0007 0.0000 0.0024 7.6194 0.0013 29.7073
#
#
#
# Elastic Compliance Matrix: (Units=1/GPa)
#
#
# Indices 1 2 3 4 5 6 
#
# 1 0.024664 -0.010481 -0.000091 0.000000 -0.000196 -0.000001
# 2 -0.010481 0.019067 -0.002764 0.000000 -0.003540 0.000001
# 3 -0.000091 -0.002764 0.009766 0.000001 -0.002597 -0.000001
# 4 0.000000 0.000000 0.000001 0.034104 0.000001 -0.008747
# 5 -0.000196 -0.003540 -0.002597 0.000001 0.038637 -0.000002
# 6 -0.000001 0.000001 -0.000001 -0.008747 -0.000002 0.035905
#
#
# Mechanical properties :
#
#
# Convention : Reuss Voigt Hill
#
# Bulk Modulus (GPa) = 37.27932 41.60684 39.44308
# Shear Modulus (GPa) = 25.28360 29.31043 27.29701
#
# Velocity S-wave (km/s) = 3.37435 3.63313 3.50613
# Velocity P-wave (km/s) = 5.65420 6.02800 5.84409
#
# Compressibility (1/GPa) = 0.02682452
#
# Stress axis : x y z
#
# Youngs Moduli (GPa) = 40.54542 52.44747 102.39390
#
# Poissons Ratio (x) = 0.54968 0.00936
# Poissons Ratio (y) = 0.42494 0.28301
# Poissons Ratio (z) = 0.00371 0.14496
#
# Static dielectric constant tensor:
#      x y z
#    x 3.937410 0.000010 0.213950 
#    y 0.000010 3.767380 0.000000 
#    z 0.213950 0.000000 4.159090 
# 
# 
# High freq. dielectric constant tensor:
#      x y z
#    x 1.877760 0.000000 0.007380 
#    y 0.000000 1.858400 0.000000 
#    z 0.007380 0.000000 1.890530 
# 
# From -- ./inp_files/201499.got.cif
#   From: 2010.06.25/outbox.cif.g09.slc.cpg/sg15_101_cif.got.tgz:201499.got - 2010.06.28 07:06:18.
