data_PCOD8144669
_publ_section_title
;
Structure prediction by ZEFSAII (Michael W. Deem and Ramdas Pophale) SiO2 
 PCOD8144669
Probable space group: C 2/C
;
_chemical_formula_sum "Si O2"
_cell_formula_units_Z 52
_cell_length_a 15.493893
_cell_length_b 8.415823
_cell_length_c 17.051903
_cell_angle_alpha 90.000000
_cell_angle_beta 111.430743
_cell_angle_gamma 90.000000
_cell_volume 2069.732987
_symmetry_space_group_name_H-M "C 2/C"
_symmetry_group_IT_number 15
_symmetry_cell_setting 'monoclinic'
loop_
_space_group_symop_operation_xyz
x,y,z
-x,y,1/2-z
-x,-y,-z
x,-y,1/2+z
1/2+x,1/2+y,z
1/2-x,1/2+y,1/2-z
1/2-x,1/2-y,-z
1/2+x,1/2-y,1/2+z
loop_
_atom_site_type_symbol
_atom_site_label
_atom_site_fract_x
_atom_site_fract_y
_atom_site_fract_z
Si Si1 0.176584 0.852215 0.215857
Si Si2 0.022293 0.533790 0.849360
Si Si3 0.674437 0.022616 0.141989
Si Si4 0.838515 0.648054 0.006810
Si Si5 0.000000 0.081285 0.750000
Si Si6 0.067101 0.886542 0.907873
Si Si7 0.114755 0.054088 0.063914
O O1 0.206265 0.695870 0.178603
O O2 0.074096 0.820265 0.221758
O O3 0.256544 0.885724 0.304667
O O4 0.183790 0.999190 0.156504
O O5 0.066082 0.700333 0.891292
O O6 0.000000 0.528342 0.750000
O O7 0.929903 0.508945 0.866815
O O8 0.097169 0.395353 0.896712
O O9 0.681599 0.012594 0.049364
O O10 0.888648 0.760840 0.959778
O O11 0.750000 0.750000 0.000000
O O12 0.070121 0.972318 0.824622
O O13 0.982924 0.971926 0.925973
O O14 0.144239 0.943835 0.997171
#
# Coordination Sequence:
#
# PCOD8144669 Si02
#       7
#     8   8   8   8   4   8   8
#     4  11  27  47  77 112 150 201 251 319 390 456
#     4  12  28  47  77 109 153 202 262 318 394 460
#     4  12  28  48  77 108 159 198 259 318 388 459
#     4  12  29  50  74 112 152 206 264 320 381 462
#     4  10  24  44  76 110 148 192 258 306 384 458
#     4  10  21  43  73 106 141 196 246 310 377 455
#     4  10  23  44  73 102 147 193 250 309 381 455
#
# _framework density 25.124013999999999
#
# number of rings (size 3 to 8) (size 9 to 14) (size 15 to 20)
#    0.000    0.923    2.308    2.308   16.154    0.000 
#    0.000    1.538    0.000    0.000    0.000    0.000 
#    0.000    0.000    0.000    0.000    0.000    0.000 
#
# Total GULP energy -322101.167289 kJ/mol
# GULP energy per Si atom -12388.506434 kJ/mol
# Density = 2.506683 g / cm^3
# Si number density = 25.124014 Si / 1000 Ang^3
#
#
#
# Elastic Constant Matrix: (Units=GPa)
#
#
# Indices 1 2 3 4 5 6 
#
# 1 85.1023 27.8033 34.9847 0.0000 1.3953 0.0000
# 2 27.8033 111.0724 39.4292 0.0000 -3.1653 0.0000
# 3 34.9847 39.4292 164.1086 0.0000 -6.6628 0.0000
# 4 0.0000 0.0000 0.0000 48.6282 0.0000 -10.2376
# 5 1.3953 -3.1653 -6.6628 0.0000 34.0294 0.0000
# 6 0.0000 0.0000 0.0000 -10.2376 0.0000 4.5207
#
#
#
# Elastic Compliance Matrix: (Units=1/GPa)
#
#
# Indices 1 2 3 4 5 6 
#
# 1 0.013577 -0.002612 -0.002318 0.000000 -0.001253 0.000000
# 2 -0.002612 0.010352 -0.001902 0.000000 0.000698 0.000000
# 3 -0.002318 -0.001902 0.007098 0.000000 0.001308 0.000000
# 4 0.000000 0.000000 0.000000 0.039302 0.000000 0.089005
# 5 -0.001253 0.000698 0.001308 0.000000 0.029759 0.000000
# 6 0.000000 0.000000 0.000000 0.089005 0.000000 0.422769
#
#
# Mechanical properties :
#
#
# Convention : Reuss Voigt Hill
#
# Bulk Modulus (GPa) = 57.59077 62.74642 60.16859
# Shear Modulus (GPa) = 9.21987 34.64007 21.92997
#
# Velocity S-wave (km/s) = 1.91774 3.71720 2.95764
# Velocity P-wave (km/s) = 5.27977 6.59184 5.97195
#
# Compressibility (1/GPa) = 0.01736389
#
# Stress axis : x y z
#
# Youngs Moduli (GPa) = 73.65322 96.60016 140.88966
#
# Poissons Ratio (x) = 0.25227 0.32656
# Poissons Ratio (y) = 0.19235 0.26799
# Poissons Ratio (z) = 0.17072 0.18375
#
# Static dielectric constant tensor:
#      x y z
#    x 4.362910 0.000000 -0.246860 
#    y 0.000000 4.621530 0.000000 
#    z -0.246860 0.000000 5.216070 
# 
# 
# High freq. dielectric constant tensor:
#      x y z
#    x 1.980080 0.000000 -0.010390 
#    y 0.000000 2.000630 0.000000 
#    z -0.010390 0.000000 2.026460 
# 
# From -- ./inp_files/209695.got.cif
#   From: 2010.06.25/outbox.cif.g09.slc.cpg/sg15_105_cif.got.tgz:209695.got - 2010.06.28 07:06:18.
