data_PCOD8144270
_publ_section_title
;
Structure prediction by ZEFSAII (Michael W. Deem and Ramdas Pophale) SiO2 
 PCOD8144270
Probable space group: C 2/C
;
_chemical_formula_sum "Si O2"
_cell_formula_units_Z 48
_cell_length_a 12.359032
_cell_length_b 13.696290
_cell_length_c 27.442602
_cell_angle_alpha 90.000000
_cell_angle_beta 151.938864
_cell_angle_gamma 90.000000
_cell_volume 2185.206037
_symmetry_space_group_name_H-M "C 2/C"
_symmetry_group_IT_number 15
_symmetry_cell_setting 'monoclinic'
loop_
_space_group_symop_operation_xyz
x,y,z
-x,y,1/2-z
-x,-y,-z
x,-y,1/2+z
1/2+x,1/2+y,z
1/2-x,1/2+y,1/2-z
1/2-x,1/2-y,-z
1/2+x,1/2-y,1/2+z
loop_
_atom_site_type_symbol
_atom_site_label
_atom_site_fract_x
_atom_site_fract_y
_atom_site_fract_z
Si Si1 0.434066 0.646301 0.525253
Si Si2 0.261017 0.827881 0.861349
Si Si3 0.514810 0.966245 0.895080
Si Si4 0.764636 0.200828 0.353718
Si Si5 0.294360 0.990577 0.706877
Si Si6 0.358975 0.836624 0.011662
O O1 0.556040 0.748734 0.586419
O O2 0.191706 0.623180 0.455312
O O3 0.375417 0.648296 0.445016
O O4 0.613221 0.565182 0.613370
O O5 0.324848 0.927852 0.858174
O O6 0.000000 0.792910 0.750000
O O7 0.261923 0.843816 0.919125
O O8 0.388671 0.013449 0.797998
O O9 0.663269 0.056354 0.974548
O O10 0.500000 0.227651 0.250000
O O11 0.814403 0.118803 0.332069
O O12 0.874370 0.305176 0.385732
O O13 0.500000 0.983364 0.750000
O O14 0.250000 0.750000 0.000000
#
# Coordination Sequence:
#
# PCOD8144270 Si02
#       6
#     8   8   8   8   8   8
#     4  11  23  43  71  98 138 179 231 284 343 404
#     4  11  28  48  69 101 143 180 229 282 347 418
#     4  12  26  45  72 102 136 185 223 288 345 412
#     4  10  21  42  66  95 137 177 226 279 338 408
#     4  11  23  39  70 106 138 173 234 288 344 404
#     4  11  27  45  71  99 136 181 231 284 343 407
#
# _framework density 21.965893000000001
#
# number of rings (size 3 to 8) (size 9 to 14) (size 15 to 20)
#    0.000    1.000    3.333    3.000   11.667    0.667 
#    6.000    0.000    0.000    0.000    0.000    0.000 
#    0.000    0.000    0.000    0.000    0.000    0.000 
#
# Total GULP energy -297373.558466 kJ/mol
# GULP energy per Si atom -12390.564936 kJ/mol
# Density = 2.191590 g / cm^3
# Si number density = 21.965893 Si / 1000 Ang^3
#
#
#
# Elastic Constant Matrix: (Units=GPa)
#
#
# Indices 1 2 3 4 5 6 
#
# 1 103.2363 35.4353 39.6680 0.0009 -16.2741 0.0000
# 2 35.4353 79.0404 32.1522 0.0015 -3.4263 -0.0004
# 3 39.6680 32.1522 131.5248 -0.0187 -5.1894 0.0002
# 4 0.0009 0.0015 -0.0187 -15.7807 0.0075 -2.6784
# 5 -16.2741 -3.4263 -5.1894 0.0075 19.3698 0.0002
# 6 0.0000 -0.0004 0.0002 -2.6784 0.0002 26.9763
#
#
#
# Elastic Compliance Matrix: (Units=1/GPa)
#
#
# Indices 1 2 3 4 5 6 
#
# 1 0.013926 -0.004728 -0.002644 0.000008 0.010156 0.000001
# 2 -0.004728 0.015702 -0.002486 0.000003 -0.001861 0.000001
# 3 -0.002644 -0.002486 0.008998 -0.000011 -0.000250 -0.000001
# 4 0.000008 0.000003 -0.000011 -0.062318 0.000029 -0.006187
# 5 0.010156 -0.001861 -0.000250 0.000029 0.059763 0.000002
# 6 0.000001 0.000001 -0.000001 -0.006187 0.000002 0.036455
#
#
# Mechanical properties :
#
#
# Convention : Reuss Voigt Hill
#
# Bulk Modulus (GPa) = 52.87776 58.70140 55.78958
# Shear Modulus (GPa) = 50.73821 19.88280 35.31051
#
# Velocity S-wave (km/s) = 4.81132 3.01186 4.01373
# Velocity P-wave (km/s) = 7.41552 6.23514 6.85080
#
# Compressibility (1/GPa) = 0.01891154
#
# Stress axis : x y z
#
# Youngs Moduli (GPa) = 71.80791 63.68678 111.13189
#
# Poissons Ratio (x) = 0.30109 0.29380
# Poissons Ratio (y) = 0.33948 0.27627
# Poissons Ratio (z) = 0.18984 0.15832
#
# Static dielectric constant tensor:
#      x y z
#    x 4.001210 0.000000 0.076320 
#    y 0.000000 4.039160 0.000000 
#    z 0.076320 0.000000 4.194410 
# 
# 
# High freq. dielectric constant tensor:
#      x y z
#    x 1.857630 0.000000 0.000010 
#    y 0.000000 1.863140 0.000000 
#    z 0.000010 0.000000 1.882790 
# 
# From -- ./inp_files/292992.got.cif
#   From: 2010.06.25/outbox.cif.g09.slc.cpg/sg15_147_cif.got.tgz:292992.got - 2010.06.28 07:06:18.
