data_PCOD8144305
_publ_section_title
;
Structure prediction by ZEFSAII (Michael W. Deem and Ramdas Pophale) SiO2 
 PCOD8144305
Probable space group: C 2/C
;
_chemical_formula_sum "Si O2"
_cell_formula_units_Z 52
_cell_length_a 6.655798
_cell_length_b 26.939339
_cell_length_c 17.106944
_cell_angle_alpha 90.000000
_cell_angle_beta 128.970967
_cell_angle_gamma 90.000000
_cell_volume 2384.735465
_symmetry_space_group_name_H-M "C 2/C"
_symmetry_group_IT_number 15
_symmetry_cell_setting 'monoclinic'
loop_
_space_group_symop_operation_xyz
x,y,z
-x,y,1/2-z
-x,-y,-z
x,-y,1/2+z
1/2+x,1/2+y,z
1/2-x,1/2+y,1/2-z
1/2-x,1/2-y,-z
1/2+x,1/2-y,1/2+z
loop_
_atom_site_type_symbol
_atom_site_label
_atom_site_fract_x
_atom_site_fract_y
_atom_site_fract_z
Si Si1 0.988298 0.281332 0.657968
Si Si2 0.078582 0.377866 0.356935
Si Si3 0.498449 0.693087 0.948734
Si Si4 0.696803 0.105920 0.558890
Si Si5 0.196472 0.386803 0.668857
Si Si6 0.412581 0.529651 0.904600
Si Si7 0.000000 0.542562 0.250000
O O1 0.687441 0.289240 0.563494
O O2 0.098107 0.238333 0.628841
O O3 0.000000 0.263599 0.750000
O O4 0.158574 0.330418 0.687654
O O5 0.251827 0.331871 0.430102
O O6 0.228672 0.428955 0.394660
O O7 0.000000 0.364116 0.250000
O O8 0.840805 0.385219 0.357837
O O9 0.634587 0.651589 0.929259
O O10 0.417561 0.105151 0.446419
O O11 0.848718 0.053960 0.584362
O O12 0.500000 0.400030 0.750000
O O13 0.021277 0.422545 0.679561
O O14 0.254373 0.491949 0.811121
O O15 0.500000 0.500000 0.000000
#
# Coordination Sequence:
#
# PCOD8144305 Si02
#       7
#     8   8   8   8   8   8   4
#     4  10  21  42  67  95 134 180 225 283 342 401
#     4  11  25  43  66  97 132 179 225 280 337 405
#     4   9  23  43  64  96 134 177 227 282 338 403
#     4  10  24  44  68  97 135 177 226 282 342 403
#     4  11  25  40  67 102 134 176 226 279 347 405
#     4  11  24  44  68  98 135 174 225 278 336 407
#     4  12  24  46  66 102 136 180 222 280 340 408
#
# _framework density 21.805351999999999
#
# number of rings (size 3 to 8) (size 9 to 14) (size 15 to 20)
#    0.000    1.538    3.077    0.000    6.462    4.308 
#    0.000    2.308    0.000    0.000    0.000    0.000 
#    0.000    0.000    0.000    0.000    0.000    0.000 
#
# Total GULP energy -322421.857504 kJ/mol
# GULP energy per Si atom -12400.840673 kJ/mol
# Density = 2.175572 g / cm^3
# Si number density = 21.805352 Si / 1000 Ang^3
#
#
#
# Elastic Constant Matrix: (Units=GPa)
#
#
# Indices 1 2 3 4 5 6 
#
# 1 109.1131 36.2240 37.2226 0.0000 -5.6007 0.0000
# 2 36.2240 122.7349 32.1356 0.0000 3.6847 0.0000
# 3 37.2226 32.1356 94.4182 0.0000 -9.2731 0.0000
# 4 0.0000 0.0000 0.0000 34.3670 0.0000 4.1557
# 5 -5.6007 3.6847 -9.2731 0.0000 35.0684 0.0000
# 6 0.0000 0.0000 0.0000 4.1557 0.0000 23.5912
#
#
#
# Elastic Compliance Matrix: (Units=1/GPa)
#
#
# Indices 1 2 3 4 5 6 
#
# 1 0.011219 -0.002433 -0.003484 0.000000 0.001126 0.000000
# 2 -0.002433 0.009583 -0.002505 0.000000 -0.002058 0.000000
# 3 -0.003484 -0.002505 0.013129 0.000000 0.003179 0.000000
# 4 0.000000 0.000000 0.000000 0.029731 0.000000 -0.005237
# 5 0.001126 -0.002058 0.003179 0.000000 0.029752 0.000000
# 6 0.000000 0.000000 0.000000 -0.005237 0.000000 0.043311
#
#
# Mechanical properties :
#
#
# Convention : Reuss Voigt Hill
#
# Bulk Modulus (GPa) = 58.52005 59.71450 59.11728
# Shear Modulus (GPa) = 31.39414 33.31758 32.35586
#
# Velocity S-wave (km/s) = 3.79851 3.91315 3.85626
# Velocity P-wave (km/s) = 6.79220 6.91821 6.85550
#
# Compressibility (1/GPa) = 0.01708816
#
# Stress axis : x y z
#
# Youngs Moduli (GPa) = 89.13593 104.34922 76.16461
#
# Poissons Ratio (x) = 0.25384 0.26538
# Poissons Ratio (y) = 0.21684 0.19077
# Poissons Ratio (z) = 0.31057 0.26137
#
# Static dielectric constant tensor:
#      x y z
#    x 3.781180 0.000000 0.355510 
#    y 0.000000 4.194240 0.000000 
#    z 0.355510 0.000000 4.263670 
# 
# 
# High freq. dielectric constant tensor:
#      x y z
#    x 1.836440 0.000000 0.005950 
#    y 0.000000 1.873700 0.000000 
#    z 0.005950 0.000000 1.865240 
# 
# From -- ./inp_files/186309.got.cif
#   From: 2010.06.25/outbox.cif.g09.slc.cpg/sg15_94_cif.got.tgz:186309.got - 2010.06.28 07:06:18.
