data_PCOD8144403
_publ_section_title
;
Structure prediction by ZEFSAII (Michael W. Deem and Ramdas Pophale) SiO2 
 PCOD8144403
Probable space group: C 2/C
;
_chemical_formula_sum "Si O2"
_cell_formula_units_Z 48
_cell_length_a 15.393788
_cell_length_b 11.435649
_cell_length_c 29.858806
_cell_angle_alpha 90.000000
_cell_angle_beta 26.169610
_cell_angle_gamma 90.000000
_cell_volume 2318.177943
_symmetry_space_group_name_H-M "C 2/C"
_symmetry_group_IT_number 15
_symmetry_cell_setting 'monoclinic'
loop_
_space_group_symop_operation_xyz
x,y,z
-x,y,1/2-z
-x,-y,-z
x,-y,1/2+z
1/2+x,1/2+y,z
1/2-x,1/2+y,1/2-z
1/2-x,1/2-y,-z
1/2+x,1/2-y,1/2+z
loop_
_atom_site_type_symbol
_atom_site_label
_atom_site_fract_x
_atom_site_fract_y
_atom_site_fract_z
Si Si1 0.404948 0.827211 0.064240
Si Si2 0.974558 0.557149 0.079114
Si Si3 0.145798 0.059596 0.534606
Si Si4 0.894647 0.660314 0.340045
Si Si5 0.951814 0.798581 0.923884
Si Si6 0.344903 0.757637 0.702957
O O1 0.206358 0.773235 0.136129
O O2 0.527371 0.726378 0.032820
O O3 0.380246 0.929565 0.113600
O O4 0.532286 0.876800 0.964888
O O5 0.833901 0.627508 0.177178
O O6 0.194180 0.558576 0.999413
O O7 0.248866 0.082995 0.438450
O O8 0.978076 0.157611 0.618777
O O9 0.032907 0.937728 0.587527
O O10 0.000000 0.588552 0.250000
O O11 0.069517 0.711344 0.288525
O O12 0.116809 0.729407 0.818108
O O13 0.750000 0.750000 0.000000
#
# Coordination Sequence:
#
# PCOD8144403 Si02
#       6
#     8   8   8   8   8   8
#     4  11  21  41  67  97 133 162 220 268 324 390
#     4  10  21  42  70  95 131 169 215 276 324 392
#     4  11  23  44  68  94 139 170 214 277 332 392
#     4  11  21  40  70 104 124 171 224 270 322 400
#     4  12  27  42  63  94 139 174 215 270 336 384
#     4  11  23  42  67  98 126 176 225 263 330 394
#
# _framework density 20.705915999999998
#
# number of rings (size 3 to 8) (size 9 to 14) (size 15 to 20)
#    0.000    1.000    6.667    1.000    2.333    0.667 
#    0.000    0.833    0.000    0.000    0.000    0.000 
#    0.000    0.000    0.000    0.000    0.000    0.000 
#
# Total GULP energy -297395.005661 kJ/mol
# GULP energy per Si atom -12391.458569 kJ/mol
# Density = 2.065879 g / cm^3
# Si number density = 20.705916 Si / 1000 Ang^3
#
#
#
# Elastic Constant Matrix: (Units=GPa)
#
#
# Indices 1 2 3 4 5 6 
#
# 1 112.5143 42.6150 49.6698 -0.0100 11.1693 -0.0068
# 2 42.6150 88.3934 34.1421 -0.0024 6.6161 -0.0051
# 3 49.6698 34.1421 128.3457 -0.0021 4.2005 -0.0164
# 4 -0.0100 -0.0024 -0.0021 16.5182 0.0212 -0.5593
# 5 11.1693 6.6161 4.2005 0.0212 34.5341 0.0030
# 6 -0.0068 -0.0051 -0.0164 -0.5593 0.0030 34.5467
#
#
#
# Elastic Compliance Matrix: (Units=1/GPa)
#
#
# Indices 1 2 3 4 5 6 
#
# 1 0.012386 -0.004402 -0.003533 0.000010 -0.002733 0.000001
# 2 -0.004402 0.014315 -0.002069 0.000001 -0.001067 0.000000
# 3 -0.003533 -0.002069 0.009697 -0.000002 0.000360 0.000004
# 4 0.000010 0.000001 -0.000002 0.060573 -0.000040 0.000981
# 5 -0.002733 -0.001067 0.000360 -0.000040 0.030001 -0.000004
# 6 0.000001 0.000000 0.000004 0.000981 -0.000004 0.028962
#
#
# Mechanical properties :
#
#
# Convention : Reuss Voigt Hill
#
# Bulk Modulus (GPa) = 61.01631 64.67858 62.84745
# Shear Modulus (GPa) = 27.56245 30.64156 29.10200
#
# Velocity S-wave (km/s) = 3.65244 3.85105 3.75306
# Velocity P-wave (km/s) = 6.87889 7.14694 7.01419
#
# Compressibility (1/GPa) = 0.01638906
#
# Stress axis : x y z
#
# Youngs Moduli (GPa) = 80.73630 69.85907 103.12053
#
# Poissons Ratio (x) = 0.30754 0.36431
# Poissons Ratio (y) = 0.35542 0.21339
# Poissons Ratio (z) = 0.28523 0.14456
#
# Static dielectric constant tensor:
#      x y z
#    x 4.077250 0.000460 0.234940 
#    y 0.000460 3.599270 -0.000270 
#    z 0.234940 -0.000270 3.738860 
# 
# 
# High freq. dielectric constant tensor:
#      x y z
#    x 1.821870 0.000000 0.014820 
#    y 0.000000 1.803480 0.000000 
#    z 0.014820 0.000000 1.806610 
# 
# From -- ./inp_files/296056.got.cif
#   From: 2010.06.25/outbox.cif.g09.slc.cpg/sg15_149_cif.got.tgz:296056.got - 2010.06.28 07:06:18.
