data_PCOD8144194
_publ_section_title
;
Structure prediction by ZEFSAII (Michael W. Deem and Ramdas Pophale) SiO2 
 PCOD8144194
Probable space group: C 2/C
;
_chemical_formula_sum "Si O2"
_cell_formula_units_Z 48
_cell_length_a 6.841270
_cell_length_b 28.666764
_cell_length_c 12.469248
_cell_angle_alpha 90.000000
_cell_angle_beta 117.692252
_cell_angle_gamma 90.000000
_cell_volume 2165.323972
_symmetry_space_group_name_H-M "C 2/C"
_symmetry_group_IT_number 15
_symmetry_cell_setting 'monoclinic'
loop_
_space_group_symop_operation_xyz
x,y,z
-x,y,1/2-z
-x,-y,-z
x,-y,1/2+z
1/2+x,1/2+y,z
1/2-x,1/2+y,1/2-z
1/2-x,1/2-y,-z
1/2+x,1/2-y,1/2+z
loop_
_atom_site_type_symbol
_atom_site_label
_atom_site_fract_x
_atom_site_fract_y
_atom_site_fract_z
Si Si1 0.764141 0.696918 0.632323
Si Si2 0.035777 0.114963 0.875858
Si Si3 0.515634 0.888714 0.569725
Si Si4 0.767018 0.197245 0.132664
Si Si5 0.180339 0.526252 0.364619
Si Si6 0.866877 0.944109 0.528155
O O1 0.583885 0.664487 0.641998
O O2 0.692872 0.750122 0.638580
O O3 0.750244 0.688133 0.500542
O O4 0.000000 0.686483 0.750000
O O5 0.943520 0.076498 0.933440
O O6 0.000000 0.093601 0.750000
O O7 0.297194 0.123368 0.948238
O O8 0.600325 0.840239 0.644227
O O9 0.458980 0.927945 0.640353
O O10 0.719920 0.906546 0.549670
O O11 0.000000 0.187788 0.250000
O O12 0.238501 0.492899 0.479169
O O13 0.399981 0.542626 0.354674
O O14 0.000000 0.497310 0.250000
#
# Coordination Sequence:
#
# PCOD8144194 Si02
#       6
#     8   8   8   8   8   8
#     4  10  21  42  64  96 136 171 219 270 330 391
#     4  11  24  38  67  97 125 171 219 270 333 391
#     4  11  23  40  64  94 125 172 213 270 328 389
#     4  10  22  39  69  95 128 180 215 266 334 393
#     4  10  24  40  62  91 124 170 215 265 328 394
#     4  10  23  44  59  92 130 162 218 271 322 395
#
# _framework density 22.167584999999999
#
# number of rings (size 3 to 8) (size 9 to 14) (size 15 to 20)
#    0.000    1.667    1.667    1.500    4.667    0.667 
#    0.000    0.833    0.000    0.000    0.000    0.000 
#    0.000    0.000    0.000    0.000    0.000    0.000 
#
# Total GULP energy -297350.531456 kJ/mol
# GULP energy per Si atom -12389.605477 kJ/mol
# Density = 2.211713 g / cm^3
# Si number density = 22.167585 Si / 1000 Ang^3
#
#
#
# Elastic Constant Matrix: (Units=GPa)
#
#
# Indices 1 2 3 4 5 6 
#
# 1 95.2793 34.4509 41.5673 0.0000 28.3301 0.0000
# 2 34.4509 110.3916 19.9857 0.0000 25.0738 0.0000
# 3 41.5673 19.9857 137.1633 0.0000 34.2781 0.0000
# 4 0.0000 0.0000 0.0000 22.1453 0.0000 13.9407
# 5 28.3301 25.0738 34.2781 0.0000 35.7834 0.0000
# 6 0.0000 0.0000 0.0000 13.9407 0.0000 36.3006
#
#
#
# Elastic Compliance Matrix: (Units=1/GPa)
#
#
# Indices 1 2 3 4 5 6 
#
# 1 0.014625 -0.002392 -0.002115 0.000000 -0.007876 0.000000
# 2 -0.002392 0.011183 0.000763 0.000000 -0.006673 0.000000
# 3 -0.002115 0.000763 0.009907 0.000000 -0.008351 0.000000
# 4 0.000000 0.000000 0.000000 0.059554 0.000000 -0.022871
# 5 -0.007876 -0.006673 -0.008351 0.000000 0.046857 0.000000
# 6 0.000000 0.000000 0.000000 -0.022871 0.000000 0.036331
#
#
# Mechanical properties :
#
#
# Convention : Reuss Voigt Hill
#
# Bulk Modulus (GPa) = 35.42758 59.42690 47.42724
# Shear Modulus (GPa) = 25.59455 35.30121 30.44788
#
# Velocity S-wave (km/s) = 3.40162 3.99491 3.71014
# Velocity P-wave (km/s) = 5.60753 6.93868 6.30831
#
# Compressibility (1/GPa) = 0.02822660
#
# Stress axis : x y z
#
# Youngs Moduli (GPa) = 68.37511 89.42363 100.93583
#
# Poissons Ratio (x) = 0.21393 0.21350
# Poissons Ratio (y) = 0.16357 -0.07703
# Poissons Ratio (z) = 0.14463 -0.06825
#
# Static dielectric constant tensor:
#      x y z
#    x 3.967810 0.000000 0.413080 
#    y 0.000000 4.174940 0.000000 
#    z 0.413080 0.000000 4.240870 
# 
# 
# High freq. dielectric constant tensor:
#      x y z
#    x 1.854890 0.000000 0.026970 
#    y 0.000000 1.891820 0.000000 
#    z 0.026970 0.000000 1.881110 
# 
# From -- ./inp_files/130929.got.cif
#   From: 2010.06.25/outbox.cif.g09.slc.cpg/sg15_66_cif.got.tgz:130929.got - 2010.06.28 07:06:18.
