data_PCOD8144208
_publ_section_title
;
Structure prediction by ZEFSAII (Michael W. Deem and Ramdas Pophale) SiO2 
 PCOD8144208
Probable space group: C 2/C
;
_chemical_formula_sum "Si O2"
_cell_formula_units_Z 48
_cell_length_a 11.300732
_cell_length_b 10.977289
_cell_length_c 22.823804
_cell_angle_alpha 90.000000
_cell_angle_beta 49.132161
_cell_angle_gamma 90.000000
_cell_volume 2141.106941
_symmetry_space_group_name_H-M "C 2/C"
_symmetry_group_IT_number 15
_symmetry_cell_setting 'monoclinic'
loop_
_space_group_symop_operation_xyz
x,y,z
-x,y,1/2-z
-x,-y,-z
x,-y,1/2+z
1/2+x,1/2+y,z
1/2-x,1/2+y,1/2-z
1/2-x,1/2-y,-z
1/2+x,1/2-y,1/2+z
loop_
_atom_site_type_symbol
_atom_site_label
_atom_site_fract_x
_atom_site_fract_y
_atom_site_fract_z
Si Si1 0.319304 0.826074 0.127141
Si Si2 0.901193 0.369681 0.834493
Si Si3 0.383409 0.346569 0.197414
Si Si4 0.163310 0.744770 0.669387
Si Si5 0.656551 0.484640 0.604694
Si Si6 0.356588 0.087352 0.934025
O O1 0.269875 0.683182 0.131327
O O2 0.239777 0.877088 0.212031
O O3 0.503342 0.844365 0.077329
O O4 0.271825 0.906716 0.086497
O O5 0.896241 0.456368 0.892355
O O6 0.000000 0.436153 0.750000
O O7 0.991563 0.247237 0.819344
O O8 0.302444 0.288115 0.167672
O O9 0.478501 0.469836 0.151418
O O10 0.156876 0.887367 0.657248
O O11 0.203968 0.673562 0.597333
O O12 0.000000 0.701283 0.750000
O O13 0.715823 0.428536 0.524875
#
# Coordination Sequence:
#
# PCOD8144208 Si02
#       6
#     8   8   8   8   8   8
#     4  10  21  42  65  92 125 168 224 263 319 391
#     4   9  21  39  64  92 121 166 221 272 316 384
#     4  10  22  43  66  92 123 170 225 264 317 390
#     4  12  24  42  64  92 128 173 219 264 320 391
#     4  11  25  41  65  95 132 170 211 271 332 383
#     4  12  24  39  63  99 132 166 211 268 335 390
#
# _framework density 22.418310999999999
#
# number of rings (size 3 to 8) (size 9 to 14) (size 15 to 20)
#    0.000    1.333    1.667    5.000    0.000    6.000 
#    0.000    0.000    0.000    0.000    0.000    0.000 
#    0.000    0.000    0.000    0.000    0.000    0.000 
#
# Total GULP energy -297586.507451 kJ/mol
# GULP energy per Si atom -12399.437810 kJ/mol
# Density = 2.236729 g / cm^3
# Si number density = 22.418311 Si / 1000 Ang^3
#
#
#
# Elastic Constant Matrix: (Units=GPa)
#
#
# Indices 1 2 3 4 5 6 
#
# 1 89.8704 26.1064 31.1296 0.0000 8.2041 0.0000
# 2 26.1064 72.5383 16.1311 0.0000 0.8339 0.0000
# 3 31.1296 16.1311 81.0638 0.0000 7.3758 0.0000
# 4 0.0000 0.0000 0.0000 9.3099 0.0000 -11.3311
# 5 8.2041 0.8339 7.3758 0.0000 29.7358 0.0000
# 6 0.0000 0.0000 0.0000 -11.3311 0.0000 11.7759
#
#
#
# Elastic Compliance Matrix: (Units=1/GPa)
#
#
# Indices 1 2 3 4 5 6 
#
# 1 0.014058 -0.004062 -0.004346 0.000000 -0.002687 0.000000
# 2 -0.004062 0.015601 -0.001644 0.000000 0.001091 0.000000
# 3 -0.004346 -0.001644 0.014547 0.000001 -0.002363 0.000000
# 4 0.000000 0.000000 0.000001 -0.627656 -0.000001 -0.603949
# 5 -0.002687 0.001091 -0.002363 -0.000001 0.034926 -0.000001
# 6 0.000000 0.000000 0.000000 -0.603949 -0.000001 -0.496218
#
#
# Mechanical properties :
#
#
# Convention : Reuss Voigt Hill
#
# Bulk Modulus (GPa) = 41.48968 43.35630 42.42299
# Shear Modulus (GPa) = -4.91833 21.50467 8.29317
#
# Velocity S-wave (km/s) = -1.48279 3.10053 1.92544
# Velocity P-wave (km/s) = 3.95167 5.67445 4.88953
#
# Compressibility (1/GPa) = 0.02410238
#
# Stress axis : x y z
#
# Youngs Moduli (GPa) = 71.13589 64.09940 68.74345
#
# Poissons Ratio (x) = 0.26038 0.29873
# Poissons Ratio (y) = 0.28896 0.11300
# Poissons Ratio (z) = 0.30912 0.10537
#
# Static dielectric constant tensor:
#      x y z
#    x 4.121830 0.000000 0.168690 
#    y 0.000000 4.126040 0.000000 
#    z 0.168690 0.000000 4.176420 
# 
# 
# High freq. dielectric constant tensor:
#      x y z
#    x 1.883200 0.000000 0.007510 
#    y 0.000000 1.885880 0.000000 
#    z 0.007510 0.000000 1.880690 
# 
# From -- ./inp_files/196513.got.cif
#   From: 2010.06.25/outbox.cif.g09.slc.cpg/sg15_99_cif.got.tgz:196513.got - 2010.06.28 07:06:18.
