data_PCOD8144942
_publ_section_title
;
Structure prediction by ZEFSAII (Michael W. Deem and Ramdas Pophale) SiO2 
 PCOD8144942
Probable space group: C 2/C
;
_chemical_formula_sum "Si O2"
_cell_formula_units_Z 56
_cell_length_a 18.618345
_cell_length_b 29.180524
_cell_length_c 5.345682
_cell_angle_alpha 90.000000
_cell_angle_beta 106.259260
_cell_angle_gamma 90.000000
_cell_volume 2788.114478
_symmetry_space_group_name_H-M "C 2/C"
_symmetry_group_IT_number 15
_symmetry_cell_setting 'monoclinic'
loop_
_space_group_symop_operation_xyz
x,y,z
-x,y,1/2-z
-x,-y,-z
x,-y,1/2+z
1/2+x,1/2+y,z
1/2-x,1/2+y,1/2-z
1/2-x,1/2-y,-z
1/2+x,1/2-y,1/2+z
loop_
_atom_site_type_symbol
_atom_site_label
_atom_site_fract_x
_atom_site_fract_y
_atom_site_fract_z
Si Si1 0.812793 0.726795 0.391961
Si Si2 0.723295 0.622973 0.716749
Si Si3 0.584596 0.738606 0.879040
Si Si4 0.044408 0.425525 0.049300
Si Si5 0.295117 0.971568 0.307928
Si Si6 0.618354 0.831588 0.145338
Si Si7 0.314983 0.332729 0.839787
O O1 0.750000 0.750000 0.500000
O O2 0.857936 0.767756 0.298546
O O3 0.875175 0.695807 0.588739
O O4 0.763757 0.692685 0.172738
O O5 0.734471 0.568549 0.716951
O O6 0.802453 0.646765 0.844598
O O7 0.687107 0.638892 0.419621
O O8 0.670537 0.634552 0.905164
O O9 0.500000 0.723519 0.750000
O O10 0.590879 0.793214 0.923840
O O11 0.617957 0.705043 0.124623
O O12 0.121203 0.452654 0.117909
O O13 0.056463 0.371128 0.095388
O O14 0.000000 0.443527 0.250000
O O15 0.000000 0.435522 0.750000
O O16 0.281706 0.994350 0.564211
#
# Coordination Sequence:
#
# PCOD8144942 Si02
#       7
#     8   8   8   8   8   8   8
#     4  11  21  38  57  78 112 164 222 264 300 354
#     4  10  22  39  63  83 113 155 200 248 304 371
#     4  12  24  35  55  87 124 163 213 266 296 339
#     4  11  25  39  55  81 121 168 204 245 310 372
#     4  11  23  41  65  91 115 142 195 264 316 370
#     4  10  22  35  54  79 116 162 214 260 286 340
#     4  11  21  39  59  83 118 164 210 241 304 370
#
# _framework density 20.085259000000001
#
# number of rings (size 3 to 8) (size 9 to 14) (size 15 to 20)
#    0.000    1.143    2.857    4.286    4.000    4.000 
#    0.000    0.000    0.000    0.000    0.000    0.000 
#    0.000   11.429    0.000    0.000    0.000    0.000 
#
# Total GULP energy -347014.739974 kJ/mol
# GULP energy per Si atom -12393.383570 kJ/mol
# Density = 2.003954 g / cm^3
# Si number density = 20.085259 Si / 1000 Ang^3
#
#
#
# Elastic Constant Matrix: (Units=GPa)
#
#
# Indices 1 2 3 4 5 6 
#
# 1 42.0875 13.6402 43.1488 0.0000 -4.9727 0.0000
# 2 13.6402 93.4842 39.7851 0.0000 -0.1702 0.0000
# 3 43.1488 39.7851 125.2174 0.0000 -6.5764 0.0000
# 4 0.0000 0.0000 0.0000 25.5618 0.0000 5.4284
# 5 -4.9727 -0.1702 -6.5764 0.0000 24.3243 0.0000
# 6 0.0000 0.0000 0.0000 5.4284 0.0000 22.4345
#
#
#
# Elastic Compliance Matrix: (Units=1/GPa)
#
#
# Indices 1 2 3 4 5 6 
#
# 1 0.037157 -0.000068 -0.012562 0.000000 0.004199 0.000000
# 2 -0.000068 0.012393 -0.003967 0.000000 -0.001000 0.000000
# 3 -0.012562 -0.003967 0.013632 0.000000 0.001090 0.000000
# 4 0.000000 0.000000 0.000000 0.041240 0.000000 -0.009979
# 5 0.004199 -0.001000 0.001090 0.000000 0.042257 0.000000
# 6 0.000000 0.000000 0.000000 -0.009979 0.000000 0.046989
#
#
# Mechanical properties :
#
#
# Convention : Reuss Voigt Hill
#
# Bulk Modulus (GPa) = 33.34499 50.43748 41.89123
# Shear Modulus (GPa) = 21.10976 25.41181 23.26078
#
# Velocity S-wave (km/s) = 3.24544 3.56082 3.40678
# Velocity P-wave (km/s) = 5.53910 6.48630 6.03132
#
# Compressibility (1/GPa) = 0.02998952
#
# Stress axis : x y z
#
# Youngs Moduli (GPa) = 26.91312 80.68891 73.35473
#
# Poissons Ratio (x) = 0.00547 0.92146
# Poissons Ratio (y) = 0.00183 0.29099
# Poissons Ratio (z) = 0.33808 0.32008
#
# Static dielectric constant tensor:
#      x y z
#    x 3.359680 0.000000 -0.074130 
#    y 0.000000 3.933080 0.000000 
#    z -0.074130 0.000000 3.783900 
# 
# 
# High freq. dielectric constant tensor:
#      x y z
#    x 1.741910 0.000000 -0.013500 
#    y 0.000000 1.777820 0.000000 
#    z -0.013500 0.000000 1.798020 
# 
# From -- ./inp_files/11581.got.cif
#   From: 2010.06.25/outbox.cif.g09.slc.cpg/sg15_6_cif.got.tgz:11581.got - 2010.06.28 07:06:18.
