data_PCOD8144169
_publ_section_title
;
Structure prediction by ZEFSAII (Michael W. Deem and Ramdas Pophale) SiO2 
 PCOD8144169
Probable space group: C 2/C
;
_chemical_formula_sum "Si O2"
_cell_formula_units_Z 40
_cell_length_a 9.986613
_cell_length_b 9.778535
_cell_length_c 26.688672
_cell_angle_alpha 90.000000
_cell_angle_beta 45.324789
_cell_angle_gamma 90.000000
_cell_volume 1853.326504
_symmetry_space_group_name_H-M "C 2/C"
_symmetry_group_IT_number 15
_symmetry_cell_setting 'monoclinic'
loop_
_space_group_symop_operation_xyz
x,y,z
-x,y,1/2-z
-x,-y,-z
x,-y,1/2+z
1/2+x,1/2+y,z
1/2-x,1/2+y,1/2-z
1/2-x,1/2-y,-z
1/2+x,1/2-y,1/2+z
loop_
_atom_site_type_symbol
_atom_site_label
_atom_site_fract_x
_atom_site_fract_y
_atom_site_fract_z
Si Si1 0.809360 0.831005 0.554167
Si Si2 0.804386 0.851520 0.219413
Si Si3 0.505149 0.525530 0.917703
Si Si4 0.803134 0.949820 0.378553
Si Si5 0.884872 0.434659 0.667655
O O1 0.902088 0.851517 0.475185
O O2 0.822924 0.674969 0.567665
O O3 0.600923 0.893463 0.607985
O O4 0.934937 0.906262 0.562131
O O5 0.768384 0.687783 0.225931
O O6 0.638228 0.926465 0.293710
O O7 0.818004 0.905875 0.158230
O O8 0.003013 0.885208 0.195477
O O9 0.360809 0.464210 0.913483
O O10 0.693859 0.041909 0.367592
#
# Coordination Sequence:
#
# PCOD8144169 Si02
#       5
#     8   8   8   8   8
#     4  10  21  42  64  90 124 167 202 250 315 362
#     4   9  23  41  61  89 128 159 203 259 307 362
#     4   9  21  43  60  90 131 157 200 265 302 362
#     4   9  21  40  63  86 122 161 203 255 301 365
#     4  11  22  41  67  90 121 170 207 251 313 368
#
# _framework density 21.582813999999999
#
# number of rings (size 3 to 8) (size 9 to 14) (size 15 to 20)
#    1.200    1.200    0.000    1.200    2.800    1.600 
#   10.800    2.000    0.000    0.000    0.000    0.000 
#    0.000    0.000    0.000    0.000    0.000    0.000 
#
# Total GULP energy -247767.775267 kJ/mol
# GULP energy per Si atom -12388.388763 kJ/mol
# Density = 2.153369 g / cm^3
# Si number density = 21.582814 Si / 1000 Ang^3
#
#
#
# Elastic Constant Matrix: (Units=GPa)
#
#
# Indices 1 2 3 4 5 6 
#
# 1 86.5858 34.0154 36.1292 0.0000 20.9238 0.0000
# 2 34.0154 57.2268 10.9044 0.0000 13.2007 0.0000
# 3 36.1292 10.9044 70.2952 0.0000 23.5272 0.0000
# 4 0.0000 0.0000 0.0000 28.3245 0.0000 1.6830
# 5 20.9238 13.2007 23.5272 0.0000 25.0018 0.0000
# 6 0.0000 0.0000 0.0000 1.6830 0.0000 24.4879
#
#
#
# Elastic Compliance Matrix: (Units=1/GPa)
#
#
# Indices 1 2 3 4 5 6 
#
# 1 0.019056 -0.008914 -0.006786 0.000000 -0.004856 0.000000
# 2 -0.008914 0.024086 0.003802 0.000000 -0.008835 0.000000
# 3 -0.006786 0.003802 0.023202 0.000000 -0.018162 0.000000
# 4 0.000000 0.000000 0.000000 0.035450 0.000000 -0.002436
# 5 -0.004856 -0.008835 -0.018162 0.000000 0.065816 0.000000
# 6 0.000000 0.000000 0.000000 -0.002436 0.000000 0.041004
#
#
# Mechanical properties :
#
#
# Convention : Reuss Voigt Hill
#
# Bulk Modulus (GPa) = 23.50242 41.80065 32.65154
# Shear Modulus (GPa) = 20.27627 24.43342 22.35485
#
# Velocity S-wave (km/s) = 3.06839 3.36829 3.22183
# Velocity P-wave (km/s) = 4.84422 5.87680 5.38531
#
# Compressibility (1/GPa) = 0.04254880
#
# Stress axis : x y z
#
# Youngs Moduli (GPa) = 52.47682 41.51764 43.09884
#
# Poissons Ratio (x) = 0.37008 0.29248
# Poissons Ratio (y) = 0.46776 -0.16386
# Poissons Ratio (z) = 0.35612 -0.15785
#
# Static dielectric constant tensor:
#      x y z
#    x 3.702030 0.000000 0.136730 
#    y 0.000000 3.740380 0.000000 
#    z 0.136730 0.000000 3.877610 
# 
# 
# High freq. dielectric constant tensor:
#      x y z
#    x 1.838340 0.000000 0.018610 
#    y 0.000000 1.831100 0.000000 
#    z 0.018610 0.000000 1.845780 
# 
# From -- ./inp_files/287305.got.cif
#   From: 2010.06.25/outbox.cif.g09.slc.cpg/sg15_144_cif.got.tgz:287305.got - 2010.06.28 07:06:18.
