data_PCOD8144141
_publ_section_title
;
Structure prediction by ZEFSAII (Michael W. Deem and Ramdas Pophale) SiO2 
 PCOD8144141
Probable space group: C 2/C
;
_chemical_formula_sum "Si O2"
_cell_formula_units_Z 52
_cell_length_a 10.641762
_cell_length_b 11.586230
_cell_length_c 22.404726
_cell_angle_alpha 90.000000
_cell_angle_beta 117.320411
_cell_angle_gamma 90.000000
_cell_volume 2454.314241
_symmetry_space_group_name_H-M "C 2/C"
_symmetry_group_IT_number 15
_symmetry_cell_setting 'monoclinic'
loop_
_space_group_symop_operation_xyz
x,y,z
-x,y,1/2-z
-x,-y,-z
x,-y,1/2+z
1/2+x,1/2+y,z
1/2-x,1/2+y,1/2-z
1/2-x,1/2-y,-z
1/2+x,1/2-y,1/2+z
loop_
_atom_site_type_symbol
_atom_site_label
_atom_site_fract_x
_atom_site_fract_y
_atom_site_fract_z
Si Si1 0.432130 0.432878 0.297481
Si Si2 0.107598 0.005234 0.939494
Si Si3 0.356229 0.011863 0.817599
Si Si4 0.797503 0.258499 0.840563
Si Si5 0.000000 0.647421 0.750000
Si Si6 0.109140 0.595196 0.545829
Si Si7 0.437085 0.681257 0.981457
O O1 0.500000 0.398779 0.250000
O O2 0.534475 0.516564 0.358515
O O3 0.281986 0.490894 0.253823
O O4 0.410237 0.317536 0.329878
O O5 0.252969 0.073963 0.963939
O O6 0.007581 0.080643 0.958831
O O7 0.130318 0.878877 0.974344
O O8 0.366255 0.881649 0.841689
O O9 0.482712 0.062532 0.803644
O O10 0.350561 0.089633 0.875528
O O11 0.635513 0.232691 0.786121
O O12 0.810839 0.237379 0.914696
O O13 0.000000 0.500000 0.500000
O O14 0.052467 0.723581 0.523713
#
# Coordination Sequence:
#
# PCOD8144141 Si02
#       7
#     8   8   8   8   4   8   8
#     4  10  21  42  63  92 123 163 220 261 321 390
#     4  10  23  43  67  91 131 174 216 272 320 396
#     4  11  24  43  65  96 128 171 215 269 335 388
#     4  10  23  41  65  92 131 170 214 271 326 386
#     4  10  26  44  64  98 134 172 224 274 324 402
#     4  12  24  39  63  98 128 164 216 268 326 388
#     4  10  23  43  65  97 127 174 220 266 331 386
#
# _framework density 21.187180999999999
#
# number of rings (size 3 to 8) (size 9 to 14) (size 15 to 20)
#    0.000    1.538    3.077    0.462    4.308    4.308 
#    0.000    0.000    0.000    0.000    0.000    0.000 
#    0.000    0.000    0.000    0.000    0.000    0.000 
#
# Total GULP energy -322274.266313 kJ/mol
# GULP energy per Si atom -12395.164089 kJ/mol
# Density = 2.113896 g / cm^3
# Si number density = 21.187181 Si / 1000 Ang^3
#
#
#
# Elastic Constant Matrix: (Units=GPa)
#
#
# Indices 1 2 3 4 5 6 
#
# 1 72.6236 6.8536 22.6356 0.0000 -12.4575 0.0000
# 2 6.8536 77.7248 44.0858 0.0000 -9.9128 0.0000
# 3 22.6356 44.0858 134.2834 0.0000 -4.1816 0.0000
# 4 0.0000 0.0000 0.0000 26.6799 0.0000 5.0110
# 5 -12.4575 -9.9128 -4.1816 0.0000 28.7834 0.0000
# 6 0.0000 0.0000 0.0000 5.0110 0.0000 28.3240
#
#
#
# Elastic Compliance Matrix: (Units=1/GPa)
#
#
# Indices 1 2 3 4 5 6 
#
# 1 0.015695 0.001055 -0.002782 0.000000 0.006752 0.000000
# 2 0.001055 0.016544 -0.005442 0.000000 0.005364 0.000000
# 3 -0.002782 -0.005442 0.009650 0.000000 -0.001676 0.000000
# 4 0.000000 0.000000 0.000000 0.038770 0.000000 -0.006859
# 5 0.006752 0.005364 -0.001676 0.000000 0.039268 0.000000
# 6 0.000000 0.000000 0.000000 -0.006859 0.000000 0.036519
#
#
# Mechanical properties :
#
#
# Convention : Reuss Voigt Hill
#
# Bulk Modulus (GPa) = 36.29568 47.97574 42.13571
# Shear Modulus (GPa) = 27.78264 30.82790 29.30527
#
# Velocity S-wave (km/s) = 3.62511 3.81862 3.72312
# Velocity P-wave (km/s) = 5.88983 6.49118 6.19780
#
# Compressibility (1/GPa) = 0.02755149
#
# Stress axis : x y z
#
# Youngs Moduli (GPa) = 63.71313 60.44572 103.62311
#
# Poissons Ratio (x) = -0.06377 0.28826
# Poissons Ratio (y) = -0.06722 0.56394
# Poissons Ratio (z) = 0.17724 0.32896
#
# Static dielectric constant tensor:
#      x y z
#    x 3.843880 0.000000 -0.129600 
#    y 0.000000 3.836580 0.000000 
#    z -0.129600 0.000000 4.358950 
# 
# 
# High freq. dielectric constant tensor:
#      x y z
#    x 1.826900 0.000000 -0.004840 
#    y 0.000000 1.826480 0.000000 
#    z -0.004840 0.000000 1.850720 
# 
# From -- ./inp_files/237700.got.cif
#   From: 2010.06.25/outbox.cif.g09.slc.cpg/sg15_119_cif.got.tgz:237700.got - 2010.06.28 07:06:18.
