data_PCOD8144197
_publ_section_title
;
Structure prediction by ZEFSAII (Michael W. Deem and Ramdas Pophale) SiO2 
 PCOD8144197
Probable space group: C 2/C
;
_chemical_formula_sum "Si O2"
_cell_formula_units_Z 64
_cell_length_a 17.992137
_cell_length_b 8.852683
_cell_length_c 28.522525
_cell_angle_alpha 90.000000
_cell_angle_beta 140.816402
_cell_angle_gamma 90.000000
_cell_volume 2870.320308
_symmetry_space_group_name_H-M "C 2/C"
_symmetry_group_IT_number 15
_symmetry_cell_setting 'monoclinic'
loop_
_space_group_symop_operation_xyz
x,y,z
-x,y,1/2-z
-x,-y,-z
x,-y,1/2+z
1/2+x,1/2+y,z
1/2-x,1/2+y,1/2-z
1/2-x,1/2-y,-z
1/2+x,1/2-y,1/2+z
loop_
_atom_site_type_symbol
_atom_site_label
_atom_site_fract_x
_atom_site_fract_y
_atom_site_fract_z
Si Si1 0.620079 0.779787 0.788566
Si Si2 0.102276 0.733647 0.880945
Si Si3 0.491979 0.829464 0.481237
Si Si4 0.307327 0.748093 0.459432
Si Si5 0.139164 0.578669 0.744960
Si Si6 0.792425 0.574506 0.824756
Si Si7 0.261294 0.780039 0.872387
Si Si8 0.234706 0.002221 0.488757
O O1 0.500000 0.707533 0.750000
O O2 0.705315 0.802032 0.874277
O O3 0.676685 0.676011 0.775811
O O4 0.587381 0.937892 0.748109
O O5 0.149915 0.768974 0.852181
O O6 0.130374 0.881249 0.925739
O O7 0.962883 0.704757 0.810503
O O8 0.160438 0.585783 0.932694
O O9 0.430971 0.738830 0.493570
O O10 0.409525 0.826053 0.394651
O O11 0.621448 0.755365 0.537978
O O12 0.500000 0.000000 0.500000
O O13 0.320702 0.630636 0.507782
O O14 0.286242 0.920630 0.467338
O O15 0.193413 0.524093 0.721934
O O16 0.247443 0.650232 0.826702
O O17 0.775026 0.436897 0.851876
#
# Coordination Sequence:
#
# PCOD8144197 Si02
#       8
#     8   8   8   8   8   8   8   8
#     4  11  23  45  67  92 132 177 213 267 342 395
#     4  11  24  40  68  95 135 177 214 277 336 403
#     4   9  20  39  67  87 131 169 214 258 336 388
#     4  10  21  42  65 100 128 176 220 281 320 407
#     4  12  25  43  65  99 134 169 223 280 332 396
#     4  10  24  43  67  96 128 174 226 268 325 404
#     4  11  23  43  66  94 132 175 216 266 343 396
#     4  10  22  39  65 100 131 164 235 267 332 388
#
# _framework density 22.297163000000001
#
# number of rings (size 3 to 8) (size 9 to 14) (size 15 to 20)
#    0.000    1.500    0.000    5.625    7.000    2.000 
#    9.000    1.875    0.000    0.000    0.000    0.000 
#    0.000    0.000    0.000    0.000    0.000    0.000 
#
# Total GULP energy -396771.277524 kJ/mol
# GULP energy per Si atom -12399.102423 kJ/mol
# Density = 2.224641 g / cm^3
# Si number density = 22.297163 Si / 1000 Ang^3
#
#
#
# Elastic Constant Matrix: (Units=GPa)
#
#
# Indices 1 2 3 4 5 6 
#
# 1 108.7901 24.3083 45.1727 0.0000 -6.9979 0.0000
# 2 24.3083 81.7745 29.1567 0.0000 -1.1485 -0.0001
# 3 45.1727 29.1567 79.5670 0.0000 1.3851 0.0000
# 4 0.0000 0.0000 0.0000 33.0521 0.0000 -7.4053
# 5 -6.9979 -1.1485 1.3851 0.0000 40.1962 0.0000
# 6 0.0000 -0.0001 0.0000 -7.4053 0.0000 32.8998
#
#
#
# Elastic Compliance Matrix: (Units=1/GPa)
#
#
# Indices 1 2 3 4 5 6 
#
# 1 0.012367 -0.001295 -0.006588 0.000000 0.002343 0.000000
# 2 -0.001295 0.014216 -0.004480 0.000000 0.000335 0.000000
# 3 -0.006588 -0.004480 0.017983 0.000000 -0.001895 0.000000
# 4 0.000000 0.000000 0.000000 0.031862 0.000000 0.007172
# 5 0.002343 0.000335 -0.001895 0.000000 0.025361 0.000000
# 6 0.000000 0.000000 0.000000 0.007172 0.000000 0.032010
#
#
# Mechanical properties :
#
#
# Convention : Reuss Voigt Hill
#
# Bulk Modulus (GPa) = 50.40065 51.93409 51.16737
# Shear Modulus (GPa) = 30.27791 32.66253 31.47022
#
# Velocity S-wave (km/s) = 3.68900 3.83152 3.76094
# Velocity P-wave (km/s) = 6.38734 6.55106 6.46972
#
# Compressibility (1/GPa) = 0.01984101
#
# Stress axis : x y z
#
# Youngs Moduli (GPa) = 80.85756 70.34499 55.60874
#
# Poissons Ratio (x) = 0.09107 0.36634
# Poissons Ratio (y) = 0.10468 0.24913
# Poissons Ratio (z) = 0.53267 0.31515
#
# Static dielectric constant tensor:
#      x y z
#    x 4.010840 0.000000 -0.014760 
#    y 0.000000 3.985200 0.000000 
#    z -0.014760 0.000000 4.271180 
# 
# 
# High freq. dielectric constant tensor:
#      x y z
#    x 1.883980 0.000000 -0.009230 
#    y 0.000000 1.870500 0.000000 
#    z -0.009230 0.000000 1.876640 
# 
# From -- ./inp_files/315739.got.cif
#   From: 2010.06.25/outbox.cif.g09.slc.cpg/sg15_158_cif.got.tgz:315739.got - 2010.06.28 07:06:18.
