data_PCOD8144248
_publ_section_title
;
Structure prediction by ZEFSAII (Michael W. Deem and Ramdas Pophale) SiO2 
 PCOD8144248
Probable space group: C 2/C
;
_chemical_formula_sum "Si O2"
_cell_formula_units_Z 48
_cell_length_a 17.179107
_cell_length_b 10.394024
_cell_length_c 26.057881
_cell_angle_alpha 90.000000
_cell_angle_beta 151.828765
_cell_angle_gamma 90.000000
_cell_volume 2196.670856
_symmetry_space_group_name_H-M "C 2/C"
_symmetry_group_IT_number 15
_symmetry_cell_setting 'monoclinic'
loop_
_space_group_symop_operation_xyz
x,y,z
-x,y,1/2-z
-x,-y,-z
x,-y,1/2+z
1/2+x,1/2+y,z
1/2-x,1/2+y,1/2-z
1/2-x,1/2-y,-z
1/2+x,1/2-y,1/2+z
loop_
_atom_site_type_symbol
_atom_site_label
_atom_site_fract_x
_atom_site_fract_y
_atom_site_fract_z
Si Si1 0.937874 0.125030 0.309647
Si Si2 0.500000 0.532110 0.750000
Si Si3 0.549186 0.076868 0.079075
Si Si4 0.432993 0.080348 0.811496
Si Si5 0.268244 0.757230 0.387503
Si Si6 0.394450 0.550158 0.391672
Si Si7 0.500000 0.064468 0.250000
O O1 0.038856 0.058276 0.321800
O O2 0.740459 0.113377 0.189171
O O3 0.987717 0.272938 0.341541
O O4 0.996623 0.064896 0.398259
O O5 0.345009 0.614964 0.680593
O O6 0.498418 0.989690 0.097930
O O7 0.437562 0.207025 0.015445
O O8 0.500000 0.000000 0.000000
O O9 0.237295 0.061144 0.695648
O O10 0.508977 0.020070 0.805201
O O11 0.312869 0.691201 0.358019
O O12 0.163231 0.648990 0.355033
O O13 0.500000 0.500000 0.500000
#
# Coordination Sequence:
#
# PCOD8144248 Si02
#       7
#     8   4   8   8   8   8   4
#     4  11  23  40  68  94 137 167 217 274 325 391
#     4  11  23  42  64 102 133 167 212 274 346 377
#     4  11  21  39  65  94 123 169 226 256 319 391
#     4  10  22  39  62  91 128 171 208 270 326 385
#     4  10  21  42  66  90 130 167 219 269 312 396
#     4  10  22  42  65  95 124 172 225 263 317 391
#     4   9  21  42  60  92 133 165 214 266 336 381
#
# _framework density 21.851247999999998
#
# number of rings (size 3 to 8) (size 9 to 14) (size 15 to 20)
#    0.000    1.667    1.667    2.500    2.333    0.667 
#   12.000    0.833    0.000    0.000    0.000    0.000 
#    0.000    0.000    0.000    0.000    0.000    0.000 
#
# Total GULP energy -297396.948316 kJ/mol
# GULP energy per Si atom -12391.539513 kJ/mol
# Density = 2.180151 g / cm^3
# Si number density = 21.851248 Si / 1000 Ang^3
#
#
#
# Elastic Constant Matrix: (Units=GPa)
#
#
# Indices 1 2 3 4 5 6 
#
# 1 138.0972 50.3505 33.3337 0.0000 -42.1944 0.0000
# 2 50.3505 95.0372 17.3205 -0.0004 -20.8912 -0.0002
# 3 33.3337 17.3205 86.3879 0.0001 -24.7959 -0.0004
# 4 0.0000 -0.0004 0.0001 36.5013 0.0002 0.6326
# 5 -42.1944 -20.8912 -24.7959 0.0002 44.3441 -0.0001
# 6 0.0000 -0.0002 -0.0004 0.6326 -0.0001 23.1431
#
#
#
# Elastic Compliance Matrix: (Units=1/GPa)
#
#
# Indices 1 2 3 4 5 6 
#
# 1 0.011598 -0.004066 -0.001241 0.000000 0.008426 0.000000
# 2 -0.004066 0.013224 -0.000482 0.000000 0.002091 0.000000
# 3 -0.001241 -0.000482 0.013993 0.000000 0.006416 0.000000
# 4 0.000000 0.000000 0.000000 0.027409 0.000000 -0.000749
# 5 0.008426 0.002091 0.006416 0.000000 0.035141 0.000000
# 6 0.000000 0.000000 0.000000 -0.000749 0.000000 0.043230
#
#
# Mechanical properties :
#
#
# Convention : Reuss Voigt Hill
#
# Bulk Modulus (GPa) = 36.71666 57.94796 47.33231
# Shear Modulus (GPa) = 30.25656 35.36552 32.81104
#
# Velocity S-wave (km/s) = 3.72514 4.02738 3.87921
# Velocity P-wave (km/s) = 5.94489 6.94286 6.46316
#
# Compressibility (1/GPa) = 0.02723559
#
# Stress axis : x y z
#
# Youngs Moduli (GPa) = 86.22245 75.61997 71.46432
#
# Poissons Ratio (x) = 0.30748 0.08872
# Poissons Ratio (y) = 0.35059 0.03445
# Poissons Ratio (z) = 0.10704 0.03646
#
# Static dielectric constant tensor:
#      x y z
#    x 4.121370 0.000000 -0.046130 
#    y 0.000000 4.185750 0.000000 
#    z -0.046130 0.000000 3.748760 
# 
# 
# High freq. dielectric constant tensor:
#      x y z
#    x 1.864560 0.000000 -0.007680 
#    y 0.000000 1.870450 0.000000 
#    z -0.007680 0.000000 1.841190 
# 
# From -- ./inp_files/277329.got.cif
#   From: 2010.06.25/outbox.cif.g09.slc.cpg/sg15_139_cif.got.tgz:277329.got - 2010.06.28 07:06:18.
