data_PCOD8144386
_publ_section_title
;
Structure prediction by ZEFSAII (Michael W. Deem and Ramdas Pophale) SiO2 
 PCOD8144386
Probable space group: C 2/C
;
_chemical_formula_sum "Si O2"
_cell_formula_units_Z 60
_cell_length_a 26.464819
_cell_length_b 15.213011
_cell_length_c 20.676111
_cell_angle_alpha 90.000000
_cell_angle_beta 160.052068
_cell_angle_gamma 90.000000
_cell_volume 2840.002801
_symmetry_space_group_name_H-M "C 2/C"
_symmetry_group_IT_number 15
_symmetry_cell_setting 'monoclinic'
loop_
_space_group_symop_operation_xyz
x,y,z
-x,y,1/2-z
-x,-y,-z
x,-y,1/2+z
1/2+x,1/2+y,z
1/2-x,1/2+y,1/2-z
1/2-x,1/2-y,-z
1/2+x,1/2-y,1/2+z
loop_
_atom_site_type_symbol
_atom_site_label
_atom_site_fract_x
_atom_site_fract_y
_atom_site_fract_z
Si Si1 0.894690 0.219661 0.881238
Si Si2 0.102541 0.297758 0.753236
Si Si3 0.823646 0.597749 0.938545
Si Si4 0.450131 0.074384 0.617689
Si Si5 0.258633 0.170712 0.563549
Si Si6 0.675333 0.612243 0.893129
Si Si7 0.500000 0.528533 0.250000
Si Si8 0.763111 0.211273 0.184254
O O1 0.871631 0.282188 0.791505
O O2 0.812863 0.125167 0.772242
O O3 0.827463 0.274992 0.859059
O O4 0.064724 0.194381 0.096062
O O5 0.109812 0.207464 0.801024
O O6 0.934540 0.321555 0.566468
O O7 0.215209 0.374189 0.913368
O O8 0.771736 0.579267 0.949018
O O9 0.913616 0.509675 0.028201
O O10 0.500000 0.048567 0.750000
O O11 0.578919 0.131001 0.741312
O O12 0.299520 0.130877 0.433981
O O13 0.250000 0.250000 0.500000
O O14 0.235983 0.203702 0.608529
O O15 0.140977 0.092153 0.419292
O O16 0.543923 0.540624 0.745829
#
# Coordination Sequence:
#
# PCOD8144386 Si02
#       8
#     8   8   8   8   8   8   4   8
#     4  11  25  44  69 100 138 198 235 280 355 449
#     4  10  21  42  69  96 143 190 235 274 367 426
#     4  11  23  43  69 104 141 184 237 294 357 430
#     4  12  24  43  74 107 135 177 242 308 363 410
#     4  12  25  45  72 101 135 190 235 309 365 426
#     4  10  24  37  68 104 141 182 230 307 347 418
#     4  12  26  40  64 114 138 166 246 310 364 418
#     4  12  25  46  72  98 142 185 245 287 364 437
#
# _framework density 21.126740000000002
#
# number of rings (size 3 to 8) (size 9 to 14) (size 15 to 20)
#    0.000    0.800    4.000    3.600    5.600    0.533 
#    0.000    5.333    0.000    0.000    0.000    0.000 
#    0.000    0.000    0.000    0.000    0.000    0.000 
#
# Total GULP energy -371729.750384 kJ/mol
# GULP energy per Si atom -12390.991679 kJ/mol
# Density = 2.107865 g / cm^3
# Si number density = 21.126740 Si / 1000 Ang^3
#
#
#
# Elastic Constant Matrix: (Units=GPa)
#
#
# Indices 1 2 3 4 5 6 
#
# 1 88.9529 21.6689 31.1096 -0.0004 5.4799 -0.0007
# 2 21.6689 107.8428 52.8384 0.0008 8.4572 -0.0006
# 3 31.1096 52.8384 135.2710 -0.0032 8.9030 0.0020
# 4 -0.0004 0.0008 -0.0032 33.7117 -0.0017 17.5620
# 5 5.4799 8.4572 8.9030 -0.0017 33.0836 0.0030
# 6 -0.0007 -0.0006 0.0020 17.5620 0.0030 26.8735
#
#
#
# Elastic Compliance Matrix: (Units=1/GPa)
#
#
# Indices 1 2 3 4 5 6 
#
# 1 0.012422 -0.001292 -0.002279 -0.000001 -0.001114 0.000001
# 2 -0.001292 0.011703 -0.004165 -0.000002 -0.001657 0.000002
# 3 -0.002279 -0.004165 0.009619 0.000002 -0.001146 -0.000002
# 4 -0.000001 -0.000002 0.000002 0.044975 0.000005 -0.029391
# 5 -0.001114 -0.001657 -0.001146 0.000005 0.031143 -0.000007
# 6 0.000001 0.000002 -0.000002 -0.029391 -0.000007 0.056419
#
#
# Mechanical properties :
#
#
# Convention : Reuss Voigt Hill
#
# Bulk Modulus (GPa) = 54.72797 60.36672 57.54734
# Shear Modulus (GPa) = 26.61791 33.83041 30.22416
#
# Velocity S-wave (km/s) = 3.55338 4.00598 3.78645
# Velocity P-wave (km/s) = 6.54188 7.07338 6.81282
#
# Compressibility (1/GPa) = 0.01827219
#
# Stress axis : x y z
#
# Youngs Moduli (GPa) = 80.50057 85.44775 103.96035
#
# Poissons Ratio (x) = 0.11041 0.23691
# Poissons Ratio (y) = 0.10402 0.43301
# Poissons Ratio (z) = 0.18345 0.35590
#
# Static dielectric constant tensor:
#      x y z
#    x 3.824820 0.000000 0.048150 
#    y 0.000000 3.887250 0.000000 
#    z 0.048150 0.000000 4.065450 
# 
# 
# High freq. dielectric constant tensor:
#      x y z
#    x 1.821950 0.000000 0.016600 
#    y 0.000000 1.832610 0.000000 
#    z 0.016600 0.000000 1.839780 
# 
# From -- ./inp_files/257907.got.cif
#   From: 2010.06.25/outbox.cif.g09.slc.cpg/sg15_129_cif.got.tgz:257907.got - 2010.06.28 07:06:18.
