data_PCOD8144104
_publ_section_title
;
Structure prediction by ZEFSAII (Michael W. Deem and Ramdas Pophale) SiO2 
 PCOD8144104
Probable space group: C 2/C
;
_chemical_formula_sum "Si O2"
_cell_formula_units_Z 48
_cell_length_a 14.023222
_cell_length_b 28.312720
_cell_length_c 8.152490
_cell_angle_alpha 90.000000
_cell_angle_beta 46.096616
_cell_angle_gamma 90.000000
_cell_volume 2332.167750
_symmetry_space_group_name_H-M "C 2/C"
_symmetry_group_IT_number 15
_symmetry_cell_setting 'monoclinic'
loop_
_space_group_symop_operation_xyz
x,y,z
-x,y,1/2-z
-x,-y,-z
x,-y,1/2+z
1/2+x,1/2+y,z
1/2-x,1/2+y,1/2-z
1/2-x,1/2-y,-z
1/2+x,1/2-y,1/2+z
loop_
_atom_site_type_symbol
_atom_site_label
_atom_site_fract_x
_atom_site_fract_y
_atom_site_fract_z
Si Si1 0.851662 0.905715 0.387074
Si Si2 0.715999 0.354406 0.714398
Si Si3 0.360101 0.236969 0.000709
Si Si4 0.949214 0.815556 0.127495
Si Si5 0.360453 0.069336 0.871060
Si Si6 0.136578 0.529769 0.996858
O O1 0.778988 0.887563 0.634817
O O2 0.858267 0.862106 0.250533
O O3 0.766542 0.948112 0.421268
O O4 0.000000 0.923903 0.250000
O O5 0.826740 0.314469 0.610782
O O6 0.749732 0.389383 0.520844
O O7 0.573914 0.328766 0.861359
O O8 0.500000 0.234739 0.750000
O O9 0.250000 0.250000 0.000000
O O10 0.363434 0.274194 0.147440
O O11 0.000000 0.800862 0.250000
O O12 0.500000 0.093820 0.750000
O O13 0.366772 0.046399 0.685357
O O14 0.339890 0.026415 0.024770
O O15 0.000000 0.544650 0.250000
#
# Coordination Sequence:
#
# PCOD8144104 Si02
#       6
#     8   8   8   8   8   8
#     4   9  21  42  65  88 127 162 212 251 312 371
#     4  10  21  42  61  89 126 161 210 256 308 375
#     4  12  24  40  63  90 128 163 213 263 319 372
#     4   9  22  43  64  88 126 171 208 262 314 374
#     4  11  22  39  64  93 129 161 206 254 316 365
#     4  11  22  39  66  94 126 164 202 260 306 375
#
# _framework density 20.581709
#
# number of rings (size 3 to 8) (size 9 to 14) (size 15 to 20)
#    0.000    2.000    1.667    4.500    2.333    2.667 
#    0.000    7.500    0.000    0.000    0.000    0.000 
#    0.000    0.000    0.000    0.000    0.000    0.000 
#
# Total GULP energy -297489.599569 kJ/mol
# GULP energy per Si atom -12395.399982 kJ/mol
# Density = 2.053486 g / cm^3
# Si number density = 20.581709 Si / 1000 Ang^3
#
#
#
# Elastic Constant Matrix: (Units=GPa)
#
#
# Indices 1 2 3 4 5 6 
#
# 1 105.1788 47.5680 40.7423 0.0000 -7.8424 0.0000
# 2 47.5680 107.6897 56.9247 0.0000 -7.7196 0.0000
# 3 40.7423 56.9247 108.5939 0.0000 -3.7856 0.0000
# 4 0.0000 0.0000 0.0000 26.5104 0.0000 6.8835
# 5 -7.8424 -7.7196 -3.7856 0.0000 22.5602 0.0000
# 6 0.0000 0.0000 0.0000 6.8835 0.0000 26.6325
#
#
#
# Elastic Compliance Matrix: (Units=1/GPa)
#
#
# Indices 1 2 3 4 5 6 
#
# 1 0.012476 -0.004013 -0.002488 0.000000 0.002546 0.000000
# 2 -0.004013 0.014383 -0.005946 0.000000 0.002529 0.000000
# 3 -0.002488 -0.005946 0.013235 0.000000 -0.000679 0.000000
# 4 0.000000 0.000000 0.000000 0.040435 0.000000 -0.010451
# 5 0.002546 0.002529 -0.000679 0.000000 0.045962 0.000000
# 6 0.000000 0.000000 0.000000 -0.010451 0.000000 0.040249
#
#
# Mechanical properties :
#
#
# Convention : Reuss Voigt Hill
#
# Bulk Modulus (GPa) = 65.78932 67.99249 66.89091
# Shear Modulus (GPa) = 25.41920 26.88909 26.15415
#
# Velocity S-wave (km/s) = 3.51812 3.61841 3.56862
# Velocity P-wave (km/s) = 6.96687 7.11086 7.03923
#
# Compressibility (1/GPa) = 0.01520003
#
# Stress axis : x y z
#
# Youngs Moduli (GPa) = 80.15157 69.52815 75.55569
#
# Poissons Ratio (x) = 0.27902 0.18802
# Poissons Ratio (y) = 0.32165 0.44922
# Poissons Ratio (z) = 0.19946 0.41339
#
# Static dielectric constant tensor:
#      x y z
#    x 3.515100 0.000000 -0.001180 
#    y 0.000000 3.948810 0.000000 
#    z -0.001180 0.000000 3.947000 
# 
# 
# High freq. dielectric constant tensor:
#      x y z
#    x 1.790380 0.000000 0.000220 
#    y 0.000000 1.808380 0.000000 
#    z 0.000220 0.000000 1.816810 
# 
# From -- ./inp_files/44408.got.cif
#   From: 2010.06.25/outbox.cif.g09.slc.cpg/sg15_23_cif.got.tgz:44408.got - 2010.06.28 07:06:18.
