data_PCOD8144874
_publ_section_title
;
Structure prediction by ZEFSAII (Michael W. Deem and Ramdas Pophale) SiO2 
 PCOD8144874
Probable space group: C 2/C
;
_chemical_formula_sum "Si O2"
_cell_formula_units_Z 44
_cell_length_a 26.019292
_cell_length_b 9.814222
_cell_length_c 22.529391
_cell_angle_alpha 90.000000
_cell_angle_beta 160.230290
_cell_angle_gamma 90.000000
_cell_volume 1945.926219
_symmetry_space_group_name_H-M "C 2/C"
_symmetry_group_IT_number 15
_symmetry_cell_setting 'monoclinic'
loop_
_space_group_symop_operation_xyz
x,y,z
-x,y,1/2-z
-x,-y,-z
x,-y,1/2+z
1/2+x,1/2+y,z
1/2-x,1/2+y,1/2-z
1/2-x,1/2-y,-z
1/2+x,1/2-y,1/2+z
loop_
_atom_site_type_symbol
_atom_site_label
_atom_site_fract_x
_atom_site_fract_y
_atom_site_fract_z
Si Si1 0.000000 0.924337 0.750000
Si Si2 0.820180 0.590687 0.398431
Si Si3 0.605184 0.433987 0.565068
Si Si4 0.203318 0.161453 0.004579
Si Si5 0.518996 0.339119 0.642308
Si Si6 0.979988 0.313793 0.600924
O O1 0.850128 0.014841 0.576445
O O2 0.967472 0.830063 0.771767
O O3 0.770835 0.581432 0.275282
O O4 0.683430 0.637167 0.292447
O O5 0.874673 0.444499 0.479539
O O6 0.956916 0.697194 0.550175
O O7 0.500000 0.500000 0.500000
O O8 0.598054 0.536602 0.500986
O O9 0.542055 0.285801 0.479052
O O10 0.343439 0.144263 0.202813
O O11 0.250000 0.250000 0.000000
O O12 0.065234 0.235403 0.888103
#
# Coordination Sequence:
#
# PCOD8144874 Si02
#       6
#     4   8   8   8   8   8
#     4  12  24  44  68  92 150 182 230 296 356 418
#     4  11  26  44  68 102 139 183 237 288 355 421
#     4  10  21  46  71  99 141 177 231 297 347 416
#     4  12  22  42  69 102 133 181 238 291 349 424
#     4  11  25  47  66 101 141 187 232 293 358 421
#     4  12  24  42  72 104 135 182 240 287 357 421
#
# _framework density 22.611342
#
# number of rings (size 3 to 8) (size 9 to 14) (size 15 to 20)
#    0.000    0.727    3.636    4.364    2.545    2.182 
#    3.273    5.455    0.000    0.000    0.000    0.000 
#    0.000    0.000    0.000    0.000    0.000    0.000 
#
# Total GULP energy -272892.525375 kJ/mol
# GULP energy per Si atom -12404.205699 kJ/mol
# Density = 2.255988 g / cm^3
# Si number density = 22.611342 Si / 1000 Ang^3
#
#
#
# Elastic Constant Matrix: (Units=GPa)
#
#
# Indices 1 2 3 4 5 6 
#
# 1 69.5035 21.8141 23.0506 -0.0008 -9.9562 -0.0005
# 2 21.8141 117.1562 37.1897 0.0003 -2.4223 0.0000
# 3 23.0506 37.1897 106.7397 0.0007 -9.5971 0.0007
# 4 -0.0008 0.0003 0.0007 50.4416 0.0003 -4.0351
# 5 -9.9562 -2.4223 -9.5971 0.0003 37.0547 0.0001
# 6 -0.0005 0.0000 0.0007 -4.0351 0.0001 31.7964
#
#
#
# Elastic Compliance Matrix: (Units=1/GPa)
#
#
# Indices 1 2 3 4 5 6 
#
# 1 0.016412 -0.002203 -0.002450 0.000000 0.003631 0.000000
# 2 -0.002203 0.009895 -0.003038 0.000000 -0.000732 0.000000
# 3 -0.002450 -0.003038 0.011138 0.000000 0.002028 0.000000
# 4 0.000000 0.000000 0.000000 0.020028 0.000000 0.002542
# 5 0.003631 -0.000732 0.002028 0.000000 0.028440 0.000000
# 6 0.000000 0.000000 0.000000 0.002542 0.000000 0.031773
#
#
# Mechanical properties :
#
#
# Convention : Reuss Voigt Hill
#
# Bulk Modulus (GPa) = 45.32326 50.83425 48.07875
# Shear Modulus (GPa) = 35.60688 37.94821 36.77754
#
# Velocity S-wave (km/s) = 3.97260 4.10113 4.03737
# Velocity P-wave (km/s) = 6.41327 6.70494 6.56073
#
# Compressibility (1/GPa) = 0.02206373
#
# Stress axis : x y z
#
# Youngs Moduli (GPa) = 60.93132 101.06199 89.77974
#
# Poissons Ratio (x) = 0.22264 0.21997
# Poissons Ratio (y) = 0.13423 0.27271
# Poissons Ratio (z) = 0.14929 0.30699
#
# Static dielectric constant tensor:
#      x y z
#    x 4.082740 0.000000 -0.275020 
#    y 0.000000 4.045290 0.000000 
#    z -0.275020 0.000000 4.681170 
# 
# 
# High freq. dielectric constant tensor:
#      x y z
#    x 1.891860 0.000000 -0.014980 
#    y 0.000000 1.888010 0.000000 
#    z -0.014980 0.000000 1.904730 
# 
# From -- ./inp_files/69218.got.cif
#   From: 2010.06.25/outbox.cif.g09.slc.cpg/sg15_35_cif.got.tgz:69218.got - 2010.06.28 07:06:18.
