data_PCOD8144110
_publ_section_title
;
Structure prediction by ZEFSAII (Michael W. Deem and Ramdas Pophale) SiO2 
 PCOD8144110
Probable space group: C 2/C
;
_chemical_formula_sum "Si O2"
_cell_formula_units_Z 56
_cell_length_a 13.010011
_cell_length_b 9.165414
_cell_length_c 29.542616
_cell_angle_alpha 90.000000
_cell_angle_beta 131.343520
_cell_angle_gamma 90.000000
_cell_volume 2644.729931
_symmetry_space_group_name_H-M "C 2/C"
_symmetry_group_IT_number 15
_symmetry_cell_setting 'monoclinic'
loop_
_space_group_symop_operation_xyz
x,y,z
-x,y,1/2-z
-x,-y,-z
x,-y,1/2+z
1/2+x,1/2+y,z
1/2-x,1/2+y,1/2-z
1/2-x,1/2-y,-z
1/2+x,1/2-y,1/2+z
loop_
_atom_site_type_symbol
_atom_site_label
_atom_site_fract_x
_atom_site_fract_y
_atom_site_fract_z
Si Si1 0.451313 0.640458 0.056649
Si Si2 0.186132 0.601903 0.928684
Si Si3 0.085524 0.125000 0.640349
Si Si4 0.150081 0.351903 0.071316
Si Si5 0.531366 0.109542 0.443351
Si Si6 0.441547 0.291325 0.186672
Si Si7 0.631532 0.958675 0.313329
O O1 0.381279 0.761183 0.066992
O O2 0.482408 0.504879 0.097884
O O3 0.590158 0.701236 0.074371
O O4 0.347864 0.595479 0.986302
O O5 0.117044 0.451235 0.925629
O O6 0.164000 0.624564 0.869175
O O7 0.240028 0.063818 0.682811
O O8 0.061245 0.254879 0.597884
O O9 0.058407 0.186182 0.682812
O O10 0.306474 0.374564 0.130825
O O11 0.069699 0.488817 0.066993
O O12 0.138958 0.345479 0.013698
O O13 0.500000 0.361558 0.250000
O O14 0.401899 0.125000 0.184599
O O15 0.500000 0.888442 0.250000
#
# Coordination Sequence:
#
# PCOD8144110 Si02
#       7
#     8   8   8   8   8   8   8
#     4  10  22  37  68  97 132 173 216 275 346 387
#     4  10  21  42  61  97 138 169 216 282 325 403
#     4  12  24  42  70  98 121 178 222 266 344 404
#     4  10  21  42  61  97 138 169 216 282 325 403
#     4  10  22  37  68  97 132 173 216 275 346 387
#     4  11  25  45  66  96 134 175 221 280 327 403
#     4  11  25  45  66  96 134 175 221 280 327 403
#
# _framework density 21.174185000000001
#
# number of rings (size 3 to 8) (size 9 to 14) (size 15 to 20)
#    0.000    1.429    2.857    1.714    2.000    8.000 
#    0.000    1.429    0.000    0.000    0.000    0.000 
#    0.000    0.000    0.000    0.000    0.000    0.000 
#
# Total GULP energy -347285.496003 kJ/mol
# GULP energy per Si atom -12403.053429 kJ/mol
# Density = 2.112599 g / cm^3
# Si number density = 21.174185 Si / 1000 Ang^3
#
#
#
# Elastic Constant Matrix: (Units=GPa)
#
#
# Indices 1 2 3 4 5 6 
#
# 1 127.3975 25.1617 70.7720 0.0000 0.4100 0.0000
# 2 25.1617 79.7009 25.0119 0.0000 -0.0097 0.0000
# 3 70.7720 25.0119 169.3624 0.0000 2.3119 0.0000
# 4 0.0000 0.0000 0.0000 17.7190 0.0000 -0.3680
# 5 0.4100 -0.0097 2.3119 0.0000 31.5979 0.0000
# 6 0.0000 0.0000 0.0000 -0.3680 0.0000 23.3926
#
#
#
# Elastic Compliance Matrix: (Units=1/GPa)
#
#
# Indices 1 2 3 4 5 6 
#
# 1 0.010530 -0.002037 -0.004101 0.000000 0.000163 0.000000
# 2 -0.002037 0.013551 -0.001152 0.000000 0.000115 0.000000
# 3 -0.004101 -0.001152 0.007796 0.000000 -0.000518 0.000000
# 4 0.000000 0.000000 0.000000 0.056455 0.000000 0.000888
# 5 0.000163 0.000115 -0.000518 0.000000 0.031683 0.000000
# 6 0.000000 0.000000 0.000000 0.000888 0.000000 0.042763
#
#
# Mechanical properties :
#
#
# Convention : Reuss Voigt Hill
#
# Bulk Modulus (GPa) = 57.81585 68.70578 63.26082
# Shear Modulus (GPa) = 27.30397 31.57625 29.44011
#
# Velocity S-wave (km/s) = 3.59485 3.86588 3.73282
# Velocity P-wave (km/s) = 6.67793 7.24189 6.96562
#
# Compressibility (1/GPa) = 0.01729629
#
# Stress axis : x y z
#
# Youngs Moduli (GPa) = 94.96938 73.79289 128.27872
#
# Poissons Ratio (x) = 0.15032 0.52613
# Poissons Ratio (y) = 0.19346 0.14773
# Poissons Ratio (z) = 0.38951 0.08498
#
# Static dielectric constant tensor:
#      x y z
#    x 3.831550 0.000000 0.019850 
#    y 0.000000 3.770900 0.000000 
#    z 0.019850 0.000000 4.137590 
# 
# 
# High freq. dielectric constant tensor:
#      x y z
#    x 1.834820 0.000000 -0.000200 
#    y 0.000000 1.827360 0.000000 
#    z -0.000200 0.000000 1.831730 
# 
# From -- ./inp_files/310388.got.cif
#   From: 2010.06.25/outbox.cif.g09.slc.cpg/sg15_156_cif.got.tgz:310388.got - 2010.06.28 07:06:18.
