data_PCOD8144997
_publ_section_title
;
Structure prediction by ZEFSAII (Michael W. Deem and Ramdas Pophale) SiO2 
 PCOD8144997
Probable space group: C 2/C
;
_chemical_formula_sum "Si O2"
_cell_formula_units_Z 52
_cell_length_a 13.424183
_cell_length_b 21.660622
_cell_length_c 17.780435
_cell_angle_alpha 90.000000
_cell_angle_beta 150.658189
_cell_angle_gamma 90.000000
_cell_volume 2533.458691
_symmetry_space_group_name_H-M "C 2/C"
_symmetry_group_IT_number 15
_symmetry_cell_setting 'monoclinic'
loop_
_space_group_symop_operation_xyz
x,y,z
-x,y,1/2-z
-x,-y,-z
x,-y,1/2+z
1/2+x,1/2+y,z
1/2-x,1/2+y,1/2-z
1/2-x,1/2-y,-z
1/2+x,1/2-y,1/2+z
loop_
_atom_site_type_symbol
_atom_site_label
_atom_site_fract_x
_atom_site_fract_y
_atom_site_fract_z
Si Si1 0.778148 0.575945 0.847075
Si Si2 0.439901 0.439126 0.004988
Si Si3 0.420784 0.681224 0.980363
Si Si4 0.360052 0.024448 0.510712
Si Si5 0.500000 0.027920 0.250000
Si Si6 0.686855 0.650112 0.422498
Si Si7 0.110602 0.697999 0.642089
O O1 0.575929 0.560190 0.668727
O O2 0.762331 0.540656 0.917051
O O3 0.801071 0.650757 0.863595
O O4 0.984455 0.551564 0.946517
O O5 0.206520 0.433032 0.878299
O O6 0.500000 0.500000 0.000000
O O7 0.472548 0.382128 0.971473
O O8 0.248900 0.698527 0.807220
O O9 0.326403 0.672851 0.000713
O O10 0.595271 0.734029 0.095908
O O11 0.489834 0.015332 0.670992
O O12 0.188600 0.075291 0.417119
O O13 0.500000 0.675434 0.250000
O O14 0.886390 0.679055 0.518675
#
# Coordination Sequence:
#
# PCOD8144997 Si02
#       7
#     8   8   8   8   4   8   8
#     4   9  21  41  60  87 123 165 206 259 313 374
#     4  11  23  40  64  90 127 164 208 267 320 378
#     4  11  23  40  62  89 127 166 208 262 322 379
#     4  10  22  36  59  90 124 163 208 255 317 376
#     4  12  24  36  62  92 122 164 208 264 316 384
#     4  11  23  34  58  92 128 169 207 256 313 392
#     4  10  22  40  63  88 125 168 211 258 314 385
#
# _framework density 20.525300000000001
#
# number of rings (size 3 to 8) (size 9 to 14) (size 15 to 20)
#    0.000    1.538    1.538    2.769    8.615    2.462 
#    0.000    0.000    0.000    8.308    0.000    0.000 
#    0.000    0.000    0.000    0.000    0.000    0.000 
#
# Total GULP energy -322294.905270 kJ/mol
# GULP energy per Si atom -12395.957895 kJ/mol
# Density = 2.047858 g / cm^3
# Si number density = 20.525300 Si / 1000 Ang^3
#
#
#
# Elastic Constant Matrix: (Units=GPa)
#
#
# Indices 1 2 3 4 5 6 
#
# 1 29.5062 32.8442 20.7289 -0.0014 -1.9248 -0.0024
# 2 32.8442 153.6256 55.4088 0.0009 -9.2222 0.0016
# 3 20.7289 55.4088 118.4600 -0.0069 0.6286 -0.0098
# 4 -0.0014 0.0009 -0.0069 33.6153 -0.0042 4.0584
# 5 -1.9248 -9.2222 0.6286 -0.0042 37.7391 -0.0087
# 6 -0.0024 0.0016 -0.0098 4.0584 -0.0087 16.0648
#
#
#
# Elastic Compliance Matrix: (Units=1/GPa)
#
#
# Indices 1 2 3 4 5 6 
#
# 1 0.046125 -0.008332 -0.004176 0.000001 0.000386 0.000005
# 2 -0.008332 0.009485 -0.002989 -0.000001 0.001943 -0.000003
# 3 -0.004176 -0.002989 0.010576 0.000001 -0.001120 0.000005
# 4 0.000001 -0.000001 0.000001 0.030684 0.000001 -0.007752
# 5 0.000386 0.001943 -0.001120 0.000001 0.027011 0.000013
# 6 0.000005 -0.000003 0.000005 -0.007752 0.000013 0.064206
#
#
# Mechanical properties :
#
#
# Convention : Reuss Voigt Hill
#
# Bulk Modulus (GPa) = 28.41515 57.72841 43.07178
# Shear Modulus (GPa) = 21.66265 30.32451 25.99358
#
# Velocity S-wave (km/s) = 3.25223 3.84789 3.56254
# Velocity P-wave (km/s) = 5.28930 6.92302 6.16056
#
# Compressibility (1/GPa) = 0.03519249
#
# Stress axis : x y z
#
# Youngs Moduli (GPa) = 21.68045 105.42624 94.54949
#
# Poissons Ratio (x) = 0.87839 0.39485
# Poissons Ratio (y) = 0.18064 0.28261
# Poissons Ratio (z) = 0.09054 0.31512
#
# Static dielectric constant tensor:
#      x y z
#    x 3.608110 -0.000020 -0.015680 
#    y -0.000020 4.292950 -0.000030 
#    z -0.015680 -0.000030 3.953330 
# 
# 
# High freq. dielectric constant tensor:
#      x y z
#    x 1.776410 0.000000 -0.003030 
#    y 0.000000 1.805640 0.000000 
#    z -0.003030 0.000000 1.819220 
# 
# From -- ./inp_files/40875.got.cif
#   From: 2010.06.25/outbox.cif.g09.slc.cpg/sg15_21_cif.got.tgz:40875.got - 2010.06.28 07:06:18.
