data_PCOD8144870
_publ_section_title
;
Structure prediction by ZEFSAII (Michael W. Deem and Ramdas Pophale) SiO2 
 PCOD8144870
Probable space group: C 2/C
;
_chemical_formula_sum "Si O2"
_cell_formula_units_Z 24
_cell_length_a 6.874683
_cell_length_b 13.346486
_cell_length_c 13.824738
_cell_angle_alpha 90.000000
_cell_angle_beta 45.367059
_cell_angle_gamma 90.000000
_cell_volume 902.663817
_symmetry_space_group_name_H-M "C 2/C"
_symmetry_group_IT_number 15
_symmetry_cell_setting 'monoclinic'
loop_
_space_group_symop_operation_xyz
x,y,z
-x,y,1/2-z
-x,-y,-z
x,-y,1/2+z
1/2+x,1/2+y,z
1/2-x,1/2+y,1/2-z
1/2-x,1/2-y,-z
1/2+x,1/2-y,1/2+z
loop_
_atom_site_type_symbol
_atom_site_label
_atom_site_fract_x
_atom_site_fract_y
_atom_site_fract_z
Si Si1 0.118150 0.651257 0.443989
Si Si2 0.093005 0.029677 0.573329
Si Si3 0.769319 0.204529 0.762112
O O1 0.352547 0.571275 0.385911
O O2 0.255594 0.733921 0.327750
O O3 0.860513 0.600646 0.479138
O O4 0.016121 0.703574 0.579820
O O5 0.845535 0.088807 0.711631
O O6 0.000000 0.000000 0.500000
O O7 0.000000 0.253839 0.750000
#
# Coordination Sequence:
#
# PCOD8144870 Si02
#       3
#     8   8   8
#     4  10  23  47  70 103 144 185 235 296 361 420
#     4  10  22  43  69 102 139 187 236 288 350 433
#     4  10  21  46  70 103 145 184 237 296 358 424
#
# _framework density 26.587971
#
# number of rings (size 3 to 8) (size 9 to 14) (size 15 to 20)
#    0.000    2.000    0.000    4.000    0.000    2.667 
#   54.000    6.667    0.000    0.000    0.000    0.000 
#    0.000    0.000    0.000    0.000    0.000    0.000 
#
# Total GULP energy -148862.756401 kJ/mol
# GULP energy per Si atom -12405.229700 kJ/mol
# Density = 2.652746 g / cm^3
# Si number density = 26.587971 Si / 1000 Ang^3
#
#
#
# Elastic Constant Matrix: (Units=GPa)
#
#
# Indices 1 2 3 4 5 6 
#
# 1 106.5781 44.6779 83.8968 -0.0009 20.8524 0.0006
# 2 44.6779 168.6912 121.9430 -0.0003 20.6904 0.0000
# 3 83.8968 121.9430 189.7736 -0.0015 30.2082 0.0016
# 4 -0.0009 -0.0003 -0.0015 53.0218 0.0012 19.6937
# 5 20.8524 20.6904 30.2082 0.0012 42.5399 -0.0008
# 6 0.0006 0.0000 0.0016 19.6937 -0.0008 34.6069
#
#
#
# Elastic Compliance Matrix: (Units=1/GPa)
#
#
# Indices 1 2 3 4 5 6 
#
# 1 0.014925 0.001568 -0.007125 0.000000 -0.003019 0.000000
# 2 0.001568 0.011240 -0.007805 0.000000 -0.000693 0.000000
# 3 -0.007125 -0.007805 0.013839 0.000001 -0.002538 -0.000001
# 4 0.000000 0.000000 0.000001 0.023915 -0.000001 -0.013609
# 5 -0.003019 -0.000693 -0.002538 -0.000001 0.027127 0.000002
# 6 0.000000 0.000000 -0.000001 -0.013609 0.000002 0.036641
#
#
# Mechanical properties :
#
#
# Convention : Reuss Voigt Hill
#
# Bulk Modulus (GPa) = 75.30799 107.34204 91.32502
# Shear Modulus (GPa) = 31.47868 40.33541 35.90705
#
# Velocity S-wave (km/s) = 3.44458 3.89916 3.67890
# Velocity P-wave (km/s) = 6.64874 7.79303 7.24352
#
# Compressibility (1/GPa) = 0.01327880
#
# Stress axis : x y z
#
# Youngs Moduli (GPa) = 67.00179 88.96743 72.25957
#
# Poissons Ratio (x) = -0.13950 0.51486
# Poissons Ratio (y) = -0.10506 0.56402
# Poissons Ratio (z) = 0.47740 0.69443
#
# Static dielectric constant tensor:
#      x y z
#    x 4.906810 0.000000 0.143230 
#    y 0.000000 4.880560 0.000000 
#    z 0.143230 0.000000 4.754020 
# 
# 
# High freq. dielectric constant tensor:
#      x y z
#    x 2.084120 0.000000 0.007840 
#    y 0.000000 2.064070 0.000000 
#    z 0.007840 0.000000 2.072740 
# 
# From -- ./inp_files/21103.got.cif
#   From: 2010.06.25/outbox.cif.g09.slc.cpg/sg15_11_cif.got.tgz:21103.got - 2010.06.28 07:06:18.
