data_PCOD8144201
_publ_section_title
;
Structure prediction by ZEFSAII (Michael W. Deem and Ramdas Pophale) SiO2 
 PCOD8144201
Probable space group: C 2/C
;
_chemical_formula_sum "Si O2"
_cell_formula_units_Z 56
_cell_length_a 22.994476
_cell_length_b 12.740788
_cell_length_c 9.018045
_cell_angle_alpha 90.000000
_cell_angle_beta 71.640204
_cell_angle_gamma 90.000000
_cell_volume 2507.511464
_symmetry_space_group_name_H-M "C 2/C"
_symmetry_group_IT_number 15
_symmetry_cell_setting 'monoclinic'
loop_
_space_group_symop_operation_xyz
x,y,z
-x,y,1/2-z
-x,-y,-z
x,-y,1/2+z
1/2+x,1/2+y,z
1/2-x,1/2+y,1/2-z
1/2-x,1/2-y,-z
1/2+x,1/2-y,1/2+z
loop_
_atom_site_type_symbol
_atom_site_label
_atom_site_fract_x
_atom_site_fract_y
_atom_site_fract_z
Si Si1 0.057353 0.628080 0.414002
Si Si2 0.818454 0.654389 0.045035
Si Si3 0.500000 0.035252 0.750000
Si Si4 0.242517 0.439650 0.370653
Si Si5 0.500000 0.708645 0.750000
Si Si6 0.825218 0.952817 0.573803
Si Si7 0.194480 0.748584 0.749477
Si Si8 0.456196 0.490200 0.400428
O O1 0.128156 0.657390 0.375308
O O2 0.049589 0.533491 0.302155
O O3 0.021551 0.726031 0.374676
O O4 0.033805 0.604531 0.599305
O O5 0.798849 0.534210 0.034392
O O6 0.764158 0.721441 0.158343
O O7 0.839035 0.705050 0.871209
O O8 0.293118 0.409681 0.451939
O O9 0.278203 0.469600 0.191930
O O10 0.197441 0.342089 0.372442
O O11 0.553391 0.630970 0.647421
O O12 0.841621 0.851602 0.663130
O O13 0.885971 0.023928 0.488419
O O14 0.500000 0.554810 0.250000
O O15 0.500000 0.500000 0.500000
#
# Coordination Sequence:
#
# PCOD8144201 Si02
#       8
#     8   8   4   8   4   8   8   8
#     4  10  21  42  65  88 130 161 205 265 311 375
#     4  10  23  40  63  94 131 168 203 270 316 382
#     4   9  22  40  63  96 118 166 211 248 316 381
#     4  11  22  42  64  98 128 168 215 257 330 388
#     4   9  24  44  59  96 124 160 217 258 316 375
#     4  11  23  40  69  92 132 174 204 277 319 377
#     4  10  23  41  59 103 128 161 223 249 324 391
#     4  10  23  45  63  94 122 165 223 263 314 379
#
# _framework density 22.332899000000001
#
# number of rings (size 3 to 8) (size 9 to 14) (size 15 to 20)
#    0.429    1.429    1.429    1.286    4.000    1.143 
#    9.000    0.000    0.000    0.000    0.000    0.000 
#    0.000    0.000    0.000    0.000    0.000    0.000 
#
# Total GULP energy -346935.051940 kJ/mol
# GULP energy per Si atom -12390.537569 kJ/mol
# Density = 2.228207 g / cm^3
# Si number density = 22.332899 Si / 1000 Ang^3
#
#
#
# Elastic Constant Matrix: (Units=GPa)
#
#
# Indices 1 2 3 4 5 6 
#
# 1 90.8977 -11.5371 19.6114 0.0000 15.4016 0.0000
# 2 -11.5371 54.1347 -2.1158 0.0000 3.6507 0.0000
# 3 19.6114 -2.1158 98.8609 0.0000 14.5044 0.0000
# 4 0.0000 0.0000 0.0000 19.3983 0.0000 10.2062
# 5 15.4016 3.6507 14.5044 0.0000 37.6351 0.0000
# 6 0.0000 0.0000 0.0000 10.2062 0.0000 21.4349
#
#
#
# Elastic Compliance Matrix: (Units=1/GPa)
#
#
# Indices 1 2 3 4 5 6 
#
# 1 0.012552 0.002928 -0.001730 0.000000 -0.004754 0.000000
# 2 0.002928 0.019323 0.000301 0.000000 -0.003188 0.000000
# 3 -0.001730 0.000301 0.010986 0.000000 -0.003555 0.000000
# 4 0.000000 0.000000 0.000000 0.068782 0.000000 -0.032751
# 5 -0.004754 -0.003188 -0.003555 0.000000 0.030196 0.000000
# 6 0.000000 0.000000 0.000000 -0.032751 0.000000 0.062247
#
#
# Mechanical properties :
#
#
# Convention : Reuss Voigt Hill
#
# Bulk Modulus (GPa) = 21.80607 28.42336 25.11471
# Shear Modulus (GPa) = 23.10798 31.55598 27.33198
#
# Velocity S-wave (km/s) = 3.22017 3.76304 3.50214
# Velocity P-wave (km/s) = 4.85915 5.62454 5.25579
#
# Compressibility (1/GPa) = 0.04585880
#
# Stress axis : x y z
#
# Youngs Moduli (GPa) = 79.67036 51.75119 91.02143
#
# Poissons Ratio (x) = -0.15153 0.15745
# Poissons Ratio (y) = -0.23327 -0.02735
# Poissons Ratio (z) = 0.13781 -0.01555
#
# Static dielectric constant tensor:
#      x y z
#    x 3.710010 0.000000 0.291020 
#    y 0.000000 3.554050 0.000000 
#    z 0.291020 0.000000 4.008180 
# 
# 
# High freq. dielectric constant tensor:
#      x y z
#    x 1.867710 0.000000 0.019710 
#    y 0.000000 1.868570 0.000000 
#    z 0.019710 0.000000 1.888220 
# 
# From -- ./inp_files/61509.got.cif
#   From: 2010.06.25/outbox.cif.g09.slc.cpg/sg15_31_cif.got.tgz:61509.got - 2010.06.28 07:06:18.
