data_PCOD8144167
_publ_section_title
;
Structure prediction by ZEFSAII (Michael W. Deem and Ramdas Pophale) SiO2 
 PCOD8144167
Probable space group: C 2/C
;
_chemical_formula_sum "Si O2"
_cell_formula_units_Z 48
_cell_length_a 28.046194
_cell_length_b 9.071905
_cell_length_c 15.400094
_cell_angle_alpha 90.000000
_cell_angle_beta 39.172375
_cell_angle_gamma 90.000000
_cell_volume 2475.005363
_symmetry_space_group_name_H-M "C 2/C"
_symmetry_group_IT_number 15
_symmetry_cell_setting 'monoclinic'
loop_
_space_group_symop_operation_xyz
x,y,z
-x,y,1/2-z
-x,-y,-z
x,-y,1/2+z
1/2+x,1/2+y,z
1/2-x,1/2+y,1/2-z
1/2-x,1/2-y,-z
1/2+x,1/2-y,1/2+z
loop_
_atom_site_type_symbol
_atom_site_label
_atom_site_fract_x
_atom_site_fract_y
_atom_site_fract_z
Si Si1 0.085320 0.680903 0.633662
Si Si2 0.414625 0.518255 0.894161
Si Si3 0.225278 0.083675 0.523675
Si Si4 0.714155 0.016618 0.883256
Si Si5 0.684951 0.173034 0.649087
Si Si6 0.675930 0.311810 0.848338
O O1 0.135115 0.565063 0.510385
O O2 0.108138 0.680310 0.702680
O O3 0.000000 0.625343 0.750000
O O4 0.094922 0.843150 0.578436
O O5 0.500000 0.559592 0.750000
O O6 0.359041 0.572129 0.895469
O O7 0.396469 0.603171 0.009985
O O8 0.250000 0.250000 0.500000
O O9 0.230632 0.007900 0.611046
O O10 0.284760 0.994344 0.378084
O O11 0.756643 0.930953 0.746421
O O12 0.698873 0.185065 0.882607
O O13 0.750000 0.250000 0.500000
O O14 0.663484 0.246183 0.770569
#
# Coordination Sequence:
#
# PCOD8144167 Si02
#       6
#     8   8   8   8   8   8
#     4  10  21  42  64  88 125 165 195 246 315 358
#     4  11  23  40  63  90 126 158 201 252 307 357
#     4  11  20  40  61  90 119 163 203 244 299 364
#     4  11  22  36  64  92 121 158 209 250 291 368
#     4  11  20  40  64  84 123 159 200 250 303 354
#     4  12  22  37  62  94 121 157 208 253 294 359
#
# _framework density 19.393896000000002
#
# number of rings (size 3 to 8) (size 9 to 14) (size 15 to 20)
#    0.000    1.000    6.667    2.000    0.000    0.667 
#    0.000   10.000    0.000    0.000    0.000    0.000 
#    0.000    0.000    0.000    0.000    0.000    0.000 
#
# Total GULP energy -297505.930251 kJ/mol
# GULP energy per Si atom -12396.080427 kJ/mol
# Density = 1.934975 g / cm^3
# Si number density = 19.393896 Si / 1000 Ang^3
#
#
#
# Elastic Constant Matrix: (Units=GPa)
#
#
# Indices 1 2 3 4 5 6 
#
# 1 117.7912 26.8317 64.9608 -0.0001 -16.6486 0.0001
# 2 26.8317 117.1421 60.5902 -0.0005 -6.0428 0.0004
# 3 64.9608 60.5902 132.8498 -0.0002 -6.7008 0.0001
# 4 -0.0001 -0.0005 -0.0002 33.3588 0.0001 2.2239
# 5 -16.6486 -6.0428 -6.7008 0.0001 35.9762 -0.0001
# 6 0.0001 0.0004 0.0001 2.2239 -0.0001 28.2697
#
#
#
# Elastic Compliance Matrix: (Units=1/GPa)
#
#
# Indices 1 2 3 4 5 6 
#
# 1 0.012371 0.000543 -0.006060 0.000000 0.004687 0.000000
# 2 0.000543 0.011227 -0.005328 0.000000 0.001145 0.000000
# 3 -0.006060 -0.005328 0.012855 0.000000 -0.001305 0.000000
# 4 0.000000 0.000000 0.000000 0.030135 0.000000 -0.002371
# 5 0.004687 0.001145 -0.001305 0.000000 0.029914 0.000000
# 6 0.000000 0.000000 0.000000 -0.002371 0.000000 0.035560
#
#
# Mechanical properties :
#
#
# Convention : Reuss Voigt Hill
#
# Bulk Modulus (GPa) = 67.74330 74.72760 71.23545
# Shear Modulus (GPa) = 31.51119 33.88096 32.69608
#
# Velocity S-wave (km/s) = 4.03525 4.18424 4.11042
# Velocity P-wave (km/s) = 7.53107 7.87140 7.70312
#
# Compressibility (1/GPa) = 0.01476161
#
# Stress axis : x y z
#
# Youngs Moduli (GPa) = 80.83746 89.06843 77.79189
#
# Poissons Ratio (x) = -0.04834 0.47142
# Poissons Ratio (y) = -0.04388 0.41449
# Poissons Ratio (z) = 0.48988 0.47458
#
# Static dielectric constant tensor:
#      x y z
#    x 3.749390 0.000000 0.086450 
#    y 0.000000 3.921110 0.000000 
#    z 0.086450 0.000000 3.417350 
# 
# 
# High freq. dielectric constant tensor:
#      x y z
#    x 1.751280 0.000000 0.009350 
#    y 0.000000 1.779970 0.000000 
#    z 0.009350 0.000000 1.733400 
# 
# From -- ./inp_files/176896.got.cif
#   From: 2010.06.25/outbox.cif.g09.slc.cpg/sg15_89_cif.got.tgz:176896.got - 2010.06.28 07:06:18.
