data_PCOD8144145
_publ_section_title
;
Structure prediction by ZEFSAII (Michael W. Deem and Ramdas Pophale) SiO2 
 PCOD8144145
Probable space group: C 2/C
;
_chemical_formula_sum "Si O2"
_cell_formula_units_Z 40
_cell_length_a 5.421683
_cell_length_b 13.861781
_cell_length_c 26.471478
_cell_angle_alpha 90.000000
_cell_angle_beta 99.618162
_cell_angle_gamma 90.000000
_cell_volume 1961.476943
_symmetry_space_group_name_H-M "C 2/C"
_symmetry_group_IT_number 15
_symmetry_cell_setting 'monoclinic'
loop_
_space_group_symop_operation_xyz
x,y,z
-x,y,1/2-z
-x,-y,-z
x,-y,1/2+z
1/2+x,1/2+y,z
1/2-x,1/2+y,1/2-z
1/2-x,1/2-y,-z
1/2+x,1/2-y,1/2+z
loop_
_atom_site_type_symbol
_atom_site_label
_atom_site_fract_x
_atom_site_fract_y
_atom_site_fract_z
Si Si1 0.954402 0.583885 0.926174
Si Si2 0.612227 0.293996 0.604144
Si Si3 0.325745 0.432437 0.526359
Si Si4 0.455483 0.607812 0.192609
Si Si5 0.085776 0.454082 0.847381
O O1 0.822699 0.683272 0.905079
O O2 0.756684 0.497532 0.928504
O O3 0.124604 0.545972 0.885700
O O4 0.099914 0.603067 0.983299
O O5 0.459631 0.337455 0.551643
O O6 0.452072 0.305603 0.651023
O O7 0.869267 0.354716 0.618949
O O8 0.500000 0.500000 0.500000
O O9 0.500000 0.651087 0.250000
O O10 0.194372 0.548745 0.184653
O O11 0.693480 0.537675 0.187245
#
# Coordination Sequence:
#
# PCOD8144145 Si02
#       5
#     8   8   8   8   8
#     4  11  22  39  62  93 130 168 211 257 315 384
#     4  10  23  38  64  90 129 168 204 267 314 369
#     4  11  21  39  59  93 131 168 215 253 311 384
#     4  10  21  42  67  91 125 164 211 269 322 373
#     4  10  21  42  63  93 126 164 210 260 317 379
#
# _framework density 20.392793999999999
#
# number of rings (size 3 to 8) (size 9 to 14) (size 15 to 20)
#    1.200    0.400    4.000    1.200    0.000    2.400 
#    0.000    2.000    0.000    0.000    0.000    0.000 
#    0.000    0.000    0.000    0.000    0.000    0.000 
#
# Total GULP energy -247791.400620 kJ/mol
# GULP energy per Si atom -12389.570031 kJ/mol
# Density = 2.034638 g / cm^3
# Si number density = 20.392794 Si / 1000 Ang^3
#
#
#
# Elastic Constant Matrix: (Units=GPa)
#
#
# Indices 1 2 3 4 5 6 
#
# 1 100.1608 17.5379 18.8847 0.0000 6.2921 0.0000
# 2 17.5379 106.8684 29.8287 0.0000 -3.0716 0.0000
# 3 18.8847 29.8287 97.4406 0.0000 -2.3736 0.0000
# 4 0.0000 0.0000 0.0000 17.2221 0.0000 1.2215
# 5 6.2921 -3.0716 -2.3736 0.0000 25.5968 0.0000
# 6 0.0000 0.0000 0.0000 1.2215 0.0000 21.5416
#
#
#
# Elastic Compliance Matrix: (Units=1/GPa)
#
#
# Indices 1 2 3 4 5 6 
#
# 1 0.010736 -0.001363 -0.001736 0.000000 -0.002964 0.000000
# 2 -0.001363 0.010427 -0.002896 0.000000 0.001318 0.000000
# 3 -0.001736 -0.002896 0.011513 0.000000 0.001147 0.000000
# 4 0.000000 0.000000 0.000000 0.058299 0.000000 -0.003306
# 5 -0.002964 0.001318 0.001147 0.000000 0.040060 0.000000
# 6 0.000000 0.000000 0.000000 -0.003306 0.000000 0.046609
#
#
# Mechanical properties :
#
#
# Convention : Reuss Voigt Hill
#
# Bulk Modulus (GPa) = 48.33665 48.55251 48.44458
# Shear Modulus (GPa) = 25.44142 28.75332 27.09737
#
# Velocity S-wave (km/s) = 3.53593 3.75904 3.64919
# Velocity P-wave (km/s) = 6.35804 6.53459 6.44692
#
# Compressibility (1/GPa) = 0.02068823
#
# Stress axis : x y z
#
# Youngs Moduli (GPa) = 93.14488 95.90455 86.85479
#
# Poissons Ratio (x) = 0.13067 0.15076
# Poissons Ratio (y) = 0.12691 0.25151
# Poissons Ratio (z) = 0.16168 0.27772
#
# Static dielectric constant tensor:
#      x y z
#    x 3.914190 0.000000 0.081140 
#    y 0.000000 3.250330 0.000000 
#    z 0.081140 0.000000 3.938550 
# 
# 
# High freq. dielectric constant tensor:
#      x y z
#    x 1.793460 0.000000 -0.002750 
#    y 0.000000 1.758160 0.000000 
#    z -0.002750 0.000000 1.799910 
# 
# From -- ./inp_files/304823.got.cif
#   From: 2010.06.25/outbox.cif.g09.slc.cpg/sg15_153_cif.got.tgz:304823.got - 2010.06.28 07:06:18.
