data_PCOD8144106
_publ_section_title
;
Structure prediction by ZEFSAII (Michael W. Deem and Ramdas Pophale) SiO2 
 PCOD8144106
Probable space group: C 2/C
;
_chemical_formula_sum "Si O2"
_cell_formula_units_Z 56
_cell_length_a 14.665298
_cell_length_b 11.624899
_cell_length_c 18.086574
_cell_angle_alpha 90.000000
_cell_angle_beta 60.652273
_cell_angle_gamma 90.000000
_cell_volume 2687.720870
_symmetry_space_group_name_H-M "C 2/C"
_symmetry_group_IT_number 15
_symmetry_cell_setting 'monoclinic'
loop_
_space_group_symop_operation_xyz
x,y,z
-x,y,1/2-z
-x,-y,-z
x,-y,1/2+z
1/2+x,1/2+y,z
1/2-x,1/2+y,1/2-z
1/2-x,1/2-y,-z
1/2+x,1/2-y,1/2+z
loop_
_atom_site_type_symbol
_atom_site_label
_atom_site_fract_x
_atom_site_fract_y
_atom_site_fract_z
Si Si1 0.705800 0.563202 0.054293
Si Si2 0.943508 0.610287 0.985601
Si Si3 0.757008 0.063297 0.626525
Si Si4 0.563935 0.716750 0.889644
Si Si5 0.422878 0.776444 0.346786
Si Si6 0.385844 0.862893 0.767885
Si Si7 0.907240 0.858848 0.341492
O O1 0.619099 0.662818 0.095550
O O2 0.678035 0.457650 0.118655
O O3 0.818581 0.601590 0.037411
O O4 0.708113 0.521642 0.968535
O O5 0.976161 0.637063 0.886902
O O6 0.970131 0.724231 0.020709
O O7 0.000000 0.500000 0.000000
O O8 0.854491 0.112084 0.633834
O O9 0.675775 0.166184 0.652350
O O10 0.703290 0.958962 0.692257
O O11 0.608206 0.816893 0.818147
O O12 0.457511 0.662215 0.901581
O O13 0.500000 0.742958 0.250000
O O14 0.500000 0.910112 0.750000
O O15 0.352136 0.756837 0.833878
O O16 0.000000 0.896767 0.250000
#
# Coordination Sequence:
#
# PCOD8144106 Si02
#       7
#     8   8   8   8   8   8   8
#     4  11  22  43  65  89 132 166 207 267 328 380
#     4  11  24  42  65  96 126 167 216 268 308 385
#     4  11  21  40  64  93 125 166 214 269 319 372
#     4  10  21  42  61  90 132 158 218 259 314 371
#     4  11  23  42  65  94 128 171 212 258 328 380
#     4   9  22  40  64  88 126 173 211 260 319 383
#     4   9  22  42  62  90 129 173 206 259 324 381
#
# _framework density 20.835497
#
# number of rings (size 3 to 8) (size 9 to 14) (size 15 to 20)
#    0.000    2.000    2.857    1.714   10.000    3.429 
#    2.571    0.000    0.000    0.000    0.000    0.000 
#    0.000    0.000    0.000    0.000    0.000    0.000 
#
# Total GULP energy -347123.919292 kJ/mol
# GULP energy per Si atom -12397.282832 kJ/mol
# Density = 2.078807 g / cm^3
# Si number density = 20.835497 Si / 1000 Ang^3
#
#
#
# Elastic Constant Matrix: (Units=GPa)
#
#
# Indices 1 2 3 4 5 6 
#
# 1 53.1803 11.8459 22.3790 0.0000 15.4523 0.0000
# 2 11.8459 76.3731 26.5482 0.0000 -9.2310 0.0000
# 3 22.3790 26.5482 81.1420 0.0000 -5.1077 0.0000
# 4 0.0000 0.0000 0.0000 20.6042 0.0000 5.6948
# 5 15.4523 -9.2310 -5.1077 0.0000 24.4400 0.0000
# 6 0.0000 0.0000 0.0000 5.6948 0.0000 22.9784
#
#
#
# Elastic Compliance Matrix: (Units=1/GPa)
#
#
# Indices 1 2 3 4 5 6 
#
# 1 0.029632 -0.004450 -0.008108 0.000000 -0.022110 0.000000
# 2 -0.004450 0.015978 -0.003489 0.000000 0.008119 0.000000
# 3 -0.008108 -0.003489 0.016154 0.000000 0.007185 0.000000
# 4 0.000000 0.000000 0.000000 0.052103 0.000000 -0.012913
# 5 -0.022110 0.008119 0.007185 0.000000 0.059464 0.000000
# 6 0.000000 0.000000 0.000000 -0.012913 0.000000 0.046719
#
#
# Mechanical properties :
#
#
# Convention : Reuss Voigt Hill
#
# Bulk Modulus (GPa) = 33.70529 36.91573 35.31051
# Shear Modulus (GPa) = 19.08144 23.59933 21.34038
#
# Velocity S-wave (km/s) = 3.02952 3.36914 3.20383
# Velocity P-wave (km/s) = 5.33379 5.73506 5.53806
#
# Compressibility (1/GPa) = 0.02966893
#
# Stress axis : x y z
#
# Youngs Moduli (GPa) = 33.74769 62.58567 61.90310
#
# Poissons Ratio (x) = 0.27850 0.50193
# Poissons Ratio (y) = 0.15017 0.21600
# Poissons Ratio (z) = 0.27364 0.21839
#
# Static dielectric constant tensor:
#      x y z
#    x 3.705080 0.000000 0.109550 
#    y 0.000000 3.752020 0.000000 
#    z 0.109550 0.000000 3.929270 
# 
# 
# High freq. dielectric constant tensor:
#      x y z
#    x 1.804820 0.000000 0.014030 
#    y 0.000000 1.816380 0.000000 
#    z 0.014030 0.000000 1.814910 
# 
# From -- ./inp_files/204374.got.cif
#   From: 2010.06.25/outbox.cif.g09.slc.cpg/sg15_103_cif.got.tgz:204374.got - 2010.06.28 07:06:18.
