data_PCOD8144074
_publ_section_title
;
Structure prediction by ZEFSAII (Michael W. Deem and Ramdas Pophale) SiO2 
 PCOD8144074
Probable space group: C 2/C
;
_chemical_formula_sum "Si O2"
_cell_formula_units_Z 60
_cell_length_a 11.510128
_cell_length_b 17.340799
_cell_length_c 28.852449
_cell_angle_alpha 90.000000
_cell_angle_beta 152.180312
_cell_angle_gamma 90.000000
_cell_volume 2687.577322
_symmetry_space_group_name_H-M "C 2/C"
_symmetry_group_IT_number 15
_symmetry_cell_setting 'monoclinic'
loop_
_space_group_symop_operation_xyz
x,y,z
-x,y,1/2-z
-x,-y,-z
x,-y,1/2+z
1/2+x,1/2+y,z
1/2-x,1/2+y,1/2-z
1/2-x,1/2-y,-z
1/2+x,1/2-y,1/2+z
loop_
_atom_site_type_symbol
_atom_site_label
_atom_site_fract_x
_atom_site_fract_y
_atom_site_fract_z
Si Si1 0.103356 0.556869 0.094105
Si Si2 0.881912 0.867079 0.283332
Si Si3 0.676974 0.661947 0.970779
Si Si4 0.913363 0.423096 0.078744
Si Si5 0.500000 0.256438 0.250000
Si Si6 0.767209 0.947169 0.925427
Si Si7 0.147294 0.878813 0.636364
Si Si8 0.566610 0.453901 0.704156
O O1 0.264074 0.581445 0.195801
O O2 0.277215 0.569533 0.110327
O O3 0.003079 0.467124 0.063236
O O4 0.874656 0.615681 0.008980
O O5 0.596724 0.857681 0.163985
O O6 0.056067 0.810401 0.314213
O O7 0.917408 0.845623 0.350268
O O8 0.951000 0.954689 0.298468
O O9 0.750000 0.750000 0.000000
O O10 0.656782 0.624251 0.014425
O O11 0.934375 0.496763 0.122136
O O12 0.644786 0.383093 0.980045
O O13 0.748258 0.207753 0.324403
O O14 0.684503 0.916182 0.845780
O O15 0.000000 0.000000 0.000000
O O16 0.181313 0.923060 0.696613
#
# Coordination Sequence:
#
# PCOD8144074 Si02
#       8
#     8   8   8   8   4   8   8   8
#     4   9  20  39  66  98 126 161 227 281 313 402
#     4  11  23  41  64  94 130 178 214 275 329 397
#     4  11  23  39  65  89 134 177 213 265 343 397
#     4   9  20  40  67  96 128 166 232 276 321 399
#     4  12  28  40  62 100 148 168 220 272 350 398
#     4   9  19  41  63  95 126 164 224 274 315 391
#     4  11  24  40  67  98 135 174 213 281 340 397
#     4  10  21  41  72  96 125 175 229 272 333 395
#
# _framework density 22.324939000000001
#
# number of rings (size 3 to 8) (size 9 to 14) (size 15 to 20)
#    0.000    1.867    0.000    4.800    7.467    3.733 
#    0.000    4.667    0.000    0.000    0.000    0.000 
#    0.000    0.000    0.000    0.000    0.000    0.000 
#
# Total GULP energy -371737.795717 kJ/mol
# GULP energy per Si atom -12391.259857 kJ/mol
# Density = 2.227413 g / cm^3
# Si number density = 22.324939 Si / 1000 Ang^3
#
#
#
# Elastic Constant Matrix: (Units=GPa)
#
#
# Indices 1 2 3 4 5 6 
#
# 1 112.3767 39.5014 15.5973 -0.0007 -7.6974 -0.0006
# 2 39.5014 124.9784 40.0884 0.0004 -3.3543 -0.0007
# 3 15.5973 40.0884 77.5305 -0.0010 -6.5942 -0.0005
# 4 -0.0007 0.0004 -0.0010 24.2275 -0.0005 -2.8148
# 5 -7.6974 -3.3543 -6.5942 -0.0005 41.3277 -0.0011
# 6 -0.0006 -0.0007 -0.0005 -2.8148 -0.0011 36.6399
#
#
#
# Elastic Compliance Matrix: (Units=1/GPa)
#
#
# Indices 1 2 3 4 5 6 
#
# 1 0.010126 -0.003054 -0.000323 0.000000 0.001587 0.000000
# 2 -0.003054 0.010514 -0.004864 0.000000 -0.000492 0.000000
# 3 -0.000323 -0.004864 0.015652 0.000001 0.002042 0.000000
# 4 0.000000 0.000000 0.000001 0.041647 0.000001 0.003200
# 5 0.001587 -0.000492 0.002042 0.000001 0.024778 0.000001
# 6 0.000000 0.000000 0.000000 0.003200 0.000001 0.027538
#
#
# Mechanical properties :
#
#
# Convention : Reuss Voigt Hill
#
# Bulk Modulus (GPa) = 50.48079 56.13999 53.31039
# Shear Modulus (GPa) = 32.60738 35.08558 33.84648
#
# Velocity S-wave (km/s) = 3.82590 3.96863 3.89792
# Velocity P-wave (km/s) = 6.49443 6.79716 6.64752
#
# Compressibility (1/GPa) = 0.01980952
#
# Stress axis : x y z
#
# Youngs Moduli (GPa) = 98.75833 95.11490 63.89116
#
# Poissons Ratio (x) = 0.29051 0.02063
# Poissons Ratio (y) = 0.30163 0.31074
# Poissons Ratio (z) = 0.03189 0.46260
#
# Static dielectric constant tensor:
#      x y z
#    x 5.436670 0.000010 0.024940 
#    y 0.000010 3.934960 -0.000010 
#    z 0.024940 -0.000010 4.342440 
# 
# 
# High freq. dielectric constant tensor:
#      x y z
#    x 1.882540 0.000000 -0.001370 
#    y 0.000000 1.855480 0.000000 
#    z -0.001370 0.000000 1.891310 
# 
# From -- ./inp_files/311571.got.cif
#   From: 2010.06.25/outbox.cif.g09.slc.cpg/sg15_156_cif.got.tgz:311571.got - 2010.06.28 07:06:18.
