data_PCOD8144300
_publ_section_title
;
Structure prediction by ZEFSAII (Michael W. Deem and Ramdas Pophale) SiO2 
 PCOD8144300
Probable space group: C 2/C
;
_chemical_formula_sum "Si O2"
_cell_formula_units_Z 48
_cell_length_a 17.363953
_cell_length_b 18.383579
_cell_length_c 9.474241
_cell_angle_alpha 90.000000
_cell_angle_beta 130.369420
_cell_angle_gamma 90.000000
_cell_volume 2304.156715
_symmetry_space_group_name_H-M "C 2/C"
_symmetry_group_IT_number 15
_symmetry_cell_setting 'monoclinic'
loop_
_space_group_symop_operation_xyz
x,y,z
-x,y,1/2-z
-x,-y,-z
x,-y,1/2+z
1/2+x,1/2+y,z
1/2-x,1/2+y,1/2-z
1/2-x,1/2-y,-z
1/2+x,1/2-y,1/2+z
loop_
_atom_site_type_symbol
_atom_site_label
_atom_site_fract_x
_atom_site_fract_y
_atom_site_fract_z
Si Si1 0.663804 0.189211 0.045755
Si Si2 0.706502 0.969433 0.482671
Si Si3 0.609672 0.292700 0.735142
Si Si4 0.504973 0.192833 0.087311
Si Si5 0.064404 0.038155 0.197295
Si Si6 0.096862 0.546657 0.579693
O O1 0.777777 0.217015 0.192510
O O2 0.615975 0.184569 0.146946
O O3 0.666553 0.108706 0.985328
O O4 0.600544 0.245226 0.869708
O O5 0.820890 0.990725 0.657725
O O6 0.689207 0.973140 0.294386
O O7 0.634850 0.030070 0.467410
O O8 0.538342 0.267261 0.524243
O O9 0.573711 0.374801 0.714221
O O10 0.500000 0.193931 0.250000
O O11 0.431292 0.130540 0.941659
O O12 0.000000 0.010096 0.250000
O O13 0.000000 0.000000 0.000000
O O14 0.000000 0.500000 0.500000
#
# Coordination Sequence:
#
# PCOD8144300 Si02
#       6
#     8   8   8   8   8   8
#     4  10  21  42  67  94 125 177 229 272 321 401
#     4  11  23  40  64  94 135 171 224 276 330 397
#     4  10  23  43  70  94 126 178 230 270 324 403
#     4  12  24  39  62  97 136 170 215 276 341 393
#     4  11  24  45  69  97 128 174 224 275 330 394
#     4  12  23  38  62  97 131 176 213 271 336 397
#
# _framework density 20.831916
#
# number of rings (size 3 to 8) (size 9 to 14) (size 15 to 20)
#    0.000    1.000    3.333    4.000    0.000    1.333 
#    3.000    0.000    0.000    0.000    0.000    0.000 
#    0.000    0.000    0.000    0.000    0.000    0.000 
#
# Total GULP energy -297473.400177 kJ/mol
# GULP energy per Si atom -12394.725007 kJ/mol
# Density = 2.078450 g / cm^3
# Si number density = 20.831916 Si / 1000 Ang^3
#
#
#
# Elastic Constant Matrix: (Units=GPa)
#
#
# Indices 1 2 3 4 5 6 
#
# 1 138.8414 27.9270 52.4886 0.0000 -15.9792 0.0000
# 2 27.9270 42.8601 9.0379 0.0000 1.9320 0.0000
# 3 52.4886 9.0379 121.2718 0.0000 -6.8997 0.0000
# 4 0.0000 0.0000 0.0000 33.8289 0.0000 1.6252
# 5 -15.9792 1.9320 -6.8997 0.0000 37.8207 0.0000
# 6 0.0000 0.0000 0.0000 1.6252 0.0000 27.2119
#
#
#
# Elastic Compliance Matrix: (Units=1/GPa)
#
#
# Indices 1 2 3 4 5 6 
#
# 1 0.010320 -0.006105 -0.003785 0.000000 0.003981 0.000000
# 2 -0.006105 0.027407 0.000378 0.000000 -0.003911 0.000000
# 3 -0.003785 0.000378 0.009866 0.000000 0.000181 0.000000
# 4 0.000000 0.000000 0.000000 0.029646 0.000000 -0.001771
# 5 0.003981 -0.003911 0.000181 0.000000 0.028356 0.000000
# 6 0.000000 0.000000 0.000000 -0.001771 0.000000 0.036854
#
#
# Mechanical properties :
#
#
# Convention : Reuss Voigt Hill
#
# Bulk Modulus (GPa) = 35.00564 53.54227 44.27395
# Shear Modulus (GPa) = 29.24038 34.00694 31.62366
#
# Velocity S-wave (km/s) = 3.75057 4.04474 3.90043
# Velocity P-wave (km/s) = 5.96624 6.89717 6.44853
#
# Compressibility (1/GPa) = 0.02856683
#
# Stress axis : x y z
#
# Youngs Moduli (GPa) = 96.90227 36.48746 101.35464
#
# Poissons Ratio (x) = 0.22277 0.38363
# Poissons Ratio (y) = 0.59164 -0.03827
# Poissons Ratio (z) = 0.36678 -0.01378
#
# Static dielectric constant tensor:
#      x y z
#    x 3.952100 0.000000 0.018780 
#    y 0.000000 4.055300 0.000000 
#    z 0.018780 0.000000 3.590330 
# 
# 
# High freq. dielectric constant tensor:
#      x y z
#    x 1.831730 0.000000 0.005210 
#    y 0.000000 1.813970 0.000000 
#    z 0.005210 0.000000 1.808080 
# 
# From -- ./inp_files/50041.got.cif
#   From: 2010.06.25/outbox.cif.g09.slc.cpg/sg15_26_cif.got.tgz:50041.got - 2010.06.28 07:06:18.
