data_PCOD8144497
_publ_section_title
;
Structure prediction by ZEFSAII (Michael W. Deem and Ramdas Pophale) SiO2 
 PCOD8144497
Probable space group: C 2/C
;
_chemical_formula_sum "Si O2"
_cell_formula_units_Z 40
_cell_length_a 13.765795
_cell_length_b 15.218200
_cell_length_c 10.029802
_cell_angle_alpha 90.000000
_cell_angle_beta 110.417018
_cell_angle_gamma 90.000000
_cell_volume 1969.151916
_symmetry_space_group_name_H-M "C 2/C"
_symmetry_group_IT_number 15
_symmetry_cell_setting 'monoclinic'
loop_
_space_group_symop_operation_xyz
x,y,z
-x,y,1/2-z
-x,-y,-z
x,-y,1/2+z
1/2+x,1/2+y,z
1/2-x,1/2+y,1/2-z
1/2-x,1/2-y,-z
1/2+x,1/2-y,1/2+z
loop_
_atom_site_type_symbol
_atom_site_label
_atom_site_fract_x
_atom_site_fract_y
_atom_site_fract_z
Si Si1 0.842599 0.345629 0.921313
Si Si2 0.259520 0.034883 0.882032
Si Si3 0.066813 0.958739 0.913327
Si Si4 0.030918 0.424754 0.914081
Si Si5 0.725009 0.660020 0.620365
O O1 0.792284 0.437299 0.846312
O O2 0.789254 0.259200 0.831732
O O3 0.963606 0.341170 0.933476
O O4 0.826651 0.342442 0.073941
O O5 0.241185 0.092197 0.744378
O O6 0.155019 0.030178 0.918343
O O7 0.345179 0.085240 0.014173
O O8 0.000000 0.936976 0.750000
O O9 0.122580 0.868841 0.987697
O O10 0.000000 0.000000 0.000000
O O11 0.000000 0.449944 0.750000
O O12 0.000000 0.500000 0.000000
#
# Coordination Sequence:
#
# PCOD8144497 Si02
#       5
#     8   8   8   8   8
#     4   9  22  40  65  96 136 162 222 260 326 395
#     4  10  22  39  71  92 129 170 214 267 329 380
#     4  11  22  40  65  92 126 174 222 267 321 385
#     4  10  23  39  64  97 130 167 212 266 326 393
#     4  10  21  43  64  98 129 175 216 269 318 400
#
# _framework density 20.313313000000001
#
# number of rings (size 3 to 8) (size 9 to 14) (size 15 to 20)
#    0.000    2.000    2.000    0.000   16.800    0.000 
#   14.400    1.000    0.000    0.000    0.000    0.000 
#    0.000    0.000    0.000    0.000    0.000    0.000 
#
# Total GULP energy -247814.397970 kJ/mol
# GULP energy per Si atom -12390.719898 kJ/mol
# Density = 2.026708 g / cm^3
# Si number density = 20.313313 Si / 1000 Ang^3
#
#
#
# Elastic Constant Matrix: (Units=GPa)
#
#
# Indices 1 2 3 4 5 6 
#
# 1 135.1113 45.7556 64.0919 0.0000 1.7114 0.0000
# 2 45.7556 133.0869 56.5299 0.0000 -6.5706 0.0000
# 3 64.0919 56.5299 137.9208 0.0000 9.0052 0.0000
# 4 0.0000 0.0000 0.0000 29.5981 0.0000 -4.8631
# 5 1.7114 -6.5706 9.0052 0.0000 32.9363 0.0000
# 6 0.0000 0.0000 0.0000 -4.8631 0.0000 26.5680
#
#
#
# Elastic Compliance Matrix: (Units=1/GPa)
#
#
# Indices 1 2 3 4 5 6 
#
# 1 0.009817 -0.001721 -0.003870 0.000000 0.000205 0.000000
# 2 -0.001721 0.009677 -0.003358 0.000000 0.002938 0.000000
# 3 -0.003870 -0.003358 0.010646 0.000000 -0.003380 0.000000
# 4 0.000000 0.000000 0.000000 0.034834 0.000000 0.006376
# 5 0.000205 0.002938 -0.003380 0.000000 0.031861 0.000000
# 6 0.000000 0.000000 0.000000 0.006376 0.000000 0.038806
#
#
# Mechanical properties :
#
#
# Convention : Reuss Voigt Hill
#
# Bulk Modulus (GPa) = 81.69022 82.09707 81.89365
# Shear Modulus (GPa) = 31.72150 33.80324 32.76237
#
# Velocity S-wave (km/s) = 3.95601 4.08376 4.02039
# Velocity P-wave (km/s) = 7.82107 7.92081 7.87110
#
# Compressibility (1/GPa) = 0.01224137
#
# Stress axis : x y z
#
# Youngs Moduli (GPa) = 101.85963 103.33510 93.93107
#
# Poissons Ratio (x) = 0.17787 0.36351
# Poissons Ratio (y) = 0.17533 0.31546
# Poissons Ratio (z) = 0.39420 0.34704
#
# Static dielectric constant tensor:
#      x y z
#    x 4.735940 0.000000 0.220540 
#    y 0.000000 3.897690 0.000000 
#    z 0.220540 0.000000 3.691240 
# 
# 
# High freq. dielectric constant tensor:
#      x y z
#    x 1.811940 0.000000 -0.010960 
#    y 0.000000 1.772180 0.000000 
#    z -0.010960 0.000000 1.781510 
# 
# From -- ./inp_files/38052.got.cif
#   From: 2010.06.25/outbox.cif.g09.slc.cpg/sg15_20_cif.got.tgz:38052.got - 2010.06.28 07:06:18.
