data_PCOD8144555
_publ_section_title
;
Structure prediction by ZEFSAII (Michael W. Deem and Ramdas Pophale) SiO2 
 PCOD8144555
Probable space group: C 2/C
;
_chemical_formula_sum "Si O2"
_cell_formula_units_Z 64
_cell_length_a 18.705694
_cell_length_b 15.861597
_cell_length_c 17.538410
_cell_angle_alpha 90.000000
_cell_angle_beta 34.316013
_cell_angle_gamma 90.000000
_cell_volume 2933.613053
_symmetry_space_group_name_H-M "C 2/C"
_symmetry_group_IT_number 15
_symmetry_cell_setting 'monoclinic'
loop_
_space_group_symop_operation_xyz
x,y,z
-x,y,1/2-z
-x,-y,-z
x,-y,1/2+z
1/2+x,1/2+y,z
1/2-x,1/2+y,1/2-z
1/2-x,1/2-y,-z
1/2+x,1/2-y,1/2+z
loop_
_atom_site_type_symbol
_atom_site_label
_atom_site_fract_x
_atom_site_fract_y
_atom_site_fract_z
Si Si1 0.248513 0.391940 0.197398
Si Si2 0.228933 0.172167 0.652404
Si Si3 0.947472 0.233033 0.471847
Si Si4 0.621530 0.475164 0.001356
Si Si5 0.432868 0.604098 0.233874
Si Si6 0.267575 0.991881 0.024442
Si Si7 0.537040 0.713340 0.558400
Si Si8 0.514796 0.892188 0.151284
O O1 0.237854 0.362966 0.293463
O O2 0.319024 0.321396 0.084393
O O3 0.114003 0.409435 0.279455
O O4 0.329970 0.478240 0.118434
O O5 0.225503 0.095424 0.597755
O O6 0.340394 0.233459 0.522287
O O7 0.088805 0.217105 0.775946
O O8 0.913331 0.319438 0.459481
O O9 0.062746 0.181317 0.329716
O O10 0.994892 0.251417 0.515021
O O11 0.498956 0.519890 0.143589
O O12 0.733205 0.482217 0.965839
O O13 0.583186 0.382232 0.010104
O O14 0.500000 0.639115 0.250000
O O15 0.294329 0.572973 0.379335
O O16 0.414418 0.016893 0.906282
O O17 0.500000 0.857562 0.250000
#
# Coordination Sequence:
#
# PCOD8144555 Si02
#       8
#     8   8   8   8   8   8   8   8
#     4  10  23  43  62  99 134 169 225 274 340 416
#     4  11  25  45  67 101 133 176 234 281 351 397
#     4  10  23  39  64  94 134 175 216 268 336 407
#     4  10  21  43  67  91 129 175 225 272 327 406
#     4   9  19  37  61  92 120 164 217 259 315 397
#     4  11  24  40  67  96 132 176 225 277 341 402
#     4  11  24  43  69  97 135 177 227 289 331 410
#     4  12  24  41  64  97 140 173 215 280 342 412
#
# _framework density 21.816101
#
# number of rings (size 3 to 8) (size 9 to 14) (size 15 to 20)
#    0.000    1.500    3.750    0.375    3.500    4.000 
#    0.000    0.000    0.000    0.000    0.000    0.000 
#    0.000    0.000    0.000    0.000    0.000    0.000 
#
# Total GULP energy -396638.249075 kJ/mol
# GULP energy per Si atom -12394.945284 kJ/mol
# Density = 2.176645 g / cm^3
# Si number density = 21.816101 Si / 1000 Ang^3
#
#
#
# Elastic Constant Matrix: (Units=GPa)
#
#
# Indices 1 2 3 4 5 6 
#
# 1 33.6770 9.4674 20.4117 0.0031 -11.1239 -0.0084
# 2 9.4674 76.6953 33.4913 -0.0031 -0.3101 0.0082
# 3 20.4117 33.4913 88.8308 -0.0187 -15.5577 0.0497
# 4 0.0031 -0.0031 -0.0187 1092.7902 0.0063-2829.9605
# 5 -11.1239 -0.3101 -15.5577 0.0063 36.8193 -0.0166
# 6 -0.0084 0.0082 0.0497-2829.9605 -0.0166 7583.6365
#
#
#
# Elastic Compliance Matrix: (Units=1/GPa)
#
#
# Indices 1 2 3 4 5 6 
#
# 1 0.036802 -0.001749 -0.006320 0.000000 0.008433 0.000000
# 2 -0.001749 0.015915 -0.006121 0.000000 -0.002981 0.000000
# 3 -0.006320 -0.006121 0.015846 0.000000 0.004735 0.000000
# 4 0.000000 0.000000 0.000000 0.027216 0.000000 0.010156
# 5 0.008433 -0.002981 0.004735 0.000000 0.031683 0.000000
# 6 0.000000 0.000000 0.000000 0.010156 0.000000 0.003922
#
#
# Mechanical properties :
#
#
# Convention : Reuss Voigt Hill
#
# Bulk Modulus (GPa) = 24.88524 36.21599 30.55061
# Shear Modulus (GPa) = 28.87537 1751.70470 890.29003
#
# Velocity S-wave (km/s) = 3.64205 28.36696 20.22312
# Velocity P-wave (km/s) = 5.39608 33.00832 23.65023
#
# Compressibility (1/GPa) = 0.04018447
#
# Stress axis : x y z
#
# Youngs Moduli (GPa) = 27.17257 62.83313 63.10583
#
# Poissons Ratio (x) = 0.10989 0.39883
# Poissons Ratio (y) = 0.04752 0.38624
# Poissons Ratio (z) = 0.17173 0.38457
#
# Static dielectric constant tensor:
#      x y z
#    x 3.906860 0.000000 0.286780 
#    y 0.000000 3.780430 0.000000 
#    z 0.286780 0.000000 4.772030 
# 
# 
# High freq. dielectric constant tensor:
#      x y z
#    x 1.849860 0.000000 -0.001910 
#    y 0.000000 1.847460 0.000000 
#    z -0.001910 0.000000 1.861860 
# 
# From -- ./inp_files/211365.got.cif
#   From: 2010.06.25/outbox.cif.g09.slc.cpg/sg15_106_cif.got.tgz:211365.got - 2010.06.28 07:06:18.
