data_PCOD8144381
_publ_section_title
;
Structure prediction by ZEFSAII (Michael W. Deem and Ramdas Pophale) SiO2 
 PCOD8144381
Probable space group: C 2/C
;
_chemical_formula_sum "Si O2"
_cell_formula_units_Z 64
_cell_length_a 16.945685
_cell_length_b 29.511130
_cell_length_c 8.637975
_cell_angle_alpha 90.000000
_cell_angle_beta 39.438887
_cell_angle_gamma 90.000000
_cell_volume 2744.131279
_symmetry_space_group_name_H-M "C 2/C"
_symmetry_group_IT_number 15
_symmetry_cell_setting 'monoclinic'
loop_
_space_group_symop_operation_xyz
x,y,z
-x,y,1/2-z
-x,-y,-z
x,-y,1/2+z
1/2+x,1/2+y,z
1/2-x,1/2+y,1/2-z
1/2-x,1/2-y,-z
1/2+x,1/2-y,1/2+z
loop_
_atom_site_type_symbol
_atom_site_label
_atom_site_fract_x
_atom_site_fract_y
_atom_site_fract_z
Si Si1 0.556854 0.310286 0.819555
Si Si2 0.763428 0.540107 0.713872
Si Si3 0.801457 0.181375 0.857355
Si Si4 0.825705 0.096716 0.362328
Si Si5 0.133832 0.753122 0.977670
Si Si6 0.467381 0.547239 0.621144
Si Si7 0.109830 0.605350 0.167471
Si Si8 0.878489 0.557274 0.032855
O O1 0.500000 0.288295 0.750000
O O2 0.653589 0.350428 0.624508
O O3 0.624212 0.270780 0.815463
O O4 0.441617 0.329608 0.094528
O O5 0.679132 0.550106 0.688863
O O6 0.884462 0.567003 0.477534
O O7 0.796770 0.487662 0.695455
O O8 0.694471 0.562493 0.964430
O O9 0.725460 0.209894 0.842723
O O10 0.802315 0.207554 0.018545
O O11 0.734854 0.134129 0.992463
O O12 0.707106 0.092353 0.431002
O O13 0.954055 0.085370 0.083934
O O14 0.000000 0.739584 0.250000
O O15 0.500000 0.549341 0.750000
O O16 0.500000 0.500000 0.500000
O O17 0.076319 0.582625 0.382045
O O18 0.000000 0.635001 0.250000
O O19 0.000000 0.543766 0.750000
#
# Coordination Sequence:
#
# PCOD8144381 Si02
#       8
#     8   8   8   8   8   8   8   8
#     4  11  23  40  64 102 140 171 210 273 342 394
#     4  12  25  44  64  92 130 177 228 280 330 394
#     4  10  21  42  69  96 130 170 219 271 329 404
#     4  12  24  42  66  93 135 174 225 282 331 398
#     4   9  20  40  69  99 128 170 217 266 328 409
#     4  12  24  39  60  92 124 168 222 279 334 388
#     4  12  25  42  66  93 127 174 225 277 338 395
#     4  12  27  45  65  91 129 178 233 284 333 394
#
# _framework density 23.322500000000002
#
# number of rings (size 3 to 8) (size 9 to 14) (size 15 to 20)
#    0.000    0.750    1.250    7.125    0.000    3.500 
#    0.000    0.000    0.000    9.750    0.000    0.000 
#    0.000    0.000    0.000    0.000    0.000    0.000 
#
# Total GULP energy -396679.183098 kJ/mol
# GULP energy per Si atom -12396.224472 kJ/mol
# Density = 2.326942 g / cm^3
# Si number density = 23.322500 Si / 1000 Ang^3
#
#
#
# Elastic Constant Matrix: (Units=GPa)
#
#
# Indices 1 2 3 4 5 6 
#
# 1 153.9386 43.2809 29.2602 0.0000 12.2942 0.0000
# 2 43.2809 90.2739 28.2657 0.0000 8.6507 0.0000
# 3 29.2602 28.2657 82.4702 0.0000 9.9773 0.0000
# 4 0.0000 0.0000 0.0000 30.3547 0.0000 -4.4680
# 5 12.2942 8.6507 9.9773 0.0000 44.2994 0.0000
# 6 0.0000 0.0000 0.0000 -4.4680 0.0000 30.7930
#
#
#
# Elastic Compliance Matrix: (Units=1/GPa)
#
#
# Indices 1 2 3 4 5 6 
#
# 1 0.007763 -0.003125 -0.001538 0.000000 -0.001198 0.000000
# 2 -0.003125 0.013766 -0.003484 0.000000 -0.001036 0.000000
# 3 -0.001538 -0.003484 0.014116 0.000000 -0.002072 0.000000
# 4 0.000000 0.000000 0.000000 0.033663 0.000000 0.004884
# 5 -0.001198 -0.001036 -0.002072 0.000000 0.023575 0.000000
# 6 0.000000 0.000000 0.000000 0.004884 0.000000 0.033184
#
#
# Mechanical properties :
#
#
# Convention : Reuss Voigt Hill
#
# Bulk Modulus (GPa) = 51.67964 58.69959 55.18961
# Shear Modulus (GPa) = 33.59960 36.14781 34.87371
#
# Velocity S-wave (km/s) = 3.79971 3.94116 3.87108
# Velocity P-wave (km/s) = 6.43873 6.77744 6.61025
#
# Compressibility (1/GPa) = 0.01934998
#
# Stress axis : x y z
#
# Youngs Moduli (GPa) = 128.81869 72.64275 70.84135
#
# Poissons Ratio (x) = 0.22704 0.10896
# Poissons Ratio (y) = 0.40262 0.24680
# Poissons Ratio (z) = 0.19814 0.25308
#
# Static dielectric constant tensor:
#      x y z
#    x 4.151120 0.000000 0.081660 
#    y 0.000000 3.955080 0.000000 
#    z 0.081660 0.000000 4.357350 
# 
# 
# High freq. dielectric constant tensor:
#      x y z
#    x 1.943890 0.000000 -0.008980 
#    y 0.000000 1.909210 0.000000 
#    z -0.008980 0.000000 1.920770 
# 
# From -- ./inp_files/52797.got.cif
#   From: 2010.06.25/outbox.cif.g09.slc.cpg/sg15_27_cif.got.tgz:52797.got - 2010.06.28 07:06:18.
