data_PCOD8144850
_publ_section_title
;
Structure prediction by ZEFSAII (Michael W. Deem and Ramdas Pophale) SiO2 
 PCOD8144850
Probable space group: C 2/C
;
_chemical_formula_sum "Si O2"
_cell_formula_units_Z 56
_cell_length_a 14.111596
_cell_length_b 14.638604
_cell_length_c 22.579863
_cell_angle_alpha 90.000000
_cell_angle_beta 30.740072
_cell_angle_gamma 90.000000
_cell_volume 2384.188045
_symmetry_space_group_name_H-M "C 2/C"
_symmetry_group_IT_number 15
_symmetry_cell_setting 'monoclinic'
loop_
_space_group_symop_operation_xyz
x,y,z
-x,y,1/2-z
-x,-y,-z
x,-y,1/2+z
1/2+x,1/2+y,z
1/2-x,1/2+y,1/2-z
1/2-x,1/2-y,-z
1/2+x,1/2-y,1/2+z
loop_
_atom_site_type_symbol
_atom_site_label
_atom_site_fract_x
_atom_site_fract_y
_atom_site_fract_z
Si Si1 0.870760 0.724734 0.093438
Si Si2 0.792045 0.046499 0.466702
Si Si3 0.000000 0.431691 0.750000
Si Si4 0.048538 0.712726 0.122397
Si Si5 0.792373 0.604941 0.863355
Si Si6 0.000000 0.145424 0.250000
Si Si7 0.542094 0.403064 0.293900
Si Si8 0.955508 0.572421 0.573581
O O1 0.858564 0.836534 0.094036
O O2 0.657222 0.701591 0.198664
O O3 0.942809 0.690984 0.118141
O O4 0.997611 0.675057 0.975484
O O5 0.801558 0.105538 0.521016
O O6 0.574223 0.044976 0.567345
O O7 0.909439 0.087809 0.350631
O O8 0.881341 0.944120 0.423793
O O9 0.951239 0.374235 0.834545
O O10 0.822440 0.497540 0.829632
O O11 0.944201 0.793994 0.211884
O O12 0.250000 0.750000 0.000000
O O13 0.000000 0.650847 0.750000
O O14 0.500000 0.435030 0.250000
O O15 0.742835 0.438843 0.206490
O O16 0.000000 0.500000 0.500000
#
# Coordination Sequence:
#
# PCOD8144850 Si02
#       8
#     8   8   4   8   8   4   8   8
#     4  11  25  47  74 108 155 197 262 323 395 469
#     4  11  23  45  73 105 154 194 255 335 381 473
#     4  10  25  49  76 104 156 208 262 311 403 470
#     4  12  27  47  72 105 150 203 258 324 381 479
#     4  10  25  48  74 106 155 202 257 315 401 470
#     4  10  21  45  74 110 138 198 256 317 397 446
#     4  12  22  42  69 107 140 191 256 309 388 459
#     4  11  24  40  74 109 145 193 252 318 394 453
#
# _framework density 23.488081000000001
#
# number of rings (size 3 to 8) (size 9 to 14) (size 15 to 20)
#    0.429    0.571    3.571    2.571    4.000    3.429 
#    2.571    1.429    0.000    0.000    0.000    0.000 
#    0.000    0.000    0.000    0.000    0.000    0.000 
#
# Total GULP energy -346908.242528 kJ/mol
# GULP energy per Si atom -12389.580090 kJ/mol
# Density = 2.343462 g / cm^3
# Si number density = 23.488081 Si / 1000 Ang^3
#
#
#
# Elastic Constant Matrix: (Units=GPa)
#
#
# Indices 1 2 3 4 5 6 
#
# 1 101.5628 34.2939 36.5688 0.0058 -13.7263 0.0019
# 2 34.2939 121.6628 31.3140 -0.0005 1.6065 0.0019
# 3 36.5688 31.3140 102.1464 0.0069 -6.2968 0.0123
# 4 0.0058 -0.0005 0.0069 22.3007 -0.0062 -7.6616
# 5 -13.7263 1.6065 -6.2968 -0.0062 40.4688 -0.0044
# 6 0.0019 0.0019 0.0123 -7.6616 -0.0044 30.8431
#
#
#
# Elastic Compliance Matrix: (Units=1/GPa)
#
#
# Indices 1 2 3 4 5 6 
#
# 1 0.012501 -0.002696 -0.003414 -0.000001 0.003816 0.000001
# 2 -0.002696 0.009530 -0.002056 0.000001 -0.001612 0.000000
# 3 -0.003414 -0.002056 0.011688 -0.000004 0.000742 -0.000005
# 4 -0.000001 0.000001 -0.000004 0.049026 0.000008 0.012178
# 5 0.003816 -0.001612 0.000742 0.000008 0.026184 0.000005
# 6 0.000001 0.000000 -0.000005 0.012178 0.000005 0.035447
#
#
# Mechanical properties :
#
#
# Convention : Reuss Voigt Hill
#
# Bulk Modulus (GPa) = 57.50930 58.85836 58.18383
# Shear Modulus (GPa) = 30.02952 33.60220 31.81586
#
# Velocity S-wave (km/s) = 3.57949 3.78644 3.68442
# Velocity P-wave (km/s) = 6.45146 6.65052 6.55174
#
# Compressibility (1/GPa) = 0.01738849
#
# Stress axis : x y z
#
# Youngs Moduli (GPa) = 79.99199 104.93554 85.55741
#
# Poissons Ratio (x) = 0.28285 0.29209
# Poissons Ratio (y) = 0.21562 0.17589
# Poissons Ratio (z) = 0.27309 0.21573
#
# Static dielectric constant tensor:
#      x y z
#    x 3.859030 -0.000090 0.489320 
#    y -0.000090 4.469550 0.000200 
#    z 0.489320 0.000200 3.016920 
# 
# 
# High freq. dielectric constant tensor:
#      x y z
#    x 1.911910 0.000000 -0.001820 
#    y 0.000000 1.942850 0.000000 
#    z -0.001820 0.000000 1.930380 
# 
# From -- ./inp_files/274495.got.cif
#   From: 2010.06.25/outbox.cif.g09.slc.cpg/sg15_138_cif.got.tgz:274495.got - 2010.06.28 07:06:18.
