data_PCOD8144283
_publ_section_title
;
Structure prediction by ZEFSAII (Michael W. Deem and Ramdas Pophale) SiO2 
 PCOD8144283
Probable space group: C 2/C
;
_chemical_formula_sum "Si O2"
_cell_formula_units_Z 48
_cell_length_a 11.993082
_cell_length_b 16.388532
_cell_length_c 11.347293
_cell_angle_alpha 90.000000
_cell_angle_beta 91.594102
_cell_angle_gamma 90.000000
_cell_volume 2229.436023
_symmetry_space_group_name_H-M "C 2/C"
_symmetry_group_IT_number 15
_symmetry_cell_setting 'monoclinic'
loop_
_space_group_symop_operation_xyz
x,y,z
-x,y,1/2-z
-x,-y,-z
x,-y,1/2+z
1/2+x,1/2+y,z
1/2-x,1/2+y,1/2-z
1/2-x,1/2-y,-z
1/2+x,1/2-y,1/2+z
loop_
_atom_site_type_symbol
_atom_site_label
_atom_site_fract_x
_atom_site_fract_y
_atom_site_fract_z
Si Si1 0.527765 0.404718 0.520946
Si Si2 0.940881 0.503951 0.625239
Si Si3 0.964749 0.747608 0.116631
Si Si4 0.768167 0.368123 0.628178
Si Si5 0.820955 0.839554 0.627487
Si Si6 0.864451 0.668740 0.557732
O O1 0.500000 0.500000 0.500000
O O2 0.512894 0.344037 0.407947
O O3 0.652203 0.379692 0.558621
O O4 0.442591 0.380100 0.621541
O O5 0.836531 0.447514 0.598765
O O6 0.904290 0.597026 0.644385
O O7 0.000000 0.476062 0.750000
O O8 0.000000 0.500000 0.500000
O O9 0.836938 0.714693 0.095500
O O10 0.000000 0.728762 0.250000
O O11 0.042573 0.692994 0.035240
O O12 0.745879 0.373460 0.765515
O O13 0.836701 0.742695 0.644296
O O14 0.749426 0.859482 0.509052
#
# Coordination Sequence:
#
# PCOD8144283 Si02
#       6
#     8   8   8   8   8   8
#     4  11  26  44  64  97 142 183 232 286 355 442
#     4  12  25  43  71 103 141 180 238 302 362 418
#     4  11  22  43  73 100 135 181 237 297 365 427
#     4  12  23  44  69  99 138 179 238 295 359 427
#     4  10  22  42  68  93 136 180 222 281 354 431
#     4  10  21  42  67 100 134 175 228 284 355 421
#
# _framework density 21.530108999999999
#
# number of rings (size 3 to 8) (size 9 to 14) (size 15 to 20)
#    0.000    1.000    3.333    3.500    0.000    4.000 
#    6.000    0.000    0.000    0.000    0.000    0.000 
#    0.000    0.000    0.000    0.000    0.000    0.000 
#
# Total GULP energy -297373.840713 kJ/mol
# GULP energy per Si atom -12390.576696 kJ/mol
# Density = 2.148111 g / cm^3
# Si number density = 21.530109 Si / 1000 Ang^3
#
#
#
# Elastic Constant Matrix: (Units=GPa)
#
#
# Indices 1 2 3 4 5 6 
#
# 1 137.6259 40.7567 30.8436 0.0000 -9.0961 0.0000
# 2 40.7567 130.1984 31.6818 0.0000 -2.7761 0.0000
# 3 30.8436 31.6818 71.9057 0.0000 -18.0790 0.0000
# 4 0.0000 0.0000 0.0000 22.3348 0.0000 0.0105
# 5 -9.0961 -2.7761 -18.0790 0.0000 31.5523 0.0000
# 6 0.0000 0.0000 0.0000 0.0105 0.0000 43.5059
#
#
#
# Elastic Compliance Matrix: (Units=1/GPa)
#
#
# Indices 1 2 3 4 5 6 
#
# 1 0.008489 -0.002020 -0.002548 0.000000 0.000810 0.000000
# 2 -0.002020 0.009158 -0.003636 0.000000 -0.001860 0.000000
# 3 -0.002548 -0.003636 0.019087 0.000000 0.009882 0.000000
# 4 0.000000 0.000000 0.000000 0.044773 0.000000 -0.000011
# 5 0.000810 -0.001860 0.009882 0.000000 0.037425 0.000000
# 6 0.000000 0.000000 0.000000 -0.000011 0.000000 0.022985
#
#
# Mechanical properties :
#
#
# Convention : Reuss Voigt Hill
#
# Bulk Modulus (GPa) = 49.19891 60.69934 54.94912
# Shear Modulus (GPa) = 30.28457 35.24178 32.76318
#
# Velocity S-wave (km/s) = 3.75456 4.05020 3.90518
# Velocity P-wave (km/s) = 6.45728 7.07998 6.77579
#
# Compressibility (1/GPa) = 0.02032565
#
# Stress axis : x y z
#
# Youngs Moduli (GPa) = 117.80265 109.19274 52.39275
#
# Poissons Ratio (x) = 0.22058 0.13347
# Poissons Ratio (y) = 0.23797 0.19051
# Poissons Ratio (z) = 0.30011 0.39705
#
# Static dielectric constant tensor:
#      x y z
#    x 4.164380 0.000000 -0.110820 
#    y 0.000000 4.378200 0.000000 
#    z -0.110820 0.000000 3.696520 
# 
# 
# High freq. dielectric constant tensor:
#      x y z
#    x 1.864070 0.000000 -0.008610 
#    y 0.000000 1.854070 0.000000 
#    z -0.008610 0.000000 1.829110 
# 
# From -- ./inp_files/87397.got.cif
#   From: 2010.06.25/outbox.cif.g09.slc.cpg/sg15_44_cif.got.tgz:87397.got - 2010.06.28 07:06:18.
