data_PCOD8144950
_publ_section_title
;
Structure prediction by ZEFSAII (Michael W. Deem and Ramdas Pophale) SiO2 
 PCOD8144950
Probable space group: C 2/C
;
_chemical_formula_sum "Si O2"
_cell_formula_units_Z 56
_cell_length_a 19.266389
_cell_length_b 10.518519
_cell_length_c 14.357996
_cell_angle_alpha 90.000000
_cell_angle_beta 68.570987
_cell_angle_gamma 90.000000
_cell_volume 2708.558487
_symmetry_space_group_name_H-M "C 2/C"
_symmetry_group_IT_number 15
_symmetry_cell_setting 'monoclinic'
loop_
_space_group_symop_operation_xyz
x,y,z
-x,y,1/2-z
-x,-y,-z
x,-y,1/2+z
1/2+x,1/2+y,z
1/2-x,1/2+y,1/2-z
1/2-x,1/2-y,-z
1/2+x,1/2-y,1/2+z
loop_
_atom_site_type_symbol
_atom_site_label
_atom_site_fract_x
_atom_site_fract_y
_atom_site_fract_z
Si Si1 0.960032 0.848493 0.178026
Si Si2 0.688656 0.716255 0.651302
Si Si3 0.736171 0.340742 0.725381
Si Si4 0.244457 0.360286 0.078388
Si Si5 0.372322 0.477622 0.606744
Si Si6 0.905754 0.730005 0.474366
Si Si7 0.690174 0.014054 0.947359
O O1 0.878675 0.799457 0.243197
O O2 0.000000 0.908271 0.250000
O O3 0.012759 0.733662 0.113323
O O4 0.948295 0.952335 0.102649
O O5 0.741501 0.816369 0.677879
O O6 0.660995 0.772521 0.567988
O O7 0.732843 0.588553 0.607331
O O8 0.711256 0.207018 0.688257
O O9 0.668479 0.438657 0.775576
O O10 0.804184 0.400233 0.631410
O O11 0.322757 0.428654 0.066213
O O12 0.250000 0.250000 0.000000
O O13 0.189593 0.461785 0.054875
O O14 0.398833 0.352739 0.540988
O O15 0.885489 0.596746 0.536120
#
# Coordination Sequence:
#
# PCOD8144950 Si02
#       7
#     8   8   8   8   8   8   8
#     4  10  23  38  58  88 122 158 202 250 308 371
#     4  11  19  37  58  84 118 156 203 248 300 364
#     4  11  21  34  62  92 120 161 205 258 311 354
#     4  10  22  35  58  95 124 156 202 265 310 351
#     4  12  20  38  62  88 126 159 206 257 306 367
#     4  11  23  36  58  90 117 163 199 252 312 367
#     4  11  20  37  58  90 124 153 207 256 305 364
#
# _framework density 20.675204000000001
#
# number of rings (size 3 to 8) (size 9 to 14) (size 15 to 20)
#    0.000    1.143    5.714    1.714    0.000    0.000 
#    0.000    0.714    0.000    0.000    0.000    0.000 
#    0.000    0.000    0.000    0.000    0.000    0.000 
#
# Total GULP energy -346873.977422 kJ/mol
# GULP energy per Si atom -12388.356337 kJ/mol
# Density = 2.062815 g / cm^3
# Si number density = 20.675204 Si / 1000 Ang^3
#
#
#
# Elastic Constant Matrix: (Units=GPa)
#
#
# Indices 1 2 3 4 5 6 
#
# 1 60.3299 28.7681 19.3572 0.0000 -0.5147 0.0000
# 2 28.7681 84.3420 27.0999 0.0000 1.1577 0.0000
# 3 19.3572 27.0999 79.3892 0.0000 0.8772 0.0000
# 4 0.0000 0.0000 0.0000 43.1369 0.0000 3.7862
# 5 -0.5147 1.1577 0.8772 0.0000 32.7728 0.0000
# 6 0.0000 0.0000 0.0000 3.7862 0.0000 31.2301
#
#
#
# Elastic Compliance Matrix: (Units=1/GPa)
#
#
# Indices 1 2 3 4 5 6 
#
# 1 0.020391 -0.006025 -0.002922 0.000000 0.000611 0.000000
# 2 -0.006025 0.015101 -0.003680 0.000000 -0.000530 0.000000
# 3 -0.002922 -0.003680 0.014568 0.000000 -0.000306 0.000000
# 4 0.000000 0.000000 0.000000 0.023431 0.000000 -0.002841
# 5 0.000611 -0.000530 -0.000306 0.000000 0.030550 0.000000
# 6 0.000000 0.000000 0.000000 -0.002841 0.000000 0.032365
#
#
# Mechanical properties :
#
#
# Convention : Reuss Voigt Hill
#
# Bulk Modulus (GPa) = 40.31134 41.61239 40.96187
# Shear Modulus (GPa) = 29.42406 31.35035 30.38720
#
# Velocity S-wave (km/s) = 3.77657 3.89823 3.83788
# Velocity P-wave (km/s) = 6.20938 6.35861 6.28444
#
# Compressibility (1/GPa) = 0.02480692
#
# Stress axis : x y z
#
# Youngs Moduli (GPa) = 49.04076 66.22013 68.64251
#
# Poissons Ratio (x) = 0.39896 0.20058
# Poissons Ratio (y) = 0.29546 0.25261
# Poissons Ratio (z) = 0.14330 0.24369
#
# Static dielectric constant tensor:
#      x y z
#    x 3.621840 0.000000 0.168810 
#    y 0.000000 3.986060 0.000000 
#    z 0.168810 0.000000 4.050830 
# 
# 
# High freq. dielectric constant tensor:
#      x y z
#    x 1.774370 0.000000 0.013240 
#    y 0.000000 1.810870 0.000000 
#    z 0.013240 0.000000 1.823350 
# 
# From -- ./inp_files/167205.got.cif
#   From: 2010.06.25/outbox.cif.g09.slc.cpg/sg15_84_cif.got.tgz:167205.got - 2010.06.28 07:06:18.
