data_PCOD8144940
_publ_section_title
;
Structure prediction by ZEFSAII (Michael W. Deem and Ramdas Pophale) SiO2 
 PCOD8144940
Probable space group: C 2/C
;
_chemical_formula_sum "Si O2"
_cell_formula_units_Z 56
_cell_length_a 24.102226
_cell_length_b 12.471890
_cell_length_c 27.304512
_cell_angle_alpha 90.000000
_cell_angle_beta 20.705316
_cell_angle_gamma 90.000000
_cell_volume 2901.943670
_symmetry_space_group_name_H-M "C 2/C"
_symmetry_group_IT_number 15
_symmetry_cell_setting 'monoclinic'
loop_
_space_group_symop_operation_xyz
x,y,z
-x,y,1/2-z
-x,-y,-z
x,-y,1/2+z
1/2+x,1/2+y,z
1/2-x,1/2+y,1/2-z
1/2-x,1/2-y,-z
1/2+x,1/2-y,1/2+z
loop_
_atom_site_type_symbol
_atom_site_label
_atom_site_fract_x
_atom_site_fract_y
_atom_site_fract_z
Si Si1 0.656500 0.512325 0.248871
Si Si2 0.062084 0.146876 0.752588
Si Si3 0.102428 0.571053 0.322161
Si Si4 0.880492 0.243420 0.987776
Si Si5 0.418637 0.545837 0.018200
Si Si6 0.133226 0.627053 0.853191
Si Si7 0.324361 0.201703 0.147775
O O1 0.630749 0.466200 0.215747
O O2 0.489677 0.523525 0.415062
O O3 0.762432 0.423786 0.190055
O O4 0.732194 0.630271 0.183519
O O5 0.194055 0.239976 0.645087
O O6 0.000000 0.126045 0.750000
O O7 0.919138 0.183334 0.905258
O O8 0.229905 0.532985 0.176609
O O9 0.036397 0.467070 0.405414
O O10 0.199488 0.643255 0.280503
O O11 0.958849 0.638817 0.420003
O O12 0.945841 0.172917 0.980231
O O13 0.500000 0.500000 0.000000
O O14 0.246635 0.681855 0.718882
O O15 0.006856 0.709148 0.980670
#
# Coordination Sequence:
#
# PCOD8144940 Si02
#       7
#     8   8   8   8   8   8   8
#     4  10  22  35  53  77 114 143 188 226 283 329
#     4  11  22  38  58  82 107 146 197 241 285 331
#     4  11  22  34  54  78 117 151 183 223 282 344
#     4  11  22  38  58  81 118 152 185 235 289 335
#     4  11  20  34  53  84 110 153 185 223 273 347
#     4  11  23  34  52  81 114 150 182 222 274 350
#     4  11  22  33  52  77 113 148 185 216 274 344
#
# _framework density 19.297411
#
# number of rings (size 3 to 8) (size 9 to 14) (size 15 to 20)
#    0.000    1.143    4.286    5.571    6.000    0.000 
#    0.000    0.000    0.000    0.000    0.000    5.000 
#    0.000    0.000    0.000    0.000    0.000    0.000 
#
# Total GULP energy -347007.873120 kJ/mol
# GULP energy per Si atom -12393.138326 kJ/mol
# Density = 1.925349 g / cm^3
# Si number density = 19.297411 Si / 1000 Ang^3
#
#
#
# Elastic Constant Matrix: (Units=GPa)
#
#
# Indices 1 2 3 4 5 6 
#
# 1 99.0628 38.3780 15.6347 0.0073 8.3097 -0.0004
# 2 38.3780 68.2464 8.3533 -0.0166 -0.4092 -0.0017
# 3 15.6347 8.3533 92.0699 -0.0309 10.2179 -0.0084
# 4 0.0073 -0.0166 -0.0309 27.9848 0.0035 0.0695
# 5 8.3097 -0.4092 10.2179 0.0035 19.7183 0.0045
# 6 -0.0004 -0.0017 -0.0084 0.0695 0.0045 19.5746
#
#
#
# Elastic Compliance Matrix: (Units=1/GPa)
#
#
# Indices 1 2 3 4 5 6 
#
# 1 0.013644 -0.007579 -0.001033 -0.000009 -0.005372 0.000000
# 2 -0.007579 0.019048 -0.000891 0.000012 0.004051 0.000000
# 3 -0.001033 -0.000891 0.011747 0.000013 -0.005670 0.000006
# 4 -0.000009 0.000012 0.000013 0.035734 -0.000009 -0.000127
# 5 -0.005372 0.004051 -0.005670 -0.000009 0.056000 -0.000015
# 6 0.000000 0.000000 0.000006 -0.000127 -0.000015 0.051087
#
#
# Mechanical properties :
#
#
# Convention : Reuss Voigt Hill
#
# Bulk Modulus (GPa) = 39.31754 42.67901 40.99827
# Shear Modulus (GPa) = 23.28359 26.58976 24.93667
#
# Velocity S-wave (km/s) = 3.47733 3.71602 3.59866
# Velocity P-wave (km/s) = 6.04493 6.36995 6.20957
#
# Compressibility (1/GPa) = 0.02543394
#
# Stress axis : x y z
#
# Youngs Moduli (GPa) = 73.29070 52.49932 85.12899
#
# Poissons Ratio (x) = 0.39787 0.08796
# Poissons Ratio (y) = 0.55544 0.07583
# Poissons Ratio (z) = 0.07573 0.04677
#
# Static dielectric constant tensor:
#      x y z
#    x 3.031340 0.000010 0.179950 
#    y 0.000010 3.598330 0.000080 
#    z 0.179950 0.000080 3.848920 
# 
# 
# High freq. dielectric constant tensor:
#      x y z
#    x 1.679160 0.000000 0.018440 
#    y 0.000000 1.740660 0.000000 
#    z 0.018440 0.000000 1.779920 
# 
# From -- ./inp_files/319514.got.cif
#   From: 2010.06.25/outbox.cif.g09.slc.cpg/sg15_160_cif.got.tgz:319514.got - 2010.06.28 07:06:18.
