data_PCOD8144991
_publ_section_title
;
Structure prediction by ZEFSAII (Michael W. Deem and Ramdas Pophale) SiO2 
 PCOD8144991
Probable space group: C 2/C
;
_chemical_formula_sum "Si O2"
_cell_formula_units_Z 52
_cell_length_a 12.558796
_cell_length_b 23.881386
_cell_length_c 12.160206
_cell_angle_alpha 90.000000
_cell_angle_beta 139.674363
_cell_angle_gamma 90.000000
_cell_volume 2360.155684
_symmetry_space_group_name_H-M "C 2/C"
_symmetry_group_IT_number 15
_symmetry_cell_setting 'monoclinic'
loop_
_space_group_symop_operation_xyz
x,y,z
-x,y,1/2-z
-x,-y,-z
x,-y,1/2+z
1/2+x,1/2+y,z
1/2-x,1/2+y,1/2-z
1/2-x,1/2-y,-z
1/2+x,1/2-y,1/2+z
loop_
_atom_site_type_symbol
_atom_site_label
_atom_site_fract_x
_atom_site_fract_y
_atom_site_fract_z
Si Si1 0.095047 0.616633 0.423439
Si Si2 0.839178 0.927432 0.568141
Si Si3 0.000000 0.252069 0.250000
Si Si4 0.914032 0.151107 0.786014
Si Si5 0.868388 0.450612 0.888745
Si Si6 0.157562 0.952766 0.517884
Si Si7 0.200187 0.817953 0.081021
O O1 0.226779 0.648462 0.599314
O O2 0.184197 0.564680 0.430854
O O3 0.000000 0.650847 0.250000
O O4 0.959497 0.601507 0.406441
O O5 0.690586 0.934797 0.536585
O O6 0.778302 0.884248 0.426843
O O7 0.000000 0.900061 0.750000
O O8 0.899455 0.986308 0.565656
O O9 0.880703 0.290628 0.230612
O O10 0.101844 0.212600 0.409135
O O11 0.905280 0.188183 0.889120
O O12 0.000000 0.182047 0.750000
O O13 0.008201 0.091788 0.883760
O O14 0.709537 0.461993 0.686067
O O15 0.000000 0.500000 0.000000
#
# Coordination Sequence:
#
# PCOD8144991 Si02
#       7
#     8   8   4   8   8   8   8
#     4   9  19  38  54  88 137 178 210 269 312 375
#     4  12  24  37  62  98 129 182 227 263 332 412
#     4  10  26  52  68  94 130 166 222 316 330 378
#     4  10  22  42  70 101 135 179 214 260 341 420
#     4  11  23  35  53  85 136 184 231 265 304 380
#     4  10  22  36  58  90 144 180 212 264 315 399
#     4  11  25  46  72  96 127 169 229 283 353 387
#
# _framework density 22.032444999999999
#
# number of rings (size 3 to 8) (size 9 to 14) (size 15 to 20)
#    0.000    1.538    2.308    2.308    4.308    1.231 
#    0.000    0.769    0.000    0.000    0.000    0.000 
#    0.000    0.000    0.000    0.000    0.000    0.000 
#
# Total GULP energy -322178.139721 kJ/mol
# GULP energy per Si atom -12391.466912 kJ/mol
# Density = 2.198230 g / cm^3
# Si number density = 22.032445 Si / 1000 Ang^3
#
#
#
# Elastic Constant Matrix: (Units=GPa)
#
#
# Indices 1 2 3 4 5 6 
#
# 1 154.3266 31.4111 19.3147 0.0000 -6.0851 0.0000
# 2 31.4111 46.5925 1.9031 0.0000 1.9536 0.0000
# 3 19.3147 1.9031 98.6634 0.0000 5.8239 0.0000
# 4 0.0000 0.0000 0.0000 4.4493 0.0000 -2.8130
# 5 -6.0851 1.9536 5.8239 0.0000 33.9779 0.0000
# 6 0.0000 0.0000 0.0000 -2.8130 0.0000 24.6284
#
#
#
# Elastic Compliance Matrix: (Units=1/GPa)
#
#
# Indices 1 2 3 4 5 6 
#
# 1 0.007829 -0.005298 -0.001547 0.000000 0.001972 0.000000
# 2 -0.005298 0.025111 0.000701 0.000000 -0.002513 0.000000
# 3 -0.001547 0.000701 0.010550 0.000000 -0.002126 0.000000
# 4 0.000000 0.000000 0.000000 0.242247 0.000000 0.027669
# 5 0.001972 -0.002513 -0.002126 0.000000 0.030293 0.000000
# 6 0.000000 0.000000 0.000000 0.027669 0.000000 0.043764
#
#
# Mechanical properties :
#
#
# Convention : Reuss Voigt Hill
#
# Bulk Modulus (GPa) = 32.04784 44.98227 38.51506
# Shear Modulus (GPa) = 13.07247 29.07469 21.07358
#
# Velocity S-wave (km/s) = 2.43848 3.63661 3.09606
# Velocity P-wave (km/s) = 4.74400 6.17203 5.50452
#
# Compressibility (1/GPa) = 0.03120335
#
# Stress axis : x y z
#
# Youngs Moduli (GPa) = 127.72327 39.82311 94.78447
#
# Poissons Ratio (x) = 0.21098 0.14662
# Poissons Ratio (y) = 0.67666 -0.06645
# Poissons Ratio (z) = 0.19758 -0.02792
#
# Static dielectric constant tensor:
#      x y z
#    x 4.360080 0.000000 -0.084550 
#    y 0.000000 3.467720 0.000000 
#    z -0.084550 0.000000 4.393270 
# 
# 
# High freq. dielectric constant tensor:
#      x y z
#    x 1.884880 0.000000 -0.000560 
#    y 0.000000 1.813240 0.000000 
#    z -0.000560 0.000000 1.884070 
# 
# From -- ./inp_files/92655.got.cif
#   From: 2010.06.25/outbox.cif.g09.slc.cpg/sg15_47_cif.got.tgz:92655.got - 2010.06.28 07:06:18.
