data_PCOD8144191
_publ_section_title
;
Structure prediction by ZEFSAII (Michael W. Deem and Ramdas Pophale) SiO2 
 PCOD8144191
Probable space group: C 2/C
;
_chemical_formula_sum "Si O2"
_cell_formula_units_Z 64
_cell_length_a 8.819218
_cell_length_b 19.581873
_cell_length_c 23.167506
_cell_angle_alpha 90.000000
_cell_angle_beta 50.618771
_cell_angle_gamma 90.000000
_cell_volume 3092.503544
_symmetry_space_group_name_H-M "C 2/C"
_symmetry_group_IT_number 15
_symmetry_cell_setting 'monoclinic'
loop_
_space_group_symop_operation_xyz
x,y,z
-x,y,1/2-z
-x,-y,-z
x,-y,1/2+z
1/2+x,1/2+y,z
1/2-x,1/2+y,1/2-z
1/2-x,1/2-y,-z
1/2+x,1/2-y,1/2+z
loop_
_atom_site_type_symbol
_atom_site_label
_atom_site_fract_x
_atom_site_fract_y
_atom_site_fract_z
Si Si1 0.971509 0.362879 0.904585
Si Si2 0.908085 0.890812 0.440579
Si Si3 0.305084 0.848393 0.831890
Si Si4 0.719146 0.503321 0.352528
Si Si5 0.189985 0.111968 0.668123
Si Si6 0.626285 0.993993 0.810013
Si Si7 0.471532 0.766249 0.109854
Si Si8 0.609069 0.740844 0.947551
O O1 0.874321 0.317595 0.876830
O O2 0.117008 0.417703 0.839297
O O3 0.081301 0.312146 0.920999
O O4 0.800338 0.404238 0.979009
O O5 0.870464 0.881920 0.382784
O O6 0.007412 0.821575 0.439486
O O7 0.043460 0.956837 0.418832
O O8 0.500000 0.870897 0.750000
O O9 0.178841 0.916768 0.875596
O O10 0.173146 0.793031 0.830894
O O11 0.733213 0.498848 0.279593
O O12 0.913296 0.479998 0.340349
O O13 0.364704 0.162591 0.641322
O O14 0.000000 0.132520 0.750000
O O15 0.276599 0.038127 0.662798
O O16 0.658876 0.771343 0.105779
O O17 0.523150 0.747145 0.032033
#
# Coordination Sequence:
#
# PCOD8144191 Si02
#       8
#     8   8   8   8   8   8   8   8
#     4  11  22  43  68  95 127 170 214 261 320 382
#     4  12  23  41  69  95 126 172 216 259 322 381
#     4  11  21  42  70  96 127 171 212 260 320 385
#     4  10  21  42  64  95 130 166 208 261 319 377
#     4  12  24  42  66  95 129 172 213 262 319 381
#     4  10  22  42  63  94 133 164 206 265 318 376
#     4  11  24  43  65  96 130 166 217 265 325 375
#     4  11  24  44  64  95 134 164 210 278 315 376
#
# _framework density 20.695207
#
# number of rings (size 3 to 8) (size 9 to 14) (size 15 to 20)
#    0.000    1.000    6.250    2.250    0.000    3.500 
#    4.500    1.875    0.000    0.000    0.000    0.000 
#    0.000    0.000    0.000    0.000    0.000    0.000 
#
# Total GULP energy -396765.080298 kJ/mol
# GULP energy per Si atom -12398.908759 kJ/mol
# Density = 2.064810 g / cm^3
# Si number density = 20.695207 Si / 1000 Ang^3
#
#
#
# Elastic Constant Matrix: (Units=GPa)
#
#
# Indices 1 2 3 4 5 6 
#
# 1 106.9492 42.6028 23.4051 0.0005 5.4541 -0.0004
# 2 42.6028 87.1603 5.0805 0.0001 -0.4438 -0.0003
# 3 23.4051 5.0805 51.9087 -0.0005 8.6620 -0.0001
# 4 0.0005 0.0001 -0.0005 42.0323 0.0000 -2.7733
# 5 5.4541 -0.4438 8.6620 0.0000 29.1969 0.0003
# 6 -0.0004 -0.0003 -0.0001 -2.7733 0.0003 32.1893
#
#
#
# Elastic Compliance Matrix: (Units=1/GPa)
#
#
# Indices 1 2 3 4 5 6 
#
# 1 0.012907 -0.006019 -0.005064 0.000000 -0.001000 0.000000
# 2 -0.006019 0.014354 0.001141 0.000000 0.001004 0.000000
# 3 -0.005064 0.001141 0.022383 0.000000 -0.005677 0.000000
# 4 0.000000 0.000000 0.000000 0.023927 0.000000 0.002061
# 5 -0.001000 0.001004 -0.005677 0.000000 0.036137 0.000000
# 6 0.000000 0.000000 0.000000 0.002061 0.000000 0.031244
#
#
# Mechanical properties :
#
#
# Convention : Reuss Voigt Hill
#
# Bulk Modulus (GPa) = 33.59977 43.13277 38.36627
# Shear Modulus (GPa) = 29.28192 32.34570 30.81381
#
# Velocity S-wave (km/s) = 3.76561 3.95771 3.86286
# Velocity P-wave (km/s) = 5.93104 6.46311 6.20278
#
# Compressibility (1/GPa) = 0.02976210
#
# Stress axis : x y z
#
# Youngs Moduli (GPa) = 77.47808 69.66926 44.67599
#
# Poissons Ratio (x) = 0.41931 0.22622
# Poissons Ratio (y) = 0.46631 -0.05099
# Poissons Ratio (z) = 0.39232 -0.07952
#
# Static dielectric constant tensor:
#      x y z
#    x 3.841150 0.000000 -0.024030 
#    y 0.000000 3.633210 0.000000 
#    z -0.024030 0.000000 3.639470 
# 
# 
# High freq. dielectric constant tensor:
#      x y z
#    x 1.814340 0.000000 0.005370 
#    y 0.000000 1.808990 0.000000 
#    z 0.005370 0.000000 1.810930 
# 
# From -- ./inp_files/266098.got.cif
#   From: 2010.06.25/outbox.cif.g09.slc.cpg/sg15_134_cif.got.tgz:266098.got - 2010.06.28 07:06:18.
