data_PCOD8144919
_publ_section_title
;
Structure prediction by ZEFSAII (Michael W. Deem and Ramdas Pophale) SiO2 
 PCOD8144919
Probable space group: C 2/C
;
_chemical_formula_sum "Si O2"
_cell_formula_units_Z 56
_cell_length_a 25.868002
_cell_length_b 11.498833
_cell_length_c 25.061992
_cell_angle_alpha 90.000000
_cell_angle_beta 157.425863
_cell_angle_gamma 90.000000
_cell_volume 2861.713070
_symmetry_space_group_name_H-M "C 2/C"
_symmetry_group_IT_number 15
_symmetry_cell_setting 'monoclinic'
loop_
_space_group_symop_operation_xyz
x,y,z
-x,y,1/2-z
-x,-y,-z
x,-y,1/2+z
1/2+x,1/2+y,z
1/2-x,1/2+y,1/2-z
1/2-x,1/2-y,-z
1/2+x,1/2-y,1/2+z
loop_
_atom_site_type_symbol
_atom_site_label
_atom_site_fract_x
_atom_site_fract_y
_atom_site_fract_z
Si Si1 0.005674 0.318456 0.694563
Si Si2 0.072046 0.092974 0.103714
Si Si3 0.732100 0.767117 0.766549
Si Si4 0.094545 0.481076 0.687954
Si Si5 0.815608 0.822572 0.393176
Si Si6 0.266676 0.656336 0.618208
Si Si7 0.300933 0.933528 0.899371
O O1 0.072962 0.422476 0.725290
O O2 0.094443 0.200604 0.774677
O O3 0.000000 0.359876 0.750000
O O4 0.857276 0.286102 0.531834
O O5 0.116508 0.197274 0.106581
O O6 0.207459 0.041143 0.259053
O O7 0.967479 0.133438 0.050740
O O8 0.000000 0.000000 0.000000
O O9 0.670898 0.698765 0.657894
O O10 0.744169 0.687120 0.829715
O O11 0.644802 0.883061 0.695052
O O12 0.203557 0.582612 0.800295
O O13 0.955673 0.534939 0.533420
O O14 0.786532 0.704311 0.398675
O O15 0.253052 0.515015 0.603261
#
# Coordination Sequence:
#
# PCOD8144919 Si02
#       7
#     8   8   8   8   8   8   8
#     4  10  22  41  65  86 110 145 190 250 297 340
#     4  11  21  32  49  76 113 155 196 221 259 318
#     4  10  22  34  54  80 119 156 191 227 277 338
#     4  10  22  41  55  83 112 157 191 234 287 337
#     4  11  22  36  55  80 122 159 193 225 272 340
#     4  10  22  37  60  87 116 144 192 236 295 343
#     4  10  22  35  53  77 114 154 186 229 272 340
#
# _framework density 19.568698000000001
#
# number of rings (size 3 to 8) (size 9 to 14) (size 15 to 20)
#    0.000    1.714    1.429    3.000   10.000    2.286 
#    0.000    0.000    0.000    4.286    0.000    0.000 
#    0.000    0.000    0.000    0.000    0.000    0.000 
#
# Total GULP energy -347012.656355 kJ/mol
# GULP energy per Si atom -12393.309156 kJ/mol
# Density = 1.952416 g / cm^3
# Si number density = 19.568698 Si / 1000 Ang^3
#
#
#
# Elastic Constant Matrix: (Units=GPa)
#
#
# Indices 1 2 3 4 5 6 
#
# 1 76.7793 29.4031 34.6907 0.0006 2.9920 0.0002
# 2 29.4031 94.6640 39.8027 0.0063 6.0834 0.0018
# 3 34.6907 39.8027 103.7058 0.0066 12.6515 0.0020
# 4 0.0006 0.0063 0.0066 25.1448 0.0022 2.2651
# 5 2.9920 6.0834 12.6515 0.0022 16.9981 0.0004
# 6 0.0002 0.0018 0.0020 2.2651 0.0004 15.3803
#
#
#
# Elastic Compliance Matrix: (Units=1/GPa)
#
#
# Indices 1 2 3 4 5 6 
#
# 1 0.016189 -0.003305 -0.004337 0.000001 0.001562 0.000001
# 2 -0.003305 0.013287 -0.003833 -0.000002 -0.001321 -0.000001
# 3 -0.004337 -0.003833 0.013533 -0.000002 -0.007937 -0.000001
# 4 0.000001 -0.000002 -0.000002 0.040304 -0.000003 -0.005936
# 5 0.001562 -0.001321 -0.007937 -0.000003 0.064935 0.000000
# 6 0.000001 -0.000001 -0.000001 -0.005936 0.000000 0.065892
#
#
# Mechanical properties :
#
#
# Convention : Reuss Voigt Hill
#
# Bulk Modulus (GPa) = 49.85521 53.66024 51.75773
# Shear Modulus (GPa) = 20.51057 22.92149 21.71603
#
# Velocity S-wave (km/s) = 3.24100 3.42619 3.33488
# Velocity P-wave (km/s) = 6.28791 6.56755 6.42925
#
# Compressibility (1/GPa) = 0.02005808
#
# Stress axis : x y z
#
# Youngs Moduli (GPa) = 61.77081 75.26361 73.89392
#
# Poissons Ratio (x) = 0.24874 0.32051
# Poissons Ratio (y) = 0.20415 0.28322
# Poissons Ratio (z) = 0.26792 0.28847
#
# Static dielectric constant tensor:
#      x y z
#    x 3.150710 -0.000010 -0.024830 
#    y -0.000010 3.838690 -0.000020 
#    z -0.024830 -0.000020 2.861400 
# 
# 
# High freq. dielectric constant tensor:
#      x y z
#    x 1.709170 0.000000 0.020090 
#    y 0.000000 1.770270 0.000000 
#    z 0.020090 0.000000 1.782990 
# 
# From -- ./inp_files/303282.got.cif
#   From: 2010.06.25/outbox.cif.g09.slc.cpg/sg15_152_cif.got.tgz:303282.got - 2010.06.28 07:06:18.
