data_PCOD8144758
_publ_section_title
;
Structure prediction by ZEFSAII (Michael W. Deem and Ramdas Pophale) SiO2 
 PCOD8144758
Probable space group: C 2/C
;
_chemical_formula_sum "Si O2"
_cell_formula_units_Z 32
_cell_length_a 9.691150
_cell_length_b 11.438859
_cell_length_c 14.406256
_cell_angle_alpha 90.000000
_cell_angle_beta 118.111519
_cell_angle_gamma 90.000000
_cell_volume 1408.619083
_symmetry_space_group_name_H-M "C 2/C"
_symmetry_group_IT_number 15
_symmetry_cell_setting 'monoclinic'
loop_
_space_group_symop_operation_xyz
x,y,z
-x,y,1/2-z
-x,-y,-z
x,-y,1/2+z
1/2+x,1/2+y,z
1/2-x,1/2+y,1/2-z
1/2-x,1/2-y,-z
1/2+x,1/2-y,1/2+z
loop_
_atom_site_type_symbol
_atom_site_label
_atom_site_fract_x
_atom_site_fract_y
_atom_site_fract_z
Si Si1 0.399052 0.225317 0.806565
Si Si2 0.940559 0.249765 0.835665
Si Si3 0.466700 0.993324 0.633438
Si Si4 0.124459 0.900025 0.533953
O O1 0.500000 0.267658 0.750000
O O2 0.228225 0.187598 0.711759
O O3 0.370102 0.333424 0.866213
O O4 0.477940 0.118442 0.892234
O O5 0.000000 0.255964 0.750000
O O6 0.927122 0.384765 0.867397
O O7 0.074822 0.185828 0.935791
O O8 0.500000 0.024429 0.750000
O O9 0.287396 0.960305 0.558751
O O10 0.000000 0.000000 0.500000
#
# Coordination Sequence:
#
# PCOD8144758 Si02
#       4
#     8   8   8   8
#     4  11  25  45  71 103 142 183 227 288 352 407
#     4  11  24  45  72  99 137 184 236 285 348 410
#     4  10  21  44  69  99 140 178 228 289 334 413
#     4  12  25  44  69 102 141 182 234 287 344 417
#
# _framework density 22.717282999999998
#
# number of rings (size 3 to 8) (size 9 to 14) (size 15 to 20)
#    0.000    1.000    5.000    3.750    0.000    6.000 
#    0.000    0.000    0.000    0.000    0.000    0.000 
#    0.000    0.000    0.000    0.000    0.000    0.000 
#
# Total GULP energy -198319.817850 kJ/mol
# GULP energy per Si atom -12394.988616 kJ/mol
# Density = 2.266558 g / cm^3
# Si number density = 22.717283 Si / 1000 Ang^3
#
#
#
# Elastic Constant Matrix: (Units=GPa)
#
#
# Indices 1 2 3 4 5 6 
#
# 1 137.1602 41.0535 34.3302 0.0000 36.6939 0.0000
# 2 41.0535 112.6387 14.0266 0.0000 18.9315 0.0000
# 3 34.3302 14.0266 79.2956 0.0000 22.0896 0.0000
# 4 0.0000 0.0000 0.0000 34.0912 0.0000 9.6703
# 5 36.6939 18.9315 22.0896 0.0000 41.2036 0.0000
# 6 0.0000 0.0000 0.0000 9.6703 0.0000 40.4245
#
#
#
# Elastic Compliance Matrix: (Units=1/GPa)
#
#
# Indices 1 2 3 4 5 6 
#
# 1 0.010412 -0.002344 -0.002128 0.000000 -0.007055 0.000000
# 2 -0.002344 0.010169 -0.000075 0.000000 -0.002544 0.000000
# 3 -0.002128 -0.000075 0.015292 0.000000 -0.006268 0.000000
# 4 0.000000 0.000000 0.000000 0.031468 0.000000 -0.007528
# 5 -0.007055 -0.002544 -0.006268 0.000000 0.035082 0.000000
# 6 0.000000 0.000000 0.000000 -0.007528 0.000000 0.026538
#
#
# Mechanical properties :
#
#
# Convention : Reuss Voigt Hill
#
# Bulk Modulus (GPa) = 37.34289 56.43500 46.88894
# Shear Modulus (GPa) = 34.01747 39.12282 36.57015
#
# Velocity S-wave (km/s) = 3.87386 4.15440 4.01658
# Velocity P-wave (km/s) = 6.04010 6.92158 6.49581
#
# Compressibility (1/GPa) = 0.02677886
#
# Stress axis : x y z
#
# Youngs Moduli (GPa) = 96.03954 98.33443 65.39435
#
# Poissons Ratio (x) = 0.23052 0.13916
# Poissons Ratio (y) = 0.22514 0.00491
# Poissons Ratio (z) = 0.20437 0.00739
#
# Static dielectric constant tensor:
#      x y z
#    x 4.154190 0.000000 0.368330 
#    y 0.000000 4.636130 0.000000 
#    z 0.368330 0.000000 4.474830 
# 
# 
# High freq. dielectric constant tensor:
#      x y z
#    x 1.892830 0.000000 0.020160 
#    y 0.000000 1.911660 0.000000 
#    z 0.020160 0.000000 1.895170 
# 
# From -- ./inp_files/131770.got.cif
#   From: 2010.06.25/outbox.cif.g09.slc.cpg/sg15_66_cif.got.tgz:131770.got - 2010.06.28 07:06:18.
