data_PCOD8144773
_publ_section_title
;
Structure prediction by ZEFSAII (Michael W. Deem and Ramdas Pophale) SiO2 
 PCOD8144773
Probable space group: C 2/C
;
_chemical_formula_sum "Si O2"
_cell_formula_units_Z 48
_cell_length_a 15.584592
_cell_length_b 27.966436
_cell_length_c 8.956598
_cell_angle_alpha 90.000000
_cell_angle_beta 145.288861
_cell_angle_gamma 90.000000
_cell_volume 2222.916330
_symmetry_space_group_name_H-M "C 2/C"
_symmetry_group_IT_number 15
_symmetry_cell_setting 'monoclinic'
loop_
_space_group_symop_operation_xyz
x,y,z
-x,y,1/2-z
-x,-y,-z
x,-y,1/2+z
1/2+x,1/2+y,z
1/2-x,1/2+y,1/2-z
1/2-x,1/2-y,-z
1/2+x,1/2-y,1/2+z
loop_
_atom_site_type_symbol
_atom_site_label
_atom_site_fract_x
_atom_site_fract_y
_atom_site_fract_z
Si Si1 0.929765 0.713116 0.307847
Si Si2 0.895668 0.182433 0.732167
Si Si3 0.650473 0.611578 0.558911
Si Si4 0.134865 0.462488 0.692195
Si Si5 0.826515 0.985952 0.252031
Si Si6 0.462466 0.872044 0.365765
O O1 0.969436 0.768523 0.402316
O O2 0.000000 0.697449 0.250000
O O3 0.998261 0.682087 0.538396
O O4 0.754258 0.701260 0.060622
O O5 0.864594 0.144107 0.815562
O O6 0.000000 0.159743 0.750000
O O7 0.688013 0.557686 0.655420
O O8 0.785366 0.625596 0.643093
O O9 0.500000 0.615947 0.250000
O O10 0.226803 0.469567 0.669356
O O11 0.000000 0.500000 0.500000
O O12 0.063259 0.409633 0.606022
O O13 0.259229 0.470577 0.997553
O O14 0.000000 0.000000 0.500000
O O15 0.500000 0.883487 0.250000
#
# Coordination Sequence:
#
# PCOD8144773 Si02
#       6
#     8   8   8   8   8   8
#     4  10  21  44  71 101 133 176 232 288 345 411
#     4  10  23  42  72 102 135 176 227 287 352 417
#     4  12  27  46  67 100 144 183 227 289 349 411
#     4  12  25  44  72 100 132 179 234 281 339 403
#     4  12  27  46  69 101 140 179 223 287 350 412
#     4  12  27  44  70 100 137 185 237 283 339 413
#
# _framework density 21.593256
#
# number of rings (size 3 to 8) (size 9 to 14) (size 15 to 20)
#    0.000    0.667    3.333    4.000    4.667    2.000 
#    0.000    1.667    0.000    0.000    0.000    0.000 
#    0.000    0.000    0.000    0.000    0.000    0.000 
#
# Total GULP energy -297599.601514 kJ/mol
# GULP energy per Si atom -12399.983396 kJ/mol
# Density = 2.154411 g / cm^3
# Si number density = 21.593256 Si / 1000 Ang^3
#
#
#
# Elastic Constant Matrix: (Units=GPa)
#
#
# Indices 1 2 3 4 5 6 
#
# 1 145.0569 31.5313 37.5892 0.0000 15.5622 0.0000
# 2 31.5313 88.6176 26.4633 0.0000 11.3690 0.0000
# 3 37.5892 26.4633 113.5862 0.0000 8.3203 0.0000
# 4 0.0000 0.0000 0.0000 24.0887 0.0000 10.5196
# 5 15.5622 11.3690 8.3203 0.0000 25.9341 0.0000
# 6 0.0000 0.0000 0.0000 10.5196 0.0000 17.8400
#
#
#
# Elastic Compliance Matrix: (Units=1/GPa)
#
#
# Indices 1 2 3 4 5 6 
#
# 1 0.008195 -0.001869 -0.002024 0.000000 -0.003449 0.000000
# 2 -0.001869 0.013094 -0.002144 0.000000 -0.003931 0.000000
# 3 -0.002024 -0.002144 0.010052 0.000000 -0.001070 0.000000
# 4 0.000000 0.000000 0.000000 0.055911 0.000000 -0.032968
# 5 -0.003449 -0.003931 -0.001070 0.000000 0.042695 0.000000
# 6 0.000000 0.000000 0.000000 -0.032968 0.000000 0.075494
#
#
# Mechanical properties :
#
#
# Convention : Reuss Voigt Hill
#
# Bulk Modulus (GPa) = 51.90416 59.82537 55.86477
# Shear Modulus (GPa) = 22.32780 30.35102 26.33941
#
# Velocity S-wave (km/s) = 3.21910 3.75317 3.49635
# Velocity P-wave (km/s) = 6.15680 6.82257 6.49822
#
# Compressibility (1/GPa) = 0.01926628
#
# Stress axis : x y z
#
# Youngs Moduli (GPa) = 122.03280 76.37067 99.48681
#
# Poissons Ratio (x) = 0.14273 0.20134
# Poissons Ratio (y) = 0.22807 0.21332
# Poissons Ratio (z) = 0.24697 0.16376
#
# Static dielectric constant tensor:
#      x y z
#    x 4.132230 0.000000 0.524320 
#    y 0.000000 4.408870 0.000000 
#    z 0.524320 0.000000 6.146690 
# 
# 
# High freq. dielectric constant tensor:
#      x y z
#    x 1.860750 0.000000 0.018510 
#    y 0.000000 1.855870 0.000000 
#    z 0.018510 0.000000 1.845730 
# 
# From -- ./inp_files/43911.got.cif
#   From: 2010.06.25/outbox.cif.g09.slc.cpg/sg15_22_cif.got.tgz:43911.got - 2010.06.28 07:06:18.
