data_PCOD8144414
_publ_section_title
;
Structure prediction by ZEFSAII (Michael W. Deem and Ramdas Pophale) SiO2 
 PCOD8144414
Probable space group: C 2/C
;
_chemical_formula_sum "Si O2"
_cell_formula_units_Z 40
_cell_length_a 21.970221
_cell_length_b 14.409850
_cell_length_c 5.345273
_cell_angle_alpha 90.000000
_cell_angle_beta 90.407388
_cell_angle_gamma 90.000000
_cell_volume 1692.204316
_symmetry_space_group_name_H-M "C 2/C"
_symmetry_group_IT_number 15
_symmetry_cell_setting 'monoclinic'
loop_
_space_group_symop_operation_xyz
x,y,z
-x,y,1/2-z
-x,-y,-z
x,-y,1/2+z
1/2+x,1/2+y,z
1/2-x,1/2+y,1/2-z
1/2-x,1/2-y,-z
1/2+x,1/2-y,1/2+z
loop_
_atom_site_type_symbol
_atom_site_label
_atom_site_fract_x
_atom_site_fract_y
_atom_site_fract_z
Si Si1 0.500000 0.439337 0.750000
Si Si2 0.598561 0.307942 0.914582
Si Si3 0.000000 0.719768 0.250000
Si Si4 0.712203 0.311214 0.186651
Si Si5 0.169089 0.332852 0.085075
Si Si6 0.935184 0.444729 0.567491
O O1 0.500000 0.500000 0.500000
O O2 0.561387 0.376060 0.729187
O O3 0.625293 0.212777 0.796555
O O4 0.550994 0.283526 0.130223
O O5 0.657017 0.363190 0.038686
O O6 0.968870 0.654192 0.038176
O O7 0.765298 0.373320 0.316528
O O8 0.679027 0.247951 0.388315
O O9 0.750000 0.250000 0.000000
O O10 0.136607 0.422517 0.961896
O O11 0.952746 0.515469 0.345693
#
# Coordination Sequence:
#
# PCOD8144414 Si02
#       6
#     4   8   4   8   8   8
#     4  12  29  46  67 104 146 176 220 290 365 410
#     4  11  23  44  73  98 130 181 233 287 328 413
#     4  12  23  44  69 102 132 188 236 264 321 420
#     4   9  20  40  73  95 123 163 243 290 325 384
#     4  10  21  42  70  99 127 178 238 278 330 404
#     4  12  26  41  62 100 151 183 216 277 343 398
#
# _framework density 23.637809000000001
#
# number of rings (size 3 to 8) (size 9 to 14) (size 15 to 20)
#    0.000    1.200    2.000    3.600    5.600    1.600 
#    0.000    2.000    0.000    0.000    0.000    0.000 
#    0.000    0.000    0.000    0.000    0.000    0.000 
#
# Total GULP energy -247774.337515 kJ/mol
# GULP energy per Si atom -12388.716876 kJ/mol
# Density = 2.358401 g / cm^3
# Si number density = 23.637809 Si / 1000 Ang^3
#
#
#
# Elastic Constant Matrix: (Units=GPa)
#
#
# Indices 1 2 3 4 5 6 
#
# 1 161.8335 32.0736 56.7254 0.0000 22.1301 0.0000
# 2 32.0736 53.3855 24.2011 0.0000 7.1862 0.0000
# 3 56.7254 24.2011 113.9794 0.0000 10.6685 0.0000
# 4 0.0000 0.0000 0.0000 36.4456 0.0000 16.3614
# 5 22.1301 7.1862 10.6685 0.0000 57.9988 0.0000
# 6 0.0000 0.0000 0.0000 16.3614 0.0000 41.8114
#
#
#
# Elastic Compliance Matrix: (Units=1/GPa)
#
#
# Indices 1 2 3 4 5 6 
#
# 1 0.008236 -0.003199 -0.003218 0.000000 -0.002154 0.000000
# 2 -0.003199 0.022154 -0.003021 0.000000 -0.000969 0.000000
# 3 -0.003218 -0.003021 0.011057 0.000000 -0.000432 0.000000
# 4 0.000000 0.000000 0.000000 0.033285 0.000000 -0.013025
# 5 -0.002154 -0.000969 -0.000432 0.000000 0.018263 0.000000
# 6 0.000000 0.000000 0.000000 -0.013025 0.000000 0.029014
#
#
# Mechanical properties :
#
#
# Convention : Reuss Voigt Hill
#
# Bulk Modulus (GPa) = 44.30657 61.68874 52.99766
# Shear Modulus (GPa) = 33.69089 41.66437 37.67763
#
# Velocity S-wave (km/s) = 3.77941 4.20291 3.99677
# Velocity P-wave (km/s) = 6.15060 7.05030 6.61576
#
# Compressibility (1/GPa) = 0.02257002
#
# Stress axis : x y z
#
# Youngs Moduli (GPa) = 121.42220 45.13927 90.44187
#
# Poissons Ratio (x) = 0.14441 0.29103
# Poissons Ratio (y) = 0.38846 0.27322
# Poissons Ratio (z) = 0.39072 0.13637
#
# Static dielectric constant tensor:
#      x y z
#    x 5.621700 0.000000 0.767190 
#    y 0.000000 3.851030 0.000000 
#    z 0.767190 0.000000 4.455660 
# 
# 
# High freq. dielectric constant tensor:
#      x y z
#    x 1.980850 0.000000 0.020240 
#    y 0.000000 1.872260 0.000000 
#    z 0.020240 0.000000 1.948430 
# 
# From -- ./inp_files/15028.got.cif
#   From: 2010.06.25/outbox.cif.g09.slc.cpg/sg15_8_cif.got.tgz:15028.got - 2010.06.28 07:06:18.
