data_PCOD8144372
_publ_section_title
;
Structure prediction by ZEFSAII (Michael W. Deem and Ramdas Pophale) SiO2 
 PCOD8144372
Probable space group: C 2/C
;
_chemical_formula_sum "Si O2"
_cell_formula_units_Z 48
_cell_length_a 10.693572
_cell_length_b 15.223892
_cell_length_c 25.723773
_cell_angle_alpha 90.000000
_cell_angle_beta 31.725376
_cell_angle_gamma 90.000000
_cell_volume 2202.133955
_symmetry_space_group_name_H-M "C 2/C"
_symmetry_group_IT_number 15
_symmetry_cell_setting 'monoclinic'
loop_
_space_group_symop_operation_xyz
x,y,z
-x,y,1/2-z
-x,-y,-z
x,-y,1/2+z
1/2+x,1/2+y,z
1/2-x,1/2+y,1/2-z
1/2-x,1/2-y,-z
1/2+x,1/2-y,1/2+z
loop_
_atom_site_type_symbol
_atom_site_label
_atom_site_fract_x
_atom_site_fract_y
_atom_site_fract_z
Si Si1 0.995938 0.133277 0.425751
Si Si2 0.115771 0.041749 0.598432
Si Si3 0.000000 0.702991 0.250000
Si Si4 0.920857 0.356512 0.594301
Si Si5 0.859208 0.213885 0.693197
Si Si6 0.338132 0.238955 0.894792
Si Si7 0.000000 0.028542 0.250000
O O1 0.819868 0.151012 0.537323
O O2 0.941067 0.216641 0.409777
O O3 0.274907 0.139686 0.342735
O O4 0.940489 0.041879 0.417334
O O5 0.378194 0.075681 0.493446
O O6 0.931928 0.117499 0.649023
O O7 0.097064 0.025817 0.666781
O O8 0.937916 0.767462 0.224318
O O9 0.001926 0.284104 0.607358
O O10 0.823788 0.309779 0.577036
O O11 0.713759 0.411590 0.695957
O O12 0.578164 0.214410 0.778928
#
# Coordination Sequence:
#
# PCOD8144372 Si02
#       7
#     8   8   4   8   8   8   4
#     4  10  22  41  66  99 132 174 225 278 326 404
#     4  12  26  39  69 107 132 171 229 287 331 389
#     4  10  21  46  65  92 136 192 220 263 348 407
#     4  12  23  46  68  99 135 178 224 277 340 401
#     4  11  23  43  67  95 136 180 223 274 335 409
#     4  10  21  42  69  93 132 181 222 266 343 399
#     4  12  23  42  67 100 136 166 224 291 332 383
#
# _framework density 21.797039000000002
#
# number of rings (size 3 to 8) (size 9 to 14) (size 15 to 20)
#    0.000    1.000    3.333    3.500    2.333    1.333 
#    3.000    1.667    0.000    0.000    0.000    0.000 
#    0.000    0.000    0.000    0.000    0.000    0.000 
#
# Total GULP energy -297506.634369 kJ/mol
# GULP energy per Si atom -12396.109765 kJ/mol
# Density = 2.174743 g / cm^3
# Si number density = 21.797039 Si / 1000 Ang^3
#
#
#
# Elastic Constant Matrix: (Units=GPa)
#
#
# Indices 1 2 3 4 5 6 
#
# 1 74.6618 31.9548 41.8301 -0.6832 -14.2686 -0.0553
# 2 31.9548 132.7960 74.6444 -0.7894 -15.8275 -0.0817
# 3 41.8301 74.6444 146.1438 -3.1355 -22.7120 -0.3351
# 4 -0.6832 -0.7894 -3.1355 -962.1055 -0.2251 -102.4303
# 5 -14.2686 -15.8275 -22.7120 -0.2251 35.4890 -0.0277
# 6 -0.0553 -0.0817 -0.3351 -102.4303 -0.0277 13.5146
#
#
#
# Elastic Compliance Matrix: (Units=1/GPa)
#
#
# Indices 1 2 3 4 5 6 
#
# 1 0.016714 -0.001698 -0.003320 0.000001 0.003838 -0.000011
# 2 -0.001698 0.010798 -0.004871 0.000008 0.001016 0.000000
# 3 -0.003320 -0.004871 0.010810 -0.000030 0.003411 0.000004
# 4 0.000001 0.000008 -0.000030 -0.000575 -0.000022 -0.004360
# 5 0.003838 0.001016 0.003411 -0.000022 0.032356 0.000002
# 6 -0.000011 0.000000 0.000004 -0.004360 0.000002 0.040950
#
#
# Mechanical properties :
#
#
# Convention : Reuss Voigt Hill
#
# Bulk Modulus (GPa) = 53.92751 72.27338 63.10044
# Shear Modulus (GPa) = 36.49241 -168.94222 -66.22491
#
# Velocity S-wave (km/s) = 4.09613 -8.81335 -5.51801
# Velocity P-wave (km/s) = 6.86771 8.38675 3.40383
#
# Compressibility (1/GPa) = 0.01854341
#
# Stress axis : x y z
#
# Youngs Moduli (GPa) = 59.82937 92.60816 92.50399
#
# Poissons Ratio (x) = 0.15727 0.30713
# Poissons Ratio (y) = 0.10161 0.45060
# Poissons Ratio (z) = 0.19865 0.45111
#
# Static dielectric constant tensor:
#      x y z
#    x 3.731500 0.000000 -0.174740 
#    y 0.000000 3.841570 -0.000010 
#    z -0.174740 -0.000010 4.433780 
# 
# 
# High freq. dielectric constant tensor:
#      x y z
#    x 1.845520 0.000000 -0.007770 
#    y 0.000000 1.849000 0.000000 
#    z -0.007770 0.000000 1.877230 
# 
# From -- ./inp_files/238967.got.cif
#   From: 2010.06.25/outbox.cif.g09.slc.cpg/sg15_120_cif.got.tgz:238967.got - 2010.06.28 07:06:18.
