data_PCOD8144351
_publ_section_title
;
Structure prediction by ZEFSAII (Michael W. Deem and Ramdas Pophale) SiO2 
 PCOD8144351
Probable space group: C 2/C
;
_chemical_formula_sum "Si O2"
_cell_formula_units_Z 44
_cell_length_a 8.250686
_cell_length_b 17.695999
_cell_length_c 15.348044
_cell_angle_alpha 90.000000
_cell_angle_beta 120.833293
_cell_angle_gamma 90.000000
_cell_volume 1924.157128
_symmetry_space_group_name_H-M "C 2/C"
_symmetry_group_IT_number 15
_symmetry_cell_setting 'monoclinic'
loop_
_space_group_symop_operation_xyz
x,y,z
-x,y,1/2-z
-x,-y,-z
x,-y,1/2+z
1/2+x,1/2+y,z
1/2-x,1/2+y,1/2-z
1/2-x,1/2-y,-z
1/2+x,1/2-y,1/2+z
loop_
_atom_site_type_symbol
_atom_site_label
_atom_site_fract_x
_atom_site_fract_y
_atom_site_fract_z
Si Si1 0.733920 0.187667 0.234407
Si Si2 0.775323 0.961932 0.018737
Si Si3 0.816123 0.312383 0.584959
Si Si4 0.884198 0.975652 0.798507
Si Si5 0.000000 0.691170 0.750000
Si Si6 0.441996 0.938400 0.363270
O O1 0.712980 0.219948 0.326380
O O2 0.536847 0.166842 0.134073
O O3 0.862942 0.113608 0.278310
O O4 0.820266 0.253084 0.197724
O O5 0.680566 0.931984 0.082353
O O6 0.799228 0.890048 0.961525
O O7 0.982854 0.000778 0.083595
O O8 0.640284 0.021957 0.935571
O O9 0.750000 0.250000 0.500000
O O10 0.000000 0.009542 0.750000
O O11 0.678897 0.015816 0.743640
O O12 0.991933 0.642897 0.836509
#
# Coordination Sequence:
#
# PCOD8144351 Si02
#       6
#     8   8   8   8   4   8
#     4  11  25  45  68 100 143 182 227 291 352 408
#     4  10  22  42  71  99 131 184 234 281 348 421
#     4  11  25  44  69  97 140 187 234 281 350 422
#     4  10  21  42  68  96 137 176 224 283 348 406
#     4  12  26  42  70 102 140 180 226 290 350 412
#     4  10  23  41  66 101 136 175 228 289 339 416
#
# _framework density 22.867155
#
# number of rings (size 3 to 8) (size 9 to 14) (size 15 to 20)
#    0.000    1.455    2.727    1.091    5.091    2.182 
#    0.000    2.727    0.000    0.000    0.000    0.000 
#    0.000    0.000    0.000    0.000    0.000    0.000 
#
# Total GULP energy -272753.377369 kJ/mol
# GULP energy per Si atom -12397.880789 kJ/mol
# Density = 2.281511 g / cm^3
# Si number density = 22.867155 Si / 1000 Ang^3
#
#
#
# Elastic Constant Matrix: (Units=GPa)
#
#
# Indices 1 2 3 4 5 6 
#
# 1 53.3264 38.8941 46.3174 0.0000 20.9001 0.0000
# 2 38.8941 148.6292 60.1991 0.0000 18.1616 0.0000
# 3 46.3174 60.1991 153.5299 0.0000 31.8450 0.0000
# 4 0.0000 0.0000 0.0000 40.4052 0.0000 -3.2573
# 5 20.9001 18.1616 31.8450 0.0000 36.4350 0.0000
# 6 0.0000 0.0000 0.0000 -3.2573 0.0000 44.2222
#
#
#
# Elastic Compliance Matrix: (Units=1/GPa)
#
#
# Indices 1 2 3 4 5 6 
#
# 1 0.030968 -0.004643 -0.005273 0.000000 -0.010841 0.000000
# 2 -0.004643 0.008764 -0.002054 0.000000 0.000090 0.000000
# 3 -0.005273 -0.002054 0.009857 0.000000 -0.004566 0.000000
# 4 0.000000 0.000000 0.000000 0.024897 0.000000 0.001834
# 5 -0.010841 0.000090 -0.004566 0.000000 0.037610 0.000000
# 6 0.000000 0.000000 0.000000 0.001834 0.000000 0.022748
#
#
# Mechanical properties :
#
#
# Convention : Reuss Voigt Hill
#
# Bulk Modulus (GPa) = 38.99097 71.81186 55.40141
# Shear Modulus (GPa) = 29.87995 38.21748 34.04871
#
# Velocity S-wave (km/s) = 3.61872 4.09257 3.86292
# Velocity P-wave (km/s) = 5.87778 7.33514 6.64652
#
# Compressibility (1/GPa) = 0.02564696
#
# Stress axis : x y z
#
# Youngs Moduli (GPa) = 32.29132 114.09914 101.45161
#
# Poissons Ratio (x) = 0.52981 0.53499
# Poissons Ratio (y) = 0.14994 0.20842
# Poissons Ratio (z) = 0.17028 0.23441
#
# Static dielectric constant tensor:
#      x y z
#    x 4.146320 0.000000 0.080980 
#    y 0.000000 3.959630 0.000000 
#    z 0.080980 0.000000 4.299730 
# 
# 
# High freq. dielectric constant tensor:
#      x y z
#    x 1.907610 0.000000 0.000650 
#    y 0.000000 1.896540 0.000000 
#    z 0.000650 0.000000 1.908580 
# 
# From -- ./inp_files/134982.got.cif
#   From: 2010.06.25/outbox.cif.g09.slc.cpg/sg15_68_cif.got.tgz:134982.got - 2010.06.28 07:06:18.
