data_PCOD8144640
_publ_section_title
;
Structure prediction by ZEFSAII (Michael W. Deem and Ramdas Pophale) SiO2 
 PCOD8144640
Probable space group: C 2/C
;
_chemical_formula_sum "Si O2"
_cell_formula_units_Z 56
_cell_length_a 18.726607
_cell_length_b 16.202466
_cell_length_c 13.886504
_cell_angle_alpha 90.000000
_cell_angle_beta 145.594429
_cell_angle_gamma 90.000000
_cell_volume 2380.772447
_symmetry_space_group_name_H-M "C 2/C"
_symmetry_group_IT_number 15
_symmetry_cell_setting 'monoclinic'
loop_
_space_group_symop_operation_xyz
x,y,z
-x,y,1/2-z
-x,-y,-z
x,-y,1/2+z
1/2+x,1/2+y,z
1/2-x,1/2+y,1/2-z
1/2-x,1/2-y,-z
1/2+x,1/2-y,1/2+z
loop_
_atom_site_type_symbol
_atom_site_label
_atom_site_fract_x
_atom_site_fract_y
_atom_site_fract_z
Si Si1 0.546523 0.088559 0.094986
Si Si2 0.133512 0.691303 0.721409
Si Si3 0.364904 0.595804 0.015413
Si Si4 0.797928 0.142330 0.300787
Si Si5 0.000000 0.240177 0.250000
Si Si6 0.500000 0.044996 0.250000
Si Si7 0.737919 0.474234 0.911585
Si Si8 0.007609 0.062862 0.646831
O O1 0.695607 0.112757 0.267105
O O2 0.496989 0.098154 0.149266
O O3 0.492416 0.163367 0.972101
O O4 0.500000 0.000000 0.000000
O O5 0.226162 0.611882 0.818150
O O6 0.201578 0.765452 0.739951
O O7 0.101216 0.707708 0.799204
O O8 0.433626 0.684550 0.093969
O O9 0.357414 0.565890 0.117523
O O10 0.439546 0.524714 0.041794
O O11 0.745842 0.087233 0.156678
O O12 0.938101 0.128439 0.500477
O O13 0.626627 0.990123 0.389654
O O14 0.657602 0.555495 0.787284
O O15 0.000000 0.090075 0.750000
#
# Coordination Sequence:
#
# PCOD8144640 Si02
#       8
#     8   8   8   8   4   4   8   8
#     4  12  26  49  72 104 144 192 250 300 356 445
#     4  12  27  41  68 107 149 190 232 304 370 435
#     4  11  21  40  65 102 141 182 229 292 366 434
#     4  12  24  44  69 107 141 186 241 295 370 429
#     4  12  22  41  64 107 148 176 232 302 381 428
#     4  12  26  47  72 107 136 190 250 296 365 430
#     4  11  22  39  71 103 136 179 235 301 355 427
#     4  10  21  43  70  99 135 187 239 292 348 432
#
# _framework density 23.521777
#
# number of rings (size 3 to 8) (size 9 to 14) (size 15 to 20)
#    0.000    0.571    5.000    5.143    2.000    0.571 
#    3.857    0.714    0.000    0.000    0.000    0.000 
#    0.000    0.000    0.000    0.000    0.000    0.000 
#
# Total GULP energy -347004.618883 kJ/mol
# GULP energy per Si atom -12393.022103 kJ/mol
# Density = 2.346824 g / cm^3
# Si number density = 23.521777 Si / 1000 Ang^3
#
#
#
# Elastic Constant Matrix: (Units=GPa)
#
#
# Indices 1 2 3 4 5 6 
#
# 1 85.1993 31.2319 6.0996 0.0000 1.2749 0.0000
# 2 31.2319 55.5427 20.4738 0.0000 -4.9472 0.0000
# 3 6.0996 20.4738 113.7835 0.0000 9.4193 0.0000
# 4 0.0000 0.0000 0.0000 32.4794 0.0000 -0.8581
# 5 1.2749 -4.9472 9.4193 0.0000 37.9467 0.0000
# 6 0.0000 0.0000 0.0000 -0.8581 0.0000 21.9336
#
#
#
# Elastic Compliance Matrix: (Units=1/GPa)
#
#
# Indices 1 2 3 4 5 6 
#
# 1 0.014976 -0.008947 0.000965 0.000000 -0.001909 0.000000
# 2 -0.008947 0.025080 -0.004420 0.000000 0.004667 0.000000
# 3 0.000965 -0.004420 0.009784 0.000000 -0.003037 0.000000
# 4 0.000000 0.000000 0.000000 0.030821 0.000000 0.001206
# 5 -0.001909 0.004667 -0.003037 0.000000 0.027779 0.000000
# 6 0.000000 0.000000 0.000000 0.001206 0.000000 0.045639
#
#
# Mechanical properties :
#
#
# Convention : Reuss Voigt Hill
#
# Bulk Modulus (GPa) = 39.94112 41.12626 40.53369
# Shear Modulus (GPa) = 26.70539 31.58662 29.14601
#
# Velocity S-wave (km/s) = 3.37315 3.66849 3.52391
# Velocity P-wave (km/s) = 5.67346 5.95534 5.81611
#
# Compressibility (1/GPa) = 0.02503685
#
# Stress axis : x y z
#
# Youngs Moduli (GPa) = 66.77149 39.87235 102.21244
#
# Poissons Ratio (x) = 0.35674 -0.09865
# Poissons Ratio (y) = 0.59741 0.45173
# Poissons Ratio (z) = -0.06444 0.17622
#
# Static dielectric constant tensor:
#      x y z
#    x 4.268070 0.000000 0.276060 
#    y 0.000000 3.900190 0.000000 
#    z 0.276060 0.000000 4.408420 
# 
# 
# High freq. dielectric constant tensor:
#      x y z
#    x 1.929390 0.000000 0.010450 
#    y 0.000000 1.896010 0.000000 
#    z 0.010450 0.000000 1.950900 
# 
# From -- ./inp_files/169206.got.cif
#   From: 2010.06.25/outbox.cif.g09.slc.cpg/sg15_85_cif.got.tgz:169206.got - 2010.06.28 07:06:18.
