data_PCOD8144276
_publ_section_title
;
Structure prediction by ZEFSAII (Michael W. Deem and Ramdas Pophale) SiO2 
 PCOD8144276
Probable space group: C 2/C
;
_chemical_formula_sum "Si O2"
_cell_formula_units_Z 56
_cell_length_a 26.337712
_cell_length_b 11.658941
_cell_length_c 14.607976
_cell_angle_alpha 90.000000
_cell_angle_beta 34.560901
_cell_angle_gamma 90.000000
_cell_volume 2544.638667
_symmetry_space_group_name_H-M "C 2/C"
_symmetry_group_IT_number 15
_symmetry_cell_setting 'monoclinic'
loop_
_space_group_symop_operation_xyz
x,y,z
-x,y,1/2-z
-x,-y,-z
x,-y,1/2+z
1/2+x,1/2+y,z
1/2-x,1/2+y,1/2-z
1/2-x,1/2-y,-z
1/2+x,1/2-y,1/2+z
loop_
_atom_site_type_symbol
_atom_site_label
_atom_site_fract_x
_atom_site_fract_y
_atom_site_fract_z
Si Si1 0.280974 0.101674 0.060711
Si Si2 0.620430 0.927738 0.269936
Si Si3 0.819249 0.780741 0.151929
Si Si4 0.557730 0.834010 0.900499
Si Si5 0.973146 0.796843 0.386855
Si Si6 0.901729 0.992927 0.598612
Si Si7 0.652227 0.903333 0.425357
O O1 0.293019 0.227477 0.090831
O O2 0.180922 0.044686 0.211865
O O3 0.349663 0.015596 0.009175
O O4 0.312216 0.114835 0.909103
O O5 0.537369 0.839954 0.404536
O O6 0.672650 0.935723 0.289013
O O7 0.578387 0.052403 0.310487
O O8 0.865027 0.678965 0.139892
O O9 0.730437 0.816042 0.338726
O O10 0.883584 0.894044 0.062822
O O11 0.555827 0.721805 0.835803
O O12 0.901024 0.885822 0.530665
O O13 0.939340 0.665672 0.427353
O O14 0.000000 0.847519 0.250000
O O15 0.000000 0.000000 0.500000
#
# Coordination Sequence:
#
# PCOD8144276 Si02
#       7
#     8   8   8   8   8   8   8
#     4  11  23  44  70  96 130 172 228 274 343 395
#     4  10  22  41  68  99 126 175 214 283 336 394
#     4  11  22  42  66  90 134 175 209 280 330 395
#     4  10  21  42  66  97 134 160 224 278 331 395
#     4  11  22  43  67  93 130 176 221 273 335 396
#     4  11  24  47  63  94 138 178 223 277 330 409
#     4  10  22  42  65  94 130 165 225 278 326 398
#
# _framework density 22.007054
#
# number of rings (size 3 to 8) (size 9 to 14) (size 15 to 20)
#    0.000    1.429    4.286    0.857    0.000    1.143 
#   10.286    2.143    0.000    0.000    0.000    0.000 
#    0.000    0.000    0.000    0.000    0.000    0.000 
#
# Total GULP energy -346872.705012 kJ/mol
# GULP energy per Si atom -12388.310893 kJ/mol
# Density = 2.195697 g / cm^3
# Si number density = 22.007054 Si / 1000 Ang^3
#
#
#
# Elastic Constant Matrix: (Units=GPa)
#
#
# Indices 1 2 3 4 5 6 
#
# 1 75.2024 10.8869 30.3950 0.0000 -5.4291 0.0000
# 2 10.8869 80.2351 16.5973 0.0000 -1.4505 0.0000
# 3 30.3950 16.5973 101.8658 0.0000 11.3942 0.0000
# 4 0.0000 0.0000 0.0000 22.9405 0.0000 -7.6513
# 5 -5.4291 -1.4505 11.3942 0.0000 34.4663 0.0000
# 6 0.0000 0.0000 0.0000 -7.6513 0.0000 27.8203
#
#
#
# Elastic Compliance Matrix: (Units=1/GPa)
#
#
# Indices 1 2 3 4 5 6 
#
# 1 0.015760 -0.001032 -0.004992 0.000000 0.004089 0.000000
# 2 -0.001032 0.013021 -0.001928 0.000000 0.001023 0.000000
# 3 -0.004992 -0.001928 0.012167 0.000000 -0.004890 0.000000
# 4 0.000000 0.000000 0.000000 0.047993 0.000000 0.013199
# 5 0.004089 0.001023 -0.004890 0.000000 0.031318 0.000000
# 6 0.000000 0.000000 0.000000 0.013199 0.000000 0.039575
#
#
# Mechanical properties :
#
#
# Convention : Reuss Voigt Hill
#
# Bulk Modulus (GPa) = 39.92891 41.45130 40.69010
# Shear Modulus (GPa) = 27.16138 30.34036 28.75087
#
# Velocity S-wave (km/s) = 3.51695 3.71707 3.61839
# Velocity P-wave (km/s) = 5.88855 6.10725 5.99889
#
# Compressibility (1/GPa) = 0.02504451
#
# Stress axis : x y z
#
# Youngs Moduli (GPa) = 63.45354 76.80076 82.18717
#
# Poissons Ratio (x) = 0.07925 0.41025
# Poissons Ratio (y) = 0.06548 0.15846
# Poissons Ratio (z) = 0.31674 0.14807
#
# Static dielectric constant tensor:
#      x y z
#    x 4.061520 0.000000 -0.138590 
#    y 0.000000 4.107430 0.000000 
#    z -0.138590 0.000000 3.617050 
# 
# 
# High freq. dielectric constant tensor:
#      x y z
#    x 1.867670 0.000000 -0.015100 
#    y 0.000000 1.879830 0.000000 
#    z -0.015100 0.000000 1.832820 
# 
# From -- ./inp_files/177563.got.cif
#   From: 2010.06.25/outbox.cif.g09.slc.cpg/sg15_89_cif.got.tgz:177563.got - 2010.06.28 07:06:18.
