data_PCOD8144767
_publ_section_title
;
Structure prediction by ZEFSAII (Michael W. Deem and Ramdas Pophale) SiO2 
 PCOD8144767
Probable space group: C 2/C
;
_chemical_formula_sum "Si O2"
_cell_formula_units_Z 48
_cell_length_a 9.914226
_cell_length_b 15.466503
_cell_length_c 18.582631
_cell_angle_alpha 90.000000
_cell_angle_beta 42.808001
_cell_angle_gamma 90.000000
_cell_volume 1936.313065
_symmetry_space_group_name_H-M "C 2/C"
_symmetry_group_IT_number 15
_symmetry_cell_setting 'monoclinic'
loop_
_space_group_symop_operation_xyz
x,y,z
-x,y,1/2-z
-x,-y,-z
x,-y,1/2+z
1/2+x,1/2+y,z
1/2-x,1/2+y,1/2-z
1/2-x,1/2-y,-z
1/2+x,1/2-y,1/2+z
loop_
_atom_site_type_symbol
_atom_site_label
_atom_site_fract_x
_atom_site_fract_y
_atom_site_fract_z
Si Si1 0.718263 0.857176 0.170594
Si Si2 0.229675 0.378987 0.572576
Si Si3 0.818792 0.462708 0.744266
Si Si4 0.327283 0.067710 0.077143
Si Si5 0.465988 0.226568 0.474481
Si Si6 0.580592 0.552318 0.036964
O O1 0.500000 0.814083 0.250000
O O2 0.878317 0.785377 0.133857
O O3 0.695501 0.934592 0.237742
O O4 0.781669 0.886826 0.064794
O O5 0.324719 0.293406 0.574289
O O6 0.164824 0.339719 0.521282
O O7 0.410447 0.450454 0.492561
O O8 0.037321 0.427148 0.680690
O O9 0.756497 0.437832 0.687795
O O10 0.656147 0.419136 0.863267
O O11 0.404929 0.163905 0.025294
O O12 0.151267 0.047644 0.091557
O O13 0.500000 0.000000 0.000000
#
# Coordination Sequence:
#
# PCOD8144767 Si02
#       6
#     8   8   8   8   8   8
#     4  12  24  42  72 101 139 179 231 283 344 413
#     4  10  21  44  70  95 137 180 230 282 332 408
#     4  11  23  41  72 100 134 186 231 275 348 407
#     4  11  22  46  71  97 141 184 225 281 347 414
#     4  10  23  41  71 101 140 176 232 291 335 400
#     4  12  23  42  75  99 137 184 229 278 354 412
#
# _framework density 24.789380999999999
#
# number of rings (size 3 to 8) (size 9 to 14) (size 15 to 20)
#    0.000    1.000    6.667    1.000    0.000    3.333 
#    0.000    3.333    3.667    0.000    0.000    0.000 
#    0.000    0.000    0.000    0.000    0.000    0.000 
#
# Total GULP energy -297382.247863 kJ/mol
# GULP energy per Si atom -12390.926994 kJ/mol
# Density = 2.473296 g / cm^3
# Si number density = 24.789381 Si / 1000 Ang^3
#
#
#
# Elastic Constant Matrix: (Units=GPa)
#
#
# Indices 1 2 3 4 5 6 
#
# 1 105.5643 33.7269 67.1510 -0.0030 -16.5532 0.0014
# 2 33.7269 146.8658 50.2034 -0.0046 -11.5257 0.0028
# 3 67.1510 50.2034 149.1511 -0.0061 -19.1204 0.0040
# 4 -0.0030 -0.0046 -0.0061 44.2835 0.0035 -14.2566
# 5 -16.5532 -11.5257 -19.1204 0.0035 49.0849 -0.0018
# 6 0.0014 0.0028 0.0040 -14.2566 -0.0018 46.8179
#
#
#
# Elastic Compliance Matrix: (Units=1/GPa)
#
#
# Indices 1 2 3 4 5 6 
#
# 1 0.013668 -0.001083 -0.005506 0.000000 0.002210 0.000000
# 2 -0.001083 0.007813 -0.002056 0.000000 0.000668 0.000000
# 3 -0.005506 -0.002056 0.010079 0.000001 0.001587 0.000000
# 4 0.000000 0.000000 0.000001 0.025036 -0.000001 0.007624
# 5 0.002210 0.000668 0.001587 -0.000001 0.021893 0.000000
# 6 0.000000 0.000000 0.000000 0.007624 0.000000 0.023681
#
#
# Mechanical properties :
#
#
# Convention : Reuss Voigt Hill
#
# Bulk Modulus (GPa) = 70.08118 78.19376 74.13747
# Shear Modulus (GPa) = 40.25215 44.73724 42.49469
#
# Velocity S-wave (km/s) = 4.03397 4.25278 4.14482
# Velocity P-wave (km/s) = 7.07313 7.46502 7.27172
#
# Compressibility (1/GPa) = 0.01426917
#
# Stress axis : x y z
#
# Youngs Moduli (GPa) = 73.16494 127.98988 99.21711
#
# Poissons Ratio (x) = 0.13865 0.54624
# Poissons Ratio (y) = 0.07926 0.20404
# Poissons Ratio (z) = 0.40281 0.26321
#
# Static dielectric constant tensor:
#      x y z
#    x 5.530040 0.000000 -0.109460 
#    y 0.000000 5.058110 0.000010 
#    z -0.109460 0.000010 4.686280 
# 
# 
# High freq. dielectric constant tensor:
#      x y z
#    x 2.018380 0.000000 -0.022140 
#    y 0.000000 1.986510 0.000000 
#    z -0.022140 0.000000 1.979650 
# 
# From -- ./inp_files/238956.got.cif
#   From: 2010.06.25/outbox.cif.g09.slc.cpg/sg15_120_cif.got.tgz:238956.got - 2010.06.28 07:06:18.
