data_PCOD8144971
_publ_section_title
;
Structure prediction by ZEFSAII (Michael W. Deem and Ramdas Pophale) SiO2 
 PCOD8144971
Probable space group: C 2/C
;
_chemical_formula_sum "Si O2"
_cell_formula_units_Z 56
_cell_length_a 22.718157
_cell_length_b 20.022471
_cell_length_c 8.136955
_cell_angle_alpha 90.000000
_cell_angle_beta 47.684359
_cell_angle_gamma 90.000000
_cell_volume 2736.906350
_symmetry_space_group_name_H-M "C 2/C"
_symmetry_group_IT_number 15
_symmetry_cell_setting 'monoclinic'
loop_
_space_group_symop_operation_xyz
x,y,z
-x,y,1/2-z
-x,-y,-z
x,-y,1/2+z
1/2+x,1/2+y,z
1/2-x,1/2+y,1/2-z
1/2-x,1/2-y,-z
1/2+x,1/2-y,1/2+z
loop_
_atom_site_type_symbol
_atom_site_label
_atom_site_fract_x
_atom_site_fract_y
_atom_site_fract_z
Si Si1 0.000000 0.286658 0.250000
Si Si2 0.801318 0.767013 0.667347
Si Si3 0.860909 0.570207 0.306242
Si Si4 0.140483 0.725086 0.284027
Si Si5 0.740238 0.020598 0.724149
Si Si6 0.000000 0.587705 0.250000
Si Si7 0.382505 0.845524 0.215061
Si Si8 0.273512 0.595704 0.373530
O O1 0.941467 0.245792 0.482131
O O2 0.942678 0.331180 0.247466
O O3 0.852921 0.761741 0.403610
O O4 0.710200 0.756847 0.781790
O O5 0.826334 0.715144 0.760131
O O6 0.815788 0.837838 0.730436
O O7 0.863029 0.644678 0.226753
O O8 0.794962 0.571448 0.575317
O O9 0.835615 0.513882 0.224687
O O10 0.948850 0.547727 0.209060
O O11 0.801651 0.063581 0.494909
O O12 0.790565 0.959985 0.704510
O O13 0.932043 0.632338 0.463399
O O14 0.321670 0.898385 0.409159
#
# Coordination Sequence:
#
# PCOD8144971 Si02
#       8
#     4   8   8   8   8   4   8   8
#     4  12  22  36  57  86 118 153 192 240 300 352
#     4  11  22  38  60  87 111 162 196 247 303 357
#     4  11  20  38  49  80 114 168 196 242 273 329
#     4  11  22  37  60  83 120 154 193 250 305 345
#     4  10  22  36  54  76 119 160 205 241 266 341
#     4  12  22  36  55  78 124 165 200 240 286 338
#     4  12  22  37  58  84 119 161 198 247 296 344
#     4  11  21  38  55  82 112 156 195 245 282 340
#
# _framework density 20.461058000000001
#
# number of rings (size 3 to 8) (size 9 to 14) (size 15 to 20)
#    0.000    0.857    7.143    0.429    0.000    0.571 
#    0.000    0.000    0.000    0.000    0.000    0.000 
#    0.000   19.429    0.000    0.000    0.000    0.000 
#
# Total GULP energy -346866.167877 kJ/mol
# GULP energy per Si atom -12388.077424 kJ/mol
# Density = 2.041449 g / cm^3
# Si number density = 20.461058 Si / 1000 Ang^3
#
#
#
# Elastic Constant Matrix: (Units=GPa)
#
#
# Indices 1 2 3 4 5 6 
#
# 1 61.3976 11.0317 9.9831 0.0000 18.8854 0.0000
# 2 11.0317 69.1252 40.9187 0.0000 7.3587 0.0000
# 3 9.9831 40.9187 115.3445 0.0000 8.3453 0.0000
# 4 0.0000 0.0000 0.0000 26.7280 0.0000 7.3707
# 5 18.8854 7.3587 8.3453 0.0000 25.1926 0.0000
# 6 0.0000 0.0000 0.0000 7.3707 0.0000 26.1347
#
#
#
# Elastic Compliance Matrix: (Units=1/GPa)
#
#
# Indices 1 2 3 4 5 6 
#
# 1 0.021375 -0.001684 -0.000132 0.000000 -0.015488 0.000000
# 2 -0.001684 0.018712 -0.006340 0.000000 -0.002103 0.000000
# 3 -0.000132 -0.006340 0.011054 0.000000 -0.001711 0.000000
# 4 0.000000 0.000000 0.000000 0.040569 0.000000 -0.011442
# 5 -0.015488 -0.002103 -0.001711 0.000000 0.052486 0.000000
# 6 0.000000 0.000000 0.000000 -0.011442 0.000000 0.041490
#
#
# Mechanical properties :
#
#
# Convention : Reuss Voigt Hill
#
# Bulk Modulus (GPa) = 28.71202 41.08159 34.89680
# Shear Modulus (GPa) = 23.40715 27.87331 25.64023
#
# Velocity S-wave (km/s) = 3.38595 3.69489 3.54379
# Velocity P-wave (km/s) = 5.41749 6.19067 5.81694
#
# Compressibility (1/GPa) = 0.03482862
#
# Stress axis : x y z
#
# Youngs Moduli (GPa) = 46.78264 53.44066 90.46398
#
# Poissons Ratio (x) = 0.09002 0.01193
# Poissons Ratio (y) = 0.07880 0.57357
# Poissons Ratio (z) = 0.00617 0.33883
#
# Static dielectric constant tensor:
#      x y z
#    x 3.756580 0.000000 0.443330 
#    y 0.000000 3.588860 0.000000 
#    z 0.443330 0.000000 4.138470 
# 
# 
# High freq. dielectric constant tensor:
#      x y z
#    x 1.783290 0.000000 0.046050 
#    y 0.000000 1.777990 0.000000 
#    z 0.046050 0.000000 1.804320 
# 
# From -- ./inp_files/49764.got.cif
#   From: 2010.06.25/outbox.cif.g09.slc.cpg/sg15_25_cif.got.tgz:49764.got - 2010.06.28 07:06:18.
