data_PCOD8144853
_publ_section_title
;
Structure prediction by ZEFSAII (Michael W. Deem and Ramdas Pophale) SiO2 
 PCOD8144853
Probable space group: C 2/C
;
_chemical_formula_sum "Si O2"
_cell_formula_units_Z 40
_cell_length_a 16.929295
_cell_length_b 7.992680
_cell_length_c 13.051615
_cell_angle_alpha 90.000000
_cell_angle_beta 120.577203
_cell_angle_gamma 90.000000
_cell_volume 1520.444975
_symmetry_space_group_name_H-M "C 2/C"
_symmetry_group_IT_number 15
_symmetry_cell_setting 'monoclinic'
loop_
_space_group_symop_operation_xyz
x,y,z
-x,y,1/2-z
-x,-y,-z
x,-y,1/2+z
1/2+x,1/2+y,z
1/2-x,1/2+y,1/2-z
1/2-x,1/2-y,-z
1/2+x,1/2-y,1/2+z
loop_
_atom_site_type_symbol
_atom_site_label
_atom_site_fract_x
_atom_site_fract_y
_atom_site_fract_z
Si Si1 0.218517 0.463035 0.026751
Si Si2 0.247953 0.178084 0.643073
Si Si3 0.057491 0.789870 0.693198
Si Si4 0.025606 0.666129 0.460808
Si Si5 0.623358 0.357400 0.244829
O O1 0.214006 0.636533 0.088813
O O2 0.297858 0.330056 0.116163
O O3 0.248353 0.529852 0.936463
O O4 0.123216 0.360678 0.969328
O O5 0.348804 0.187264 0.757913
O O6 0.177251 0.104882 0.676544
O O7 0.016942 0.797097 0.550705
O O8 0.000000 0.704442 0.750000
O O9 0.070323 0.976589 0.742411
O O10 0.000000 0.500000 0.500000
O O11 0.952611 0.712662 0.322861
#
# Coordination Sequence:
#
# PCOD8144853 Si02
#       5
#     8   8   8   8   8
#     4  10  22  43  74 108 148 190 247 302 372 454
#     4  10  21  45  77 102 144 200 240 301 381 433
#     4  11  25  45  70 102 146 199 241 301 378 442
#     4  12  23  43  73 105 149 191 246 308 369 445
#     4  11  24  43  73 109 144 193 247 305 369 443
#
# _framework density 26.308088000000001
#
# number of rings (size 3 to 8) (size 9 to 14) (size 15 to 20)
#    0.000    1.200    4.000    1.800    5.600    0.000 
#    0.000    8.000    0.000    0.000    0.000    0.000 
#    0.000    0.000    0.000    0.000    0.000    0.000 
#
# Total GULP energy -247781.804559 kJ/mol
# GULP energy per Si atom -12389.090228 kJ/mol
# Density = 2.624821 g / cm^3
# Si number density = 26.308088 Si / 1000 Ang^3
#
#
#
# Elastic Constant Matrix: (Units=GPa)
#
#
# Indices 1 2 3 4 5 6 
#
# 1 159.9569 39.7802 58.2563 0.0000 13.4808 0.0000
# 2 39.7802 63.5093 37.5956 0.0000 26.8650 0.0000
# 3 58.2563 37.5956 115.8597 0.0000 35.5127 0.0000
# 4 0.0000 0.0000 0.0000 -73.5063 0.0000 173.5219
# 5 13.4808 26.8650 35.5127 0.0000 49.8573 0.0000
# 6 0.0000 0.0000 0.0000 173.5219 0.0000 -219.6399
#
#
#
# Elastic Compliance Matrix: (Units=1/GPa)
#
#
# Indices 1 2 3 4 5 6 
#
# 1 0.008411 -0.004199 -0.003663 0.000000 0.002597 0.000000
# 2 -0.004199 0.024185 -0.002674 0.000000 -0.009992 0.000000
# 3 -0.003663 -0.002674 0.013555 0.000000 -0.007224 0.000000
# 4 0.000000 0.000000 0.000000 0.015728 0.000000 0.012426
# 5 0.002597 -0.009992 -0.007224 0.000000 0.029884 0.000000
# 6 0.000000 0.000000 0.000000 0.012426 0.000000 0.005264
#
#
# Mechanical properties :
#
#
# Convention : Reuss Voigt Hill
#
# Bulk Modulus (GPa) = 39.87275 67.84334 53.85805
# Shear Modulus (GPa) = 39.53878 -35.07821 2.23028
#
# Velocity S-wave (km/s) = 3.88095 -3.65548 0.92174
# Velocity P-wave (km/s) = 5.93897 2.83324 4.65288
#
# Compressibility (1/GPa) = 0.02507978
#
# Stress axis : x y z
#
# Youngs Moduli (GPa) = 118.89211 41.34734 73.77520
#
# Poissons Ratio (x) = 0.17361 0.27022
# Poissons Ratio (y) = 0.49920 0.19728
# Poissons Ratio (z) = 0.43548 0.11057
#
# Static dielectric constant tensor:
#      x y z
#    x 8.927430 0.000000 1.375530 
#    y 0.000000 4.418830 0.000000 
#    z 1.375530 0.000000 4.724700 
# 
# 
# High freq. dielectric constant tensor:
#      x y z
#    x 2.073070 0.000000 -0.000660 
#    y 0.000000 2.044640 0.000000 
#    z -0.000660 0.000000 2.057030 
# 
# From -- ./inp_files/159505.got.cif
#   From: 2010.06.25/outbox.cif.g09.slc.cpg/sg15_80_cif.got.tgz:159505.got - 2010.06.28 07:06:18.
