data_PCOD8144808
_publ_section_title
;
Structure prediction by ZEFSAII (Michael W. Deem and Ramdas Pophale) SiO2 
 PCOD8144808
Probable space group: C 2/C
;
_chemical_formula_sum "Si O2"
_cell_formula_units_Z 44
_cell_length_a 11.517421
_cell_length_b 27.462927
_cell_length_c 8.233825
_cell_angle_alpha 90.000000
_cell_angle_beta 58.763895
_cell_angle_gamma 90.000000
_cell_volume 2226.839611
_symmetry_space_group_name_H-M "C 2/C"
_symmetry_group_IT_number 15
_symmetry_cell_setting 'monoclinic'
loop_
_space_group_symop_operation_xyz
x,y,z
-x,y,1/2-z
-x,-y,-z
x,-y,1/2+z
1/2+x,1/2+y,z
1/2-x,1/2+y,1/2-z
1/2-x,1/2-y,-z
1/2+x,1/2-y,1/2+z
loop_
_atom_site_type_symbol
_atom_site_label
_atom_site_fract_x
_atom_site_fract_y
_atom_site_fract_z
Si Si1 0.000000 0.353077 0.250000
Si Si2 0.000000 0.987500 0.250000
Si Si3 0.500000 0.361828 0.750000
Si Si4 0.353371 0.764589 0.787121
Si Si5 0.897021 0.627743 0.171662
Si Si6 0.274606 0.299248 0.068942
Si Si7 0.366241 0.564856 0.131037
O O1 0.964505 0.381944 0.443404
O O2 0.870642 0.322228 0.285876
O O3 0.909718 0.951943 0.422999
O O4 0.886788 0.019305 0.237900
O O5 0.633946 0.332241 0.611461
O O6 0.530957 0.393276 0.886577
O O7 0.500000 0.770225 0.750000
O O8 0.326124 0.818003 0.723539
O O9 0.353523 0.717152 0.672727
O O10 0.250000 0.750000 0.000000
O O11 0.786674 0.584842 0.266465
O O12 0.000000 0.622203 0.250000
O O13 0.250000 0.250000 0.000000
#
# Coordination Sequence:
#
# PCOD8144808 Si02
#       7
#     4   4   4   8   8   8   8
#     4  12  23  42  63  92 132 182 224 275 328 371
#     4   9  22  42  79  94 128 152 202 299 338 407
#     4  11  23  38  66  94 124 178 222 266 322 398
#     4  11  25  39  57  88 133 177 232 277 315 369
#     4  11  24  43  64  93 138 181 217 269 331 399
#     4  12  23  37  62  87 128 179 229 272 314 368
#     4  10  21  45  67 102 125 160 218 270 347 404
#
# _framework density 19.758942999999999
#
# number of rings (size 3 to 8) (size 9 to 14) (size 15 to 20)
#    0.000    1.091    3.636    2.727    5.091    2.909 
#    3.273    0.909    0.000    0.000    0.000    0.000 
#    0.000    0.000    0.000    0.000    0.000    0.000 
#
# Total GULP energy -272583.286756 kJ/mol
# GULP energy per Si atom -12390.149398 kJ/mol
# Density = 1.971397 g / cm^3
# Si number density = 19.758943 Si / 1000 Ang^3
#
#
#
# Elastic Constant Matrix: (Units=GPa)
#
#
# Indices 1 2 3 4 5 6 
#
# 1 99.0405 51.9382 56.2557 0.0000 -3.9302 0.0000
# 2 51.9382 103.0673 73.8578 0.0000 -8.3385 0.0000
# 3 56.2557 73.8578 161.4753 0.0000 1.9481 0.0000
# 4 0.0000 0.0000 0.0000 30.2436 0.0000 -12.8473
# 5 -3.9302 -8.3385 1.9481 0.0000 41.3505 0.0000
# 6 0.0000 0.0000 0.0000 -12.8473 0.0000 26.0225
#
#
#
# Elastic Compliance Matrix: (Units=1/GPa)
#
#
# Indices 1 2 3 4 5 6 
#
# 1 0.014389 -0.005389 -0.002553 0.000000 0.000401 0.000000
# 2 -0.005389 0.016894 -0.005888 0.000000 0.003172 0.000000
# 3 -0.002553 -0.005888 0.009798 0.000000 -0.001892 0.000000
# 4 0.000000 0.000000 0.000000 0.041839 0.000000 0.020656
# 5 0.000401 0.003172 -0.001892 0.000000 0.024950 0.000000
# 6 0.000000 0.000000 0.000000 0.020656 0.000000 0.048626
#
#
# Mechanical properties :
#
#
# Convention : Reuss Voigt Hill
#
# Bulk Modulus (GPa) = 74.50828 80.85406 77.68117
# Shear Modulus (GPa) = 26.50682 31.62543 29.06613
#
# Velocity S-wave (km/s) = 3.66664 4.00504 3.83957
# Velocity P-wave (km/s) = 7.46432 7.89913 7.68480
#
# Compressibility (1/GPa) = 0.01342133
#
# Stress axis : x y z
#
# Youngs Moduli (GPa) = 69.49774 59.19225 102.05955
#
# Poissons Ratio (x) = 0.31900 0.26053
# Poissons Ratio (y) = 0.37454 0.60093
# Poissons Ratio (z) = 0.17741 0.34852
#
# Static dielectric constant tensor:
#      x y z
#    x 3.687840 0.000000 0.087450 
#    y 0.000000 3.411110 0.000000 
#    z 0.087450 0.000000 3.625950 
# 
# 
# High freq. dielectric constant tensor:
#      x y z
#    x 1.787220 0.000000 0.011150 
#    y 0.000000 1.756440 0.000000 
#    z 0.011150 0.000000 1.777220 
# 
# From -- ./inp_files/32771.got.cif
#   From: 2010.06.25/outbox.cif.g09.slc.cpg/sg15_17_cif.got.tgz:32771.got - 2010.06.28 07:06:18.
