data_PCOD8144306
_publ_section_title
;
Structure prediction by ZEFSAII (Michael W. Deem and Ramdas Pophale) SiO2 
 PCOD8144306
Probable space group: C 2/C
;
_chemical_formula_sum "Si O2"
_cell_formula_units_Z 40
_cell_length_a 7.756250
_cell_length_b 12.564040
_cell_length_c 17.907385
_cell_angle_alpha 90.000000
_cell_angle_beta 71.229960
_cell_angle_gamma 90.000000
_cell_volume 1652.264692
_symmetry_space_group_name_H-M "C 2/C"
_symmetry_group_IT_number 15
_symmetry_cell_setting 'monoclinic'
loop_
_space_group_symop_operation_xyz
x,y,z
-x,y,1/2-z
-x,-y,-z
x,-y,1/2+z
1/2+x,1/2+y,z
1/2-x,1/2+y,1/2-z
1/2-x,1/2-y,-z
1/2+x,1/2-y,1/2+z
loop_
_atom_site_type_symbol
_atom_site_label
_atom_site_fract_x
_atom_site_fract_y
_atom_site_fract_z
Si Si1 0.014487 0.095253 0.161854
Si Si2 0.474194 0.813620 0.405472
Si Si3 0.124804 0.523911 0.159354
Si Si4 0.114113 0.871746 0.158992
Si Si5 0.443199 0.791984 0.944319
O O1 0.099225 0.199016 0.111294
O O2 0.822817 0.061483 0.154378
O O3 0.000000 0.124030 0.250000
O O4 0.147178 0.994081 0.129010
O O5 0.689645 0.818653 0.356034
O O6 0.434593 0.816650 0.499979
O O7 0.367737 0.906248 0.377232
O O8 0.052480 0.601957 0.105481
O O9 0.000000 0.526582 0.250000
O O10 0.990319 0.805876 0.117049
O O11 0.000000 0.873098 0.250000
O O12 0.250000 0.750000 0.000000
#
# Coordination Sequence:
#
# PCOD8144306 Si02
#       5
#     8   8   8   8   8
#     4  11  24  41  65  96 130 168 220 269 320 373
#     4  11  24  45  66  97 134 168 215 270 325 385
#     4  12  23  43  71  95 129 172 219 265 321 387
#     4  10  21  42  67  95 135 171 215 267 321 380
#     4  10  21  42  69  93 133 175 205 268 331 380
#
# _framework density 24.209195000000001
#
# number of rings (size 3 to 8) (size 9 to 14) (size 15 to 20)
#    0.000    1.200    4.000    4.200    0.000    0.800 
#    3.600    1.000    0.000    0.000    0.000    0.000 
#    0.000    0.000    0.000    0.000    0.000    0.000 
#
# Total GULP energy -247932.825324 kJ/mol
# GULP energy per Si atom -12396.641266 kJ/mol
# Density = 2.415409 g / cm^3
# Si number density = 24.209195 Si / 1000 Ang^3
#
#
#
# Elastic Constant Matrix: (Units=GPa)
#
#
# Indices 1 2 3 4 5 6 
#
# 1 20.2510 24.3504 21.1362 0.0000 17.6899 0.0000
# 2 24.3504 209.1494 90.5172 0.0000 14.1090 0.0000
# 3 21.1362 90.5172 130.1030 0.0000 35.5042 0.0000
# 4 0.0000 0.0000 0.0000 24.8328 0.0000 16.8480
# 5 17.6899 14.1090 35.5042 0.0000 28.8225 0.0000
# 6 0.0000 0.0000 0.0000 16.8480 0.0000 38.5931
#
#
#
# Elastic Compliance Matrix: (Units=1/GPa)
#
#
# Indices 1 2 3 4 5 6 
#
# 1 0.133193 -0.015421 0.014068 0.000000 -0.091528 0.000000
# 2 -0.015421 0.008913 -0.007664 0.000000 0.014543 0.000000
# 3 0.014068 -0.007664 0.018175 0.000000 -0.027271 0.000000
# 4 0.000000 0.000000 0.000000 0.057215 0.000000 -0.024978
# 5 -0.091528 0.014543 -0.027271 0.000000 0.117345 0.000000
# 6 0.000000 0.000000 0.000000 -0.024978 0.000000 0.036815
#
#
# Mechanical properties :
#
#
# Convention : Reuss Voigt Hill
#
# Bulk Modulus (GPa) = 7.03005 70.16788 38.59897
# Shear Modulus (GPa) = 11.43886 33.34967 22.39426
#
# Velocity S-wave (km/s) = 2.17607 3.71558 3.04473
# Velocity P-wave (km/s) = 3.03708 6.88871 5.32345
#
# Compressibility (1/GPa) = 0.14224650
#
# Stress axis : x y z
#
# Youngs Moduli (GPa) = 7.50790 112.20045 55.02051
#
# Poissons Ratio (x) = 1.73028 -0.77405
# Poissons Ratio (y) = 0.11578 0.42169
# Poissons Ratio (z) = -0.10562 0.85992
#
# Static dielectric constant tensor:
#      x y z
#    x 4.180360 0.000000 0.377700 
#    y 0.000000 5.754300 0.000000 
#    z 0.377700 0.000000 4.774200 
# 
# 
# High freq. dielectric constant tensor:
#      x y z
#    x 1.945710 0.000000 0.015490 
#    y 0.000000 1.983460 0.000000 
#    z 0.015490 0.000000 1.974460 
# 
# From -- ./inp_files/187790.got.cif
#   From: 2010.06.25/outbox.cif.g09.slc.cpg/sg15_94_cif.got.tgz:187790.got - 2010.06.28 07:06:18.
