data_PCOD8144867
_publ_section_title
;
Structure prediction by ZEFSAII (Michael W. Deem and Ramdas Pophale) SiO2 
 PCOD8144867
Probable space group: C 2/C
;
_chemical_formula_sum "Si O2"
_cell_formula_units_Z 48
_cell_length_a 28.162046
_cell_length_b 15.734500
_cell_length_c 9.577208
_cell_angle_alpha 90.000000
_cell_angle_beta 149.675563
_cell_angle_gamma 90.000000
_cell_volume 2142.682617
_symmetry_space_group_name_H-M "C 2/C"
_symmetry_group_IT_number 15
_symmetry_cell_setting 'monoclinic'
loop_
_space_group_symop_operation_xyz
x,y,z
-x,y,1/2-z
-x,-y,-z
x,-y,1/2+z
1/2+x,1/2+y,z
1/2-x,1/2+y,1/2-z
1/2-x,1/2-y,-z
1/2+x,1/2-y,1/2+z
loop_
_atom_site_type_symbol
_atom_site_label
_atom_site_fract_x
_atom_site_fract_y
_atom_site_fract_z
Si Si1 0.735592 0.132504 0.220985
Si Si2 0.171635 0.087198 0.313316
Si Si3 0.085449 0.249740 0.209256
Si Si4 0.824711 0.446421 0.413480
Si Si5 0.000000 0.642461 0.250000
Si Si6 0.819090 0.099597 0.712920
Si Si7 0.500000 0.696780 0.250000
O O1 0.819001 0.114767 0.323642
O O2 0.783442 0.155435 0.490775
O O3 0.670636 0.048867 0.073531
O O4 0.677974 0.212640 0.018308
O O5 0.099934 0.150852 0.206139
O O6 0.273224 0.090099 0.645874
O O7 0.137512 0.989498 0.234339
O O8 0.002302 0.252979 0.114264
O O9 0.060353 0.300194 0.007060
O O10 0.770305 0.414284 0.413055
O O11 0.931799 0.414181 0.674400
O O12 0.903703 0.143595 0.009525
#
# Coordination Sequence:
#
# PCOD8144867 Si02
#       7
#     8   8   8   8   4   8   4
#     4  10  23  43  72  97 132 182 221 277 338 393
#     4  10  21  46  69  94 133 182 225 272 335 400
#     4  12  27  42  65 103 141 175 222 281 337 390
#     4  10  22  47  68  98 132 181 229 270 330 407
#     4  12  28  42  70 100 136 182 226 272 334 404
#     4  10  24  45  72  95 132 181 225 275 335 398
#     4  12  28  44  64 106 138 172 228 282 330 398
#
# _framework density 22.401824000000001
#
# number of rings (size 3 to 8) (size 9 to 14) (size 15 to 20)
#    0.000    1.333    3.333    0.500    4.667    3.333 
#    0.000    0.000    0.000    0.000    0.000    0.000 
#    0.000    0.000    0.000    0.000    0.000    0.000 
#
# Total GULP energy -297577.058680 kJ/mol
# GULP energy per Si atom -12399.044112 kJ/mol
# Density = 2.235084 g / cm^3
# Si number density = 22.401824 Si / 1000 Ang^3
#
#
#
# Elastic Constant Matrix: (Units=GPa)
#
#
# Indices 1 2 3 4 5 6 
#
# 1 117.5888 29.2801 31.8892 0.0000 -16.6706 0.0000
# 2 29.2801 65.1434 16.7816 0.0000 -2.5436 0.0000
# 3 31.8892 16.7816 83.1167 0.0000 -17.0190 0.0000
# 4 0.0000 0.0000 0.0000 16.6433 0.0000 -2.1986
# 5 -16.6706 -2.5436 -17.0190 0.0000 34.7974 0.0000
# 6 0.0000 0.0000 0.0000 -2.1986 0.0000 31.0096
#
#
#
# Elastic Compliance Matrix: (Units=1/GPa)
#
#
# Indices 1 2 3 4 5 6 
#
# 1 0.010706 -0.004012 -0.002564 0.000000 0.003582 0.000000
# 2 -0.004012 0.017703 -0.002404 0.000000 -0.001804 0.000000
# 3 -0.002564 -0.002404 0.014684 0.000000 0.005777 0.000000
# 4 0.000000 0.000000 0.000000 0.060652 0.000000 0.004300
# 5 0.003582 -0.001804 0.005777 0.000000 0.033148 0.000000
# 6 0.000000 0.000000 0.000000 0.004300 0.000000 0.032553
#
#
# Mechanical properties :
#
#
# Convention : Reuss Voigt Hill
#
# Bulk Modulus (GPa) = 39.79030 46.86119 43.32574
# Shear Modulus (GPa) = 25.53837 29.01660 27.27749
#
# Velocity S-wave (km/s) = 3.38007 3.60290 3.49326
# Velocity P-wave (km/s) = 5.74751 6.18642 5.97100
#
# Compressibility (1/GPa) = 0.02513175
#
# Stress axis : x y z
#
# Youngs Moduli (GPa) = 93.40245 56.48795 68.10343
#
# Poissons Ratio (x) = 0.22662 0.17464
# Poissons Ratio (y) = 0.37471 0.16375
# Poissons Ratio (z) = 0.23951 0.13582
#
# Static dielectric constant tensor:
#      x y z
#    x 4.041730 0.000000 -0.361810 
#    y 0.000000 4.067700 0.000000 
#    z -0.361810 0.000000 3.845170 
# 
# 
# High freq. dielectric constant tensor:
#      x y z
#    x 1.893100 0.000000 -0.027340 
#    y 0.000000 1.879380 0.000000 
#    z -0.027340 0.000000 1.866580 
# 
# From -- ./inp_files/66532.got.cif
#   From: 2010.06.25/outbox.cif.g09.slc.cpg/sg15_34_cif.got.tgz:66532.got - 2010.06.28 07:06:18.
