data_PCOD8144648
_publ_section_title
;
Structure prediction by ZEFSAII (Michael W. Deem and Ramdas Pophale) SiO2 
 PCOD8144648
Probable space group: C 2/C
;
_chemical_formula_sum "Si O2"
_cell_formula_units_Z 32
_cell_length_a 8.082188
_cell_length_b 12.946126
_cell_length_c 14.309697
_cell_angle_alpha 90.000000
_cell_angle_beta 69.935272
_cell_angle_gamma 90.000000
_cell_volume 1406.391211
_symmetry_space_group_name_H-M "C 2/C"
_symmetry_group_IT_number 15
_symmetry_cell_setting 'monoclinic'
loop_
_space_group_symop_operation_xyz
x,y,z
-x,y,1/2-z
-x,-y,-z
x,-y,1/2+z
1/2+x,1/2+y,z
1/2-x,1/2+y,1/2-z
1/2-x,1/2-y,-z
1/2+x,1/2-y,1/2+z
loop_
_atom_site_type_symbol
_atom_site_label
_atom_site_fract_x
_atom_site_fract_y
_atom_site_fract_z
Si Si1 0.051825 0.811715 0.841659
Si Si2 0.165238 0.967676 0.528757
Si Si3 0.196843 0.134901 0.685421
Si Si4 0.684240 0.992523 0.685046
O O1 0.175541 0.729432 0.872671
O O2 0.000000 0.770052 0.750000
O O3 0.871606 0.849114 0.929714
O O4 0.160639 0.917515 0.812929
O O5 0.326126 0.975900 0.423466
O O6 0.196996 0.046778 0.606953
O O7 0.000000 0.000000 0.500000
O O8 0.286789 0.096838 0.762918
O O9 0.000000 0.173695 0.750000
O O10 0.500000 0.940635 0.750000
#
# Coordination Sequence:
#
# PCOD8144648 Si02
#       4
#     8   8   8   8
#     4  11  22  44  68 100 138 181 225 280 342 402
#     4  10  21  43  71  93 142 181 222 284 340 396
#     4  12  22  43  70 100 140 180 223 282 339 403
#     4  11  23  43  67 100 137 180 227 281 340 403
#
# _framework density 22.753270000000001
#
# number of rings (size 3 to 8) (size 9 to 14) (size 15 to 20)
#    0.000    1.000    7.500    1.500    0.000    5.000 
#    4.500    2.500    0.000    0.000    0.000    0.000 
#    0.000    0.000    0.000    0.000    0.000    0.000 
#
# Total GULP energy -198243.788127 kJ/mol
# GULP energy per Si atom -12390.236758 kJ/mol
# Density = 2.270148 g / cm^3
# Si number density = 22.753270 Si / 1000 Ang^3
#
#
#
# Elastic Constant Matrix: (Units=GPa)
#
#
# Indices 1 2 3 4 5 6 
#
# 1 66.2353 32.4558 44.8943 0.0000 -0.1838 0.0000
# 2 32.4558 106.2982 46.5731 0.0000 2.1141 0.0000
# 3 44.8943 46.5731 159.7279 0.0000 -3.1349 0.0000
# 4 0.0000 0.0000 0.0000 15.3054 0.0000 1.8710
# 5 -0.1838 2.1141 -3.1349 0.0000 34.5748 0.0000
# 6 0.0000 0.0000 0.0000 1.8710 0.0000 46.2874
#
#
#
# Elastic Compliance Matrix: (Units=1/GPa)
#
#
# Indices 1 2 3 4 5 6 
#
# 1 0.020173 -0.004212 -0.004442 0.000000 -0.000038 0.000000
# 2 -0.004212 0.011696 -0.002245 0.000000 -0.000941 0.000000
# 3 -0.004442 -0.002245 0.008181 0.000000 0.000855 0.000000
# 4 0.000000 0.000000 0.000000 0.065661 0.000000 -0.002654
# 5 -0.000038 -0.000941 0.000855 0.000000 0.029058 0.000000
# 6 0.000000 0.000000 0.000000 -0.002654 0.000000 0.021711
#
#
# Mechanical properties :
#
#
# Convention : Reuss Voigt Hill
#
# Bulk Modulus (GPa) = 54.79365 64.45641 59.62503
# Shear Modulus (GPa) = 27.12063 33.12272 30.12168
#
# Velocity S-wave (km/s) = 3.45620 3.81955 3.64241
# Velocity P-wave (km/s) = 6.32938 6.91678 6.62959
#
# Compressibility (1/GPa) = 0.01825029
#
# Stress axis : x y z
#
# Youngs Moduli (GPa) = 49.57209 85.50052 122.24037
#
# Poissons Ratio (x) = 0.36014 0.54305
# Poissons Ratio (y) = 0.20880 0.27441
# Poissons Ratio (z) = 0.22022 0.19193
#
# Static dielectric constant tensor:
#      x y z
#    x 4.131420 0.000000 -0.440770 
#    y 0.000000 3.918640 0.000000 
#    z -0.440770 0.000000 5.728640 
# 
# 
# High freq. dielectric constant tensor:
#      x y z
#    x 1.896370 0.000000 -0.001560 
#    y 0.000000 1.883920 0.000000 
#    z -0.001560 0.000000 1.899500 
# 
# From -- ./inp_files/75545.got.cif
#   From: 2010.06.25/outbox.cif.g09.slc.cpg/sg15_38_cif.got.tgz:75545.got - 2010.06.28 07:06:18.
