data_PCOD8144712
_publ_section_title
;
Structure prediction by ZEFSAII (Michael W. Deem and Ramdas Pophale) SiO2 
 PCOD8144712
Probable space group: C 2/C
;
_chemical_formula_sum "Si O2"
_cell_formula_units_Z 52
_cell_length_a 22.446937
_cell_length_b 8.137975
_cell_length_c 20.819613
_cell_angle_alpha 90.000000
_cell_angle_beta 140.852386
_cell_angle_gamma 90.000000
_cell_volume 2401.021139
_symmetry_space_group_name_H-M "C 2/C"
_symmetry_group_IT_number 15
_symmetry_cell_setting 'monoclinic'
loop_
_space_group_symop_operation_xyz
x,y,z
-x,y,1/2-z
-x,-y,-z
x,-y,1/2+z
1/2+x,1/2+y,z
1/2-x,1/2+y,1/2-z
1/2-x,1/2-y,-z
1/2+x,1/2-y,1/2+z
loop_
_atom_site_type_symbol
_atom_site_label
_atom_site_fract_x
_atom_site_fract_y
_atom_site_fract_z
Si Si1 0.656099 0.158058 0.236259
Si Si2 0.357440 0.838559 0.545645
Si Si3 0.500000 0.639893 0.250000
Si Si4 0.947972 0.236022 0.977602
Si Si5 0.659078 0.613499 0.852248
Si Si6 0.990663 0.409789 0.349425
Si Si7 0.371309 0.392700 0.939926
O O1 0.612868 0.188611 0.130514
O O2 0.629737 0.319091 0.257379
O O3 0.768059 0.136802 0.323869
O O4 0.613431 0.988420 0.229480
O O5 0.338639 0.773385 0.600949
O O6 0.268561 0.945625 0.444341
O O7 0.381141 0.687316 0.518192
O O8 0.446400 0.952951 0.631185
O O9 0.407653 0.526225 0.174862
O O10 0.491526 0.747338 0.306942
O O11 0.891624 0.085804 0.962741
O O12 0.961733 0.375601 0.042127
O O13 0.052954 0.185657 0.044591
#
# Coordination Sequence:
#
# PCOD8144712 Si02
#       7
#     8   8   4   8   8   8   8
#     4  11  24  42  69  96 128 173 212 267 319 387
#     4  10  21  44  66  91 126 166 210 268 320 378
#     4  12  26  40  64  96 126 168 214 270 310 388
#     4  11  25  42  65  96 131 170 210 264 319 384
#     4  10  23  41  68  90 122 169 217 259 326 379
#     4  12  25  40  63  95 132 164 213 268 317 375
#     4  10  24  42  66  95 128 168 217 257 320 380
#
# _framework density 21.657453
#
# number of rings (size 3 to 8) (size 9 to 14) (size 15 to 20)
#    0.000    1.231    1.538    3.231    6.462    3.077 
#    0.000    0.000    0.000    0.000    0.000    0.000 
#    0.000    0.000    0.000    0.000    0.000    0.000 
#
# Total GULP energy -322430.808261 kJ/mol
# GULP energy per Si atom -12401.184933 kJ/mol
# Density = 2.160816 g / cm^3
# Si number density = 21.657453 Si / 1000 Ang^3
#
#
#
# Elastic Constant Matrix: (Units=GPa)
#
#
# Indices 1 2 3 4 5 6 
#
# 1 73.1018 25.5933 29.6353 0.0000 19.5339 0.0000
# 2 25.5933 71.1299 29.2774 0.0000 18.5451 0.0000
# 3 29.6353 29.2774 99.8556 0.0000 12.8389 0.0000
# 4 0.0000 0.0000 0.0000 28.0606 0.0000 -9.2348
# 5 19.5339 18.5451 12.8389 0.0000 41.2039 0.0000
# 6 0.0000 0.0000 0.0000 -9.2348 0.0000 22.8271
#
#
#
# Elastic Compliance Matrix: (Units=1/GPa)
#
#
# Indices 1 2 3 4 5 6 
#
# 1 0.017882 -0.003458 -0.003545 0.000000 -0.005816 0.000000
# 2 -0.003458 0.018206 -0.003614 0.000000 -0.005429 0.000000
# 3 -0.003545 -0.003614 0.012189 0.000000 -0.000491 0.000000
# 4 0.000000 0.000000 0.000000 0.041111 0.000000 0.016631
# 5 -0.005816 -0.005429 -0.000491 0.000000 0.029623 0.000000
# 6 0.000000 0.000000 0.000000 0.016631 0.000000 0.050536
#
#
# Mechanical properties :
#
#
# Convention : Reuss Voigt Hill
#
# Bulk Modulus (GPa) = 36.97879 45.89994 41.43937
# Shear Modulus (GPa) = 25.02565 29.05708 27.04136
#
# Velocity S-wave (km/s) = 3.40298 3.66685 3.53738
# Velocity P-wave (km/s) = 5.70542 6.25838 5.98829
#
# Compressibility (1/GPa) = 0.02704253
#
# Stress axis : x y z
#
# Youngs Moduli (GPa) = 55.92298 54.92731 82.03978
#
# Poissons Ratio (x) = 0.18996 0.29084
# Poissons Ratio (y) = 0.19341 0.29645
# Poissons Ratio (z) = 0.19826 0.19848
#
# Static dielectric constant tensor:
#      x y z
#    x 4.053110 0.000000 0.129230 
#    y 0.000000 3.841750 0.000000 
#    z 0.129230 0.000000 3.935870 
# 
# 
# High freq. dielectric constant tensor:
#      x y z
#    x 1.863280 0.000000 0.004410 
#    y 0.000000 1.841620 0.000000 
#    z 0.004410 0.000000 1.860480 
# 
# From -- ./inp_files/255091.got.cif
#   From: 2010.06.25/outbox.cif.g09.slc.cpg/sg15_128_cif.got.tgz:255091.got - 2010.06.28 07:06:18.
