data_PCOD8144984
_publ_section_title
;
Structure prediction by ZEFSAII (Michael W. Deem and Ramdas Pophale) SiO2 
 PCOD8144984
Probable space group: C 2/C
;
_chemical_formula_sum "Si O2"
_cell_formula_units_Z 40
_cell_length_a 22.312054
_cell_length_b 12.172203
_cell_length_c 23.458139
_cell_angle_alpha 90.000000
_cell_angle_beta 160.881315
_cell_angle_gamma 90.000000
_cell_volume 2086.642906
_symmetry_space_group_name_H-M "C 2/C"
_symmetry_group_IT_number 15
_symmetry_cell_setting 'monoclinic'
loop_
_space_group_symop_operation_xyz
x,y,z
-x,y,1/2-z
-x,-y,-z
x,-y,1/2+z
1/2+x,1/2+y,z
1/2-x,1/2+y,1/2-z
1/2-x,1/2-y,-z
1/2+x,1/2-y,1/2+z
loop_
_atom_site_type_symbol
_atom_site_label
_atom_site_fract_x
_atom_site_fract_y
_atom_site_fract_z
Si Si1 0.111619 0.032974 0.011021
Si Si2 0.531223 0.346670 0.551824
Si Si3 0.429647 0.878647 0.926728
Si Si4 0.600254 0.618356 0.782048
Si Si5 0.019660 0.353981 0.657739
O O1 0.029800 0.118308 0.984102
O O2 0.319668 0.061865 0.179250
O O3 0.976376 0.036636 0.835349
O O4 0.122034 0.911967 0.049443
O O5 0.516282 0.214700 0.545331
O O6 0.716792 0.384441 0.748588
O O7 0.467349 0.834135 0.897664
O O8 0.500000 0.000000 0.000000
O O9 0.500000 0.588080 0.750000
O O10 0.554623 0.742571 0.723343
O O11 0.816681 0.600077 0.987714
#
# Coordination Sequence:
#
# PCOD8144984 Si02
#       5
#     8   8   8   8   8
#     4  10  22  37  53  82 122 156 190 235 292 357
#     4  10  22  36  57  84 122 155 195 232 294 353
#     4  11  22  36  60  86 123 159 193 239 295 354
#     4  12  22  35  57  87 119 155 199 250 298 353
#     4  11  21  35  55  81 123 156 194 241 300 347
#
# _framework density 19.169549
#
# number of rings (size 3 to 8) (size 9 to 14) (size 15 to 20)
#    0.000    1.200    4.000    3.000    8.400    0.000 
#    0.000    0.000    0.000    0.000    0.000    7.000 
#    0.000    0.000    0.000    0.000    0.000    0.000 
#
# Total GULP energy -247899.782751 kJ/mol
# GULP energy per Si atom -12394.989138 kJ/mol
# Density = 1.912592 g / cm^3
# Si number density = 19.169549 Si / 1000 Ang^3
#
#
#
# Elastic Constant Matrix: (Units=GPa)
#
#
# Indices 1 2 3 4 5 6 
#
# 1 73.9245 28.8063 39.8603 0.0033 -0.2153 -0.0043
# 2 28.8063 132.9704 30.2681 0.0307 -9.5293 0.0073
# 3 39.8603 30.2681 102.6424 0.0334 8.1253 0.0037
# 4 0.0033 0.0307 0.0334 21.8777 0.0091 0.6282
# 5 -0.2153 -9.5293 8.1253 0.0091 23.7323 -0.0019
# 6 -0.0043 0.0073 0.0037 0.6282 -0.0019 22.2276
#
#
#
# Elastic Compliance Matrix: (Units=1/GPa)
#
#
# Indices 1 2 3 4 5 6 
#
# 1 0.017869 -0.002321 -0.006366 0.000010 0.001410 0.000005
# 2 -0.002321 0.008784 -0.002021 -0.000011 0.004198 -0.000002
# 3 -0.006366 -0.002021 0.013239 -0.000014 -0.005402 -0.000003
# 4 0.000010 -0.000011 -0.000014 0.045746 -0.000017 -0.001293
# 5 0.001410 0.004198 -0.005402 -0.000017 0.045685 0.000004
# 6 0.000005 -0.000002 -0.000003 -0.001293 0.000004 0.045026
#
#
# Mechanical properties :
#
#
# Convention : Reuss Voigt Hill
#
# Bulk Modulus (GPa) = 54.12941 56.37853 55.25397
# Shear Modulus (GPa) = 24.51909 27.60769 26.06339
#
# Velocity S-wave (km/s) = 3.58028 3.79909 3.69131
# Velocity P-wave (km/s) = 6.73719 6.97986 6.85960
#
# Compressibility (1/GPa) = 0.01847425
#
# Stress axis : x y z
#
# Youngs Moduli (GPa) = 55.96440 113.84015 75.53662
#
# Poissons Ratio (x) = 0.26420 0.48089
# Poissons Ratio (y) = 0.12988 0.15269
# Poissons Ratio (z) = 0.35629 0.23012
#
# Static dielectric constant tensor:
#      x y z
#    x 3.336530 0.000030 -0.036220 
#    y 0.000030 3.382200 -0.000270 
#    z -0.036220 -0.000270 3.932560 
# 
# 
# High freq. dielectric constant tensor:
#      x y z
#    x 1.712330 0.000000 -0.001920 
#    y 0.000000 1.720860 -0.000010 
#    z -0.001920 -0.000010 1.766310 
# 
# From -- ./inp_files/54114.got.cif
#   From: 2010.06.25/outbox.cif.g09.slc.cpg/sg15_28_cif.got.tgz:54114.got - 2010.06.28 07:06:18.
