data_PCOD8144559
_publ_section_title
;
Structure prediction by ZEFSAII (Michael W. Deem and Ramdas Pophale) SiO2 
 PCOD8144559
Probable space group: C 2/C
;
_chemical_formula_sum "Si O2"
_cell_formula_units_Z 56
_cell_length_a 5.198352
_cell_length_b 17.468822
_cell_length_c 30.100265
_cell_angle_alpha 90.000000
_cell_angle_beta 69.902647
_cell_angle_gamma 90.000000
_cell_volume 2566.942537
_symmetry_space_group_name_H-M "C 2/C"
_symmetry_group_IT_number 15
_symmetry_cell_setting 'monoclinic'
loop_
_space_group_symop_operation_xyz
x,y,z
-x,y,1/2-z
-x,-y,-z
x,-y,1/2+z
1/2+x,1/2+y,z
1/2-x,1/2+y,1/2-z
1/2-x,1/2-y,-z
1/2+x,1/2-y,1/2+z
loop_
_atom_site_type_symbol
_atom_site_label
_atom_site_fract_x
_atom_site_fract_y
_atom_site_fract_z
Si Si1 0.316078 0.170929 0.473294
Si Si2 0.155635 0.985490 0.655839
Si Si3 0.762219 0.202876 0.115707
Si Si4 0.811302 0.920039 0.938690
Si Si5 0.157049 0.376208 0.397851
Si Si6 0.929607 0.410280 0.804415
Si Si7 0.959658 0.076286 0.546404
O O1 0.250000 0.250000 0.500000
O O2 0.422529 0.192187 0.417477
O O3 0.551710 0.116170 0.480725
O O4 0.035749 0.118980 0.494567
O O5 0.292173 0.959535 0.601074
O O6 0.312773 0.952712 0.688967
O O7 0.835416 0.964508 0.676668
O O8 0.194435 0.077463 0.651251
O O9 0.861343 0.289038 0.117880
O O10 0.612903 0.170894 0.168379
O O11 0.016511 0.151096 0.088111
O O12 0.965188 0.985877 0.958695
O O13 0.343726 0.379035 0.430684
O O14 0.855197 0.410781 0.423518
O O15 0.000000 0.390391 0.750000
#
# Coordination Sequence:
#
# PCOD8144559 Si02
#       7
#     8   8   8   8   8   8   8
#     4  12  23  39  60  94 136 178 221 271 324 383
#     4  10  21  43  67  93 126 164 210 264 324 387
#     4  11  24  40  66  91 137 168 217 270 335 388
#     4  10  23  40  61  91 127 177 223 267 315 383
#     4  11  23  42  64  95 130 175 210 263 327 383
#     4  11  23  44  71  98 122 162 214 271 329 397
#     4  11  25  39  63  91 132 178 228 260 306 384
#
# _framework density 21.815839
#
# number of rings (size 3 to 8) (size 9 to 14) (size 15 to 20)
#    0.000    1.143    2.857    4.286    4.000    1.714 
#    0.000    1.429    0.000    0.000    0.000    0.000 
#    0.000    0.000    0.000    0.000    0.000    0.000 
#
# Total GULP energy -346993.968148 kJ/mol
# GULP energy per Si atom -12392.641720 kJ/mol
# Density = 2.176619 g / cm^3
# Si number density = 21.815839 Si / 1000 Ang^3
#
#
#
# Elastic Constant Matrix: (Units=GPa)
#
#
# Indices 1 2 3 4 5 6 
#
# 1 100.6378 38.3824 17.9074 0.0000 -2.4610 0.0000
# 2 38.3824 177.7146 57.8028 0.0000 -1.5605 0.0000
# 3 17.9074 57.8028 113.2031 0.0000 2.1349 0.0000
# 4 0.0000 0.0000 0.0000 24.4180 0.0000 0.7002
# 5 -2.4610 -1.5605 2.1349 0.0000 29.4121 0.0000
# 6 0.0000 0.0000 0.0000 0.7002 0.0000 25.0950
#
#
#
# Elastic Compliance Matrix: (Units=1/GPa)
#
#
# Indices 1 2 3 4 5 6 
#
# 1 0.010886 -0.002133 -0.000649 0.000000 0.000845 0.000000
# 2 -0.002133 0.007176 -0.003335 0.000000 0.000444 0.000000
# 3 -0.000649 -0.003335 0.010658 0.000000 -0.001005 0.000000
# 4 0.000000 0.000000 0.000000 0.040986 0.000000 -0.001144
# 5 0.000845 0.000444 -0.001005 0.000000 0.034167 0.000000
# 6 0.000000 0.000000 0.000000 -0.001144 0.000000 0.039880
#
#
# Mechanical properties :
#
#
# Convention : Reuss Voigt Hill
#
# Bulk Modulus (GPa) = 60.65458 68.86007 64.75732
# Shear Modulus (GPa) = 30.96282 34.28256 32.62269
#
# Velocity S-wave (km/s) = 3.77142 3.96846 3.87119
# Velocity P-wave (km/s) = 6.84311 7.25472 7.05192
#
# Compressibility (1/GPa) = 0.01648680
#
# Stress axis : x y z
#
# Youngs Moduli (GPa) = 91.85988 139.34666 93.82299
#
# Poissons Ratio (x) = 0.29718 0.06090
# Poissons Ratio (y) = 0.19590 0.31293
# Poissons Ratio (z) = 0.05962 0.46477
#
# Static dielectric constant tensor:
#      x y z
#    x 3.971630 0.000000 0.192460 
#    y 0.000000 4.194140 0.000000 
#    z 0.192460 0.000000 4.036750 
# 
# 
# High freq. dielectric constant tensor:
#      x y z
#    x 1.868740 0.000000 0.008750 
#    y 0.000000 1.874810 0.000000 
#    z 0.008750 0.000000 1.830100 
# 
# From -- ./inp_files/305621.got.cif
#   From: 2010.06.25/outbox.cif.g09.slc.cpg/sg15_153_cif.got.tgz:305621.got - 2010.06.28 07:06:18.
