data_PCOD8144965
_publ_section_title
;
Structure prediction by ZEFSAII (Michael W. Deem and Ramdas Pophale) SiO2 
 PCOD8144965
Probable space group: C 2/C
;
_chemical_formula_sum "Si O2"
_cell_formula_units_Z 44
_cell_length_a 10.439679
_cell_length_b 8.846213
_cell_length_c 19.274908
_cell_angle_alpha 90.000000
_cell_angle_beta 113.757273
_cell_angle_gamma 90.000000
_cell_volume 1629.226625
_symmetry_space_group_name_H-M "C 2/C"
_symmetry_group_IT_number 15
_symmetry_cell_setting 'monoclinic'
loop_
_space_group_symop_operation_xyz
x,y,z
-x,y,1/2-z
-x,-y,-z
x,-y,1/2+z
1/2+x,1/2+y,z
1/2-x,1/2+y,1/2-z
1/2-x,1/2-y,-z
1/2+x,1/2-y,1/2+z
loop_
_atom_site_type_symbol
_atom_site_label
_atom_site_fract_x
_atom_site_fract_y
_atom_site_fract_z
Si Si1 0.074931 0.431509 0.889148
Si Si2 0.500000 0.263815 0.250000
Si Si3 0.062824 0.721685 0.603502
Si Si4 0.225942 0.050210 0.945830
Si Si5 0.136122 0.260719 0.560764
Si Si6 0.909528 0.040686 0.845310
O O1 0.090357 0.347539 0.818886
O O2 0.033398 0.608293 0.871803
O O3 0.945359 0.367227 0.903805
O O4 0.216765 0.405739 0.965058
O O5 0.609295 0.375758 0.233124
O O6 0.194191 0.637819 0.597858
O O7 0.965514 0.794883 0.522571
O O8 0.113168 0.861080 0.663845
O O9 0.239919 0.866937 0.941693
O O10 0.064904 0.093977 0.903902
O O11 0.191933 0.113932 0.617087
#
# Coordination Sequence:
#
# PCOD8144965 Si02
#       6
#     8   4   8   8   8   8
#     4   8  17  35  56  79 116 150 179 230 281 331
#     4  10  22  36  52  84 120 148 186 232 278 334
#     4   9  18  35  59  86 113 143 190 237 273 330
#     4   9  19  38  62  83 108 150 190 226 283 335
#     4   8  17  34  55  85 114 134 181 241 270 319
#     4  11  21  36  60  86 114 146 185 235 282 328
#
# _framework density 27.006678999999998
#
# number of rings (size 3 to 8) (size 9 to 14) (size 15 to 20)
#    0.000    2.909    0.000    2.727    0.000   10.182 
#    0.000   10.909    0.000   13.091    0.000    0.000 
#    0.000    0.000    0.000    0.000    0.000    0.000 
#
# Total GULP energy -272688.169271 kJ/mol
# GULP energy per Si atom -12394.916785 kJ/mol
# Density = 2.694521 g / cm^3
# Si number density = 27.006679 Si / 1000 Ang^3
#
#
#
# Elastic Constant Matrix: (Units=GPa)
#
#
# Indices 1 2 3 4 5 6 
#
# 1 46.7893 3.9548 24.0910 0.0000 -2.5329 0.0000
# 2 3.9548 173.9834 68.6023 0.0000 -17.6890 0.0000
# 3 24.0910 68.6023 104.6039 0.0000 -20.0015 0.0000
# 4 0.0000 0.0000 0.0000 47.5960 0.0000 -14.5393
# 5 -2.5329 -17.6890 -20.0015 0.0000 23.1580 0.0000
# 6 0.0000 0.0000 0.0000 -14.5393 0.0000 28.4199
#
#
#
# Elastic Compliance Matrix: (Units=1/GPa)
#
#
# Indices 1 2 3 4 5 6 
#
# 1 0.024993 0.002219 -0.007623 0.000000 -0.002156 0.000000
# 2 0.002219 0.008015 -0.005450 0.000000 0.001657 0.000000
# 3 -0.007623 -0.005450 0.016691 0.000000 0.009419 0.000000
# 4 0.000000 0.000000 0.000000 0.024902 0.000000 0.012739
# 5 -0.002156 0.001657 0.009419 0.000000 0.052347 0.000000
# 6 0.000000 0.000000 0.000000 0.012739 0.000000 0.041704
#
#
# Mechanical properties :
#
#
# Convention : Reuss Voigt Hill
#
# Bulk Modulus (GPa) = 35.72854 57.63033 46.67943
# Shear Modulus (GPa) = 25.03855 35.08336 30.06096
#
# Velocity S-wave (km/s) = 3.04818 3.60816 3.33992
# Velocity P-wave (km/s) = 5.06426 6.22447 5.67410
#
# Compressibility (1/GPa) = 0.02798883
#
# Stress axis : x y z
#
# Youngs Moduli (GPa) = 40.01068 124.76801 59.91169
#
# Poissons Ratio (x) = -0.27681 0.45673
# Poissons Ratio (y) = -0.08877 0.32655
# Poissons Ratio (z) = 0.30502 0.68005
#
# Static dielectric constant tensor:
#      x y z
#    x 4.894120 0.000000 -0.550360 
#    y 0.000000 5.684160 0.000000 
#    z -0.550360 0.000000 4.776720 
# 
# 
# High freq. dielectric constant tensor:
#      x y z
#    x 2.075980 0.000000 -0.021790 
#    y 0.000000 2.119030 0.000000 
#    z -0.021790 0.000000 2.039740 
# 
# From -- ./inp_files/242635.got.cif
#   From: 2010.06.25/outbox.cif.g09.slc.cpg/sg15_122_cif.got.tgz:242635.got - 2010.06.28 07:06:18.
