data_PCOD8144719
_publ_section_title
;
Structure prediction by ZEFSAII (Michael W. Deem and Ramdas Pophale) SiO2 
 PCOD8144719
Probable space group: C 2/C
;
_chemical_formula_sum "Si O2"
_cell_formula_units_Z 56
_cell_length_a 6.038609
_cell_length_b 26.151803
_cell_length_c 16.894661
_cell_angle_alpha 90.000000
_cell_angle_beta 113.179985
_cell_angle_gamma 90.000000
_cell_volume 2452.632531
_symmetry_space_group_name_H-M "C 2/C"
_symmetry_group_IT_number 15
_symmetry_cell_setting 'monoclinic'
loop_
_space_group_symop_operation_xyz
x,y,z
-x,y,1/2-z
-x,-y,-z
x,-y,1/2+z
1/2+x,1/2+y,z
1/2-x,1/2+y,1/2-z
1/2-x,1/2-y,-z
1/2+x,1/2-y,1/2+z
loop_
_atom_site_type_symbol
_atom_site_label
_atom_site_fract_x
_atom_site_fract_y
_atom_site_fract_z
Si Si1 0.778279 0.748753 0.664619
Si Si2 0.465902 0.840140 0.388821
Si Si3 0.500000 0.688320 0.750000
Si Si4 0.701288 0.062133 0.966397
Si Si5 0.000000 0.929102 0.750000
Si Si6 0.146990 0.890244 0.607290
Si Si7 0.471700 0.961989 0.887401
Si Si8 0.639946 0.196124 0.459774
O O1 0.561679 0.723258 0.683675
O O2 0.640002 0.797007 0.607066
O O3 0.000000 0.767575 0.750000
O O4 0.877319 0.709546 0.612438
O O5 0.233297 0.846001 0.300095
O O6 0.618170 0.891142 0.399431
O O7 0.377443 0.839341 0.466405
O O8 0.645531 0.011780 0.906225
O O9 0.550045 0.055857 0.025232
O O10 0.978300 0.074558 0.026542
O O11 0.945492 0.890618 0.815474
O O12 0.786073 0.967899 0.693030
O O13 0.406803 0.916146 0.643343
O O14 0.186223 0.832002 0.580462
O O15 0.750000 0.250000 0.500000
#
# Coordination Sequence:
#
# PCOD8144719 Si02
#       8
#     8   8   4   8   4   8   8   8
#     4  10  23  43  62  93 135 174 227 283 338 403
#     4  11  22  42  67  97 131 170 229 282 341 405
#     4  10  22  43  60  92 134 168 216 287 338 396
#     4  10  22  39  70  99 127 173 223 276 340 408
#     4  10  24  45  66 100 146 174 228 283 346 416
#     4  11  23  44  67 100 140 178 227 286 336 411
#     4  10  21  44  66  98 133 174 219 278 342 409
#     4  12  23  43  70  95 130 183 231 277 340 407
#
# _framework density 22.832609999999999
#
# number of rings (size 3 to 8) (size 9 to 14) (size 15 to 20)
#    0.000    1.429    2.857    2.143    0.000    0.571 
#    3.857    4.286    0.000    0.000    0.000    0.000 
#    0.000    0.000    0.000    0.000    0.000    0.000 
#
# Total GULP energy -347089.387324 kJ/mol
# GULP energy per Si atom -12396.049547 kJ/mol
# Density = 2.278064 g / cm^3
# Si number density = 22.832610 Si / 1000 Ang^3
#
#
#
# Elastic Constant Matrix: (Units=GPa)
#
#
# Indices 1 2 3 4 5 6 
#
# 1 93.1540 34.6873 36.4443 0.0000 11.1226 0.0000
# 2 34.6873 109.6797 47.6709 0.0000 13.1818 0.0000
# 3 36.4443 47.6709 102.6902 0.0000 14.3428 0.0000
# 4 0.0000 0.0000 0.0000 23.4372 0.0000 3.5291
# 5 11.1226 13.1818 14.3428 0.0000 44.4796 0.0000
# 6 0.0000 0.0000 0.0000 3.5291 0.0000 39.7681
#
#
#
# Elastic Compliance Matrix: (Units=1/GPa)
#
#
# Indices 1 2 3 4 5 6 
#
# 1 0.013143 -0.002558 -0.003271 0.000000 -0.001474 0.000000
# 2 -0.002558 0.012052 -0.004479 0.000000 -0.001488 0.000000
# 3 -0.003271 -0.004479 0.013277 0.000000 -0.002136 0.000000
# 4 0.000000 0.000000 0.000000 0.043245 0.000000 -0.003838
# 5 -0.001474 -0.001488 -0.002136 0.000000 0.023980 0.000000
# 6 0.000000 0.000000 0.000000 -0.003838 0.000000 0.025486
#
#
# Mechanical properties :
#
#
# Convention : Reuss Voigt Hill
#
# Bulk Modulus (GPa) = 56.00586 60.34766 58.17676
# Shear Modulus (GPa) = 31.69539 33.98508 32.84024
#
# Velocity S-wave (km/s) = 3.72985 3.86222 3.79661
# Velocity P-wave (km/s) = 6.56743 6.81006 6.68984
#
# Compressibility (1/GPa) = 0.01785528
#
# Stress axis : x y z
#
# Youngs Moduli (GPa) = 76.08569 82.97359 75.32021
#
# Poissons Ratio (x) = 0.21222 0.24639
# Poissons Ratio (y) = 0.19460 0.33738
# Poissons Ratio (z) = 0.24890 0.37166
#
# Static dielectric constant tensor:
#      x y z
#    x 4.203090 0.000000 0.152380 
#    y 0.000000 3.991650 0.000000 
#    z 0.152380 0.000000 4.263650 
# 
# 
# High freq. dielectric constant tensor:
#      x y z
#    x 1.908440 0.000000 0.012560 
#    y 0.000000 1.876940 0.000000 
#    z 0.012560 0.000000 1.906510 
# 
# From -- ./inp_files/186588.got.cif
#   From: 2010.06.25/outbox.cif.g09.slc.cpg/sg15_94_cif.got.tgz:186588.got - 2010.06.28 07:06:18.
