data_PCOD8144153
_publ_section_title
;
Structure prediction by ZEFSAII (Michael W. Deem and Ramdas Pophale) SiO2 
 PCOD8144153
Probable space group: C 2/C
;
_chemical_formula_sum "Si O2"
_cell_formula_units_Z 44
_cell_length_a 25.886280
_cell_length_b 13.603487
_cell_length_c 12.467835
_cell_angle_alpha 90.000000
_cell_angle_beta 26.663697
_cell_angle_gamma 90.000000
_cell_volume 1970.235628
_symmetry_space_group_name_H-M "C 2/C"
_symmetry_group_IT_number 15
_symmetry_cell_setting 'monoclinic'
loop_
_space_group_symop_operation_xyz
x,y,z
-x,y,1/2-z
-x,-y,-z
x,-y,1/2+z
1/2+x,1/2+y,z
1/2-x,1/2+y,1/2-z
1/2-x,1/2-y,-z
1/2+x,1/2-y,1/2+z
loop_
_atom_site_type_symbol
_atom_site_label
_atom_site_fract_x
_atom_site_fract_y
_atom_site_fract_z
Si Si1 0.808943 0.178830 0.040225
Si Si2 0.000000 0.437754 0.250000
Si Si3 0.192904 0.706340 0.759086
Si Si4 0.074794 0.720782 0.764174
Si Si5 0.742840 0.020148 0.776440
Si Si6 0.128561 0.837517 0.310595
O O1 0.866342 0.252174 0.021740
O O2 0.694387 0.235534 0.214517
O O3 0.792528 0.079869 0.138360
O O4 0.883240 0.152690 0.796914
O O5 0.000000 0.368148 0.145229
O O6 0.889819 0.507346 0.445100
O O7 0.095589 0.699350 0.850458
O O8 0.302894 0.773842 0.523271
O O9 0.247225 0.599183 0.673505
O O10 0.998481 0.821102 0.901902
O O11 0.814225 0.063818 0.746101
#
# Coordination Sequence:
#
# PCOD8144153 Si02
#       6
#     8   4   8   8   8   8
#     4  10  21  42  63  96 138 173 220 285 327 403
#     4  12  22  40  70  94 130 168 232 278 334 388
#     4  10  24  41  68  94 137 175 229 273 339 400
#     4  11  22  45  68  93 130 187 221 274 332 409
#     4  11  23  39  66 102 128 174 228 283 331 406
#     4  10  23  41  68  95 139 176 219 278 347 381
#
# _framework density 22.332353999999999
#
# number of rings (size 3 to 8) (size 9 to 14) (size 15 to 20)
#    0.000    1.455    3.636    1.091    2.545    5.818 
#    0.000    5.455    0.000    0.000    0.000    0.000 
#    0.000    0.000    0.000    0.000    0.000    0.000 
#
# Total GULP energy -272604.836754 kJ/mol
# GULP energy per Si atom -12391.128943 kJ/mol
# Density = 2.228152 g / cm^3
# Si number density = 22.332354 Si / 1000 Ang^3
#
#
#
# Elastic Constant Matrix: (Units=GPa)
#
#
# Indices 1 2 3 4 5 6 
#
# 1 160.9254 38.7283 38.5475 0.0000 24.1996 0.0000
# 2 38.7283 94.2681 12.9847 0.0000 15.8098 0.0000
# 3 38.5475 12.9847 49.5154 0.0000 10.2232 0.0000
# 4 0.0000 0.0000 0.0000 34.0858 0.0000 -7.0755
# 5 24.1996 15.8098 10.2232 0.0000 25.9069 0.0000
# 6 0.0000 0.0000 0.0000 -7.0755 0.0000 22.9165
#
#
#
# Elastic Compliance Matrix: (Units=1/GPa)
#
#
# Indices 1 2 3 4 5 6 
#
# 1 0.008680 -0.002041 -0.005231 0.000000 -0.004798 0.000000
# 2 -0.002041 0.012439 -0.000544 0.000000 -0.005470 0.000000
# 3 -0.005231 -0.000544 0.025403 0.000000 -0.004806 0.000000
# 4 0.000000 0.000000 0.000000 0.031347 0.000000 0.009678
# 5 -0.004798 -0.005470 -0.004806 0.000000 0.048316 0.000000
# 6 0.000000 0.000000 0.000000 0.009678 0.000000 0.046625
#
#
# Mechanical properties :
#
#
# Convention : Reuss Voigt Hill
#
# Bulk Modulus (GPa) = 32.37308 53.91442 43.14375
# Shear Modulus (GPa) = 25.15872 30.87838 28.01855
#
# Velocity S-wave (km/s) = 3.36007 3.72247 3.54590
# Velocity P-wave (km/s) = 5.43883 6.53222 6.01044
#
# Compressibility (1/GPa) = 0.03088987
#
# Stress axis : x y z
#
# Youngs Moduli (GPa) = 115.20987 80.39431 39.36507
#
# Poissons Ratio (x) = 0.16406 0.20593
# Poissons Ratio (y) = 0.23510 0.02141
# Poissons Ratio (z) = 0.60271 0.04372
#
# Static dielectric constant tensor:
#      x y z
#    x 4.234930 0.000000 0.209730 
#    y 0.000000 3.931640 0.000000 
#    z 0.209730 0.000000 3.889130 
# 
# 
# High freq. dielectric constant tensor:
#      x y z
#    x 1.890740 0.000000 0.010180 
#    y 0.000000 1.873190 0.000000 
#    z 0.010180 0.000000 1.861280 
# 
# From -- ./inp_files/123256.got.cif
#   From: 2010.06.25/outbox.cif.g09.slc.cpg/sg15_62_cif.got.tgz:123256.got - 2010.06.28 07:06:18.
