data_PCOD8144410
_publ_section_title
;
Structure prediction by ZEFSAII (Michael W. Deem and Ramdas Pophale) SiO2 
 PCOD8144410
Probable space group: C 2/C
;
_chemical_formula_sum "Si O2"
_cell_formula_units_Z 60
_cell_length_a 14.653172
_cell_length_b 11.878079
_cell_length_c 17.208458
_cell_angle_alpha 90.000000
_cell_angle_beta 106.167649
_cell_angle_gamma 90.000000
_cell_volume 2876.703178
_symmetry_space_group_name_H-M "C 2/C"
_symmetry_group_IT_number 15
_symmetry_cell_setting 'monoclinic'
loop_
_space_group_symop_operation_xyz
x,y,z
-x,y,1/2-z
-x,-y,-z
x,-y,1/2+z
1/2+x,1/2+y,z
1/2-x,1/2+y,1/2-z
1/2-x,1/2-y,-z
1/2+x,1/2-y,1/2+z
loop_
_atom_site_type_symbol
_atom_site_label
_atom_site_fract_x
_atom_site_fract_y
_atom_site_fract_z
Si Si1 0.325141 0.623826 0.161903
Si Si2 0.000000 0.478075 0.750000
Si Si3 0.159053 0.172072 0.981717
Si Si4 0.105362 0.346179 0.379229
Si Si5 0.637323 0.811083 0.698376
Si Si6 0.802944 0.073189 0.980902
Si Si7 0.605876 0.615337 0.795184
Si Si8 0.040794 0.754770 0.019900
O O1 0.396632 0.730886 0.172433
O O2 0.238867 0.642731 0.198957
O O3 0.378777 0.517553 0.212508
O O4 0.283267 0.598248 0.066668
O O5 0.041428 0.557010 0.827344
O O6 0.086597 0.401235 0.741909
O O7 0.125364 0.147434 0.887552
O O8 0.072485 0.226412 0.009005
O O9 0.250000 0.250000 0.000000
O O10 0.189010 0.058902 0.033146
O O11 0.216498 0.378695 0.409977
O O12 0.064263 0.329845 0.455683
O O13 0.663769 0.694354 0.749282
O O14 0.568857 0.798049 0.608501
O O15 0.901681 0.128976 0.977309
O O16 0.500000 0.648858 0.750000
#
# Coordination Sequence:
#
# PCOD8144410 Si02
#       8
#     8   4   8   8   8   8   8   8
#     4  10  23  43  68  97 128 174 230 274 336 413
#     4  12  30  40  62 102 144 174 228 284 344 412
#     4  11  25  42  66 103 137 177 234 286 336 409
#     4  11  24  46  67 101 137 179 229 286 341 407
#     4  12  23  45  67  97 134 183 222 277 355 404
#     4  10  21  42  70  97 130 174 231 279 335 410
#     4  11  24  44  67  96 141 178 223 284 345 404
#     4  11  21  45  72  95 131 183 229 277 345 409
#
# _framework density 20.857209999999998
#
# number of rings (size 3 to 8) (size 9 to 14) (size 15 to 20)
#    0.000    1.067    4.667    1.200    6.533    2.667 
#    0.000    0.000    0.000    0.000    0.000    0.000 
#    0.000    0.000    0.000    0.000    0.000    0.000 
#
# Total GULP energy -372065.175299 kJ/mol
# GULP energy per Si atom -12402.172510 kJ/mol
# Density = 2.080974 g / cm^3
# Si number density = 20.857210 Si / 1000 Ang^3
#
#
#
# Elastic Constant Matrix: (Units=GPa)
#
#
# Indices 1 2 3 4 5 6 
#
# 1 113.1906 33.8213 20.8890 0.0000 -3.2763 0.0000
# 2 33.8213 125.8680 45.7609 0.0000 0.9515 0.0000
# 3 20.8890 45.7609 60.8590 0.0000 -2.1280 0.0000
# 4 0.0000 0.0000 0.0000 35.9500 0.0000 -8.8474
# 5 -3.2763 0.9515 -2.1280 0.0000 28.9814 0.0000
# 6 0.0000 0.0000 0.0000 -8.8474 0.0000 58.5404
#
#
#
# Elastic Compliance Matrix: (Units=1/GPa)
#
#
# Indices 1 2 3 4 5 6 
#
# 1 0.009793 -0.001969 -0.001845 0.000000 0.001036 0.000000
# 2 -0.001969 0.011356 -0.007905 0.000000 -0.001176 0.000000
# 3 -0.001845 -0.007905 0.023069 0.000000 0.001745 0.000000
# 4 0.000000 0.000000 0.000000 0.028891 0.000000 0.004366
# 5 0.001036 -0.001176 0.001745 0.000000 0.034789 0.000000
# 6 0.000000 0.000000 0.000000 0.004366 0.000000 0.017742
#
#
# Mechanical properties :
#
#
# Convention : Reuss Voigt Hill
#
# Bulk Modulus (GPa) = 48.11661 55.65112 51.88387
# Shear Modulus (GPa) = 32.05028 37.99078 35.02053
#
# Velocity S-wave (km/s) = 3.92427 4.27250 4.10208
# Velocity P-wave (km/s) = 6.60703 7.14695 6.88228
#
# Compressibility (1/GPa) = 0.02078285
#
# Stress axis : x y z
#
# Youngs Moduli (GPa) = 102.11006 88.05539 43.34772
#
# Poissons Ratio (x) = 0.17334 0.07998
# Poissons Ratio (y) = 0.20101 0.34264
# Poissons Ratio (z) = 0.18839 0.69604
#
# Static dielectric constant tensor:
#      x y z
#    x 3.732500 0.000000 -0.087210 
#    y 0.000000 4.103590 0.000000 
#    z -0.087210 0.000000 3.656980 
# 
# 
# High freq. dielectric constant tensor:
#      x y z
#    x 1.819770 0.000000 -0.007360 
#    y 0.000000 1.828470 0.000000 
#    z -0.007360 0.000000 1.810020 
# 
# From -- ./inp_files/204512.got.cif
#   From: 2010.06.25/outbox.cif.g09.slc.cpg/sg15_103_cif.got.tgz:204512.got - 2010.06.28 07:06:18.
