data_PCOD8144662
_publ_section_title
;
Structure prediction by ZEFSAII (Michael W. Deem and Ramdas Pophale) SiO2 
 PCOD8144662
Probable space group: C 2/C
;
_chemical_formula_sum "Si O2"
_cell_formula_units_Z 48
_cell_length_a 31.968286
_cell_length_b 15.218971
_cell_length_c 15.758784
_cell_angle_alpha 90.000000
_cell_angle_beta 17.542300
_cell_angle_gamma 90.000000
_cell_volume 2310.919116
_symmetry_space_group_name_H-M "C 2/C"
_symmetry_group_IT_number 15
_symmetry_cell_setting 'monoclinic'
loop_
_space_group_symop_operation_xyz
x,y,z
-x,y,1/2-z
-x,-y,-z
x,-y,1/2+z
1/2+x,1/2+y,z
1/2-x,1/2+y,1/2-z
1/2-x,1/2-y,-z
1/2+x,1/2-y,1/2+z
loop_
_atom_site_type_symbol
_atom_site_label
_atom_site_fract_x
_atom_site_fract_y
_atom_site_fract_z
Si Si1 0.687868 0.347092 0.290111
Si Si2 0.990381 0.350748 0.672994
Si Si3 0.437197 0.424565 0.673220
Si Si4 0.767316 0.525564 0.784827
Si Si5 0.324829 0.287423 0.774103
Si Si6 0.159989 0.338448 0.927248
O O1 0.549169 0.368460 0.508032
O O2 0.692283 0.409069 0.364079
O O3 0.680716 0.243816 0.324929
O O4 0.828059 0.365525 0.963897
O O5 0.073500 0.443353 0.508027
O O6 0.056557 0.280578 0.482466
O O7 0.000000 0.312125 0.750000
O O8 0.500000 0.500000 0.500000
O O9 0.389171 0.375431 0.682362
O O10 0.314601 0.461533 0.969272
O O11 0.764003 0.424666 0.759109
O O12 0.221140 0.310046 0.899003
O O13 0.250000 0.250000 0.000000
O O14 0.000000 0.361670 0.250000
#
# Coordination Sequence:
#
# PCOD8144662 Si02
#       6
#     8   8   8   8   8   8
#     4  11  23  46  71  98 134 181 235 280 335 425
#     4  10  21  43  72  94 133 182 231 282 338 417
#     4  12  27  43  66 103 143 176 223 292 353 401
#     4  11  23  46  68  98 138 183 235 281 336 422
#     4  12  23  44  68 102 139 180 220 295 356 391
#     4  12  24  42  76 102 130 188 237 275 343 423
#
# _framework density 20.770956000000002
#
# number of rings (size 3 to 8) (size 9 to 14) (size 15 to 20)
#    0.000    0.667    5.000    5.000    2.333    0.667 
#    3.000    1.667    0.000    0.000    0.000    0.000 
#    0.000    0.000    0.000    0.000    0.000    0.000 
#
# Total GULP energy -297465.745901 kJ/mol
# GULP energy per Si atom -12394.406079 kJ/mol
# Density = 2.072368 g / cm^3
# Si number density = 20.770956 Si / 1000 Ang^3
#
#
#
# Elastic Constant Matrix: (Units=GPa)
#
#
# Indices 1 2 3 4 5 6 
#
# 1 81.4443 41.3077 44.8053 -0.0001 7.9866 0.0002
# 2 41.3077 141.4521 31.8640 -0.0001 16.6028 0.0002
# 3 44.8053 31.8640 121.0294 -0.0001 13.9633 0.0002
# 4 -0.0001 -0.0001 -0.0001 41.4923 0.0000 5.9409
# 5 7.9866 16.6028 13.9633 0.0000 38.0898 -0.0001
# 6 0.0002 0.0002 0.0002 5.9409 -0.0001 33.5334
#
#
#
# Elastic Compliance Matrix: (Units=1/GPa)
#
#
# Indices 1 2 3 4 5 6 
#
# 1 0.017149 -0.003806 -0.005349 0.000000 0.000024 0.000000
# 2 -0.003806 0.008628 -0.000544 0.000000 -0.002763 0.000000
# 3 -0.005349 -0.000544 0.010681 0.000000 -0.002557 0.000000
# 4 0.000000 0.000000 0.000000 0.024728 0.000000 -0.004381
# 5 0.000024 -0.002763 -0.002557 0.000000 0.028391 0.000000
# 6 0.000000 0.000000 0.000000 -0.004381 0.000000 0.030597
#
#
# Mechanical properties :
#
#
# Convention : Reuss Voigt Hill
#
# Bulk Modulus (GPa) = 58.61705 64.43109 61.52407
# Shear Modulus (GPa) = 34.42145 37.68636 36.05390
#
# Velocity S-wave (km/s) = 4.07528 4.26417 4.17079
# Velocity P-wave (km/s) = 7.10111 7.43851 7.27177
#
# Compressibility (1/GPa) = 0.01705988
#
# Stress axis : x y z
#
# Youngs Moduli (GPa) = 58.31196 115.90493 93.62439
#
# Poissons Ratio (x) = 0.44111 0.50084
# Poissons Ratio (y) = 0.22192 0.05091
# Poissons Ratio (z) = 0.31194 0.06302
#
# Static dielectric constant tensor:
#      x y z
#    x 3.542170 0.000000 0.043790 
#    y 0.000000 3.930630 0.000000 
#    z 0.043790 0.000000 4.074160 
# 
# 
# High freq. dielectric constant tensor:
#      x y z
#    x 1.804060 0.000000 0.003290 
#    y 0.000000 1.825680 0.000000 
#    z 0.003290 0.000000 1.831500 
# 
# From -- ./inp_files/182410.got.cif
#   From: 2010.06.25/outbox.cif.g09.slc.cpg/sg15_92_cif.got.tgz:182410.got - 2010.06.28 07:06:18.
