data_PCOD8144457
_publ_section_title
;
Structure prediction by ZEFSAII (Michael W. Deem and Ramdas Pophale) SiO2 
 PCOD8144457
Probable space group: C 2/C
;
_chemical_formula_sum "Si O2"
_cell_formula_units_Z 56
_cell_length_a 11.833210
_cell_length_b 26.228679
_cell_length_c 9.416006
_cell_angle_alpha 90.000000
_cell_angle_beta 70.907137
_cell_angle_gamma 90.000000
_cell_volume 2761.676313
_symmetry_space_group_name_H-M "C 2/C"
_symmetry_group_IT_number 15
_symmetry_cell_setting 'monoclinic'
loop_
_space_group_symop_operation_xyz
x,y,z
-x,y,1/2-z
-x,-y,-z
x,-y,1/2+z
1/2+x,1/2+y,z
1/2-x,1/2+y,1/2-z
1/2-x,1/2-y,-z
1/2+x,1/2-y,1/2+z
loop_
_atom_site_type_symbol
_atom_site_label
_atom_site_fract_x
_atom_site_fract_y
_atom_site_fract_z
Si Si1 0.006823 0.808099 0.022088
Si Si2 0.000000 0.894071 0.250000
Si Si3 0.500000 0.773655 0.750000
Si Si4 0.132449 0.385388 0.204491
Si Si5 0.720226 0.691161 0.036934
Si Si6 0.413727 0.006167 0.905595
Si Si7 0.737975 0.830444 0.662505
Si Si8 0.249872 0.580009 0.941949
O O1 0.986796 0.859774 0.116556
O O2 0.959953 0.760586 0.133650
O O3 0.924002 0.812871 0.916707
O O4 0.145248 0.797313 0.926943
O O5 0.881684 0.928434 0.320100
O O6 0.614575 0.806634 0.657579
O O7 0.131551 0.436919 0.110551
O O8 0.163808 0.397461 0.355359
O O9 0.000000 0.361306 0.250000
O O10 0.222554 0.342859 0.111007
O O11 0.765159 0.666679 0.165579
O O12 0.750000 0.750000 0.000000
O O13 0.500000 0.983290 0.750000
O O14 0.294216 0.974000 0.981709
O O15 0.500000 0.000000 0.000000
O O16 0.751376 0.884573 0.580798
#
# Coordination Sequence:
#
# PCOD8144457 Si02
#       8
#     8   4   4   8   8   8   8   8
#     4  10  21  43  62  82 134 179 223 268 336 389
#     4   9  20  42  66  92 124 184 220 261 326 404
#     4  11  22  38  60  96 126 168 226 281 336 404
#     4  11  25  43  68 100 135 176 218 280 346 402
#     4  12  25  43  63  97 136 176 228 281 329 404
#     4  11  23  43  72 104 137 173 218 285 352 406
#     4  11  26  37  66  97 127 173 227 284 331 405
#     4  11  23  43  71  95 135 177 223 274 335 416
#
# _framework density 20.277539999999998
#
# number of rings (size 3 to 8) (size 9 to 14) (size 15 to 20)
#    0.000    1.143    5.714    0.857    5.000    2.286 
#    0.000    0.714    3.143    0.000    0.000    0.000 
#    0.000    0.000    0.000    0.000    0.000    0.000 
#
# Total GULP energy -347088.795889 kJ/mol
# GULP energy per Si atom -12396.028425 kJ/mol
# Density = 2.023139 g / cm^3
# Si number density = 20.277540 Si / 1000 Ang^3
#
#
#
# Elastic Constant Matrix: (Units=GPa)
#
#
# Indices 1 2 3 4 5 6 
#
# 1 142.0276 40.3354 37.1211 0.0000 -15.9786 0.0000
# 2 40.3354 85.6253 35.6356 0.0000 -12.1698 0.0000
# 3 37.1211 35.6356 92.6829 0.0000 -0.4166 0.0000
# 4 0.0000 0.0000 0.0000 21.2032 0.0000 -9.4695
# 5 -15.9786 -12.1698 -0.4166 0.0000 54.5831 0.0000
# 6 0.0000 0.0000 0.0000 -9.4695 0.0000 22.7526
#
#
#
# Elastic Compliance Matrix: (Units=1/GPa)
#
#
# Indices 1 2 3 4 5 6 
#
# 1 0.008679 -0.002829 -0.002380 0.000000 0.001892 0.000000
# 2 -0.002829 0.015356 -0.004760 0.000000 0.002559 0.000000
# 3 -0.002380 -0.004760 0.013565 0.000000 -0.001654 0.000000
# 4 0.000000 0.000000 0.000000 0.057931 0.000000 0.024111
# 5 0.001892 0.002559 -0.001654 0.000000 0.019432 0.000000
# 6 0.000000 0.000000 0.000000 0.024111 0.000000 0.053986
#
#
# Mechanical properties :
#
#
# Convention : Reuss Voigt Hill
#
# Bulk Modulus (GPa) = 56.61480 60.72444 58.66962
# Shear Modulus (GPa) = 25.67069 33.52401 29.59735
#
# Velocity S-wave (km/s) = 3.56190 4.07044 3.82463
# Velocity P-wave (km/s) = 6.70050 7.21824 6.96418
#
# Compressibility (1/GPa) = 0.01766322
#
# Stress axis : x y z
#
# Youngs Moduli (GPa) = 115.21787 65.12051 73.71768
#
# Poissons Ratio (x) = 0.18424 0.17544
# Poissons Ratio (y) = 0.32597 0.35087
# Poissons Ratio (z) = 0.27421 0.30995
#
# Static dielectric constant tensor:
#      x y z
#    x 3.922110 0.000000 -0.043990 
#    y 0.000000 4.135680 0.000000 
#    z -0.043990 0.000000 3.745600 
# 
# 
# High freq. dielectric constant tensor:
#      x y z
#    x 1.810860 0.000000 0.000400 
#    y 0.000000 1.768820 0.000000 
#    z 0.000400 0.000000 1.797840 
# 
# From -- ./inp_files/35171.got.cif
#   From: 2010.06.25/outbox.cif.g09.slc.cpg/sg15_18_cif.got.tgz:35171.got - 2010.06.28 07:06:18.
