data_PCOD8144154
_publ_section_title
;
Structure prediction by ZEFSAII (Michael W. Deem and Ramdas Pophale) SiO2 
 PCOD8144154
Probable space group: C 2/C
;
_chemical_formula_sum "Si O2"
_cell_formula_units_Z 60
_cell_length_a 15.659780
_cell_length_b 12.655681
_cell_length_c 15.320360
_cell_angle_alpha 90.000000
_cell_angle_beta 78.874265
_cell_angle_gamma 90.000000
_cell_volume 2979.204959
_symmetry_space_group_name_H-M "C 2/C"
_symmetry_group_IT_number 15
_symmetry_cell_setting 'monoclinic'
loop_
_space_group_symop_operation_xyz
x,y,z
-x,y,1/2-z
-x,-y,-z
x,-y,1/2+z
1/2+x,1/2+y,z
1/2-x,1/2+y,1/2-z
1/2-x,1/2-y,-z
1/2+x,1/2-y,1/2+z
loop_
_atom_site_type_symbol
_atom_site_label
_atom_site_fract_x
_atom_site_fract_y
_atom_site_fract_z
Si Si1 0.709367 0.139797 0.983047
Si Si2 0.605695 0.236869 0.854619
Si Si3 0.326583 0.394592 0.117309
Si Si4 0.000000 0.402468 0.250000
Si Si5 0.263239 0.187809 0.206583
Si Si6 0.831516 0.952057 0.917154
Si Si7 0.977728 0.038959 0.099762
Si Si8 0.836378 0.464902 0.829834
O O1 0.634848 0.160148 0.926968
O O2 0.786656 0.066435 0.930738
O O3 0.750000 0.250000 0.000000
O O4 0.664802 0.088248 0.075494
O O5 0.531200 0.173592 0.820434
O O6 0.687610 0.258662 0.777205
O O7 0.565775 0.345900 0.897591
O O8 0.325360 0.274619 0.149967
O O9 0.406105 0.456121 0.149850
O O10 0.239133 0.450005 0.166454
O O11 0.333722 0.395981 0.011074
O O12 0.073108 0.476748 0.196229
O O13 0.221818 0.118683 0.138606
O O14 0.326541 0.120826 0.255587
O O15 0.932010 0.961972 0.862810
O O16 0.000000 0.000000 0.000000
#
# Coordination Sequence:
#
# PCOD8144154 Si02
#       8
#     8   8   8   4   8   8   8   8
#     4  11  22  45  70  92 129 182 212 257 346 393
#     4  12  23  42  72  90 130 182 213 264 336 391
#     4  10  21  42  64  91 135 170 211 276 325 392
#     4  12  26  44  64 102 132 166 228 278 310 384
#     4  12  22  41  68  93 129 175 217 268 336 382
#     4  10  23  39  68  97 126 166 224 267 325 396
#     4  10  21  42  63  97 127 160 215 277 313 387
#     4  11  24  43  64  93 135 167 221 273 314 397
#
# _framework density 20.139602
#
# number of rings (size 3 to 8) (size 9 to 14) (size 15 to 20)
#    0.000    1.067    4.000    3.600    0.000    0.533 
#    9.600    0.000    0.000    0.000    0.000    0.000 
#    0.000    0.000    0.000    0.000    0.000    0.000 
#
# Total GULP energy -372067.792946 kJ/mol
# GULP energy per Si atom -12402.259765 kJ/mol
# Density = 2.009376 g / cm^3
# Si number density = 20.139602 Si / 1000 Ang^3
#
#
#
# Elastic Constant Matrix: (Units=GPa)
#
#
# Indices 1 2 3 4 5 6 
#
# 1 110.3121 47.8532 35.7857 0.0000 9.8642 0.0000
# 2 47.8532 103.4082 46.5811 0.0000 15.6902 0.0000
# 3 35.7857 46.5811 68.0099 0.0000 12.9993 0.0000
# 4 0.0000 0.0000 0.0000 30.0036 0.0000 -0.2007
# 5 9.8642 15.6902 12.9993 0.0000 31.5820 0.0000
# 6 0.0000 0.0000 0.0000 -0.2007 0.0000 47.8111
#
#
#
# Elastic Compliance Matrix: (Units=1/GPa)
#
#
# Indices 1 2 3 4 5 6 
#
# 1 0.011928 -0.003862 -0.003566 0.000000 -0.000339 0.000000
# 2 -0.003862 0.015552 -0.008003 0.000000 -0.003226 0.000000
# 3 -0.003566 -0.008003 0.022890 0.000000 -0.004332 0.000000
# 4 0.000000 0.000000 0.000000 0.033330 0.000000 0.000140
# 5 -0.000339 -0.003226 -0.004332 0.000000 0.035155 0.000000
# 6 0.000000 0.000000 0.000000 0.000140 0.000000 0.020916
#
#
# Mechanical properties :
#
#
# Convention : Reuss Voigt Hill
#
# Bulk Modulus (GPa) = 51.26419 60.24113 55.75266
# Shear Modulus (GPa) = 28.22685 31.98001 30.10343
#
# Velocity S-wave (km/s) = 3.74780 3.98919 3.87038
# Velocity P-wave (km/s) = 6.65114 7.15506 6.90770
#
# Compressibility (1/GPa) = 0.01950679
#
# Stress axis : x y z
#
# Youngs Moduli (GPa) = 83.83878 64.29997 43.68749
#
# Poissons Ratio (x) = 0.24831 0.15581
# Poissons Ratio (y) = 0.32376 0.34964
# Poissons Ratio (z) = 0.29900 0.51461
#
# Static dielectric constant tensor:
#      x y z
#    x 3.876850 0.000000 -0.187810 
#    y 0.000000 4.112430 0.000000 
#    z -0.187810 0.000000 3.355520 
# 
# 
# High freq. dielectric constant tensor:
#      x y z
#    x 1.791590 0.000000 0.003030 
#    y 0.000000 1.798860 0.000000 
#    z 0.003030 0.000000 1.787580 
# 
# From -- ./inp_files/161309.got.cif
#   From: 2010.06.25/outbox.cif.g09.slc.cpg/sg15_81_cif.got.tgz:161309.got - 2010.06.28 07:06:18.
