data_PCOD8144408
_publ_section_title
;
Structure prediction by ZEFSAII (Michael W. Deem and Ramdas Pophale) SiO2 
 PCOD8144408
Probable space group: C 2/C
;
_chemical_formula_sum "Si O2"
_cell_formula_units_Z 40
_cell_length_a 11.358606
_cell_length_b 15.094204
_cell_length_c 11.349445
_cell_angle_alpha 90.000000
_cell_angle_beta 68.805092
_cell_angle_gamma 90.000000
_cell_volume 1814.226955
_symmetry_space_group_name_H-M "C 2/C"
_symmetry_group_IT_number 15
_symmetry_cell_setting 'monoclinic'
loop_
_space_group_symop_operation_xyz
x,y,z
-x,y,1/2-z
-x,-y,-z
x,-y,1/2+z
1/2+x,1/2+y,z
1/2-x,1/2+y,1/2-z
1/2-x,1/2-y,-z
1/2+x,1/2-y,1/2+z
loop_
_atom_site_type_symbol
_atom_site_label
_atom_site_fract_x
_atom_site_fract_y
_atom_site_fract_z
Si Si1 0.381019 0.271885 0.102376
Si Si2 0.945440 0.409897 0.652024
Si Si3 0.462927 0.442735 0.396954
Si Si4 0.376398 0.162260 0.870852
Si Si5 0.318487 0.984546 0.028636
O O1 0.399726 0.190467 0.185459
O O2 0.481737 0.345936 0.101788
O O3 0.239338 0.307532 0.170271
O O4 0.401050 0.236346 0.962318
O O5 0.064447 0.415202 0.518305
O O6 0.000000 0.451081 0.750000
O O7 0.827410 0.471977 0.656175
O O8 0.500000 0.478657 0.250000
O O9 0.500000 0.500000 0.500000
O O10 0.311390 0.435001 0.449515
O O11 0.500000 0.153686 0.750000
O O12 0.336863 0.067742 0.935920
#
# Coordination Sequence:
#
# PCOD8144408 Si02
#       5
#     8   8   8   8   8
#     4  10  23  42  63 105 132 178 230 284 346 411
#     4  10  22  40  65  94 135 173 227 286 341 413
#     4  12  27  45  71 102 143 182 234 295 347 411
#     4  10  21  42  70  96 141 183 228 279 346 419
#     4  10  23  42  66  98 130 184 232 275 347 413
#
# _framework density 22.047958000000001
#
# number of rings (size 3 to 8) (size 9 to 14) (size 15 to 20)
#    0.000    1.600    2.000    1.200    2.800    8.000 
#    0.000    0.000    0.000    0.000    0.000    0.000 
#    0.000    0.000    0.000    0.000    0.000    0.000 
#
# Total GULP energy -247774.247487 kJ/mol
# GULP energy per Si atom -12388.712374 kJ/mol
# Density = 2.199778 g / cm^3
# Si number density = 22.047958 Si / 1000 Ang^3
#
#
#
# Elastic Constant Matrix: (Units=GPa)
#
#
# Indices 1 2 3 4 5 6 
#
# 1 170.4717 55.1931 31.2488 0.0000 2.2731 0.0000
# 2 55.1931 94.0545 16.4615 0.0000 4.9944 0.0000
# 3 31.2488 16.4615 83.8505 0.0000 10.7072 0.0000
# 4 0.0000 0.0000 0.0000 7.3419 0.0000 -2.2537
# 5 2.2731 4.9944 10.7072 0.0000 37.1552 0.0000
# 6 0.0000 0.0000 0.0000 -2.2537 0.0000 41.0703
#
#
#
# Elastic Compliance Matrix: (Units=1/GPa)
#
#
# Indices 1 2 3 4 5 6 
#
# 1 0.007574 -0.004113 -0.002104 0.000000 0.000696 0.000000
# 2 -0.004113 0.013273 -0.000911 0.000000 -0.001270 0.000000
# 3 -0.002104 -0.000911 0.013348 0.000000 -0.003595 0.000000
# 4 0.000000 0.000000 0.000000 0.138538 0.000000 0.007602
# 5 0.000696 -0.001270 -0.003595 0.000000 0.028078 0.000000
# 6 0.000000 0.000000 0.000000 0.007602 0.000000 0.024766
#
#
# Mechanical properties :
#
#
# Convention : Reuss Voigt Hill
#
# Bulk Modulus (GPa) = 50.15303 61.57594 55.86449
# Shear Modulus (GPa) = 20.28569 33.47837 26.88203
#
# Velocity S-wave (km/s) = 3.03656 3.90094 3.49557
# Velocity P-wave (km/s) = 5.92376 6.94828 6.45637
#
# Compressibility (1/GPa) = 0.01993897
#
# Stress axis : x y z
#
# Youngs Moduli (GPa) = 132.02579 75.34208 74.91769
#
# Poissons Ratio (x) = 0.30992 0.15763
# Poissons Ratio (y) = 0.54308 0.06822
# Poissons Ratio (z) = 0.27779 0.06860
#
# Static dielectric constant tensor:
#      x y z
#    x 4.342690 0.000000 0.327970 
#    y 0.000000 3.953560 0.000000 
#    z 0.327970 0.000000 4.149150 
# 
# 
# High freq. dielectric constant tensor:
#      x y z
#    x 1.891600 0.000000 0.021570 
#    y 0.000000 1.866280 0.000000 
#    z 0.021570 0.000000 1.849750 
# 
# From -- ./inp_files/85978.got.cif
#   From: 2010.06.25/outbox.cif.g09.slc.cpg/sg15_43_cif.got.tgz:85978.got - 2010.06.28 07:06:18.
