data_PCOD8144864
_publ_section_title
;
Structure prediction by ZEFSAII (Michael W. Deem and Ramdas Pophale) SiO2 
 PCOD8144864
Probable space group: C 2/C
;
_chemical_formula_sum "Si O2"
_cell_formula_units_Z 40
_cell_length_a 23.542821
_cell_length_b 6.809903
_cell_length_c 16.836955
_cell_angle_alpha 90.000000
_cell_angle_beta 135.281929
_cell_angle_gamma 90.000000
_cell_volume 1899.330075
_symmetry_space_group_name_H-M "C 2/C"
_symmetry_group_IT_number 15
_symmetry_cell_setting 'monoclinic'
loop_
_space_group_symop_operation_xyz
x,y,z
-x,y,1/2-z
-x,-y,-z
x,-y,1/2+z
1/2+x,1/2+y,z
1/2-x,1/2+y,1/2-z
1/2-x,1/2-y,-z
1/2+x,1/2-y,1/2+z
loop_
_atom_site_type_symbol
_atom_site_label
_atom_site_fract_x
_atom_site_fract_y
_atom_site_fract_z
Si Si1 0.448126 0.862053 0.775966
Si Si2 0.804523 0.936585 0.121488
Si Si3 0.653240 0.176020 0.747252
Si Si4 0.945141 0.841607 0.991061
Si Si5 0.707025 0.422787 0.567098
O O1 0.500000 0.894034 0.750000
O O2 0.384277 0.693571 0.694636
O O3 0.406651 0.071278 0.750572
O O4 0.499342 0.803867 0.903781
O O5 0.730709 0.807932 0.083653
O O6 0.818325 0.114978 0.193478
O O7 0.785461 0.015391 0.013867
O O8 0.607715 0.206059 0.619334
O O9 0.731694 0.037590 0.813379
O O10 0.882884 0.951598 0.988188
O O11 0.000000 0.000000 0.000000
#
# Coordination Sequence:
#
# PCOD8144864 Si02
#       5
#     8   8   8   8   8
#     4  11  23  44  67  95 133 173 215 274 326 388
#     4  10  21  46  67  92 130 171 227 266 321 394
#     4  11  25  41  67  99 129 171 222 265 331 395
#     4  12  25  43  66  98 137 170 211 278 336 390
#     4  10  24  42  68  93 130 177 216 274 323 390
#
# _framework density 21.060057
#
# number of rings (size 3 to 8) (size 9 to 14) (size 15 to 20)
#    0.000    1.200    4.000    1.200    2.800    2.400 
#    3.600    0.000    0.000    0.000    0.000    0.000 
#    0.000    0.000    0.000    0.000    0.000    0.000 
#
# Total GULP energy -248062.048494 kJ/mol
# GULP energy per Si atom -12403.102425 kJ/mol
# Density = 2.101212 g / cm^3
# Si number density = 21.060057 Si / 1000 Ang^3
#
#
#
# Elastic Constant Matrix: (Units=GPa)
#
#
# Indices 1 2 3 4 5 6 
#
# 1 107.8032 28.7970 17.3241 0.0000 14.6727 0.0001
# 2 28.7970 65.2881 19.1928 0.0000 -4.1782 0.0004
# 3 17.3241 19.1928 113.1246 0.0000 -6.6779 0.0001
# 4 0.0000 0.0000 0.0000 32.7653 0.0000 -21.3678
# 5 14.6727 -4.1782 -6.6779 0.0000 36.0039 0.0000
# 6 0.0001 0.0004 0.0001 -21.3678 0.0000 -32.8035
#
#
#
# Elastic Compliance Matrix: (Units=1/GPa)
#
#
# Indices 1 2 3 4 5 6 
#
# 1 0.011594 -0.005105 -0.001237 0.000000 -0.005547 0.000000
# 2 -0.005105 0.018437 -0.002120 0.000000 0.003827 0.000000
# 3 -0.001237 -0.002120 0.009508 0.000000 0.002022 0.000000
# 4 0.000000 0.000000 0.000000 0.021421 0.000000 -0.013953
# 5 -0.005547 0.003827 0.002022 0.000000 0.030854 0.000000
# 6 0.000000 0.000000 0.000000 -0.013953 0.000000 -0.021396
#
#
# Mechanical properties :
#
#
# Convention : Reuss Voigt Hill
#
# Bulk Modulus (GPa) = 44.21977 46.31597 45.26787
# Shear Modulus (GPa) = 52.69832 21.91994 37.30913
#
# Velocity S-wave (km/s) = 5.00771 3.22969 4.21356
# Velocity P-wave (km/s) = 7.38098 5.99566 6.72409
#
# Compressibility (1/GPa) = 0.02261432
#
# Stress axis : x y z
#
# Youngs Moduli (GPa) = 86.25522 54.23986 105.17160
#
# Poissons Ratio (x) = 0.27689 0.13007
# Poissons Ratio (y) = 0.44033 0.22299
# Poissons Ratio (z) = 0.10668 0.11500
#
# Static dielectric constant tensor:
#      x y z
#    x 3.725840 0.000000 0.076300 
#    y 0.000000 3.677370 0.000000 
#    z 0.076300 0.000000 4.202960 
# 
# 
# High freq. dielectric constant tensor:
#      x y z
#    x 1.822550 0.000000 0.002080 
#    y 0.000000 1.814330 0.000000 
#    z 0.002080 0.000000 1.850740 
# 
# From -- ./inp_files/256650.got.cif
#   From: 2010.06.25/outbox.cif.g09.slc.cpg/sg15_129_cif.got.tgz:256650.got - 2010.06.28 07:06:18.
