data_PCOD8144863
_publ_section_title
;
Structure prediction by ZEFSAII (Michael W. Deem and Ramdas Pophale) SiO2 
 PCOD8144863
Probable space group: C 2/C
;
_chemical_formula_sum "Si O2"
_cell_formula_units_Z 40
_cell_length_a 23.263486
_cell_length_b 5.766793
_cell_length_c 13.549085
_cell_angle_alpha 90.000000
_cell_angle_beta 73.605714
_cell_angle_gamma 90.000000
_cell_volume 1743.783803
_symmetry_space_group_name_H-M "C 2/C"
_symmetry_group_IT_number 15
_symmetry_cell_setting 'monoclinic'
loop_
_space_group_symop_operation_xyz
x,y,z
-x,y,1/2-z
-x,-y,-z
x,-y,1/2+z
1/2+x,1/2+y,z
1/2-x,1/2+y,1/2-z
1/2-x,1/2-y,-z
1/2+x,1/2-y,1/2+z
loop_
_atom_site_type_symbol
_atom_site_label
_atom_site_fract_x
_atom_site_fract_y
_atom_site_fract_z
Si Si1 0.252777 0.001656 0.555293
Si Si2 0.065805 0.958134 0.078557
Si Si3 0.550310 0.761708 0.905560
Si Si4 0.636136 0.526773 0.233319
Si Si5 0.868639 0.353656 0.093045
O O1 0.250000 0.250000 0.500000
O O2 0.200359 0.037271 0.659452
O O3 0.315682 0.978620 0.582747
O O4 0.250000 0.750000 0.500000
O O5 0.088945 0.074405 0.167926
O O6 0.010741 0.779001 0.126780
O O7 0.122002 0.834081 0.998203
O O8 0.041071 0.154313 0.018514
O O9 0.608187 0.669066 0.817482
O O10 0.566398 0.026846 0.921131
O O11 0.647938 0.753163 0.292454
#
# Coordination Sequence:
#
# PCOD8144863 Si02
#       5
#     8   8   8   8   8
#     4  12  28  48  76 105 148 199 247 309 373 441
#     4  10  21  46  67 101 144 184 238 300 374 437
#     4  10  23  41  71 102 139 187 240 303 362 453
#     4  11  25  42  69 104 143 187 243 305 370 436
#     4  11  25  42  72 106 142 191 246 304 372 447
#
# _framework density 22.938624999999998
#
# number of rings (size 3 to 8) (size 9 to 14) (size 15 to 20)
#    0.000    1.200    2.000    2.400    8.400    1.600 
#    0.000    8.000    0.000    0.000    0.000    0.000 
#    0.000    0.000    0.000    0.000    0.000    0.000 
#
# Total GULP energy -247788.784856 kJ/mol
# GULP energy per Si atom -12389.439243 kJ/mol
# Density = 2.288642 g / cm^3
# Si number density = 22.938625 Si / 1000 Ang^3
#
#
#
# Elastic Constant Matrix: (Units=GPa)
#
#
# Indices 1 2 3 4 5 6 
#
# 1 125.6092 30.3359 40.8771 0.0000 11.3790 0.0000
# 2 30.3359 104.3697 47.7706 0.0000 8.1783 0.0000
# 3 40.8771 47.7706 114.7455 0.0000 10.6036 0.0000
# 4 0.0000 0.0000 0.0000 35.9963 0.0000 4.3432
# 5 11.3790 8.1783 10.6036 0.0000 40.2586 0.0000
# 6 0.0000 0.0000 0.0000 4.3432 0.0000 40.4796
#
#
#
# Elastic Compliance Matrix: (Units=1/GPa)
#
#
# Indices 1 2 3 4 5 6 
#
# 1 0.009286 -0.001390 -0.002576 0.000000 -0.001664 0.000000
# 2 -0.001390 0.012096 -0.004458 0.000000 -0.000890 0.000000
# 3 -0.002576 -0.004458 0.011620 0.000000 -0.001427 0.000000
# 4 0.000000 0.000000 0.000000 0.028145 0.000000 -0.003020
# 5 -0.001664 -0.000890 -0.001427 0.000000 0.025866 0.000000
# 6 0.000000 0.000000 0.000000 -0.003020 0.000000 0.025028
#
#
# Mechanical properties :
#
#
# Convention : Reuss Voigt Hill
#
# Bulk Modulus (GPa) = 61.90232 64.74350 63.32291
# Shear Modulus (GPa) = 37.23755 38.39628 37.81692
#
# Velocity S-wave (km/s) = 4.03346 4.09573 4.06472
# Velocity P-wave (km/s) = 6.98114 7.11707 7.04943
#
# Compressibility (1/GPa) = 0.01615448
#
# Stress axis : x y z
#
# Youngs Moduli (GPa) = 107.69185 82.67484 86.05536
#
# Poissons Ratio (x) = 0.11489 0.22165
# Poissons Ratio (y) = 0.14966 0.38366
# Poissons Ratio (z) = 0.27738 0.36859
#
# Static dielectric constant tensor:
#      x y z
#    x 4.289200 0.000000 -0.057590 
#    y 0.000000 4.052990 0.000000 
#    z -0.057590 0.000000 4.141460 
# 
# 
# High freq. dielectric constant tensor:
#      x y z
#    x 1.923680 0.000000 -0.005890 
#    y 0.000000 1.890830 0.000000 
#    z -0.005890 0.000000 1.910590 
# 
# From -- ./inp_files/120705.got.cif
#   From: 2010.06.25/outbox.cif.g09.slc.cpg/sg15_61_cif.got.tgz:120705.got - 2010.06.28 07:06:18.
