data_PCOD8144264
_publ_section_title
;
Structure prediction by ZEFSAII (Michael W. Deem and Ramdas Pophale) SiO2 
 PCOD8144264
Probable space group: C 2/C
;
_chemical_formula_sum "Si O2"
_cell_formula_units_Z 40
_cell_length_a 22.580223
_cell_length_b 14.778548
_cell_length_c 9.515532
_cell_angle_alpha 90.000000
_cell_angle_beta 35.381693
_cell_angle_gamma 90.000000
_cell_volume 1838.599568
_symmetry_space_group_name_H-M "C 2/C"
_symmetry_group_IT_number 15
_symmetry_cell_setting 'monoclinic'
loop_
_space_group_symop_operation_xyz
x,y,z
-x,y,1/2-z
-x,-y,-z
x,-y,1/2+z
1/2+x,1/2+y,z
1/2-x,1/2+y,1/2-z
1/2-x,1/2-y,-z
1/2+x,1/2-y,1/2+z
loop_
_atom_site_type_symbol
_atom_site_label
_atom_site_fract_x
_atom_site_fract_y
_atom_site_fract_z
Si Si1 0.264977 0.324231 0.092909
Si Si2 0.621056 0.038932 0.995500
Si Si3 0.537765 0.424527 0.824644
Si Si4 0.869373 0.208585 0.684037
Si Si5 0.692487 0.897428 0.641438
O O1 0.156607 0.371738 0.339779
O O2 0.312957 0.281662 0.141780
O O3 0.250000 0.250000 0.000000
O O4 0.341108 0.405598 0.896179
O O5 0.500000 0.036234 0.250000
O O6 0.669687 0.036762 0.055766
O O7 0.666041 0.949097 0.835762
O O8 0.500000 0.463518 0.750000
O O9 0.500000 0.500000 0.000000
O O10 0.483919 0.327475 0.952076
O O11 0.878498 0.307919 0.732720
O O12 0.808993 0.139192 0.905061
#
# Coordination Sequence:
#
# PCOD8144264 Si02
#       5
#     8   8   8   8   8
#     4  10  23  40  63  95 125 169 217 267 324 390
#     4  11  24  39  61  91 127 164 217 258 324 387
#     4  10  21  42  66  95 125 167 216 268 324 387
#     4   9  21  42  65  90 131 167 210 263 329 382
#     4  10  22  41  62  91 125 167 210 264 318 388
#
# _framework density 21.755690000000001
#
# number of rings (size 3 to 8) (size 9 to 14) (size 15 to 20)
#    0.000    2.000    0.000    1.800    5.600    2.400 
#   10.800    0.000    0.000    0.000    0.000    0.000 
#    0.000    0.000    0.000    0.000    0.000    0.000 
#
# Total GULP energy -247916.116674 kJ/mol
# GULP energy per Si atom -12395.805834 kJ/mol
# Density = 2.170617 g / cm^3
# Si number density = 21.755690 Si / 1000 Ang^3
#
#
#
# Elastic Constant Matrix: (Units=GPa)
#
#
# Indices 1 2 3 4 5 6 
#
# 1 64.2201 42.0602 45.1758 0.0000 4.9652 0.0000
# 2 42.0602 90.4427 57.4828 0.0000 14.9350 0.0000
# 3 45.1758 57.4828 134.8234 0.0000 9.1798 0.0000
# 4 0.0000 0.0000 0.0000 60.3782 0.0000 15.1045
# 5 4.9652 14.9350 9.1798 0.0000 28.6613 0.0000
# 6 0.0000 0.0000 0.0000 15.1045 0.0000 14.8848
#
#
#
# Elastic Compliance Matrix: (Units=1/GPa)
#
#
# Indices 1 2 3 4 5 6 
#
# 1 0.024356 -0.008721 -0.004565 0.000000 0.001787 0.000000
# 2 -0.008721 0.019356 -0.004852 0.000000 -0.007021 0.000000
# 3 -0.004565 -0.004852 0.011030 0.000000 -0.000214 0.000000
# 4 0.000000 0.000000 0.000000 0.022197 0.000000 -0.022525
# 5 0.001787 -0.007021 -0.000214 0.000000 0.038308 0.000000
# 6 0.000000 0.000000 0.000000 -0.022525 0.000000 0.090040
#
#
# Mechanical properties :
#
#
# Convention : Reuss Voigt Hill
#
# Bulk Modulus (GPa) = 54.15240 64.32488 59.23864
# Shear Modulus (GPa) = 20.18434 30.43599 25.31017
#
# Velocity S-wave (km/s) = 3.04924 3.74437 3.41454
# Velocity P-wave (km/s) = 6.11084 6.95160 6.54474
#
# Compressibility (1/GPa) = 0.01846640
#
# Stress axis : x y z
#
# Youngs Moduli (GPa) = 41.05821 51.66468 90.66240
#
# Poissons Ratio (x) = 0.45054 0.41384
# Poissons Ratio (y) = 0.35805 0.43992
# Poissons Ratio (z) = 0.18741 0.25069
#
# Static dielectric constant tensor:
#      x y z
#    x 3.445140 0.000000 -0.003670 
#    y 0.000000 3.798220 0.000000 
#    z -0.003670 0.000000 4.434370 
# 
# 
# High freq. dielectric constant tensor:
#      x y z
#    x 1.826580 0.000000 0.006350 
#    y 0.000000 1.852540 0.000000 
#    z 0.006350 0.000000 1.882350 
# 
# From -- ./inp_files/61359.got.cif
#   From: 2010.06.25/outbox.cif.g09.slc.cpg/sg15_31_cif.got.tgz:61359.got - 2010.06.28 07:06:18.
