data_PCOD8144329
_publ_section_title
;
Structure prediction by ZEFSAII (Michael W. Deem and Ramdas Pophale) SiO2 
 PCOD8144329
Probable space group: C 2/C
;
_chemical_formula_sum "Si O2"
_cell_formula_units_Z 40
_cell_length_a 7.268012
_cell_length_b 21.817287
_cell_length_c 14.843749
_cell_angle_alpha 90.000000
_cell_angle_beta 49.868786
_cell_angle_gamma 90.000000
_cell_volume 1799.606073
_symmetry_space_group_name_H-M "C 2/C"
_symmetry_group_IT_number 15
_symmetry_cell_setting 'monoclinic'
loop_
_space_group_symop_operation_xyz
x,y,z
-x,y,1/2-z
-x,-y,-z
x,-y,1/2+z
1/2+x,1/2+y,z
1/2-x,1/2+y,1/2-z
1/2-x,1/2-y,-z
1/2+x,1/2-y,1/2+z
loop_
_atom_site_type_symbol
_atom_site_label
_atom_site_fract_x
_atom_site_fract_y
_atom_site_fract_z
Si Si1 0.683017 0.182895 0.926214
Si Si2 0.500000 0.588463 0.750000
Si Si3 0.168549 0.818841 0.930812
Si Si4 0.334810 0.368670 0.888191
Si Si5 0.000000 0.412159 0.750000
Si Si6 0.469799 0.513384 0.115647
O O1 0.699033 0.250812 0.878442
O O2 0.766133 0.132219 0.828167
O O3 0.875147 0.185609 0.948471
O O4 0.417127 0.165107 0.044062
O O5 0.518976 0.550216 0.835595
O O6 0.397972 0.864997 0.856251
O O7 0.948032 0.847532 0.947118
O O8 0.500000 0.351840 0.750000
O O9 0.321061 0.442733 0.908254
O O10 0.785760 0.454415 0.779679
O O11 0.500000 0.500000 0.000000
#
# Coordination Sequence:
#
# PCOD8144329 Si02
#       6
#     8   4   8   8   4   8
#     4  11  24  42  68  99 139 170 226 291 335 414
#     4  12  25  40  62 102 131 180 224 276 346 396
#     4  10  22  43  67  99 129 175 226 277 352 398
#     4  11  23  43  69  99 128 182 225 273 343 407
#     4  10  21  42  68  88 131 178 214 282 330 404
#     4  11  25  42  63  98 132 181 231 272 339 408
#
# _framework density 22.227086
#
# number of rings (size 3 to 8) (size 9 to 14) (size 15 to 20)
#    0.000    1.200    1.000    6.000    2.800    2.400 
#    0.000    2.000    0.000    0.000    0.000    0.000 
#    0.000    0.000    0.000    0.000    0.000    0.000 
#
# Total GULP energy -247818.621208 kJ/mol
# GULP energy per Si atom -12390.931060 kJ/mol
# Density = 2.217650 g / cm^3
# Si number density = 22.227086 Si / 1000 Ang^3
#
#
#
# Elastic Constant Matrix: (Units=GPa)
#
#
# Indices 1 2 3 4 5 6 
#
# 1 74.2723 20.6773 31.1406 0.0000 0.4406 0.0000
# 2 20.6773 151.6781 39.3331 0.0000 -14.1888 0.0000
# 3 31.1406 39.3331 86.8056 0.0000 -4.8270 0.0000
# 4 0.0000 0.0000 0.0000 33.1605 0.0000 -0.8045
# 5 0.4406 -14.1888 -4.8270 0.0000 36.0220 0.0000
# 6 0.0000 0.0000 0.0000 -0.8045 0.0000 22.7689
#
#
#
# Elastic Compliance Matrix: (Units=1/GPa)
#
#
# Indices 1 2 3 4 5 6 
#
# 1 0.015985 -0.000898 -0.005398 0.000000 -0.001273 0.000000
# 2 -0.000898 0.007753 -0.003043 0.000000 0.002657 0.000000
# 3 -0.005398 -0.003043 0.014883 0.000000 0.000862 0.000000
# 4 0.000000 0.000000 0.000000 0.030182 0.000000 0.001066
# 5 -0.001273 0.002657 0.000862 0.000000 0.028938 0.000000
# 6 0.000000 0.000000 0.000000 0.001066 0.000000 0.043957
#
#
# Mechanical properties :
#
#
# Convention : Reuss Voigt Hill
#
# Bulk Modulus (GPa) = 50.14476 55.00645 52.57560
# Shear Modulus (GPa) = 29.93554 33.16396 31.54975
#
# Velocity S-wave (km/s) = 3.67386 3.86690 3.77162
# Velocity P-wave (km/s) = 6.37225 6.68868 6.53238
#
# Compressibility (1/GPa) = 0.01994226
#
# Stress axis : x y z
#
# Youngs Moduli (GPa) = 62.55892 128.98153 67.18938
#
# Poissons Ratio (x) = 0.11587 0.36270
# Poissons Ratio (y) = 0.05620 0.20446
# Poissons Ratio (z) = 0.33770 0.39249
#
# Static dielectric constant tensor:
#      x y z
#    x 3.855460 0.000000 -0.026010 
#    y 0.000000 4.461620 0.000000 
#    z -0.026010 0.000000 3.855590 
# 
# 
# High freq. dielectric constant tensor:
#      x y z
#    x 1.862740 0.000000 0.013890 
#    y 0.000000 1.900520 0.000000 
#    z 0.013890 0.000000 1.860370 
# 
# From -- ./inp_files/135794.got.cif
#   From: 2010.06.25/outbox.cif.g09.slc.cpg/sg15_68_cif.got.tgz:135794.got - 2010.06.28 07:06:18.
