data_PCOD8144335
_publ_section_title
;
Structure prediction by ZEFSAII (Michael W. Deem and Ramdas Pophale) SiO2 
 PCOD8144335
Probable space group: C 2/C
;
_chemical_formula_sum "Si O2"
_cell_formula_units_Z 48
_cell_length_a 6.800257
_cell_length_b 19.379429
_cell_length_c 23.304326
_cell_angle_alpha 90.000000
_cell_angle_beta 46.615302
_cell_angle_gamma 90.000000
_cell_volume 2231.992639
_symmetry_space_group_name_H-M "C 2/C"
_symmetry_group_IT_number 15
_symmetry_cell_setting 'monoclinic'
loop_
_space_group_symop_operation_xyz
x,y,z
-x,y,1/2-z
-x,-y,-z
x,-y,1/2+z
1/2+x,1/2+y,z
1/2-x,1/2+y,1/2-z
1/2-x,1/2-y,-z
1/2+x,1/2-y,1/2+z
loop_
_atom_site_type_symbol
_atom_site_label
_atom_site_fract_x
_atom_site_fract_y
_atom_site_fract_z
Si Si1 0.616436 0.542153 0.030606
Si Si2 0.316784 0.857077 0.732078
Si Si3 0.000000 0.027420 0.250000
Si Si4 0.749793 0.951003 0.394720
Si Si5 0.933756 0.186082 0.899916
Si Si6 0.221949 0.834313 0.939459
Si Si7 0.500000 0.239652 0.750000
O O1 0.567796 0.496397 0.097369
O O2 0.486840 0.619758 0.057079
O O3 0.500000 0.500000 0.000000
O O4 0.934743 0.551891 0.968797
O O5 0.500000 0.853368 0.750000
O O6 0.481487 0.862046 0.638361
O O7 0.137324 0.925284 0.771183
O O8 0.133150 0.788628 0.771603
O O9 0.219768 0.980130 0.175198
O O10 0.861395 0.873365 0.370056
O O11 0.744128 0.252021 0.921757
O O12 0.259380 0.197124 0.829586
O O13 0.851481 0.156732 0.979221
#
# Coordination Sequence:
#
# PCOD8144335 Si02
#       7
#     8   8   4   8   8   8   4
#     4  11  22  42  66  93 128 169 218 276 319 386
#     4  10  21  43  68  94 123 173 223 266 321 394
#     4  11  24  40  64  94 131 170 214 272 325 388
#     4  11  25  41  64  96 132 170 216 272 333 389
#     4  10  22  44  65  98 131 174 214 273 332 397
#     4  10  21  42  68  92 129 169 222 265 322 391
#     4   9  22  44  64  90 139 164 208 278 329 390
#
# _framework density 21.505448999999999
#
# number of rings (size 3 to 8) (size 9 to 14) (size 15 to 20)
#    0.000    1.667    1.667    2.000    2.333    2.000 
#   22.500    0.000    0.000    0.000    0.000    0.000 
#    0.000    0.000    0.000    0.000    0.000    0.000 
#
# Total GULP energy -297324.654206 kJ/mol
# GULP energy per Si atom -12388.527259 kJ/mol
# Density = 2.145650 g / cm^3
# Si number density = 21.505449 Si / 1000 Ang^3
#
#
#
# Elastic Constant Matrix: (Units=GPa)
#
#
# Indices 1 2 3 4 5 6 
#
# 1 114.2194 52.9794 14.3416 -0.0001 -15.0152 -0.0006
# 2 52.9794 133.3867 34.3873 0.0000 -10.0942 0.0001
# 3 14.3416 34.3873 88.0905 -0.0006 -14.4972 0.0005
# 4 -0.0001 0.0000 -0.0006 30.1647 0.0002 -8.8014
# 5 -15.0152 -10.0942 -14.4972 0.0002 21.2857 0.0001
# 6 -0.0006 0.0001 0.0005 -8.8014 0.0001 24.4158
#
#
#
# Elastic Compliance Matrix: (Units=1/GPa)
#
#
# Indices 1 2 3 4 5 6 
#
# 1 0.011517 -0.004301 0.000907 0.000000 0.006702 0.000000
# 2 -0.004301 0.010015 -0.003296 0.000000 -0.000530 0.000000
# 3 0.000907 -0.003296 0.013897 0.000000 0.008541 0.000000
# 4 0.000000 0.000000 0.000000 0.037048 0.000000 0.013355
# 5 0.006702 -0.000530 0.008541 0.000000 0.057274 0.000000
# 6 0.000000 0.000000 0.000000 0.013355 0.000000 0.045771
#
#
# Mechanical properties :
#
#
# Convention : Reuss Voigt Hill
#
# Bulk Modulus (GPa) = 45.35574 59.90147 52.62861
# Shear Modulus (GPa) = 25.47731 30.77247 28.12489
#
# Velocity S-wave (km/s) = 3.44567 3.78685 3.62028
# Velocity P-wave (km/s) = 6.07999 6.85820 6.48079
#
# Compressibility (1/GPa) = 0.02204792
#
# Stress axis : x y z
#
# Youngs Moduli (GPa) = 86.82563 99.84929 71.95910
#
# Poissons Ratio (x) = 0.42946 -0.06526
# Poissons Ratio (y) = 0.37345 0.23721
# Poissons Ratio (z) = -0.07875 0.32915
#
# Static dielectric constant tensor:
#      x y z
#    x 4.145340 0.000000 0.062090 
#    y 0.000000 4.130700 0.000000 
#    z 0.062090 0.000000 4.132810 
# 
# 
# High freq. dielectric constant tensor:
#      x y z
#    x 1.823490 0.000000 -0.008990 
#    y 0.000000 1.856970 0.000000 
#    z -0.008990 0.000000 1.850290 
# 
# From -- ./inp_files/261307.got.cif
#   From: 2010.06.25/outbox.cif.g09.slc.cpg/sg15_131_cif.got.tgz:261307.got - 2010.06.28 07:06:18.
