data_PCOD8144637
_publ_section_title
;
Structure prediction by ZEFSAII (Michael W. Deem and Ramdas Pophale) SiO2 
 PCOD8144637
Probable space group: C 2/C
;
_chemical_formula_sum "Si O2"
_cell_formula_units_Z 64
_cell_length_a 12.839359
_cell_length_b 14.338656
_cell_length_c 18.633463
_cell_angle_alpha 90.000000
_cell_angle_beta 120.297295
_cell_angle_gamma 90.000000
_cell_volume 2961.877893
_symmetry_space_group_name_H-M "C 2/C"
_symmetry_group_IT_number 15
_symmetry_cell_setting 'monoclinic'
loop_
_space_group_symop_operation_xyz
x,y,z
-x,y,1/2-z
-x,-y,-z
x,-y,1/2+z
1/2+x,1/2+y,z
1/2-x,1/2+y,1/2-z
1/2-x,1/2-y,-z
1/2+x,1/2-y,1/2+z
loop_
_atom_site_type_symbol
_atom_site_label
_atom_site_fract_x
_atom_site_fract_y
_atom_site_fract_z
Si Si1 0.779691 0.492155 0.255931
Si Si2 0.230016 0.280073 0.228925
Si Si3 0.889225 0.263415 0.660311
Si Si4 0.948075 0.111644 0.311904
Si Si5 0.970753 0.444591 0.920190
Si Si6 0.909388 0.927291 0.501347
Si Si7 0.171906 0.538334 0.384072
Si Si8 0.552550 0.736456 0.596460
O O1 0.806911 0.382911 0.261460
O O2 0.638536 0.521344 0.207987
O O3 0.834719 0.538519 0.346253
O O4 0.842272 0.529650 0.206017
O O5 0.290714 0.293281 0.171424
O O6 0.119036 0.207923 0.190276
O O7 0.324924 0.240929 0.318785
O O8 0.815062 0.350110 0.599812
O O9 0.000000 0.298256 0.750000
O O10 0.948723 0.200730 0.616780
O O11 0.000000 0.117294 0.250000
O O12 0.058913 0.098316 0.405654
O O13 0.992602 0.336594 0.947669
O O14 0.051800 0.489052 0.884894
O O15 0.000000 0.500000 0.000000
O O16 0.778256 0.974113 0.452649
O O17 0.919935 0.833791 0.457910
O O18 0.000000 0.000000 0.500000
#
# Coordination Sequence:
#
# PCOD8144637 Si02
#       8
#     8   8   8   8   8   8   8   8
#     4  12  23  45  72  96 135 183 232 280 342 420
#     4  11  21  42  67  99 131 181 232 274 345 412
#     4   9  18  38  70  99 133 175 228 284 338 402
#     4  12  28  46  67 100 145 187 224 283 354 427
#     4  11  26  44  68 100 133 172 239 289 335 405
#     4  12  24  44  68 103 143 175 226 284 356 414
#     4  11  21  43  71  96 129 182 220 281 345 404
#     4  10  21  43  70  97 134 175 224 292 343 401
#
# _framework density 21.607913
#
# number of rings (size 3 to 8) (size 9 to 14) (size 15 to 20)
#    0.000    1.000    5.000    1.875    3.500    3.500 
#    0.000    3.125    0.000    0.000    0.000    0.000 
#    0.000    0.000    0.000    0.000    0.000    0.000 
#
# Total GULP energy -396595.698876 kJ/mol
# GULP energy per Si atom -12393.615590 kJ/mol
# Density = 2.155873 g / cm^3
# Si number density = 21.607913 Si / 1000 Ang^3
#
#
#
# Elastic Constant Matrix: (Units=GPa)
#
#
# Indices 1 2 3 4 5 6 
#
# 1 71.4091 17.9793 19.8741 0.0000 -7.0201 0.0000
# 2 17.9793 81.9991 8.4757 0.0000 10.7998 0.0000
# 3 19.8741 8.4757 98.6892 0.0000 -1.0964 0.0000
# 4 0.0000 0.0000 0.0000 31.4877 0.0000 1.3905
# 5 -7.0201 10.7998 -1.0964 0.0000 27.7077 0.0000
# 6 0.0000 0.0000 0.0000 1.3905 0.0000 26.9509
#
#
#
# Elastic Compliance Matrix: (Units=1/GPa)
#
#
# Indices 1 2 3 4 5 6 
#
# 1 0.016373 -0.004030 -0.002889 0.000000 0.005605 0.000000
# 2 -0.004030 0.013981 -0.000461 0.000000 -0.006489 0.000000
# 3 -0.002889 -0.000461 0.010753 0.000000 -0.000127 0.000000
# 4 0.000000 0.000000 0.000000 0.031831 0.000000 -0.001642
# 5 0.005605 -0.006489 -0.000127 0.000000 0.040035 0.000000
# 6 0.000000 0.000000 0.000000 -0.001642 0.000000 0.037189
#
#
# Mechanical properties :
#
#
# Convention : Reuss Voigt Hill
#
# Bulk Modulus (GPa) = 37.95428 38.30618 38.13023
# Shear Modulus (GPa) = 28.78441 30.94714 29.86578
#
# Velocity S-wave (km/s) = 3.65379 3.78857 3.72179
# Velocity P-wave (km/s) = 5.95007 6.07486 6.01279
#
# Compressibility (1/GPa) = 0.02634749
#
# Stress axis : x y z
#
# Youngs Moduli (GPa) = 61.07454 71.52518 92.99892
#
# Poissons Ratio (x) = 0.28822 0.26867
# Poissons Ratio (y) = 0.24611 0.04290
# Poissons Ratio (z) = 0.17644 0.03300
#
# Static dielectric constant tensor:
#      x y z
#    x 3.810190 0.000000 -0.254700 
#    y 0.000000 3.343750 0.000000 
#    z -0.254700 0.000000 3.803860 
# 
# 
# High freq. dielectric constant tensor:
#      x y z
#    x 1.845960 0.000000 -0.005380 
#    y 0.000000 1.846150 0.000000 
#    z -0.005380 0.000000 1.846950 
# 
# From -- ./inp_files/205437.got.cif
#   From: 2010.06.25/outbox.cif.g09.slc.cpg/sg15_103_cif.got.tgz:205437.got - 2010.06.28 07:06:18.
