data_PCOD8144367
_publ_section_title
;
Structure prediction by ZEFSAII (Michael W. Deem and Ramdas Pophale) SiO2 
 PCOD8144367
Probable space group: C 2/C
;
_chemical_formula_sum "Si O2"
_cell_formula_units_Z 60
_cell_length_a 29.033858
_cell_length_b 20.146840
_cell_length_c 15.563139
_cell_angle_alpha 90.000000
_cell_angle_beta 162.504857
_cell_angle_gamma 90.000000
_cell_volume 2736.742304
_symmetry_space_group_name_H-M "C 2/C"
_symmetry_group_IT_number 15
_symmetry_cell_setting 'monoclinic'
loop_
_space_group_symop_operation_xyz
x,y,z
-x,y,1/2-z
-x,-y,-z
x,-y,1/2+z
1/2+x,1/2+y,z
1/2-x,1/2+y,1/2-z
1/2-x,1/2-y,-z
1/2+x,1/2-y,1/2+z
loop_
_atom_site_type_symbol
_atom_site_label
_atom_site_fract_x
_atom_site_fract_y
_atom_site_fract_z
Si Si1 0.494014 0.338648 0.989961
Si Si2 0.171031 0.383848 0.882921
Si Si3 0.381855 0.288545 0.614610
Si Si4 0.000000 0.171845 0.750000
Si Si5 0.450948 0.223196 0.023278
Si Si6 0.484507 0.992292 0.318037
Si Si7 0.315435 0.140362 0.476274
Si Si8 0.199514 0.392892 0.743696
O O1 0.434060 0.334357 0.786254
O O2 0.364813 0.370705 0.822944
O O3 0.650248 0.381132 0.273827
O O4 0.523679 0.262761 0.071943
O O5 0.108224 0.457653 0.787794
O O6 0.132047 0.365856 0.714107
O O7 0.074814 0.332329 0.770519
O O8 0.500000 0.304204 0.750000
O O9 0.372040 0.209675 0.618871
O O10 0.210988 0.312023 0.284183
O O11 0.919708 0.221308 0.539959
O O12 0.878951 0.121310 0.576191
O O13 0.500000 0.022103 0.250000
O O14 0.654978 0.971759 0.656548
O O15 0.401427 0.920610 0.173615
O O16 0.351388 0.142619 0.436998
#
# Coordination Sequence:
#
# PCOD8144367 Si02
#       8
#     8   8   8   4   8   8   8   8
#     4  11  24  41  65 100 130 173 215 276 333 389
#     4  12  26  40  66  99 138 168 217 273 337 399
#     4  11  24  40  66  95 132 176 218 270 332 392
#     4  12  22  40  68 102 128 170 224 282 332 384
#     4  11  25  38  66  99 136 168 212 273 335 402
#     4  10  25  42  66  91 127 181 221 272 328 393
#     4  10  21  42  69  91 127 175 226 274 314 397
#     4  11  21  42  66  97 129 171 235 269 330 381
#
# _framework density 21.923876
#
# number of rings (size 3 to 8) (size 9 to 14) (size 15 to 20)
#    0.000    1.067    4.000    3.600    8.400    0.533 
#    0.000    0.000    1.467    0.000    0.000    0.000 
#    0.000    0.000    0.000    0.000    0.000    0.000 
#
# Total GULP energy -371689.516245 kJ/mol
# GULP energy per Si atom -12389.650541 kJ/mol
# Density = 2.187398 g / cm^3
# Si number density = 21.923876 Si / 1000 Ang^3
#
#
#
# Elastic Constant Matrix: (Units=GPa)
#
#
# Indices 1 2 3 4 5 6 
#
# 1 105.1689 41.8409 53.4022 0.0000 4.1699 0.0000
# 2 41.8409 76.6037 54.2533 0.0000 16.0102 0.0000
# 3 53.4022 54.2533 107.1265 0.0000 4.8937 0.0000
# 4 0.0000 0.0000 0.0000 29.9609 0.0000 3.2343
# 5 4.1699 16.0102 4.8937 0.0000 35.9763 0.0000
# 6 0.0000 0.0000 0.0000 3.2343 0.0000 21.6991
#
#
#
# Elastic Compliance Matrix: (Units=1/GPa)
#
#
# Indices 1 2 3 4 5 6 
#
# 1 0.013528 -0.004347 -0.004587 0.000000 0.000991 0.000000
# 2 -0.004347 0.024121 -0.009641 0.000000 -0.008919 0.000000
# 3 -0.004587 -0.009641 0.016386 0.000000 0.002593 0.000000
# 4 0.000000 0.000000 0.000000 0.033923 0.000000 -0.005056
# 5 0.000991 -0.008919 0.002593 0.000000 0.031298 0.000000
# 6 0.000000 0.000000 0.000000 -0.005056 0.000000 0.046838
#
#
# Mechanical properties :
#
#
# Convention : Reuss Voigt Hill
#
# Bulk Modulus (GPa) = 59.23065 65.32132 62.27598
# Shear Modulus (GPa) = 23.93791 26.82077 25.37934
#
# Velocity S-wave (km/s) = 3.30792 3.50145 3.40606
# Velocity P-wave (km/s) = 6.45484 6.79751 6.62839
#
# Compressibility (1/GPa) = 0.01688315
#
# Stress axis : x y z
#
# Youngs Moduli (GPa) = 73.92028 41.45746 61.02793
#
# Poissons Ratio (x) = 0.18022 0.27996
# Poissons Ratio (y) = 0.32134 0.58840
# Poissons Ratio (z) = 0.33910 0.39971
#
# Static dielectric constant tensor:
#      x y z
#    x 4.112620 0.000000 0.002720 
#    y 0.000000 3.525180 0.000000 
#    z 0.002720 0.000000 4.263840 
# 
# 
# High freq. dielectric constant tensor:
#      x y z
#    x 1.872070 0.000000 0.005720 
#    y 0.000000 1.820190 0.000000 
#    z 0.005720 0.000000 1.873270 
# 
# From -- ./inp_files/179123.got.cif
#   From: 2010.06.25/outbox.cif.g09.slc.cpg/sg15_90_cif.got.tgz:179123.got - 2010.06.28 07:06:18.
