data_PCOD8144073
_publ_section_title
;
Structure prediction by ZEFSAII (Michael W. Deem and Ramdas Pophale) SiO2 
 PCOD8144073
Probable space group: C 2/C
;
_chemical_formula_sum "Si O2"
_cell_formula_units_Z 40
_cell_length_a 24.177037
_cell_length_b 14.816875
_cell_length_c 14.234253
_cell_angle_alpha 90.000000
_cell_angle_beta 159.076580
_cell_angle_gamma 90.000000
_cell_volume 1820.993270
_symmetry_space_group_name_H-M "C 2/C"
_symmetry_group_IT_number 15
_symmetry_cell_setting 'monoclinic'
loop_
_space_group_symop_operation_xyz
x,y,z
-x,y,1/2-z
-x,-y,-z
x,-y,1/2+z
1/2+x,1/2+y,z
1/2-x,1/2+y,1/2-z
1/2-x,1/2-y,-z
1/2+x,1/2-y,1/2+z
loop_
_atom_site_type_symbol
_atom_site_label
_atom_site_fract_x
_atom_site_fract_y
_atom_site_fract_z
Si Si1 0.410114 0.449908 0.018175
Si Si2 0.110405 0.331292 0.508805
Si Si3 0.837836 0.866697 0.182503
Si Si4 0.453839 0.828900 0.883344
Si Si5 0.266287 0.363787 0.282188
O O1 0.500000 0.405932 0.250000
O O2 0.533476 0.444679 0.127579
O O3 0.258365 0.395333 0.748335
O O4 0.370391 0.552770 0.980796
O O5 0.017202 0.335125 0.459020
O O6 0.160060 0.229017 0.564481
O O7 0.000000 0.365992 0.250000
O O8 0.930436 0.773533 0.311787
O O9 0.756188 0.867307 0.153734
O O10 0.702878 0.882512 0.891573
O O11 0.596038 0.874581 0.055161
#
# Coordination Sequence:
#
# PCOD8144073 Si02
#       5
#     8   8   8   8   8
#     4  12  24  46  69  98 137 178 227 274 333 405
#     4  11  25  45  66  99 138 178 222 277 337 394
#     4  10  21  41  72 102 132 176 227 278 330 402
#     4  10  21  41  72  99 134 177 227 275 332 402
#     4  11  24  42  68 103 134 176 221 280 340 394
#
# _framework density 21.966031999999998
#
# number of rings (size 3 to 8) (size 9 to 14) (size 15 to 20)
#    0.000    1.200    4.000    1.800    0.000    3.200 
#    7.200    0.000    0.000    0.000    0.000    0.000 
#    0.000    0.000    0.000    0.000    0.000    0.000 
#
# Total GULP energy -248031.677855 kJ/mol
# GULP energy per Si atom -12401.583893 kJ/mol
# Density = 2.191604 g / cm^3
# Si number density = 21.966032 Si / 1000 Ang^3
#
#
#
# Elastic Constant Matrix: (Units=GPa)
#
#
# Indices 1 2 3 4 5 6 
#
# 1 110.6923 31.3013 61.6899 0.0000 13.5343 0.0000
# 2 31.3013 95.8219 51.9985 0.0000 13.5069 0.0000
# 3 61.6899 51.9985 149.6494 0.0000 -9.8920 0.0000
# 4 0.0000 0.0000 0.0000 28.1422 0.0000 5.3799
# 5 13.5343 13.5069 -9.8920 0.0000 47.5037 0.0000
# 6 0.0000 0.0000 0.0000 5.3799 0.0000 30.0827
#
#
#
# Elastic Compliance Matrix: (Units=1/GPa)
#
#
# Indices 1 2 3 4 5 6 
#
# 1 0.012744 -0.000622 -0.005339 0.000000 -0.004566 0.000000
# 2 -0.000622 0.013992 -0.004924 0.000000 -0.004827 0.000000
# 3 -0.005339 -0.004924 0.010938 0.000000 0.005199 0.000000
# 4 0.000000 0.000000 0.000000 0.036792 0.000000 -0.006580
# 5 -0.004566 -0.004827 0.005199 0.000000 0.024807 0.000000
# 6 0.000000 0.000000 0.000000 -0.006580 0.000000 0.034418
#
#
# Mechanical properties :
#
#
# Convention : Reuss Voigt Hill
#
# Bulk Modulus (GPa) = 62.88266 71.79366 67.33816
# Shear Modulus (GPa) = 31.10196 35.22400 33.16298
#
# Velocity S-wave (km/s) = 3.76694 4.00880 3.88975
# Velocity P-wave (km/s) = 6.89994 7.36086 7.13412
#
# Compressibility (1/GPa) = 0.01590264
#
# Stress axis : x y z
#
# Youngs Moduli (GPa) = 78.47043 71.47050 91.42553
#
# Poissons Ratio (x) = 0.04446 0.48812
# Poissons Ratio (y) = 0.04881 0.45021
# Poissons Ratio (z) = 0.41895 0.35194
#
# Static dielectric constant tensor:
#      x y z
#    x 3.922980 0.000000 0.045310 
#    y 0.000000 3.878570 0.000000 
#    z 0.045310 0.000000 3.791450 
# 
# 
# High freq. dielectric constant tensor:
#      x y z
#    x 1.873910 0.000000 0.005210 
#    y 0.000000 1.850870 0.000000 
#    z 0.005210 0.000000 1.863080 
# 
# From -- ./inp_files/178495.got.cif
#   From: 2010.06.25/outbox.cif.g09.slc.cpg/sg15_90_cif.got.tgz:178495.got - 2010.06.28 07:06:18.
