data_PCOD8144332
_publ_section_title
;
Structure prediction by ZEFSAII (Michael W. Deem and Ramdas Pophale) SiO2 
 PCOD8144332
Probable space group: C 2/C
;
_chemical_formula_sum "Si O2"
_cell_formula_units_Z 52
_cell_length_a 11.672543
_cell_length_b 8.747831
_cell_length_c 25.337643
_cell_angle_alpha 90.000000
_cell_angle_beta 76.850241
_cell_angle_gamma 90.000000
_cell_volume 2519.372464
_symmetry_space_group_name_H-M "C 2/C"
_symmetry_group_IT_number 15
_symmetry_cell_setting 'monoclinic'
loop_
_space_group_symop_operation_xyz
x,y,z
-x,y,1/2-z
-x,-y,-z
x,-y,1/2+z
1/2+x,1/2+y,z
1/2-x,1/2+y,1/2-z
1/2-x,1/2-y,-z
1/2+x,1/2-y,1/2+z
loop_
_atom_site_type_symbol
_atom_site_label
_atom_site_fract_x
_atom_site_fract_y
_atom_site_fract_z
Si Si1 0.694449 0.192585 0.270228
Si Si2 0.000000 0.474884 0.250000
Si Si3 0.609365 0.712761 0.171093
Si Si4 0.826332 0.899252 0.484351
Si Si5 0.752768 0.818984 0.941747
Si Si6 0.914749 0.910982 0.074553
Si Si7 0.882859 0.978459 0.692982
O O1 0.766064 0.160010 0.316867
O O2 0.648098 0.367275 0.271149
O O3 0.584419 0.078935 0.277077
O O4 0.787879 0.155843 0.213783
O O5 0.074629 0.374616 0.200711
O O6 0.630698 0.726481 0.105394
O O7 0.511401 0.585605 0.195053
O O8 0.750000 0.750000 0.500000
O O9 0.948425 0.873053 0.441855
O O10 0.748838 0.000103 0.451998
O O11 0.859340 0.980727 0.535638
O O12 0.639877 0.758538 0.922407
O O13 0.750000 0.750000 0.000000
O O14 0.877368 0.990715 0.131915
#
# Coordination Sequence:
#
# PCOD8144332 Si02
#       7
#     8   4   8   8   8   8   8
#     4  12  25  44  67 100 131 173 223 273 338 401
#     4  12  26  44  68 100 134 172 230 276 334 406
#     4  12  23  46  66  97 136 179 223 277 340 394
#     4  10  22  42  65  97 127 171 220 267 328 391
#     4  10  21  42  68  91 135 176 214 275 332 386
#     4  10  21  43  64  93 132 169 215 271 325 389
#     4  12  23  45  69  95 138 178 217 281 335 400
#
# _framework density 20.640059000000001
#
# number of rings (size 3 to 8) (size 9 to 14) (size 15 to 20)
#    0.000    0.923    6.154    0.000    2.154    0.615 
#   13.846    0.000    0.000    0.000    0.000    0.000 
#    0.000    0.000    0.000    0.000    0.000    0.000 
#
# Total GULP energy -322178.660452 kJ/mol
# GULP energy per Si atom -12391.486940 kJ/mol
# Density = 2.059308 g / cm^3
# Si number density = 20.640059 Si / 1000 Ang^3
#
#
#
# Elastic Constant Matrix: (Units=GPa)
#
#
# Indices 1 2 3 4 5 6 
#
# 1 118.3251 83.0689 51.2158 0.0000 0.6484 0.0000
# 2 83.0689 136.3893 44.7504 0.0000 -16.3800 0.0000
# 3 51.2158 44.7504 117.8014 0.0000 -31.0852 0.0000
# 4 0.0000 0.0000 0.0000 30.1602 0.0000 -1.4910
# 5 0.6484 -16.3800 -31.0852 0.0000 27.9828 0.0000
# 6 0.0000 0.0000 0.0000 -1.4910 0.0000 44.6597
#
#
#
# Elastic Compliance Matrix: (Units=1/GPa)
#
#
# Indices 1 2 3 4 5 6 
#
# 1 0.020785 -0.011749 -0.009217 0.000000 -0.017598 0.000000
# 2 -0.011749 0.015092 0.002515 0.000000 0.011900 0.000000
# 3 -0.009217 0.002515 0.016956 0.000000 0.020522 0.000000
# 4 0.000000 0.000000 0.000000 0.033211 0.000000 0.001109
# 5 -0.017598 0.011900 0.020522 0.000000 0.065907 0.000000
# 6 0.000000 0.000000 0.000000 0.001109 0.000000 0.022429
#
#
# Mechanical properties :
#
#
# Convention : Reuss Voigt Hill
#
# Bulk Modulus (GPa) = 62.77053 81.17621 71.97337
# Shear Modulus (GPa) = 23.08488 33.45926 28.27207
#
# Velocity S-wave (km/s) = 3.34795 4.03064 3.70505
# Velocity P-wave (km/s) = 6.73966 7.81513 7.29723
#
# Compressibility (1/GPa) = 0.01593104
#
# Stress axis : x y z
#
# Youngs Moduli (GPa) = 48.11055 66.26229 58.97590
#
# Poissons Ratio (x) = 0.77850 0.54361
# Poissons Ratio (y) = 0.56524 -0.14833
# Poissons Ratio (z) = 0.44346 -0.16666
#
# Static dielectric constant tensor:
#      x y z
#    x 4.173270 0.000000 -0.012210 
#    y 0.000000 3.985100 0.000000 
#    z -0.012210 0.000000 4.003790 
# 
# 
# High freq. dielectric constant tensor:
#      x y z
#    x 1.809740 0.000000 -0.010410 
#    y 0.000000 1.802460 0.000000 
#    z -0.010410 0.000000 1.818140 
# 
# From -- ./inp_files/291128.got.cif
#   From: 2010.06.25/outbox.cif.g09.slc.cpg/sg15_146_cif.got.tgz:291128.got - 2010.06.28 07:06:18.
