data_PCOD8144789
_publ_section_title
;
Structure prediction by ZEFSAII (Michael W. Deem and Ramdas Pophale) SiO2 
 PCOD8144789
Probable space group: C 2/C
;
_chemical_formula_sum "Si O2"
_cell_formula_units_Z 32
_cell_length_a 22.742983
_cell_length_b 5.001074
_cell_length_c 11.518689
_cell_angle_alpha 90.000000
_cell_angle_beta 90.878663
_cell_angle_gamma 90.000000
_cell_volume 1309.974041
_symmetry_space_group_name_H-M "C 2/C"
_symmetry_group_IT_number 15
_symmetry_cell_setting 'monoclinic'
loop_
_space_group_symop_operation_xyz
x,y,z
-x,y,1/2-z
-x,-y,-z
x,-y,1/2+z
1/2+x,1/2+y,z
1/2-x,1/2+y,1/2-z
1/2-x,1/2-y,-z
1/2+x,1/2-y,1/2+z
loop_
_atom_site_type_symbol
_atom_site_label
_atom_site_fract_x
_atom_site_fract_y
_atom_site_fract_z
Si Si1 0.508920 0.360735 0.875074
Si Si2 0.130445 0.864776 0.961735
Si Si3 0.212683 0.741132 0.773648
Si Si4 0.110456 0.373301 0.101773
O O1 0.500000 0.520821 0.750000
O O2 0.576105 0.257685 0.879550
O O3 0.459035 0.127755 0.866980
O O4 0.500000 0.500000 0.000000
O O5 0.193521 0.831200 0.901983
O O6 0.129986 0.676121 0.075301
O O7 0.121327 0.175087 0.992747
O O8 0.243636 0.454670 0.782000
O O9 0.151807 0.733163 0.703749
#
# Coordination Sequence:
#
# PCOD8144789 Si02
#       4
#     8   8   8   8
#     4  10  21  44  73 108 140 180 226 286 352 416
#     4  11  24  44  68  99 134 178 223 286 345 412
#     4  12  26  43  66  97 132 182 232 284 336 406
#     4  11  24  44  68  99 134 178 223 286 345 412
#
# _framework density 24.427962000000001
#
# number of rings (size 3 to 8) (size 9 to 14) (size 15 to 20)
#    0.000    1.000    2.500    3.750    0.000    6.000 
#    4.500    2.500    0.000    0.000    0.000    0.000 
#    0.000    0.000    0.000    0.000    0.000    0.000 
#
# Total GULP energy -198216.274958 kJ/mol
# GULP energy per Si atom -12388.517185 kJ/mol
# Density = 2.437236 g / cm^3
# Si number density = 24.427962 Si / 1000 Ang^3
#
#
#
# Elastic Constant Matrix: (Units=GPa)
#
#
# Indices 1 2 3 4 5 6 
#
# 1 99.5274 5.9324 11.1572 0.0000 -10.8379 0.0000
# 2 5.9324 68.6935 4.8875 0.0000 1.9328 0.0000
# 3 11.1572 4.8875 106.8893 0.0000 -12.0527 0.0000
# 4 0.0000 0.0000 0.0000 30.7804 0.0000 -2.4237
# 5 -10.8379 1.9328 -12.0527 0.0000 29.0708 0.0000
# 6 0.0000 0.0000 0.0000 -2.4237 0.0000 22.8867
#
#
#
# Elastic Compliance Matrix: (Units=1/GPa)
#
#
# Indices 1 2 3 4 5 6 
#
# 1 0.010585 -0.000974 -0.000638 0.000000 0.003747 0.000000
# 2 -0.000974 0.014742 -0.000759 0.000000 -0.001658 0.000000
# 3 -0.000638 -0.000759 0.009898 0.000000 0.003917 0.000000
# 4 0.000000 0.000000 0.000000 0.032761 0.000000 0.003469
# 5 0.003747 -0.001658 0.003917 0.000000 0.037529 0.000000
# 6 0.000000 0.000000 0.000000 0.003469 0.000000 0.044061
#
#
# Mechanical properties :
#
#
# Convention : Reuss Voigt Hill
#
# Bulk Modulus (GPa) = 32.80533 35.45159 34.12846
# Shear Modulus (GPa) = 30.39862 33.42314 31.91088
#
# Velocity S-wave (km/s) = 3.53146 3.70298 3.61823
# Velocity P-wave (km/s) = 5.48515 5.72948 5.60864
#
# Compressibility (1/GPa) = 0.03048285
#
# Stress axis : x y z
#
# Youngs Moduli (GPa) = 94.47305 67.83230 101.02645
#
# Poissons Ratio (x) = 0.06608 0.06444
# Poissons Ratio (y) = 0.09203 0.07672
# Poissons Ratio (z) = 0.06026 0.05151
#
# Static dielectric constant tensor:
#      x y z
#    x 4.900440 0.000000 0.053650 
#    y 0.000000 3.878870 0.000000 
#    z 0.053650 0.000000 4.462800 
# 
# 
# High freq. dielectric constant tensor:
#      x y z
#    x 1.997050 0.000000 -0.002270 
#    y 0.000000 1.930470 0.000000 
#    z -0.002270 0.000000 1.974880 
# 
# From -- ./inp_files/109017.got.cif
#   From: 2010.06.25/outbox.cif.g09.slc.cpg/sg15_55_cif.got.tgz:109017.got - 2010.06.28 07:06:18.
