data_PCOD8144596
_publ_section_title
;
Structure prediction by ZEFSAII (Michael W. Deem and Ramdas Pophale) SiO2 
 PCOD8144596
Probable space group: C 2/C
;
_chemical_formula_sum "Si O2"
_cell_formula_units_Z 36
_cell_length_a 13.914008
_cell_length_b 25.693540
_cell_length_c 7.658815
_cell_angle_alpha 90.000000
_cell_angle_beta 146.059225
_cell_angle_gamma 90.000000
_cell_volume 1528.738254
_symmetry_space_group_name_H-M "C 2/C"
_symmetry_group_IT_number 15
_symmetry_cell_setting 'monoclinic'
loop_
_space_group_symop_operation_xyz
x,y,z
-x,y,1/2-z
-x,-y,-z
x,-y,1/2+z
1/2+x,1/2+y,z
1/2-x,1/2+y,1/2-z
1/2-x,1/2-y,-z
1/2+x,1/2-y,1/2+z
loop_
_atom_site_type_symbol
_atom_site_label
_atom_site_fract_x
_atom_site_fract_y
_atom_site_fract_z
Si Si1 0.142751 0.198286 0.322633
Si Si2 0.800525 0.989793 0.725635
Si Si3 0.500000 0.339923 0.250000
Si Si4 0.875376 0.600148 0.722564
Si Si5 0.202678 0.582094 0.398529
O O1 0.250000 0.250000 0.500000
O O2 0.244465 0.147392 0.536541
O O3 0.000000 0.205446 0.250000
O O4 0.073192 0.194450 0.018905
O O5 0.727719 0.953971 0.456651
O O6 0.755303 0.960782 0.833895
O O7 0.715230 0.048093 0.595824
O O8 0.000000 0.000000 0.000000
O O9 0.655758 0.372782 0.399504
O O10 0.000000 0.610862 0.750000
O O11 0.005970 0.601541 0.084899
#
# Coordination Sequence:
#
# PCOD8144596 Si02
#       5
#     8   8   4   8   8
#     4  12  28  51  81 111 140 190 247 312 381 450
#     4  11  19  35  61  99 139 196 243 281 353 424
#     4  12  24  50  78 106 152 194 238 312 380 428
#     4  10  21  43  68  97 152 189 243 308 354 429
#     4  11  22  40  67 101 149 202 240 302 360 435
#
# _framework density 23.548831
#
# number of rings (size 3 to 8) (size 9 to 14) (size 15 to 20)
#    0.000    0.889    6.667    1.333    0.000    4.444 
#    0.000    2.222    0.000    0.000    0.000    0.000 
#    0.000    0.000    0.000    0.000    0.000    0.000 
#
# Total GULP energy -223112.459273 kJ/mol
# GULP energy per Si atom -12395.136626 kJ/mol
# Density = 2.349523 g / cm^3
# Si number density = 23.548831 Si / 1000 Ang^3
#
#
#
# Elastic Constant Matrix: (Units=GPa)
#
#
# Indices 1 2 3 4 5 6 
#
# 1 65.6746 24.1541 33.1532 0.0000 -3.3016 0.0000
# 2 24.1541 130.7477 60.7707 0.0000 9.2825 0.0000
# 3 33.1532 60.7707 160.9638 0.0000 10.0727 0.0000
# 4 0.0000 0.0000 0.0000 64.5171 0.0000 5.9065
# 5 -3.3016 9.2825 10.0727 0.0000 44.6920 0.0000
# 6 0.0000 0.0000 0.0000 5.9065 0.0000 16.2465
#
#
#
# Elastic Compliance Matrix: (Units=1/GPa)
#
#
# Indices 1 2 3 4 5 6 
#
# 1 0.017613 -0.002023 -0.003014 0.000000 0.002401 0.000000
# 2 -0.002023 0.009568 -0.003106 0.000000 -0.001437 0.000000
# 3 -0.003014 -0.003106 0.008094 0.000000 -0.001402 0.000000
# 4 0.000000 0.000000 0.000000 0.016033 0.000000 -0.005829
# 5 0.002401 -0.001437 -0.001402 0.000000 0.023167 0.000000
# 6 0.000000 0.000000 0.000000 -0.005829 0.000000 0.063671
#
#
# Mechanical properties :
#
#
# Convention : Reuss Voigt Hill
#
# Bulk Modulus (GPa) = 52.66397 65.94911 59.30654
# Shear Modulus (GPa) = 31.10215 41.04498 36.07357
#
# Velocity S-wave (km/s) = 3.63816 4.17942 3.91815
# Velocity P-wave (km/s) = 6.32934 7.16632 6.76079
#
# Compressibility (1/GPa) = 0.01898831
#
# Stress axis : x y z
#
# Youngs Moduli (GPa) = 56.77642 104.52027 123.55518
#
# Poissons Ratio (x) = 0.21148 0.37240
# Poissons Ratio (y) = 0.11488 0.38370
# Poissons Ratio (z) = 0.17113 0.32459
#
# Static dielectric constant tensor:
#      x y z
#    x 4.316300 0.000000 0.460810 
#    y 0.000000 4.278050 0.000000 
#    z 0.460810 0.000000 7.915530 
# 
# 
# High freq. dielectric constant tensor:
#      x y z
#    x 1.948680 0.000000 0.000310 
#    y 0.000000 1.919480 0.000000 
#    z 0.000310 0.000000 1.959210 
# 
# From -- ./inp_files/44021.got.cif
#   From: 2010.06.25/outbox.cif.g09.slc.cpg/sg15_23_cif.got.tgz:44021.got - 2010.06.28 07:06:18.
