data_PCOD8144941
_publ_section_title
;
Structure prediction by ZEFSAII (Michael W. Deem and Ramdas Pophale) SiO2 
 PCOD8144941
Probable space group: C 2/C
;
_chemical_formula_sum "Si O2"
_cell_formula_units_Z 64
_cell_length_a 29.615747
_cell_length_b 14.117003
_cell_length_c 8.326026
_cell_angle_alpha 90.000000
_cell_angle_beta 86.376991
_cell_angle_gamma 90.000000
_cell_volume 3474.034489
_symmetry_space_group_name_H-M "C 2/C"
_symmetry_group_IT_number 15
_symmetry_cell_setting 'monoclinic'
loop_
_space_group_symop_operation_xyz
x,y,z
-x,y,1/2-z
-x,-y,-z
x,-y,1/2+z
1/2+x,1/2+y,z
1/2-x,1/2+y,1/2-z
1/2-x,1/2-y,-z
1/2+x,1/2-y,1/2+z
loop_
_atom_site_type_symbol
_atom_site_label
_atom_site_fract_x
_atom_site_fract_y
_atom_site_fract_z
Si Si1 0.138542 0.705133 0.682452
Si Si2 0.646090 0.842203 0.810597
Si Si3 0.548033 0.121516 0.798755
Si Si4 0.204999 0.862532 0.722789
Si Si5 0.919130 0.434467 0.884642
Si Si6 0.274530 0.729735 0.825779
Si Si7 0.329842 0.038851 0.604931
Si Si8 0.231148 0.957818 0.040559
O O1 0.142586 0.693177 0.491831
O O2 0.086135 0.698501 0.745721
O O3 0.156748 0.810075 0.719905
O O4 0.167859 0.627613 0.773778
O O5 0.596202 0.854347 0.741034
O O6 0.674556 0.770015 0.693607
O O7 0.671949 0.942765 0.791798
O O8 0.500000 0.160928 0.750000
O O9 0.558266 0.021529 0.711897
O O10 0.546050 0.107832 0.992537
O O11 0.244219 0.781808 0.696797
O O12 0.211450 0.938349 0.579598
O O13 0.206766 0.919342 0.888383
O O14 0.874352 0.469857 0.986356
O O15 0.278175 0.615515 0.808296
O O16 0.250000 0.750000 0.000000
O O17 0.285378 0.042505 0.504051
#
# Coordination Sequence:
#
# PCOD8144941 Si02
#       8
#     8   8   8   8   8   8   8   8
#     4  11  24  38  56  82 117 151 202 236 300 352
#     4  12  21  35  57  84 114 164 195 234 283 343
#     4  11  22  37  58  86 119 152 191 244 300 364
#     4  11  24  38  54  79 114 156 197 251 282 338
#     4  11  20  34  56  83 118 155 191 228 289 356
#     4  10  22  35  53  79 117 153 203 234 282 332
#     4  11  20  35  57  81 118 160 194 241 273 343
#     4  11  24  36  53  80 116 155 205 241 285 324
#
# _framework density 18.422385999999999
#
# number of rings (size 3 to 8) (size 9 to 14) (size 15 to 20)
#    0.000    1.000    6.250    1.875    8.750    0.500 
#    0.000    0.000    0.000    0.000    0.000    0.875 
#    0.000    0.000    0.000    0.000    0.000    0.000 
#
# Total GULP energy -396685.995862 kJ/mol
# GULP energy per Si atom -12396.437371 kJ/mol
# Density = 1.838046 g / cm^3
# Si number density = 18.422386 Si / 1000 Ang^3
#
#
#
# Elastic Constant Matrix: (Units=GPa)
#
#
# Indices 1 2 3 4 5 6 
#
# 1 100.2765 32.0815 29.0646 0.0000 22.1794 0.0000
# 2 32.0815 61.9778 19.9121 0.0000 9.6874 0.0000
# 3 29.0646 19.9121 97.2854 0.0000 18.6916 0.0000
# 4 0.0000 0.0000 0.0000 27.6628 0.0000 1.5298
# 5 22.1794 9.6874 18.6916 0.0000 25.0640 0.0000
# 6 0.0000 0.0000 0.0000 1.5298 0.0000 21.9771
#
#
#
# Elastic Compliance Matrix: (Units=1/GPa)
#
#
# Indices 1 2 3 4 5 6 
#
# 1 0.014189 -0.005444 -0.001303 0.000000 -0.009480 0.000000
# 2 -0.005444 0.019850 -0.002204 0.000000 -0.001211 0.000000
# 3 -0.001303 -0.002204 0.012529 0.000000 -0.007339 0.000000
# 4 0.000000 0.000000 0.000000 0.036289 0.000000 -0.002526
# 5 -0.009480 -0.001211 -0.007339 0.000000 0.054228 0.000000
# 6 0.000000 0.000000 0.000000 -0.002526 0.000000 0.045678
#
#
# Mechanical properties :
#
#
# Convention : Reuss Voigt Hill
#
# Bulk Modulus (GPa) = 34.88439 46.85066 40.86752
# Shear Modulus (GPa) = 23.78457 26.83954 25.31205
#
# Velocity S-wave (km/s) = 3.59704 3.82107 3.71075
# Velocity P-wave (km/s) = 6.01902 6.70478 6.37113
#
# Compressibility (1/GPa) = 0.02866612
#
# Stress axis : x y z
#
# Youngs Moduli (GPa) = 70.47909 50.37752 79.81169
#
# Poissons Ratio (x) = 0.27425 0.10402
# Poissons Ratio (y) = 0.38369 0.17588
# Poissons Ratio (z) = 0.09186 0.11102
#
# Static dielectric constant tensor:
#      x y z
#    x 3.259250 0.000000 0.210950 
#    y 0.000000 3.646960 0.000000 
#    z 0.210950 0.000000 3.556620 
# 
# 
# High freq. dielectric constant tensor:
#      x y z
#    x 1.679480 0.000000 0.010410 
#    y 0.000000 1.690440 0.000000 
#    z 0.010410 0.000000 1.730820 
# 
# From -- ./inp_files/69736.got.cif
#   From: 2010.06.25/outbox.cif.g09.slc.cpg/sg15_35_cif.got.tgz:69736.got - 2010.06.28 07:06:18.
