data_PCOD8144033
_publ_section_title
;
Structure prediction by ZEFSAII (Michael W. Deem and Ramdas Pophale) SiO2 
 PCOD8144033
Probable space group: C 2/C
;
_chemical_formula_sum "Si O2"
_cell_formula_units_Z 52
_cell_length_a 15.687614
_cell_length_b 16.722171
_cell_length_c 10.783168
_cell_angle_alpha 90.000000
_cell_angle_beta 118.428020
_cell_angle_gamma 90.000000
_cell_volume 2487.655424
_symmetry_space_group_name_H-M "C 2/C"
_symmetry_group_IT_number 15
_symmetry_cell_setting 'monoclinic'
loop_
_space_group_symop_operation_xyz
x,y,z
-x,y,1/2-z
-x,-y,-z
x,-y,1/2+z
1/2+x,1/2+y,z
1/2-x,1/2+y,1/2-z
1/2-x,1/2-y,-z
1/2+x,1/2-y,1/2+z
loop_
_atom_site_type_symbol
_atom_site_label
_atom_site_fract_x
_atom_site_fract_y
_atom_site_fract_z
Si Si1 0.688486 0.364186 0.470828
Si Si2 0.822613 0.284049 0.379882
Si Si3 0.278698 0.979376 0.097157
Si Si4 0.500000 0.301645 0.250000
Si Si5 0.893239 0.534100 0.422199
Si Si6 0.698371 0.694612 0.561308
Si Si7 0.032468 0.707650 0.027657
O O1 0.788238 0.339327 0.470880
O O2 0.669025 0.307822 0.574465
O O3 0.697500 0.452820 0.529759
O O4 0.594733 0.358285 0.316424
O O5 0.738656 0.285676 0.223030
O O6 0.926397 0.314058 0.395127
O O7 0.216275 0.898375 0.048284
O O8 0.335731 0.992167 0.267465
O O9 0.347230 0.984443 0.024344
O O10 0.503587 0.240471 0.140406
O O11 0.898832 0.630146 0.410747
O O12 0.000000 0.500000 0.500000
O O13 0.750000 0.750000 0.500000
O O14 0.585567 0.722382 0.484999
#
# Coordination Sequence:
#
# PCOD8144033 Si02
#       7
#     8   8   8   4   8   8   8
#     4  10  21  41  69  99 127 165 225 279 332 388
#     4  10  22  41  69  97 128 168 217 278 331 394
#     4  12  26  42  67  96 138 182 217 282 331 396
#     4  10  22  40  74  96 128 170 226 282 324 400
#     4  12  26  41  67 103 137 170 223 281 344 398
#     4  12  24  44  61  91 142 179 215 262 333 409
#     4  11  23  42  69  99 127 177 220 271 341 403
#
# _framework density 20.903216
#
# number of rings (size 3 to 8) (size 9 to 14) (size 15 to 20)
#    0.000    0.923    3.077    4.154    6.462    0.615 
#    0.000    4.615    0.000    0.000    0.000    0.000 
#    0.000    0.000    0.000    0.000    0.000    0.000 
#
# Total GULP energy -322288.023803 kJ/mol
# GULP energy per Si atom -12395.693223 kJ/mol
# Density = 2.085564 g / cm^3
# Si number density = 20.903216 Si / 1000 Ang^3
#
#
#
# Elastic Constant Matrix: (Units=GPa)
#
#
# Indices 1 2 3 4 5 6 
#
# 1 104.3094 35.8672 15.3244 0.0000 0.3420 0.0000
# 2 35.8672 152.2821 24.4977 0.0000 6.7352 0.0000
# 3 15.3244 24.4977 59.2987 0.0000 -5.0337 0.0000
# 4 0.0000 0.0000 0.0000 23.7883 0.0000 5.4970
# 5 0.3420 6.7352 -5.0337 0.0000 37.9259 0.0000
# 6 0.0000 0.0000 0.0000 5.4970 0.0000 30.3803
#
#
#
# Elastic Compliance Matrix: (Units=1/GPa)
#
#
# Indices 1 2 3 4 5 6 
#
# 1 0.010614 -0.002209 -0.001826 0.000000 0.000054 0.000000
# 2 -0.002209 0.007598 -0.002711 0.000000 -0.001689 0.000000
# 3 -0.001826 -0.002711 0.018709 0.000000 0.002981 0.000000
# 4 0.000000 0.000000 0.000000 0.043872 0.000000 -0.007938
# 5 0.000054 -0.001689 0.002981 0.000000 0.027062 0.000000
# 6 0.000000 0.000000 0.000000 -0.007938 0.000000 0.034352
#
#
# Mechanical properties :
#
#
# Convention : Reuss Voigt Hill
#
# Bulk Modulus (GPa) = 42.68234 51.91876 47.30055
# Shear Modulus (GPa) = 30.57922 34.43229 32.50575
#
# Velocity S-wave (km/s) = 3.82893 4.06300 3.94770
# Velocity P-wave (km/s) = 6.32542 6.84852 6.59216
#
# Compressibility (1/GPa) = 0.02342889
#
# Stress axis : x y z
#
# Youngs Moduli (GPa) = 94.21157 131.61557 53.45045
#
# Poissons Ratio (x) = 0.29070 0.09760
# Poissons Ratio (y) = 0.20808 0.14493
# Poissons Ratio (z) = 0.17203 0.35687
#
# Static dielectric constant tensor:
#      x y z
#    x 4.089410 0.000000 0.227270 
#    y 0.000000 3.983820 0.000000 
#    z 0.227270 0.000000 3.968170 
# 
# 
# High freq. dielectric constant tensor:
#      x y z
#    x 1.825900 0.000000 0.000460 
#    y 0.000000 1.823130 0.000000 
#    z 0.000460 0.000000 1.810850 
# 
# From -- ./inp_files/105471.got.cif
#   From: 2010.06.25/outbox.cif.g09.slc.cpg/sg15_53_cif.got.tgz:105471.got - 2010.06.28 07:06:18.
