data_PCOD8144550
_publ_section_title
;
Structure prediction by ZEFSAII (Michael W. Deem and Ramdas Pophale) SiO2 
 PCOD8144550
Probable space group: C 2/C
;
_chemical_formula_sum "Si O2"
_cell_formula_units_Z 44
_cell_length_a 9.378615
_cell_length_b 11.159396
_cell_length_c 29.319830
_cell_angle_alpha 90.000000
_cell_angle_beta 46.338363
_cell_angle_gamma 90.000000
_cell_volume 2219.918868
_symmetry_space_group_name_H-M "C 2/C"
_symmetry_group_IT_number 15
_symmetry_cell_setting 'monoclinic'
loop_
_space_group_symop_operation_xyz
x,y,z
-x,y,1/2-z
-x,-y,-z
x,-y,1/2+z
1/2+x,1/2+y,z
1/2-x,1/2+y,1/2-z
1/2-x,1/2-y,-z
1/2+x,1/2-y,1/2+z
loop_
_atom_site_type_symbol
_atom_site_label
_atom_site_fract_x
_atom_site_fract_y
_atom_site_fract_z
Si Si1 0.708152 0.152871 0.443178
Si Si2 0.395115 0.515851 0.149772
Si Si3 0.420205 0.637142 0.814662
Si Si4 0.989876 0.536386 0.574754
Si Si5 0.000000 0.636866 0.250000
Si Si6 0.175078 0.065454 0.935979
O O1 0.624943 0.110421 0.509902
O O2 0.673915 0.292959 0.445336
O O3 0.940546 0.120463 0.389662
O O4 0.588551 0.087199 0.429227
O O5 0.472505 0.410151 0.164437
O O6 0.342643 0.457786 0.113330
O O7 0.194323 0.560612 0.217286
O O8 0.500000 0.575055 0.750000
O O9 0.187606 0.619810 0.870106
O O10 0.459929 0.779848 0.803298
O O11 0.122468 0.507949 0.589713
O O12 0.000000 0.000000 0.000000
#
# Coordination Sequence:
#
# PCOD8144550 Si02
#       6
#     8   8   8   8   4   8
#     4  10  23  43  63  93 130 165 205 259 311 378
#     4  11  24  43  61  96 123 163 215 254 317 373
#     4   9  23  44  63  86 122 170 209 252 312 370
#     4  10  21  43  67  88 130 169 204 258 318 364
#     4  10  24  40  68  84 128 164 208 268 304 364
#     4  12  25  37  66 101 127 161 207 260 317 373
#
# _framework density 19.820544000000002
#
# number of rings (size 3 to 8) (size 9 to 14) (size 15 to 20)
#    0.545    1.091    1.818    1.636    5.091    2.182 
#    3.273    0.000    0.000    0.000    0.000    0.000 
#    0.000    0.000    0.000    0.000    0.000    0.000 
#
# Total GULP energy -272777.738172 kJ/mol
# GULP energy per Si atom -12398.988099 kJ/mol
# Density = 1.977543 g / cm^3
# Si number density = 19.820544 Si / 1000 Ang^3
#
#
#
# Elastic Constant Matrix: (Units=GPa)
#
#
# Indices 1 2 3 4 5 6 
#
# 1 173.2073 42.0445 50.0313 0.0000 -6.6674 0.0000
# 2 42.0445 75.8684 2.0018 0.0000 -13.4645 0.0000
# 3 50.0313 2.0018 80.0640 0.0000 -21.7480 0.0001
# 4 0.0000 0.0000 0.0000 28.2593 0.0000 -4.1152
# 5 -6.6674 -13.4645 -21.7480 0.0000 46.7963 0.0000
# 6 0.0000 0.0000 0.0001 -4.1152 0.0000 15.6602
#
#
#
# Elastic Compliance Matrix: (Units=1/GPa)
#
#
# Indices 1 2 3 4 5 6 
#
# 1 0.008694 -0.005209 -0.006150 0.000000 -0.003118 0.000000
# 2 -0.005209 0.017061 0.004533 0.000000 0.006273 0.000000
# 3 -0.006150 0.004533 0.018696 0.000000 0.009117 0.000000
# 4 0.000000 0.000000 0.000000 0.036795 0.000000 0.009669
# 5 -0.003118 0.006273 0.009117 0.000000 0.026967 0.000000
# 6 0.000000 0.000000 0.000000 0.009669 0.000000 0.066397
#
#
# Mechanical properties :
#
#
# Convention : Reuss Voigt Hill
#
# Bulk Modulus (GPa) = 32.46864 57.47721 44.97292
# Shear Modulus (GPa) = 25.18526 33.81396 29.49961
#
# Velocity S-wave (km/s) = 3.56851 4.13486 3.86208
# Velocity P-wave (km/s) = 5.77891 7.20124 6.52892
#
# Compressibility (1/GPa) = 0.03079895
#
# Stress axis : x y z
#
# Youngs Moduli (GPa) = 115.01840 58.61211 53.48747
#
# Poissons Ratio (x) = 0.30533 0.32893
# Poissons Ratio (y) = 0.59916 -0.24244
# Poissons Ratio (z) = 0.70733 -0.26567
#
# Static dielectric constant tensor:
#      x y z
#    x 3.775320 0.000000 -0.074950 
#    y 0.000000 3.228580 0.000000 
#    z -0.074950 0.000000 3.701400 
# 
# 
# High freq. dielectric constant tensor:
#      x y z
#    x 1.786030 0.000000 -0.008370 
#    y 0.000000 1.763640 0.000000 
#    z -0.008370 0.000000 1.781260 
# 
# From -- ./inp_files/307021.got.cif
#   From: 2010.06.25/outbox.cif.g09.slc.cpg/sg15_154_cif.got.tgz:307021.got - 2010.06.28 07:06:18.
