data_PCOD8144842
_publ_section_title
;
Structure prediction by ZEFSAII (Michael W. Deem and Ramdas Pophale) SiO2 
 PCOD8144842
Probable space group: C 2/C
;
_chemical_formula_sum "Si O2"
_cell_formula_units_Z 56
_cell_length_a 29.145145
_cell_length_b 11.680533
_cell_length_c 14.453380
_cell_angle_alpha 90.000000
_cell_angle_beta 30.519377
_cell_angle_gamma 90.000000
_cell_volume 2498.713279
_symmetry_space_group_name_H-M "C 2/C"
_symmetry_group_IT_number 15
_symmetry_cell_setting 'monoclinic'
loop_
_space_group_symop_operation_xyz
x,y,z
-x,y,1/2-z
-x,-y,-z
x,-y,1/2+z
1/2+x,1/2+y,z
1/2-x,1/2+y,1/2-z
1/2-x,1/2-y,-z
1/2+x,1/2-y,1/2+z
loop_
_atom_site_type_symbol
_atom_site_label
_atom_site_fract_x
_atom_site_fract_y
_atom_site_fract_z
Si Si1 0.723517 0.228548 0.651863
Si Si2 0.789923 0.405785 0.011215
Si Si3 0.182986 0.945402 0.833271
Si Si4 0.576646 0.271780 0.690312
Si Si5 0.989476 0.995770 0.126424
Si Si6 0.666881 0.350903 0.053255
Si Si7 0.913860 0.430076 0.187009
O O1 0.750000 0.250000 0.500000
O O2 0.670796 0.335070 0.788004
O O3 0.822066 0.225022 0.531392
O O4 0.657994 0.115214 0.767609
O O5 0.751565 0.463033 0.171000
O O6 0.714679 0.392126 0.063526
O O7 0.829606 0.283887 0.970452
O O8 0.869015 0.484500 0.837026
O O9 0.213915 0.911328 0.882911
O O10 0.085015 0.003590 0.012034
O O11 0.500000 0.242115 0.750000
O O12 0.570200 0.396890 0.742953
O O13 0.558049 0.182549 0.805396
O O14 0.937987 0.882427 0.251474
O O15 0.000000 0.000000 0.000000
O O16 0.000000 0.500000 0.000000
#
# Coordination Sequence:
#
# PCOD8144842 Si02
#       7
#     8   8   8   8   8   8   8
#     4  10  21  45  71  99 141 190 238 286 359 436
#     4  11  25  49  67 105 150 182 240 312 363 428
#     4  12  24  46  74 104 139 198 239 298 368 436
#     4  11  24  44  70 104 138 183 247 294 346 440
#     4  12  24  44  71 102 140 181 239 301 361 431
#     4  11  27  44  72 105 141 186 244 304 368 436
#     4  11  25  44  72 102 144 197 235 294 375 432
#
# _framework density 22.411534
#
# number of rings (size 3 to 8) (size 9 to 14) (size 15 to 20)
#    0.000    0.857    4.286    3.857    4.000    4.571 
#    2.571    0.000    0.000    0.000    0.000    0.000 
#    0.000    0.000    0.000    0.000    0.000    0.000 
#
# Total GULP energy -347139.608778 kJ/mol
# GULP energy per Si atom -12397.843171 kJ/mol
# Density = 2.236052 g / cm^3
# Si number density = 22.411534 Si / 1000 Ang^3
#
#
#
# Elastic Constant Matrix: (Units=GPa)
#
#
# Indices 1 2 3 4 5 6 
#
# 1 73.7020 33.2277 21.3505 0.0000 -5.3514 0.0000
# 2 33.2277 147.0797 70.2524 0.0000 -0.6651 0.0000
# 3 21.3505 70.2524 134.1886 0.0000 -12.6295 0.0000
# 4 0.0000 0.0000 0.0000 44.1848 0.0000 -4.9394
# 5 -5.3514 -0.6651 -12.6295 0.0000 42.5578 0.0000
# 6 0.0000 0.0000 0.0000 -4.9394 0.0000 30.2518
#
#
#
# Elastic Compliance Matrix: (Units=1/GPa)
#
#
# Indices 1 2 3 4 5 6 
#
# 1 0.015291 -0.003148 -0.000626 0.000000 0.001688 0.000000
# 2 -0.003148 0.009785 -0.004778 0.000000 -0.001661 0.000000
# 3 -0.000626 -0.004778 0.010327 0.000000 0.002911 0.000000
# 4 0.000000 0.000000 0.000000 0.023053 0.000000 0.003764
# 5 0.001688 -0.001661 0.002911 0.000000 0.024548 0.000000
# 6 0.000000 0.000000 0.000000 0.003764 0.000000 0.033671
#
#
# Mechanical properties :
#
#
# Convention : Reuss Voigt Hill
#
# Bulk Modulus (GPa) = 54.64707 67.18127 60.91417
# Shear Modulus (GPa) = 35.74516 38.74152 37.24334
#
# Velocity S-wave (km/s) = 3.99801 4.16220 4.08093
# Velocity P-wave (km/s) = 6.76376 7.28971 7.03166
#
# Compressibility (1/GPa) = 0.01829924
#
# Stress axis : x y z
#
# Youngs Moduli (GPa) = 65.39689 102.19719 96.82958
#
# Poissons Ratio (x) = 0.32170 0.06062
# Poissons Ratio (y) = 0.20586 0.46268
# Poissons Ratio (z) = 0.04094 0.48833
#
# Static dielectric constant tensor:
#      x y z
#    x 4.237100 0.000000 -0.141930 
#    y 0.000000 3.922210 0.000000 
#    z -0.141930 0.000000 4.327470 
# 
# 
# High freq. dielectric constant tensor:
#      x y z
#    x 1.878190 0.000000 0.000540 
#    y 0.000000 1.895820 0.000000 
#    z 0.000540 0.000000 1.887890 
# 
# From -- ./inp_files/181880.got.cif
#   From: 2010.06.25/outbox.cif.g09.slc.cpg/sg15_91_cif.got.tgz:181880.got - 2010.06.28 07:06:18.
