data_PCOD8144338
_publ_section_title
;
Structure prediction by ZEFSAII (Michael W. Deem and Ramdas Pophale) SiO2 
 PCOD8144338
Probable space group: C 2/C
;
_chemical_formula_sum "Si O2"
_cell_formula_units_Z 40
_cell_length_a 7.623609
_cell_length_b 34.953533
_cell_length_c 9.390368
_cell_angle_alpha 90.000000
_cell_angle_beta 52.222763
_cell_angle_gamma 90.000000
_cell_volume 1977.790955
_symmetry_space_group_name_H-M "C 2/C"
_symmetry_group_IT_number 15
_symmetry_cell_setting 'monoclinic'
loop_
_space_group_symop_operation_xyz
x,y,z
-x,y,1/2-z
-x,-y,-z
x,-y,1/2+z
1/2+x,1/2+y,z
1/2-x,1/2+y,1/2-z
1/2-x,1/2-y,-z
1/2+x,1/2-y,1/2+z
loop_
_atom_site_type_symbol
_atom_site_label
_atom_site_fract_x
_atom_site_fract_y
_atom_site_fract_z
Si Si1 0.705443 0.704048 0.243221
Si Si2 0.759806 0.871250 0.615538
Si Si3 0.500000 0.336684 0.250000
Si Si4 0.883129 0.284719 0.154909
Si Si5 0.738340 0.456688 0.865660
Si Si6 0.000000 0.006084 0.750000
O O1 0.500000 0.714920 0.250000
O O2 0.640868 0.663919 0.345235
O O3 0.702464 0.741831 0.345348
O O4 0.942526 0.700694 0.048935
O O5 0.500000 0.867391 0.750000
O O6 0.833515 0.913031 0.633623
O O7 0.848877 0.865754 0.413383
O O8 0.665000 0.311197 0.263868
O O9 0.000000 0.287966 0.250000
O O10 0.662797 0.480688 0.766229
O O11 0.000000 0.461169 0.750000
O O12 0.636876 0.468627 0.068962
#
# Coordination Sequence:
#
# PCOD8144338 Si02
#       6
#     8   8   4   8   8   4
#     4  11  22  39  59  84 123 158 213 257 303 359
#     4  11  23  39  59  91 123 159 196 255 305 360
#     4  12  23  40  62  84 128 160 212 250 308 358
#     4  11  23  39  59  87 115 168 212 258 302 356
#     4  10  22  40  66  94 128 158 203 247 306 366
#     4  10  21  42  68  94 120 164 202 242 304 374
#
# _framework density 20.224585000000001
#
# number of rings (size 3 to 8) (size 9 to 14) (size 15 to 20)
#    0.000    1.200    2.000    6.000    2.800    1.600 
#    0.000    0.000    0.000    0.000    0.000    0.000 
#    0.000    0.000    0.000    0.000    0.000    0.000 
#
# Total GULP energy -247824.041995 kJ/mol
# GULP energy per Si atom -12391.202100 kJ/mol
# Density = 2.017855 g / cm^3
# Si number density = 20.224585 Si / 1000 Ang^3
#
#
#
# Elastic Constant Matrix: (Units=GPa)
#
#
# Indices 1 2 3 4 5 6 
#
# 1 77.2871 35.2062 32.0994 0.0000 -6.3597 0.0000
# 2 35.2062 111.9030 50.9861 0.0000 -5.2479 0.0000
# 3 32.0994 50.9861 133.9707 0.0000 -1.8991 0.0000
# 4 0.0000 0.0000 0.0000 85.4497 0.0000 19.1021
# 5 -6.3597 -5.2479 -1.8991 0.0000 31.6442 0.0000
# 6 0.0000 0.0000 0.0000 19.1021 0.0000 39.2886
#
#
#
# Elastic Compliance Matrix: (Units=1/GPa)
#
#
# Indices 1 2 3 4 5 6 
#
# 1 0.015834 -0.003818 -0.002307 0.000000 0.002411 0.000000
# 2 -0.003818 0.011808 -0.003565 0.000000 0.000977 0.000000
# 3 -0.002307 -0.003565 0.009367 0.000000 -0.000493 0.000000
# 4 0.000000 0.000000 0.000000 0.013130 0.000000 -0.006384
# 5 0.002411 0.000977 -0.000493 0.000000 0.032218 0.000000
# 6 0.000000 0.000000 0.000000 -0.006384 0.000000 0.028556
#
#
# Mechanical properties :
#
#
# Convention : Reuss Voigt Hill
#
# Bulk Modulus (GPa) = 56.72284 62.19379 59.45831
# Shear Modulus (GPa) = 36.71912 44.93444 40.82678
#
# Velocity S-wave (km/s) = 4.26557 4.71868 4.49784
# Velocity P-wave (km/s) = 7.23654 7.77858 7.51245
#
# Compressibility (1/GPa) = 0.01762958
#
# Stress axis : x y z
#
# Youngs Moduli (GPa) = 63.15441 84.69151 106.75931
#
# Poissons Ratio (x) = 0.32331 0.24628
# Poissons Ratio (y) = 0.24109 0.38061
# Poissons Ratio (z) = 0.14569 0.30194
#
# Static dielectric constant tensor:
#      x y z
#    x 3.413440 0.000000 -0.089660 
#    y 0.000000 4.046450 0.000000 
#    z -0.089660 0.000000 3.841360 
# 
# 
# High freq. dielectric constant tensor:
#      x y z
#    x 1.778990 0.000000 -0.009560 
#    y 0.000000 1.797160 0.000000 
#    z -0.009560 0.000000 1.808800 
# 
# From -- ./inp_files/82028.got.cif
#   From: 2010.06.25/outbox.cif.g09.slc.cpg/sg15_42_cif.got.tgz:82028.got - 2010.06.28 07:06:18.
