data_PCOD8144715
_publ_section_title
;
Structure prediction by ZEFSAII (Michael W. Deem and Ramdas Pophale) SiO2 
 PCOD8144715
Probable space group: C 2/C
;
_chemical_formula_sum "Si O2"
_cell_formula_units_Z 52
_cell_length_a 15.284685
_cell_length_b 27.723866
_cell_length_c 9.842263
_cell_angle_alpha 90.000000
_cell_angle_beta 39.258334
_cell_angle_gamma 90.000000
_cell_volume 2639.271374
_symmetry_space_group_name_H-M "C 2/C"
_symmetry_group_IT_number 15
_symmetry_cell_setting 'monoclinic'
loop_
_space_group_symop_operation_xyz
x,y,z
-x,y,1/2-z
-x,-y,-z
x,-y,1/2+z
1/2+x,1/2+y,z
1/2-x,1/2+y,1/2-z
1/2-x,1/2-y,-z
1/2+x,1/2-y,1/2+z
loop_
_atom_site_type_symbol
_atom_site_label
_atom_site_fract_x
_atom_site_fract_y
_atom_site_fract_z
Si Si1 0.349062 0.385401 0.369793
Si Si2 0.936136 0.435255 0.189996
Si Si3 0.845436 0.257116 0.253093
Si Si4 0.338511 0.285441 0.482645
Si Si5 0.736137 0.355947 0.326332
Si Si6 0.000000 0.802861 0.750000
Si Si7 0.111539 0.544835 0.225313
O O1 0.500000 0.397025 0.250000
O O2 0.286473 0.339798 0.523456
O O3 0.343456 0.369463 0.217552
O O4 0.257753 0.432227 0.510045
O O5 0.811068 0.403604 0.286412
O O6 0.870462 0.487398 0.300663
O O7 0.000000 0.412614 0.250000
O O8 0.061626 0.438335 0.932863
O O9 0.750000 0.250000 0.500000
O O10 0.849319 0.311868 0.188060
O O11 0.989494 0.233489 0.131829
O O12 0.800051 0.223618 0.184223
O O13 0.500000 0.279598 0.250000
O O14 0.250000 0.250000 0.500000
O O15 0.626859 0.338589 0.570026
O O16 0.000000 0.562879 0.250000
#
# Coordination Sequence:
#
# PCOD8144715 Si02
#       7
#     8   8   8   8   8   4   8
#     4  11  23  40  67  96 131 166 216 263 328 381
#     4  10  23  40  69  94 125 164 220 264 319 389
#     4  10  23  39  61  88 127 170 208 254 312 378
#     4  11  23  39  60  92 128 166 211 258 310 376
#     4  11  22  42  62  94 126 174 212 264 322 385
#     4  10  22  40  62  88 140 164 204 270 322 374
#     4  10  21  44  66  94 129 167 212 272 318 377
#
# _framework density 19.702407999999998
#
# number of rings (size 3 to 8) (size 9 to 14) (size 15 to 20)
#    0.000    1.538    3.077    1.846    3.231    5.538 
#    1.385    0.769    0.000    0.000    0.000    0.000 
#    0.000    0.000    0.000    0.000    0.000    0.000 
#
# Total GULP energy -322171.713179 kJ/mol
# GULP energy per Si atom -12391.219738 kJ/mol
# Density = 1.965756 g / cm^3
# Si number density = 19.702408 Si / 1000 Ang^3
#
#
#
# Elastic Constant Matrix: (Units=GPa)
#
#
# Indices 1 2 3 4 5 6 
#
# 1 148.9123 53.9757 37.1696 0.0000 17.1305 0.0000
# 2 53.9757 98.1589 35.4518 0.0000 -8.7610 0.0000
# 3 37.1696 35.4518 70.3488 0.0000 10.4430 0.0000
# 4 0.0000 0.0000 0.0000 27.4342 0.0000 1.2225
# 5 17.1305 -8.7610 10.4430 0.0000 38.7966 0.0000
# 6 0.0000 0.0000 0.0000 1.2225 0.0000 36.0365
#
#
#
# Elastic Compliance Matrix: (Units=1/GPa)
#
#
# Indices 1 2 3 4 5 6 
#
# 1 0.009548 -0.005043 -0.001780 0.000000 -0.004876 0.000000
# 2 -0.005043 0.015994 -0.006523 0.000000 0.007594 0.000000
# 3 -0.001780 -0.006523 0.019316 0.000000 -0.005887 0.000000
# 4 0.000000 0.000000 0.000000 0.036506 0.000000 -0.001238
# 5 -0.004876 0.007594 -0.005887 0.000000 0.031228 0.000000
# 6 0.000000 0.000000 0.000000 -0.001238 0.000000 0.027792
#
#
# Mechanical properties :
#
#
# Convention : Reuss Voigt Hill
#
# Bulk Modulus (GPa) = 55.04365 63.40157 59.22261
# Shear Modulus (GPa) = 28.87972 33.17499 31.02736
#
# Velocity S-wave (km/s) = 3.83273 4.10787 3.97268
# Velocity P-wave (km/s) = 6.89816 7.39925 7.15309
#
# Compressibility (1/GPa) = 0.01816740
#
# Stress axis : x y z
#
# Youngs Moduli (GPa) = 104.72997 62.52256 51.76932
#
# Poissons Ratio (x) = 0.31529 0.09215
# Poissons Ratio (y) = 0.52813 0.33770
# Poissons Ratio (z) = 0.18641 0.40784
#
# Static dielectric constant tensor:
#      x y z
#    x 4.116020 0.000000 0.133200 
#    y 0.000000 3.746250 0.000000 
#    z 0.133200 0.000000 3.444620 
# 
# 
# High freq. dielectric constant tensor:
#      x y z
#    x 1.787240 0.000000 0.016100 
#    y 0.000000 1.770150 0.000000 
#    z 0.016100 0.000000 1.753690 
# 
# From -- ./inp_files/44778.got.cif
#   From: 2010.06.25/outbox.cif.g09.slc.cpg/sg15_23_cif.got.tgz:44778.got - 2010.06.28 07:06:18.
