data_PCOD8144263
_publ_section_title
;
Structure prediction by ZEFSAII (Michael W. Deem and Ramdas Pophale) SiO2 
 PCOD8144263
Probable space group: C 2/C
;
_chemical_formula_sum "Si O2"
_cell_formula_units_Z 52
_cell_length_a 21.314181
_cell_length_b 8.159005
_cell_length_c 18.569506
_cell_angle_alpha 90.000000
_cell_angle_beta 134.606770
_cell_angle_gamma 90.000000
_cell_volume 2299.066162
_symmetry_space_group_name_H-M "C 2/C"
_symmetry_group_IT_number 15
_symmetry_cell_setting 'monoclinic'
loop_
_space_group_symop_operation_xyz
x,y,z
-x,y,1/2-z
-x,-y,-z
x,-y,1/2+z
1/2+x,1/2+y,z
1/2-x,1/2+y,1/2-z
1/2-x,1/2-y,-z
1/2+x,1/2-y,1/2+z
loop_
_atom_site_type_symbol
_atom_site_label
_atom_site_fract_x
_atom_site_fract_y
_atom_site_fract_z
Si Si1 0.198125 0.295437 0.121241
Si Si2 0.209959 0.475363 0.272412
Si Si3 0.500000 0.523623 0.250000
Si Si4 0.645219 0.205679 0.847682
Si Si5 0.182151 0.593671 0.024571
Si Si6 0.099823 0.817134 0.062763
Si Si7 0.528960 0.391350 0.426696
O O1 0.170664 0.414436 0.165051
O O2 0.226967 0.418941 0.079883
O O3 0.277267 0.173340 0.210002
O O4 0.115793 0.202066 0.021604
O O5 0.138741 0.414411 0.273835
O O6 0.307815 0.407072 0.356642
O O7 0.419379 0.640266 0.207461
O O8 0.522177 0.403533 0.334664
O O9 0.744700 0.268257 0.924379
O O10 0.629881 0.093824 0.906357
O O11 0.113831 0.644628 0.033075
O O12 0.055590 0.797766 0.106414
O O13 0.032624 0.923148 0.959517
#
# Coordination Sequence:
#
# PCOD8144263 Si02
#       7
#     8   8   4   8   8   8   8
#     4  11  24  42  66 103 133 177 229 288 335 409
#     4  10  22  40  65  99 130 174 229 274 347 395
#     4  12  24  44  70 100 136 192 220 278 358 410
#     4  10  23  41  68  94 132 180 226 281 342 415
#     4  10  21  42  66  94 134 178 230 283 336 397
#     4   9  19  40  65  96 128 179 220 276 334 410
#     4  10  23  39  68  98 141 177 225 274 342 407
#
# _framework density 22.617878000000001
#
# number of rings (size 3 to 8) (size 9 to 14) (size 15 to 20)
#    0.000    1.846    1.538    1.846   10.769    1.231 
#    0.000    2.308    0.000    0.000    0.000    0.000 
#    0.000    0.000    0.000    0.000    0.000    0.000 
#
# Total GULP energy -322153.242070 kJ/mol
# GULP energy per Si atom -12390.509310 kJ/mol
# Density = 2.256640 g / cm^3
# Si number density = 22.617878 Si / 1000 Ang^3
#
#
#
# Elastic Constant Matrix: (Units=GPa)
#
#
# Indices 1 2 3 4 5 6 
#
# 1 111.7464 48.9050 42.1523 0.0000 -25.8034 0.0000
# 2 48.9050 104.1868 53.9051 0.0000 -28.9713 0.0000
# 3 42.1523 53.9051 113.5425 0.0000 -36.0812 0.0000
# 4 0.0000 0.0000 0.0000 47.5279 0.0000 -3.2687
# 5 -25.8034 -28.9713 -36.0812 0.0000 30.7644 0.0000
# 6 0.0000 0.0000 0.0000 -3.2687 0.0000 22.8746
#
#
#
# Elastic Compliance Matrix: (Units=1/GPa)
#
#
# Indices 1 2 3 4 5 6 
#
# 1 0.012229 -0.003648 -0.001021 0.000000 0.005624 0.000000
# 2 -0.003648 0.015108 -0.003618 0.000000 0.006924 0.000000
# 3 -0.001021 -0.003618 0.015222 0.000000 0.013590 0.000000
# 4 0.000000 0.000000 0.000000 0.021249 0.000000 0.003036
# 5 0.005624 0.006924 0.013590 0.000000 0.059682 0.000000
# 6 0.000000 0.000000 0.000000 0.003036 0.000000 0.044150
#
#
# Mechanical properties :
#
#
# Convention : Reuss Voigt Hill
#
# Bulk Modulus (GPa) = 38.48216 68.82227 53.65222
# Shear Modulus (GPa) = 25.92327 32.53427 29.22877
#
# Velocity S-wave (km/s) = 3.38914 3.79678 3.59874
# Velocity P-wave (km/s) = 5.68912 7.05089 6.40629
#
# Compressibility (1/GPa) = 0.02598607
#
# Stress axis : x y z
#
# Youngs Moduli (GPa) = 81.77118 66.19062 65.69255
#
# Poissons Ratio (x) = 0.24148 0.06705
# Poissons Ratio (y) = 0.29832 0.23766
# Poissons Ratio (z) = 0.08346 0.23946
#
# Static dielectric constant tensor:
#      x y z
#    x 4.168490 0.000000 -0.342840 
#    y 0.000000 4.221230 0.000000 
#    z -0.342840 0.000000 4.085680 
# 
# 
# High freq. dielectric constant tensor:
#      x y z
#    x 1.879840 0.000000 -0.018600 
#    y 0.000000 1.880870 0.000000 
#    z -0.018600 0.000000 1.891340 
# 
# From -- ./inp_files/214339.got.cif
#   From: 2010.06.25/outbox.cif.g09.slc.cpg/sg15_108_cif.got.tgz:214339.got - 2010.06.28 07:06:18.
