data_PCOD8144672
_publ_section_title
;
Structure prediction by ZEFSAII (Michael W. Deem and Ramdas Pophale) SiO2 
 PCOD8144672
Probable space group: C 2/C
;
_chemical_formula_sum "Si O2"
_cell_formula_units_Z 40
_cell_length_a 13.008680
_cell_length_b 7.117644
_cell_length_c 30.754738
_cell_angle_alpha 90.000000
_cell_angle_beta 143.318753
_cell_angle_gamma 90.000000
_cell_volume 1701.059953
_symmetry_space_group_name_H-M "C 2/C"
_symmetry_group_IT_number 15
_symmetry_cell_setting 'monoclinic'
loop_
_space_group_symop_operation_xyz
x,y,z
-x,y,1/2-z
-x,-y,-z
x,-y,1/2+z
1/2+x,1/2+y,z
1/2-x,1/2+y,1/2-z
1/2-x,1/2-y,-z
1/2+x,1/2-y,1/2+z
loop_
_atom_site_type_symbol
_atom_site_label
_atom_site_fract_x
_atom_site_fract_y
_atom_site_fract_z
Si Si1 0.033257 0.227779 0.713514
Si Si2 0.319975 0.058816 0.312721
Si Si3 0.546945 0.757022 0.429471
Si Si4 0.925869 0.882417 0.410195
Si Si5 0.166828 0.200756 0.064092
O O1 0.852754 0.198736 0.627272
O O2 0.000000 0.317042 0.750000
O O3 0.157390 0.363618 0.728261
O O4 0.868299 0.031043 0.746501
O O5 0.323598 0.223887 0.349750
O O6 0.475192 0.909642 0.371393
O O7 0.750000 0.750000 0.500000
O O8 0.482008 0.546100 0.395139
O O9 0.465844 0.811991 0.449251
O O10 0.096751 0.795153 0.491104
O O11 0.815556 0.983488 0.411798
#
# Coordination Sequence:
#
# PCOD8144672 Si02
#       5
#     8   8   8   8   8
#     4  12  27  53  69 111 156 197 263 309 379 459
#     4  12  28  47  76 107 152 211 252 313 383 462
#     4  10  21  43  73 114 146 191 251 310 382 451
#     4   9  22  48  74 114 146 196 252 318 379 444
#     4   9  21  48  76 108 155 189 250 326 367 454
#
# _framework density 23.514749999999999
#
# number of rings (size 3 to 8) (size 9 to 14) (size 15 to 20)
#    1.200    0.400    2.000    1.200    5.600    4.000 
#    7.200    0.000    0.000    0.000    0.000    0.000 
#    0.000    0.000    0.000    0.000    0.000    0.000 
#
# Total GULP energy -247863.674068 kJ/mol
# GULP energy per Si atom -12393.183703 kJ/mol
# Density = 2.346123 g / cm^3
# Si number density = 23.514750 Si / 1000 Ang^3
#
#
#
# Elastic Constant Matrix: (Units=GPa)
#
#
# Indices 1 2 3 4 5 6 
#
# 1 86.0158 35.1602 44.5861 -0.0001 6.0005 0.0001
# 2 35.1602 120.8660 69.4353 -0.0003 1.1192 0.0001
# 3 44.5861 69.4353 112.7900 -0.0003 4.9226 0.0001
# 4 -0.0001 -0.0003 -0.0003 57.6784 0.0002 1.0370
# 5 6.0005 1.1192 4.9226 0.0002 53.3212 -0.0001
# 6 0.0001 0.0001 0.0001 1.0370 -0.0001 22.0025
#
#
#
# Elastic Compliance Matrix: (Units=1/GPa)
#
#
# Indices 1 2 3 4 5 6 
#
# 1 0.014861 -0.001496 -0.004902 0.000000 -0.001188 0.000000
# 2 -0.001496 0.012963 -0.007414 0.000000 0.000581 0.000000
# 3 -0.004902 -0.007414 0.015399 0.000000 -0.000714 0.000000
# 4 0.000000 0.000000 0.000000 0.017352 0.000000 -0.000818
# 5 -0.001188 0.000581 -0.000714 0.000000 0.018942 0.000000
# 6 0.000000 0.000000 0.000000 -0.000818 0.000000 0.045488
#
#
# Mechanical properties :
#
#
# Convention : Reuss Voigt Hill
#
# Bulk Modulus (GPa) = 64.10611 68.67057 66.38834
# Shear Modulus (GPa) = 31.68011 37.96644 34.82328
#
# Velocity S-wave (km/s) = 3.67446 4.02254 3.85244
# Velocity P-wave (km/s) = 6.73227 7.13029 6.93414
#
# Compressibility (1/GPa) = 0.01559914
#
# Stress axis : x y z
#
# Youngs Moduli (GPa) = 67.29012 77.14474 64.93945
#
# Poissons Ratio (x) = 0.11542 0.31831
# Poissons Ratio (y) = 0.10068 0.48145
# Poissons Ratio (z) = 0.32983 0.57194
#
# Static dielectric constant tensor:
#      x y z
#    x 3.997080 0.000000 -0.074810 
#    y 0.000000 4.118690 0.000000 
#    z -0.074810 0.000000 4.176100 
# 
# 
# High freq. dielectric constant tensor:
#      x y z
#    x 1.913210 0.000000 0.000140 
#    y 0.000000 1.914880 0.000000 
#    z 0.000140 0.000000 1.934760 
# 
# From -- ./inp_files/291344.got.cif
#   From: 2010.06.25/outbox.cif.g09.slc.cpg/sg15_146_cif.got.tgz:291344.got - 2010.06.28 07:06:18.
