data_PCOD8144709
_publ_section_title
;
Structure prediction by ZEFSAII (Michael W. Deem and Ramdas Pophale) SiO2 
 PCOD8144709
Probable space group: C 2/C
;
_chemical_formula_sum "Si O2"
_cell_formula_units_Z 60
_cell_length_a 26.454854
_cell_length_b 12.289659
_cell_length_c 10.683022
_cell_angle_alpha 90.000000
_cell_angle_beta 53.487289
_cell_angle_gamma 90.000000
_cell_volume 2791.558524
_symmetry_space_group_name_H-M "C 2/C"
_symmetry_group_IT_number 15
_symmetry_cell_setting 'monoclinic'
loop_
_space_group_symop_operation_xyz
x,y,z
-x,y,1/2-z
-x,-y,-z
x,-y,1/2+z
1/2+x,1/2+y,z
1/2-x,1/2+y,1/2-z
1/2-x,1/2-y,-z
1/2+x,1/2-y,1/2+z
loop_
_atom_site_type_symbol
_atom_site_label
_atom_site_fract_x
_atom_site_fract_y
_atom_site_fract_z
Si Si1 0.183688 0.830894 0.232360
Si Si2 0.151846 0.255426 0.382025
Si Si3 0.542467 0.598526 0.578272
Si Si4 0.549541 0.635346 0.003283
Si Si5 0.000000 0.680207 0.750000
Si Si6 0.191317 0.619457 0.061858
Si Si7 0.777203 0.275119 0.594939
Si Si8 0.623454 0.900125 0.182996
O O1 0.111277 0.866247 0.321809
O O2 0.192089 0.708076 0.169975
O O3 0.195580 0.828203 0.366242
O O4 0.235156 0.907663 0.085220
O O5 0.107589 0.159143 0.488164
O O6 0.156560 0.339343 0.488792
O O7 0.216623 0.188669 0.264886
O O8 0.129261 0.321568 0.293656
O O9 0.500000 0.647768 0.750000
O O10 0.512110 0.622845 0.489299
O O11 0.554246 0.470373 0.584963
O O12 0.541642 0.744255 0.096590
O O13 0.050004 0.602559 0.748773
O O14 0.150348 0.519261 0.176275
O O15 0.750000 0.250000 0.500000
O O16 0.832787 0.362187 0.497906
#
# Coordination Sequence:
#
# PCOD8144709 Si02
#       8
#     8   8   8   8   4   8   8   8
#     4  10  21  44  66  89 132 167 213 274 322 389
#     4  10  22  42  61  94 131 165 217 279 322 383
#     4  11  23  40  63  94 129 164 218 270 324 392
#     4  11  23  40  65  93 125 174 213 264 335 383
#     4  12  22  44  64  98 136 172 222 272 320 414
#     4  10  24  42  64  97 125 172 219 262 332 392
#     4   9  20  38  63  93 122 161 216 268 318 378
#     4  11  23  41  66  94 133 176 220 267 330 399
#
# _framework density 21.493371
#
# number of rings (size 3 to 8) (size 9 to 14) (size 15 to 20)
#    0.000    1.600    3.333    0.800    3.733    0.000 
#    3.600    4.000    0.000    0.000    0.000    0.000 
#    0.000    0.000    0.000    0.000    0.000    0.000 
#
# Total GULP energy -371736.638154 kJ/mol
# GULP energy per Si atom -12391.221272 kJ/mol
# Density = 2.144445 g / cm^3
# Si number density = 21.493371 Si / 1000 Ang^3
#
#
#
# Elastic Constant Matrix: (Units=GPa)
#
#
# Indices 1 2 3 4 5 6 
#
# 1 76.3313 17.4089 26.5005 0.0000 -22.8855 0.0000
# 2 17.4089 67.2201 27.5956 0.0000 -14.2585 0.0000
# 3 26.5005 27.5956 86.0319 0.0000 -17.3200 0.0000
# 4 0.0000 0.0000 0.0000 31.5865 0.0000 -6.5930
# 5 -22.8855 -14.2585 -17.3200 0.0000 44.2903 0.0000
# 6 0.0000 0.0000 0.0000 -6.5930 0.0000 27.2236
#
#
#
# Elastic Compliance Matrix: (Units=1/GPa)
#
#
# Indices 1 2 3 4 5 6 
#
# 1 0.016626 -0.001520 -0.003259 0.000000 0.006827 0.000000
# 2 -0.001520 0.017834 -0.004618 0.000000 0.003150 0.000000
# 3 -0.003259 -0.004618 0.014622 0.000000 0.002547 0.000000
# 4 0.000000 0.000000 0.000000 0.033345 0.000000 0.008075
# 5 0.006827 0.003150 0.002547 0.000000 0.028116 0.000000
# 6 0.000000 0.000000 0.000000 0.008075 0.000000 0.038688
#
#
# Mechanical properties :
#
#
# Convention : Reuss Voigt Hill
#
# Bulk Modulus (GPa) = 33.01723 41.39924 37.20823
# Shear Modulus (GPa) = 28.07079 31.15863 29.61471
#
# Velocity S-wave (km/s) = 3.61781 3.81160 3.71597
# Velocity P-wave (km/s) = 5.73117 6.21887 5.97999
#
# Compressibility (1/GPa) = 0.03028722
#
# Stress axis : x y z
#
# Youngs Moduli (GPa) = 60.14742 56.07212 68.39156
#
# Poissons Ratio (x) = 0.08521 0.22292
# Poissons Ratio (y) = 0.09140 0.31585
# Poissons Ratio (z) = 0.19605 0.25895
#
# Static dielectric constant tensor:
#      x y z
#    x 4.068550 0.000000 -0.117070 
#    y 0.000000 3.521950 0.000000 
#    z -0.117070 0.000000 4.142170 
# 
# 
# High freq. dielectric constant tensor:
#      x y z
#    x 1.857630 0.000000 -0.006290 
#    y 0.000000 1.805010 0.000000 
#    z -0.006290 0.000000 1.856470 
# 
# From -- ./inp_files/126431.got.cif
#   From: 2010.06.25/outbox.cif.g09.slc.cpg/sg15_64_cif.got.tgz:126431.got - 2010.06.28 07:06:18.
