data_PCOD8144800
_publ_section_title
;
Structure prediction by ZEFSAII (Michael W. Deem and Ramdas Pophale) SiO2 
 PCOD8144800
Probable space group: C 2/C
;
_chemical_formula_sum "Si O2"
_cell_formula_units_Z 52
_cell_length_a 14.959804
_cell_length_b 13.532468
_cell_length_c 17.847647
_cell_angle_alpha 90.000000
_cell_angle_beta 138.411971
_cell_angle_gamma 90.000000
_cell_volume 2398.288763
_symmetry_space_group_name_H-M "C 2/C"
_symmetry_group_IT_number 15
_symmetry_cell_setting 'monoclinic'
loop_
_space_group_symop_operation_xyz
x,y,z
-x,y,1/2-z
-x,-y,-z
x,-y,1/2+z
1/2+x,1/2+y,z
1/2-x,1/2+y,1/2-z
1/2-x,1/2-y,-z
1/2+x,1/2-y,1/2+z
loop_
_atom_site_type_symbol
_atom_site_label
_atom_site_fract_x
_atom_site_fract_y
_atom_site_fract_z
Si Si1 0.013712 0.385792 0.491643
Si Si2 0.231330 0.257644 0.108739
Si Si3 0.932546 0.692938 0.788667
Si Si4 0.500000 0.625208 0.750000
Si Si5 0.177696 0.055138 0.632573
Si Si6 0.586871 0.415871 0.458482
Si Si7 0.773438 0.861547 0.746932
O O1 0.152095 0.348674 0.613306
O O2 0.000000 0.500000 0.500000
O O3 0.883489 0.337484 0.447856
O O4 0.024142 0.359375 0.409585
O O5 0.369270 0.307745 0.173025
O O6 0.267319 0.195287 0.204130
O O7 0.180020 0.182076 0.012006
O O8 0.790323 0.637274 0.701709
O O9 0.904366 0.808146 0.791512
O O10 0.000000 0.682976 0.750000
O O11 0.474912 0.556751 0.661473
O O12 0.034734 0.107938 0.559438
O O13 0.172613 0.006336 0.546519
O O14 0.199111 0.975285 0.713125
#
# Coordination Sequence:
#
# PCOD8144800 Si02
#       7
#     8   8   8   4   8   8   8
#     4  11  21  39  68  91 123 174 222 258 316 392
#     4  10  22  39  61  92 128 169 204 267 324 381
#     4  11  24  42  64 100 133 166 214 277 325 374
#     4  12  22  36  60  98 130 154 214 270 318 374
#     4  10  21  45  65  88 128 178 213 253 328 395
#     4  10  22  40  65  89 124 171 212 260 319 387
#     4  10  22  42  67  91 126 176 218 254 322 400
#
# _framework density 21.682127000000001
#
# number of rings (size 3 to 8) (size 9 to 14) (size 15 to 20)
#    0.000    1.538    1.538    4.154    0.000    3.077 
#    6.923    0.000    0.000    0.000    0.000    0.000 
#    0.000    0.000    0.000    0.000    0.000    0.000 
#
# Total GULP energy -322326.812487 kJ/mol
# GULP energy per Si atom -12397.185096 kJ/mol
# Density = 2.163278 g / cm^3
# Si number density = 21.682127 Si / 1000 Ang^3
#
#
#
# Elastic Constant Matrix: (Units=GPa)
#
#
# Indices 1 2 3 4 5 6 
#
# 1 56.9511 11.1258 18.4333 0.0000 -8.7657 0.0000
# 2 11.1258 64.8762 14.1279 0.0000 -0.7808 0.0000
# 3 18.4333 14.1279 129.5252 0.0000 -19.8796 0.0000
# 4 0.0000 0.0000 0.0000 26.3887 0.0000 1.9702
# 5 -8.7657 -0.7808 -19.8796 0.0000 37.9915 0.0000
# 6 0.0000 0.0000 0.0000 1.9702 0.0000 21.0066
#
#
#
# Elastic Compliance Matrix: (Units=1/GPa)
#
#
# Indices 1 2 3 4 5 6 
#
# 1 0.019254 -0.002845 -0.001910 0.000000 0.003384 0.000000
# 2 -0.002845 0.016223 -0.001538 0.000000 -0.001128 0.000000
# 3 -0.001910 -0.001538 0.008794 0.000000 0.004129 0.000000
# 4 0.000000 0.000000 0.000000 0.038162 0.000000 -0.003579
# 5 0.003384 -0.001128 0.004129 0.000000 0.029240 0.000000
# 6 0.000000 0.000000 0.000000 -0.003579 0.000000 0.047940
#
#
# Mechanical properties :
#
#
# Convention : Reuss Voigt Hill
#
# Bulk Modulus (GPa) = 31.56113 37.63628 34.59871
# Shear Modulus (GPa) = 27.35814 30.92173 29.13994
#
# Velocity S-wave (km/s) = 3.55601 3.78052 3.66998
# Velocity P-wave (km/s) = 5.60787 6.03758 5.82669
#
# Compressibility (1/GPa) = 0.03168454
#
# Stress axis : x y z
#
# Youngs Moduli (GPa) = 51.93736 61.64014 113.71598
#
# Poissons Ratio (x) = 0.17538 0.21724
# Poissons Ratio (y) = 0.14777 0.17486
# Poissons Ratio (z) = 0.09922 0.09478
#
# Static dielectric constant tensor:
#      x y z
#    x 3.700010 0.000000 -0.199090 
#    y 0.000000 4.042880 0.000000 
#    z -0.199090 0.000000 4.467990 
# 
# 
# High freq. dielectric constant tensor:
#      x y z
#    x 1.828900 0.000000 -0.005940 
#    y 0.000000 1.851800 0.000000 
#    z -0.005940 0.000000 1.877830 
# 
# From -- ./inp_files/205793.got.cif
#   From: 2010.06.25/outbox.cif.g09.slc.cpg/sg15_103_cif.got.tgz:205793.got - 2010.06.28 07:06:18.
