data_PCOD8144286
_publ_section_title
;
Structure prediction by ZEFSAII (Michael W. Deem and Ramdas Pophale) SiO2 
 PCOD8144286
Probable space group: C 2/C
;
_chemical_formula_sum "Si O2"
_cell_formula_units_Z 48
_cell_length_a 18.878870
_cell_length_b 11.751049
_cell_length_c 12.626867
_cell_angle_alpha 90.000000
_cell_angle_beta 44.741073
_cell_angle_gamma 90.000000
_cell_volume 1971.794780
_symmetry_space_group_name_H-M "C 2/C"
_symmetry_group_IT_number 15
_symmetry_cell_setting 'monoclinic'
loop_
_space_group_symop_operation_xyz
x,y,z
-x,y,1/2-z
-x,-y,-z
x,-y,1/2+z
1/2+x,1/2+y,z
1/2-x,1/2+y,1/2-z
1/2-x,1/2-y,-z
1/2+x,1/2-y,1/2+z
loop_
_atom_site_type_symbol
_atom_site_label
_atom_site_fract_x
_atom_site_fract_y
_atom_site_fract_z
Si Si1 0.354601 0.525784 0.732257
Si Si2 0.399467 0.229914 0.461615
Si Si3 0.559052 0.248609 0.467842
Si Si4 0.500000 0.831443 0.250000
Si Si5 0.500000 0.434102 0.250000
Si Si6 0.756300 0.627653 0.295626
Si Si7 0.664259 0.023565 0.083791
O O1 0.392865 0.633884 0.624068
O O2 0.442185 0.490595 0.723090
O O3 0.339505 0.422999 0.666462
O O4 0.246763 0.532371 0.903561
O O5 0.474435 0.203051 0.477645
O O6 0.416828 0.351289 0.387604
O O7 0.283514 0.248584 0.622272
O O8 0.408497 0.130908 0.364447
O O9 0.512793 0.251990 0.635169
O O10 0.645347 0.151501 0.379188
O O11 0.600232 0.908015 0.154611
O O12 0.785289 0.537798 0.355744
#
# Coordination Sequence:
#
# PCOD8144286 Si02
#       7
#     8   8   8   4   4   8   8
#     4  11  24  46  72 107 144 192 240 305 362 435
#     4  11  23  43  71 105 139 189 242 301 348 430
#     4  11  26  46  72 103 152 187 245 299 369 427
#     4  12  27  46  71 112 146 196 237 304 369 430
#     4  10  21  42  67 102 138 182 241 292 357 426
#     4  12  24  44  74 107 140 189 245 302 362 433
#     4  12  23  42  74 106 144 186 244 299 363 426
#
# _framework density 24.343305000000001
#
# number of rings (size 3 to 8) (size 9 to 14) (size 15 to 20)
#    0.000    0.667    5.000    4.000    2.333    4.000 
#    3.000    2.500    0.000    0.000    0.000    0.000 
#    0.000    0.000    0.000    0.000    0.000    0.000 
#
# Total GULP energy -297477.826985 kJ/mol
# GULP energy per Si atom -12394.909458 kJ/mol
# Density = 2.428790 g / cm^3
# Si number density = 24.343305 Si / 1000 Ang^3
#
#
#
# Elastic Constant Matrix: (Units=GPa)
#
#
# Indices 1 2 3 4 5 6 
#
# 1 159.4821 44.4877 38.6222 0.0000 10.3089 0.0000
# 2 44.4877 58.3954 31.8463 0.0000 3.8059 0.0000
# 3 38.6222 31.8463 133.2047 0.0000 11.5163 0.0000
# 4 0.0000 0.0000 0.0000 23.2309 0.0000 -2.7078
# 5 10.3089 3.8059 11.5163 0.0000 40.0879 0.0000
# 6 0.0000 0.0000 0.0000 -2.7078 0.0000 38.2748
#
#
#
# Elastic Compliance Matrix: (Units=1/GPa)
#
#
# Indices 1 2 3 4 5 6 
#
# 1 0.008142 -0.005626 -0.000903 0.000000 -0.001300 0.000000
# 2 -0.005626 0.023590 -0.004041 0.000000 0.000368 0.000000
# 3 -0.000903 -0.004041 0.008903 0.000000 -0.001942 0.000000
# 4 0.000000 0.000000 0.000000 0.043404 0.000000 0.003071
# 5 -0.001300 0.000368 -0.001942 0.000000 0.025802 0.000000
# 6 0.000000 0.000000 0.000000 0.003071 0.000000 0.026344
#
#
# Mechanical properties :
#
#
# Convention : Reuss Voigt Hill
#
# Bulk Modulus (GPa) = 51.29217 64.55495 57.92356
# Shear Modulus (GPa) = 30.52047 36.06042 33.29044
#
# Velocity S-wave (km/s) = 3.54468 3.85298 3.70204
# Velocity P-wave (km/s) = 6.15378 6.80956 6.48996
#
# Compressibility (1/GPa) = 0.01949615
#
# Stress axis : x y z
#
# Youngs Moduli (GPa) = 122.81322 42.39068 112.32079
#
# Poissons Ratio (x) = 0.23848 0.10148
# Poissons Ratio (y) = 0.69092 0.45383
# Poissons Ratio (z) = 0.11096 0.17128
#
# Static dielectric constant tensor:
#      x y z
#    x 4.379680 0.000000 -0.018400 
#    y 0.000000 3.964520 0.000000 
#    z -0.018400 0.000000 4.699720 
# 
# 
# High freq. dielectric constant tensor:
#      x y z
#    x 1.974680 0.000000 -0.007710 
#    y 0.000000 1.939690 0.000000 
#    z -0.007710 0.000000 1.992190 
# 
# From -- ./inp_files/167877.got.cif
#   From: 2010.06.25/outbox.cif.g09.slc.cpg/sg15_84_cif.got.tgz:167877.got - 2010.06.28 07:06:18.
