data_PCOD8144027
_publ_section_title
;
Structure prediction by ZEFSAII (Michael W. Deem and Ramdas Pophale) SiO2 
 PCOD8144027
Probable space group: C 2/C
;
_chemical_formula_sum "Si O2"
_cell_formula_units_Z 48
_cell_length_a 7.324541
_cell_length_b 17.913021
_cell_length_c 22.505764
_cell_angle_alpha 90.000000
_cell_angle_beta 52.948316
_cell_angle_gamma 90.000000
_cell_volume 2356.655702
_symmetry_space_group_name_H-M "C 2/C"
_symmetry_group_IT_number 15
_symmetry_cell_setting 'monoclinic'
loop_
_space_group_symop_operation_xyz
x,y,z
-x,y,1/2-z
-x,-y,-z
x,-y,1/2+z
1/2+x,1/2+y,z
1/2-x,1/2+y,1/2-z
1/2-x,1/2-y,-z
1/2+x,1/2-y,1/2+z
loop_
_atom_site_type_symbol
_atom_site_label
_atom_site_fract_x
_atom_site_fract_y
_atom_site_fract_z
Si Si1 0.300309 0.698817 0.831611
Si Si2 0.540988 0.288125 0.073582
Si Si3 0.065996 0.212024 0.168642
Si Si4 0.578735 0.454492 0.427176
Si Si5 0.486393 0.062687 0.919815
Si Si6 0.301026 0.442021 0.908917
O O1 0.500000 0.670796 0.750000
O O2 0.423309 0.733061 0.864790
O O3 0.139223 0.759964 0.832695
O O4 0.168579 0.626752 0.878975
O O5 0.549066 0.375544 0.055476
O O6 0.294443 0.255530 0.103936
O O7 0.750000 0.250000 0.000000
O O8 0.000000 0.225858 0.250000
O O9 0.101937 0.124859 0.149322
O O10 0.500000 0.500000 0.500000
O O11 0.515381 0.503239 0.381618
O O12 0.850543 0.442702 0.383414
O O13 0.608249 0.983993 0.908218
O O14 0.314467 0.085297 0.006976
#
# Coordination Sequence:
#
# PCOD8144027 Si02
#       6
#     8   8   8   8   8   8
#     4  12  25  44  69  96 137 183 228 280 346 409
#     4  12  26  43  73 105 134 180 230 283 342 408
#     4  12  27  46  65  99 140 180 225 285 344 406
#     4  10  22  41  66 101 132 169 223 280 334 400
#     4  10  21  41  69  97 128 174 221 282 330 409
#     4  10  23  41  67  98 134 169 226 277 338 400
#
# _framework density 20.367846
#
# number of rings (size 3 to 8) (size 9 to 14) (size 15 to 20)
#    0.000    1.000    5.000    1.000    9.333    2.000 
#    0.000    0.000    0.000    0.000    0.000    0.000 
#    0.000    0.000    0.000    0.000    0.000    0.000 
#
# Total GULP energy -297584.119943 kJ/mol
# GULP energy per Si atom -12399.338331 kJ/mol
# Density = 2.032149 g / cm^3
# Si number density = 20.367846 Si / 1000 Ang^3
#
#
#
# Elastic Constant Matrix: (Units=GPa)
#
#
# Indices 1 2 3 4 5 6 
#
# 1 124.4251 29.1805 20.4924 -0.0003 0.3322 0.0003
# 2 29.1805 110.2647 24.0001 -0.0001 2.6741 0.0000
# 3 20.4924 24.0001 62.9163 -0.0002 -1.0677 0.0001
# 4 -0.0003 -0.0001 -0.0002 0.4130 0.0002 15.7023
# 5 0.3322 2.6741 -1.0677 0.0002 28.9020 -0.0001
# 6 0.0003 0.0000 0.0001 15.7023 -0.0001 26.4162
#
#
#
# Elastic Compliance Matrix: (Units=1/GPa)
#
#
# Indices 1 2 3 4 5 6 
#
# 1 0.008831 -0.001866 -0.002165 0.000000 -0.000009 0.000000
# 2 -0.001866 0.010317 -0.003346 0.000000 -0.001057 0.000000
# 3 -0.002165 -0.003346 0.017892 0.000000 0.000995 0.000000
# 4 0.000000 0.000000 0.000000 -0.112098 0.000001 0.066633
# 5 -0.000009 -0.001057 0.000995 0.000001 0.034734 0.000000
# 6 0.000000 0.000000 0.000000 0.066633 0.000000 -0.001753
#
#
# Mechanical properties :
#
#
# Convention : Reuss Voigt Hill
#
# Bulk Modulus (GPa) = 44.86763 49.43911 47.15337
# Shear Modulus (GPa) = -251.32043 26.07511 -112.62266
#
# Velocity S-wave (km/s) = -11.12019 3.58188 -7.44408
# Velocity P-wave (km/s) = 11.94997 6.43680 7.11932
#
# Compressibility (1/GPa) = 0.02228778
#
# Stress axis : x y z
#
# Youngs Moduli (GPa) = 113.23666 96.93064 55.88973
#
# Poissons Ratio (x) = 0.18084 0.12099
# Poissons Ratio (y) = 0.21126 0.18699
# Poissons Ratio (z) = 0.24514 0.32430
#
# Static dielectric constant tensor:
#      x y z
#    x 4.578540 0.000000 -0.136380 
#    y 0.000000 3.696000 0.000000 
#    z -0.136380 0.000000 3.523310 
# 
# 
# High freq. dielectric constant tensor:
#      x y z
#    x 1.825760 0.000000 -0.007650 
#    y 0.000000 1.798420 0.000000 
#    z -0.007650 0.000000 1.770760 
# 
# From -- ./inp_files/288993.got.cif
#   From: 2010.06.25/outbox.cif.g09.slc.cpg/sg15_145_cif.got.tgz:288993.got - 2010.06.28 07:06:18.
