data_PCOD8144022
_publ_section_title
;
Structure prediction by ZEFSAII (Michael W. Deem and Ramdas Pophale) SiO2 
 PCOD8144022
Probable space group: C 2/C
;
_chemical_formula_sum "Si O2"
_cell_formula_units_Z 40
_cell_length_a 18.163457
_cell_length_b 13.519223
_cell_length_c 13.625868
_cell_angle_alpha 90.000000
_cell_angle_beta 151.292592
_cell_angle_gamma 90.000000
_cell_volume 1607.164656
_symmetry_space_group_name_H-M "C 2/C"
_symmetry_group_IT_number 15
_symmetry_cell_setting 'monoclinic'
loop_
_space_group_symop_operation_xyz
x,y,z
-x,y,1/2-z
-x,-y,-z
x,-y,1/2+z
1/2+x,1/2+y,z
1/2-x,1/2+y,1/2-z
1/2-x,1/2-y,-z
1/2+x,1/2-y,1/2+z
loop_
_atom_site_type_symbol
_atom_site_label
_atom_site_fract_x
_atom_site_fract_y
_atom_site_fract_z
Si Si1 0.331876 0.456652 0.820390
Si Si2 0.058619 0.245619 0.054072
Si Si3 0.819285 0.038175 0.529350
Si Si4 0.753911 0.646593 0.872846
Si Si5 0.642871 0.839828 0.346762
O O1 0.328824 0.343933 0.777856
O O2 0.220936 0.533347 0.636217
O O3 0.500000 0.500000 0.000000
O O4 0.278202 0.443109 0.869563
O O5 0.101387 0.290392 0.996224
O O6 0.076268 0.329156 0.157732
O O7 0.890635 0.200021 0.846626
O O8 0.762309 0.133361 0.528032
O O9 0.000000 0.024127 0.750000
O O10 0.740171 0.938793 0.473612
O O11 0.500000 0.845044 0.250000
O O12 0.750000 0.750000 0.500000
#
# Coordination Sequence:
#
# PCOD8144022 Si02
#       5
#     8   8   8   8   8
#     4  10  21  41  69  95 134 180 230 273 350 404
#     4  11  23  44  67 100 135 183 231 286 344 419
#     4  12  23  45  71  98 139 188 230 282 348 419
#     4  11  24  44  70 102 138 185 231 287 348 415
#     4  12  26  41  70 106 138 179 233 289 346 410
#
# _framework density 24.888551
#
# number of rings (size 3 to 8) (size 9 to 14) (size 15 to 20)
#    0.000    0.800    6.000    3.000    5.600    0.800 
#    3.600    2.000    0.000    0.000    0.000    0.000 
#    0.000    0.000    0.000    0.000    0.000    0.000 
#
# Total GULP energy -247878.607716 kJ/mol
# GULP energy per Si atom -12393.930386 kJ/mol
# Density = 2.483190 g / cm^3
# Si number density = 24.888551 Si / 1000 Ang^3
#
#
#
# Elastic Constant Matrix: (Units=GPa)
#
#
# Indices 1 2 3 4 5 6 
#
# 1 162.6638 25.3067 19.3193 0.0000 7.6634 0.0000
# 2 25.3067 92.4170 3.6532 0.0000 20.4246 0.0000
# 3 19.3193 3.6532 24.4366 0.0000 3.9189 0.0000
# 4 0.0000 0.0000 0.0000 20.5937 0.0000 0.3713
# 5 7.6634 20.4246 3.9189 0.0000 32.1675 0.0000
# 6 0.0000 0.0000 0.0000 0.3713 0.0000 50.1726
#
#
#
# Elastic Compliance Matrix: (Units=1/GPa)
#
#
# Indices 1 2 3 4 5 6 
#
# 1 0.007046 -0.001735 -0.005323 0.000000 0.000071 0.000000
# 2 -0.001735 0.013023 0.000698 0.000000 -0.007941 0.000000
# 3 -0.005323 0.000698 0.045788 0.000000 -0.004754 0.000000
# 4 0.000000 0.000000 0.000000 0.048565 0.000000 -0.000359
# 5 0.000071 -0.007941 -0.004754 0.000000 0.036691 0.000000
# 6 0.000000 0.000000 0.000000 -0.000359 0.000000 0.019934
#
#
# Mechanical properties :
#
#
# Convention : Reuss Voigt Hill
#
# Bulk Modulus (GPa) = 18.81876 41.78617 30.30247
# Shear Modulus (GPa) = 24.81637 36.00264 30.40950
#
# Velocity S-wave (km/s) = 3.16111 3.80749 3.49926
# Velocity P-wave (km/s) = 4.57178 6.01290 5.34117
#
# Compressibility (1/GPa) = 0.05313846
#
# Stress axis : x y z
#
# Youngs Moduli (GPa) = 141.91682 76.78784 21.83960
#
# Poissons Ratio (x) = 0.13322 0.11625
# Poissons Ratio (y) = 0.24621 -0.01525
# Poissons Ratio (z) = 0.75540 -0.05361
#
# Static dielectric constant tensor:
#      x y z
#    x 5.781400 0.000000 -0.337640 
#    y 0.000000 5.114170 0.000000 
#    z -0.337640 0.000000 4.141270 
# 
# 
# High freq. dielectric constant tensor:
#      x y z
#    x 2.012500 0.000000 -0.000570 
#    y 0.000000 2.006690 0.000000 
#    z -0.000570 0.000000 1.954470 
# 
# From -- ./inp_files/162651.got.cif
#   From: 2010.06.25/outbox.cif.g09.slc.cpg/sg15_82_cif.got.tgz:162651.got - 2010.06.28 07:06:18.
