data_PCOD8144729
_publ_section_title
;
Structure prediction by ZEFSAII (Michael W. Deem and Ramdas Pophale) SiO2 
 PCOD8144729
Probable space group: C 2/C
;
_chemical_formula_sum "Si O2"
_cell_formula_units_Z 60
_cell_length_a 20.291164
_cell_length_b 11.686455
_cell_length_c 16.973201
_cell_angle_alpha 90.000000
_cell_angle_beta 133.023420
_cell_angle_gamma 90.000000
_cell_volume 2942.492481
_symmetry_space_group_name_H-M "C 2/C"
_symmetry_group_IT_number 15
_symmetry_cell_setting 'monoclinic'
loop_
_space_group_symop_operation_xyz
x,y,z
-x,y,1/2-z
-x,-y,-z
x,-y,1/2+z
1/2+x,1/2+y,z
1/2-x,1/2+y,1/2-z
1/2-x,1/2-y,-z
1/2+x,1/2-y,1/2+z
loop_
_atom_site_type_symbol
_atom_site_label
_atom_site_fract_x
_atom_site_fract_y
_atom_site_fract_z
Si Si1 0.355333 0.264532 0.566433
Si Si2 0.835420 0.525814 0.166665
Si Si3 0.000000 0.412423 0.250000
Si Si4 0.222518 0.790719 0.663238
Si Si5 0.591943 0.484090 0.793493
Si Si6 0.592940 0.470519 0.614445
Si Si7 0.260566 0.136781 0.959210
Si Si8 0.791388 0.842284 0.359505
O O1 0.250000 0.250000 0.500000
O O2 0.423375 0.160981 0.642217
O O3 0.389176 0.375038 0.638577
O O4 0.361766 0.284284 0.477518
O O5 0.806184 0.636325 0.194286
O O6 0.780757 0.413874 0.148778
O O7 0.942000 0.494815 0.261850
O O8 0.818771 0.548186 0.058880
O O9 0.133720 0.868032 0.595534
O O10 0.197571 0.678500 0.590338
O O11 0.244449 0.757097 0.770788
O O12 0.500000 0.540883 0.750000
O O13 0.582263 0.438701 0.696679
O O14 0.665022 0.581879 0.862163
O O15 0.500000 0.500000 0.500000
O O16 0.657727 0.579792 0.662111
O O17 0.250000 0.250000 0.000000
#
# Coordination Sequence:
#
# PCOD8144729 Si02
#       8
#     8   8   4   8   8   8   8   8
#     4  12  23  39  70  94 129 176 222 272 329 394
#     4  10  23  42  68  92 134 172 221 271 321 406
#     4  12  24  44  66  98 130 170 230 274 328 390
#     4  10  23  44  66  94 134 177 217 268 345 392
#     4  12  23  40  67 101 127 170 230 268 321 403
#     4  11  25  39  63  97 135 168 217 281 326 388
#     4  10  21  44  67  94 128 182 212 265 336 391
#     4  11  21  42  65  95 131 171 219 273 335 383
#
# _framework density 20.390877
#
# number of rings (size 3 to 8) (size 9 to 14) (size 15 to 20)
#    0.000    1.067    4.667    1.600    3.733    0.000 
#    7.200    0.667    0.000    0.000    0.000    0.000 
#    0.000    0.000    0.000    0.000    0.000    0.000 
#
# Total GULP energy -371847.864896 kJ/mol
# GULP energy per Si atom -12394.928830 kJ/mol
# Density = 2.034447 g / cm^3
# Si number density = 20.390877 Si / 1000 Ang^3
#
#
#
# Elastic Constant Matrix: (Units=GPa)
#
#
# Indices 1 2 3 4 5 6 
#
# 1 111.8524 48.3853 58.8154 0.0000 1.2642 0.0000
# 2 48.3853 94.6622 52.7506 0.0000 2.3861 0.0000
# 3 58.8154 52.7506 125.5995 0.0000 -7.4551 0.0000
# 4 0.0000 0.0000 0.0000 36.3064 0.0000 -2.4667
# 5 1.2642 2.3861 -7.4551 0.0000 43.4532 0.0000
# 6 0.0000 0.0000 0.0000 -2.4667 0.0000 26.5231
#
#
#
# Elastic Compliance Matrix: (Units=1/GPa)
#
#
# Indices 1 2 3 4 5 6 
#
# 1 0.013094 -0.004208 -0.004418 0.000000 -0.000908 0.000000
# 2 -0.004208 0.015280 -0.004536 0.000000 -0.001495 0.000000
# 3 -0.004418 -0.004536 0.012081 0.000000 0.002450 0.000000
# 4 0.000000 0.000000 0.000000 0.027719 0.000000 0.002578
# 5 -0.000908 -0.001495 0.002450 0.000000 0.023542 0.000000
# 6 0.000000 0.000000 0.000000 0.002578 0.000000 0.037943
#
#
# Mechanical properties :
#
#
# Convention : Reuss Voigt Hill
#
# Bulk Modulus (GPa) = 70.76407 72.44631 71.60519
# Shear Modulus (GPa) = 31.11527 32.73406 31.92466
#
# Velocity S-wave (km/s) = 3.91057 4.01100 3.96110
# Velocity P-wave (km/s) = 7.42760 7.55359 7.49086
#
# Compressibility (1/GPa) = 0.01413147
#
# Stress axis : x y z
#
# Youngs Moduli (GPa) = 76.36992 65.44554 82.77330
#
# Poissons Ratio (x) = 0.27539 0.36572
# Poissons Ratio (y) = 0.32136 0.37543
# Poissons Ratio (z) = 0.33743 0.29684
#
# Static dielectric constant tensor:
#      x y z
#    x 3.790660 0.000000 -0.186740 
#    y 0.000000 4.287660 0.000000 
#    z -0.186740 0.000000 4.017650 
# 
# 
# High freq. dielectric constant tensor:
#      x y z
#    x 1.796480 0.000000 -0.009250 
#    y 0.000000 1.803850 0.000000 
#    z -0.009250 0.000000 1.794030 
# 
# From -- ./inp_files/215216.got.cif
#   From: 2010.06.25/outbox.cif.g09.slc.cpg/sg15_108_cif.got.tgz:215216.got - 2010.06.28 07:06:18.
