data_PCOD8144546
_publ_section_title
;
Structure prediction by ZEFSAII (Michael W. Deem and Ramdas Pophale) SiO2 
 PCOD8144546
Probable space group: C 2/C
;
_chemical_formula_sum "Si O2"
_cell_formula_units_Z 44
_cell_length_a 9.143880
_cell_length_b 19.634937
_cell_length_c 12.644106
_cell_angle_alpha 90.000000
_cell_angle_beta 64.300599
_cell_angle_gamma 90.000000
_cell_volume 2045.560166
_symmetry_space_group_name_H-M "C 2/C"
_symmetry_group_IT_number 15
_symmetry_cell_setting 'monoclinic'
loop_
_space_group_symop_operation_xyz
x,y,z
-x,y,1/2-z
-x,-y,-z
x,-y,1/2+z
1/2+x,1/2+y,z
1/2-x,1/2+y,1/2-z
1/2-x,1/2-y,-z
1/2+x,1/2-y,1/2+z
loop_
_atom_site_type_symbol
_atom_site_label
_atom_site_fract_x
_atom_site_fract_y
_atom_site_fract_z
Si Si1 0.242640 0.131607 0.408748
Si Si2 0.000000 0.263085 0.750000
Si Si3 0.368604 0.153682 0.976043
Si Si4 0.588676 0.702584 0.933149
Si Si5 0.188882 0.064066 0.207417
Si Si6 0.129448 0.555627 0.928451
O O1 0.369350 0.192893 0.354974
O O2 0.245461 0.083529 0.306349
O O3 0.291853 0.086713 0.492204
O O4 0.064428 0.159486 0.482912
O O5 0.090537 0.215143 0.806598
O O6 0.250623 0.160082 0.911806
O O7 0.534723 0.114201 0.891560
O O8 0.417683 0.227756 0.000294
O O9 0.281453 0.113324 0.097863
O O10 0.000000 0.075748 0.250000
O O11 0.231359 0.983778 0.180851
O O12 0.000000 0.500000 0.000000
#
# Coordination Sequence:
#
# PCOD8144546 Si02
#       6
#     8   4   8   8   8   8
#     4  12  23  44  71  96 136 177 224 277 331 407
#     4  12  22  40  66 104 134 180 212 268 348 396
#     4  10  21  43  67 101 134 173 223 279 334 399
#     4  11  23  40  72 100 139 171 220 278 340 405
#     4  11  22  44  72  94 131 183 226 274 338 387
#     4  10  23  43  68  96 130 180 229 273 328 396
#
# _framework density 21.510002
#
# number of rings (size 3 to 8) (size 9 to 14) (size 15 to 20)
#    0.000    1.091    5.455    1.636    0.000    0.727 
#    1.636    1.818    0.000    0.000    0.000    0.000 
#    0.000    0.000    0.000    0.000    0.000    0.000 
#
# Total GULP energy -272817.727934 kJ/mol
# GULP energy per Si atom -12400.805815 kJ/mol
# Density = 2.146104 g / cm^3
# Si number density = 21.510002 Si / 1000 Ang^3
#
#
#
# Elastic Constant Matrix: (Units=GPa)
#
#
# Indices 1 2 3 4 5 6 
#
# 1 146.0874 65.3295 51.9216 0.0000 38.0071 0.0000
# 2 65.3295 111.1938 50.8384 0.0000 20.3750 0.0000
# 3 51.9216 50.8384 84.6343 0.0000 23.3663 0.0000
# 4 0.0000 0.0000 0.0000 39.0111 0.0000 3.3738
# 5 38.0071 20.3750 23.3663 0.0000 30.3166 0.0000
# 6 0.0000 0.0000 0.0000 3.3738 0.0000 46.8284
#
#
#
# Elastic Compliance Matrix: (Units=1/GPa)
#
#
# Indices 1 2 3 4 5 6 
#
# 1 0.012356 -0.004358 -0.001898 0.000000 -0.011099 0.000000
# 2 -0.004358 0.014200 -0.006008 0.000000 0.000551 0.000000
# 3 -0.001898 -0.006008 0.018823 0.000000 -0.008089 0.000000
# 4 0.000000 0.000000 0.000000 0.025794 0.000000 -0.001858
# 5 -0.011099 0.000551 -0.008089 0.000000 0.052764 0.000000
# 6 0.000000 0.000000 0.000000 -0.001858 0.000000 0.021488
#
#
# Mechanical properties :
#
#
# Convention : Reuss Voigt Hill
#
# Bulk Modulus (GPa) = 47.96255 75.34383 61.65319
# Shear Modulus (GPa) = 28.26383 34.81961 31.54172
#
# Velocity S-wave (km/s) = 3.62883 4.02775 3.83348
# Velocity P-wave (km/s) = 6.31696 7.53218 6.95118
#
# Compressibility (1/GPa) = 0.02084960
#
# Stress axis : x y z
#
# Youngs Moduli (GPa) = 80.93005 70.42380 53.12786
#
# Poissons Ratio (x) = 0.30691 0.10086
# Poissons Ratio (y) = 0.35270 0.31920
# Poissons Ratio (z) = 0.15364 0.42311
#
# Static dielectric constant tensor:
#      x y z
#    x 4.458430 0.000000 -0.072060 
#    y 0.000000 4.099760 0.000000 
#    z -0.072060 0.000000 3.736820 
# 
# 
# High freq. dielectric constant tensor:
#      x y z
#    x 1.871050 0.000000 0.006810 
#    y 0.000000 1.852060 0.000000 
#    z 0.006810 0.000000 1.822340 
# 
# From -- ./inp_files/78121.got.cif
#   From: 2010.06.25/outbox.cif.g09.slc.cpg/sg15_40_cif.got.tgz:78121.got - 2010.06.28 07:06:18.
