data_PCOD8144219
_publ_section_title
;
Structure prediction by ZEFSAII (Michael W. Deem and Ramdas Pophale) SiO2 
 PCOD8144219
Probable space group: C 2/C
;
_chemical_formula_sum "Si O2"
_cell_formula_units_Z 64
_cell_length_a 17.176780
_cell_length_b 10.195330
_cell_length_c 30.335142
_cell_angle_alpha 90.000000
_cell_angle_beta 32.176767
_cell_angle_gamma 90.000000
_cell_volume 2829.017838
_symmetry_space_group_name_H-M "C 2/C"
_symmetry_group_IT_number 15
_symmetry_cell_setting 'monoclinic'
loop_
_space_group_symop_operation_xyz
x,y,z
-x,y,1/2-z
-x,-y,-z
x,-y,1/2+z
1/2+x,1/2+y,z
1/2-x,1/2+y,1/2-z
1/2-x,1/2-y,-z
1/2+x,1/2-y,1/2+z
loop_
_atom_site_type_symbol
_atom_site_label
_atom_site_fract_x
_atom_site_fract_y
_atom_site_fract_z
Si Si1 0.121529 0.527406 0.502766
Si Si2 0.444294 0.331563 0.729726
Si Si3 0.872132 0.653615 0.089863
Si Si4 0.573115 0.421536 0.125092
Si Si5 0.910531 0.341389 0.836950
Si Si6 0.896849 0.852685 0.546807
Si Si7 0.620290 0.885084 0.096151
Si Si8 0.934142 0.936756 0.960863
O O1 0.181391 0.616046 0.433847
O O2 0.250980 0.429113 0.455482
O O3 0.076582 0.612508 0.566193
O O4 0.969636 0.461972 0.562401
O O5 0.500000 0.284981 0.750000
O O6 0.268475 0.321420 0.812024
O O7 0.491945 0.480100 0.697103
O O8 0.517398 0.232612 0.660600
O O9 0.969948 0.782260 0.041682
O O10 0.526411 0.273320 0.160943
O O11 0.525688 0.461518 0.097724
O O12 0.756815 0.285028 0.891402
O O13 0.907793 0.475714 0.866163
O O14 0.000000 0.368350 0.750000
O O15 0.925225 0.855940 0.587039
O O16 0.883455 0.994615 0.530799
O O17 0.793663 0.848005 0.015296
#
# Coordination Sequence:
#
# PCOD8144219 Si02
#       8
#     8   8   8   8   8   8   8   8
#     4  10  23  42  67  98 131 182 228 281 339 416
#     4  12  24  42  67 101 136 177 220 287 351 407
#     4  11  23  41  69  95 138 177 224 283 348 412
#     4  11  23  42  70  99 134 175 237 282 340 411
#     4  11  24  43  72  96 136 186 233 285 345 415
#     4  10  21  42  65  94 131 179 225 275 344 413
#     4  10  24  43  70  99 136 179 231 280 347 414
#     4   9  22  39  67  97 131 176 227 284 337 412
#
# _framework density 22.622692000000001
#
# number of rings (size 3 to 8) (size 9 to 14) (size 15 to 20)
#    0.000    1.500    2.500    1.500    3.500    4.500 
#    4.500    0.000    0.000    0.000    0.000    0.000 
#    0.000    0.000    0.000    0.000    0.000    0.000 
#
# Total GULP energy -396554.395210 kJ/mol
# GULP energy per Si atom -12392.324850 kJ/mol
# Density = 2.257120 g / cm^3
# Si number density = 22.622692 Si / 1000 Ang^3
#
#
#
# Elastic Constant Matrix: (Units=GPa)
#
#
# Indices 1 2 3 4 5 6 
#
# 1 114.8774 11.9274 31.3436 0.0010 9.9380 0.0028
# 2 11.9274 76.4842 12.5904 0.0012 -3.3536 0.0022
# 3 31.3436 12.5904 78.8233 -0.0003 -0.8728 -0.0007
# 4 0.0010 0.0012 -0.0003 39.0028 0.0001 8.7403
# 5 9.9380 -3.3536 -0.8728 0.0001 33.9375 0.0005
# 6 0.0028 0.0022 -0.0007 8.7403 0.0005 12.3516
#
#
#
# Elastic Compliance Matrix: (Units=1/GPa)
#
#
# Indices 1 2 3 4 5 6 
#
# 1 0.010157 -0.001081 -0.003901 0.000000 -0.003181 -0.000002
# 2 -0.001081 0.013598 -0.001724 0.000000 0.001616 -0.000002
# 3 -0.003901 -0.001724 0.014528 0.000000 0.001346 0.000002
# 4 0.000000 0.000000 0.000000 0.030471 0.000000 -0.021562
# 5 -0.003181 0.001616 0.001346 0.000000 0.030592 -0.000001
# 6 -0.000002 -0.000002 0.000002 -0.021562 -0.000001 0.096219
#
#
# Mechanical properties :
#
#
# Convention : Reuss Voigt Hill
#
# Bulk Modulus (GPa) = 40.20974 42.43419 41.32197
# Shear Modulus (GPa) = 23.01306 31.34663 27.17985
#
# Velocity S-wave (km/s) = 3.19290 3.72644 3.46994
# Velocity P-wave (km/s) = 5.60406 6.10846 5.86169
#
# Compressibility (1/GPa) = 0.02486960
#
# Stress axis : x y z
#
# Youngs Moduli (GPa) = 98.45546 73.54093 68.83147
#
# Poissons Ratio (x) = 0.07951 0.26854
# Poissons Ratio (y) = 0.10645 0.11868
# Poissons Ratio (z) = 0.38411 0.12680
#
# Static dielectric constant tensor:
#      x y z
#    x 4.551580 0.000000 -0.029340 
#    y 0.000000 3.871690 0.000000 
#    z -0.029340 0.000000 3.982860 
# 
# 
# High freq. dielectric constant tensor:
#      x y z
#    x 1.906370 0.000000 0.006010 
#    y 0.000000 1.889070 0.000000 
#    z 0.006010 0.000000 1.874710 
# 
# From -- ./inp_files/316176.got.cif
#   From: 2010.06.25/outbox.cif.g09.slc.cpg/sg15_159_cif.got.tgz:316176.got - 2010.06.28 07:06:18.
