data_PCOD8144076
_publ_section_title
;
Structure prediction by ZEFSAII (Michael W. Deem and Ramdas Pophale) SiO2 
 PCOD8144076
Probable space group: C 2/C
;
_chemical_formula_sum "Si O2"
_cell_formula_units_Z 48
_cell_length_a 11.755187
_cell_length_b 15.709143
_cell_length_c 13.884681
_cell_angle_alpha 90.000000
_cell_angle_beta 119.737391
_cell_angle_gamma 90.000000
_cell_volume 2226.341293
_symmetry_space_group_name_H-M "C 2/C"
_symmetry_group_IT_number 15
_symmetry_cell_setting 'monoclinic'
loop_
_space_group_symop_operation_xyz
x,y,z
-x,y,1/2-z
-x,-y,-z
x,-y,1/2+z
1/2+x,1/2+y,z
1/2-x,1/2+y,1/2-z
1/2-x,1/2-y,-z
1/2+x,1/2-y,1/2+z
loop_
_atom_site_type_symbol
_atom_site_label
_atom_site_fract_x
_atom_site_fract_y
_atom_site_fract_z
Si Si1 0.792011 0.894863 0.522066
Si Si2 0.145366 0.954069 0.323536
Si Si3 0.500000 0.900512 0.750000
Si Si4 0.310971 0.040168 0.710948
Si Si5 0.921150 0.733243 0.522907
Si Si6 0.156559 0.324337 0.990654
Si Si7 0.500000 0.819131 0.250000
O O1 0.727585 0.959558 0.418147
O O2 0.874769 0.830693 0.486216
O O3 0.686111 0.840996 0.540766
O O4 0.870785 0.954408 0.629848
O O5 0.190510 0.965587 0.232766
O O6 0.252880 0.898500 0.426364
O O7 0.000000 0.912951 0.250000
O O8 0.422836 0.846149 0.638908
O O9 0.398485 0.957389 0.767606
O O10 0.397161 0.123987 0.767376
O O11 0.054036 0.711751 0.524886
O O12 0.933162 0.740157 0.643792
O O13 0.250000 0.250000 0.000000
#
# Coordination Sequence:
#
# PCOD8144076 Si02
#       7
#     8   8   4   8   8   8   4
#     4  10  23  43  69 106 134 177 230 290 346 405
#     4  12  27  44  67 101 143 181 225 287 349 410
#     4  11  24  46  74  99 128 180 234 281 348 412
#     4  10  21  41  73  97 130 176 228 284 338 416
#     4  10  22  43  71 100 139 175 233 283 345 419
#     4  12  28  46  69 100 140 186 232 283 348 419
#     4   9  18  38  68  99 124 174 230 281 340 396
#
# _framework density 21.560037000000001
#
# number of rings (size 3 to 8) (size 9 to 14) (size 15 to 20)
#    0.000    1.333    3.333    1.000    4.667    3.333 
#    3.000    0.000    0.000    0.000    0.000    0.000 
#    0.000    0.000    0.000    0.000    0.000    0.000 
#
# Total GULP energy -297408.284576 kJ/mol
# GULP energy per Si atom -12392.011857 kJ/mol
# Density = 2.151097 g / cm^3
# Si number density = 21.560037 Si / 1000 Ang^3
#
#
#
# Elastic Constant Matrix: (Units=GPa)
#
#
# Indices 1 2 3 4 5 6 
#
# 1 163.5889 51.5648 39.6670 0.0000 7.1343 0.0000
# 2 51.5648 86.4142 38.7325 0.0000 0.7911 0.0000
# 3 39.6670 38.7325 95.2570 0.0000 10.7841 0.0000
# 4 0.0000 0.0000 0.0000 92.1287 0.0000 -145.9415
# 5 7.1343 0.7911 10.7841 0.0000 29.6998 0.0000
# 6 0.0000 0.0000 0.0000 -145.9415 0.0000 395.3338
#
#
#
# Elastic Compliance Matrix: (Units=1/GPa)
#
#
# Indices 1 2 3 4 5 6 
#
# 1 0.007776 -0.003961 -0.001489 0.000000 -0.001222 0.000000
# 2 -0.003961 0.016261 -0.005236 0.000000 0.002420 0.000000
# 3 -0.001489 -0.005236 0.013756 0.000000 -0.004498 0.000000
# 4 0.000000 0.000000 0.000000 0.026142 0.000000 0.009650
# 5 -0.001222 0.002420 -0.004498 0.000000 0.035532 0.000000
# 6 0.000000 0.000000 0.000000 0.009650 0.000000 0.006092
#
#
# Mechanical properties :
#
#
# Convention : Reuss Voigt Hill
#
# Bulk Modulus (GPa) = 60.90192 67.24319 64.07255
# Shear Modulus (GPa) = 37.76279 117.78554 77.77417
#
# Velocity S-wave (km/s) = 4.18965 7.39933 6.01262
# Velocity P-wave (km/s) = 7.19119 10.21061 8.83090
#
# Compressibility (1/GPa) = 0.01641984
#
# Stress axis : x y z
#
# Youngs Moduli (GPa) = 128.60268 61.49760 72.69439
#
# Poissons Ratio (x) = 0.24362 0.10824
# Poissons Ratio (y) = 0.50945 0.38064
# Poissons Ratio (z) = 0.19149 0.32201
#
# Static dielectric constant tensor:
#      x y z
#    x 3.821450 0.000000 0.219840 
#    y 0.000000 3.832270 0.000000 
#    z 0.219840 0.000000 3.969390 
# 
# 
# High freq. dielectric constant tensor:
#      x y z
#    x 1.844470 0.000000 0.007180 
#    y 0.000000 1.842750 0.000000 
#    z 0.007180 0.000000 1.851920 
# 
# From -- ./inp_files/144124.got.cif
#   From: 2010.06.25/outbox.cif.g09.slc.cpg/sg15_73_cif.got.tgz:144124.got - 2010.06.28 07:06:18.
