data_PCOD8144250
_publ_section_title
;
Structure prediction by ZEFSAII (Michael W. Deem and Ramdas Pophale) SiO2 
 PCOD8144250
Probable space group: C 2/C
;
_chemical_formula_sum "Si O2"
_cell_formula_units_Z 64
_cell_length_a 24.127943
_cell_length_b 11.442650
_cell_length_c 11.552914
_cell_angle_alpha 90.000000
_cell_angle_beta 84.112896
_cell_angle_gamma 90.000000
_cell_volume 3172.794114
_symmetry_space_group_name_H-M "C 2/C"
_symmetry_group_IT_number 15
_symmetry_cell_setting 'monoclinic'
loop_
_space_group_symop_operation_xyz
x,y,z
-x,y,1/2-z
-x,-y,-z
x,-y,1/2+z
1/2+x,1/2+y,z
1/2-x,1/2+y,1/2-z
1/2-x,1/2-y,-z
1/2+x,1/2-y,1/2+z
loop_
_atom_site_type_symbol
_atom_site_label
_atom_site_fract_x
_atom_site_fract_y
_atom_site_fract_z
Si Si1 0.572980 0.407285 0.935810
Si Si2 0.880773 0.680542 0.198979
Si Si3 0.061610 0.764556 0.724229
Si Si4 0.838453 0.774942 0.436257
Si Si5 0.773887 0.595604 0.590074
Si Si6 0.705399 0.151724 0.479739
Si Si7 0.952812 0.830498 0.027534
Si Si8 0.147852 0.577328 0.723174
O O1 0.569301 0.380503 0.799958
O O2 0.576014 0.546452 0.938458
O O3 0.628791 0.355753 0.980401
O O4 0.519471 0.349012 0.011149
O O5 0.874995 0.758385 0.314395
O O6 0.936965 0.729078 0.124042
O O7 0.881490 0.546770 0.242935
O O8 0.829970 0.698891 0.121004
O O9 0.073837 0.793396 0.588852
O O10 0.101763 0.669428 0.771559
O O11 0.000000 0.712636 0.750000
O O12 0.821835 0.650925 0.497258
O O13 0.782255 0.834040 0.405593
O O14 0.759732 0.462995 0.560372
O O15 0.795946 0.596887 0.716548
O O16 0.750000 0.250000 0.500000
O O17 0.663242 0.107639 0.588166
#
# Coordination Sequence:
#
# PCOD8144250 Si02
#       8
#     8   8   8   8   8   8   8   8
#     4  10  23  42  68  90 131 168 208 272 327 376
#     4  11  24  40  65  94 129 162 212 266 318 387
#     4  10  21  42  66  91 124 169 217 260 321 386
#     4  11  22  41  61  90 127 167 207 263 316 380
#     4  10  23  40  60  89 124 167 212 252 314 378
#     4  11  23  41  63  90 127 171 212 264 313 375
#     4  10  23  43  64  99 125 164 218 265 321 395
#     4  11  21  43  63  89 129 168 203 274 312 372
#
# _framework density 20.171495
#
# number of rings (size 3 to 8) (size 9 to 14) (size 15 to 20)
#    0.000    1.500    3.750    0.750    3.500    0.500 
#    2.250    1.250    0.000    0.000    0.000    0.000 
#    0.000    0.000    0.000    0.000    0.000    0.000 
#
# Total GULP energy -396687.840407 kJ/mol
# GULP energy per Si atom -12396.495013 kJ/mol
# Density = 2.012558 g / cm^3
# Si number density = 20.171495 Si / 1000 Ang^3
#
#
#
# Elastic Constant Matrix: (Units=GPa)
#
#
# Indices 1 2 3 4 5 6 
#
# 1 55.9524 38.5308 12.0727 0.0000 2.9180 0.0000
# 2 38.5308 105.2935 24.3133 0.0000 0.7990 0.0000
# 3 12.0727 24.3133 90.6508 0.0000 -9.7949 0.0000
# 4 0.0000 0.0000 0.0000 29.2523 0.0000 -1.9931
# 5 2.9180 0.7990 -9.7949 0.0000 28.5014 0.0000
# 6 0.0000 0.0000 0.0000 -1.9931 0.0000 34.8080
#
#
#
# Elastic Compliance Matrix: (Units=1/GPa)
#
#
# Indices 1 2 3 4 5 6 
#
# 1 0.024152 -0.008538 -0.001213 0.000000 -0.002650 0.000000
# 2 -0.008538 0.013186 -0.002436 0.000000 -0.000333 0.000000
# 3 -0.001213 -0.002436 0.012325 0.000000 0.004428 0.000000
# 4 0.000000 0.000000 0.000000 0.034319 0.000000 0.001965
# 5 -0.002650 -0.000333 0.004428 0.000000 0.036888 0.000000
# 6 0.000000 0.000000 0.000000 0.001965 0.000000 0.028842
#
#
# Mechanical properties :
#
#
# Convention : Reuss Voigt Hill
#
# Bulk Modulus (GPa) = 39.54122 44.63671 42.08897
# Shear Modulus (GPa) = 27.39505 30.31099 28.85302
#
# Velocity S-wave (km/s) = 3.68925 3.88063 3.78615
# Velocity P-wave (km/s) = 6.14756 6.50044 6.32646
#
# Compressibility (1/GPa) = 0.02529006
#
# Stress axis : x y z
#
# Youngs Moduli (GPa) = 41.40497 75.83517 81.13866
#
# Poissons Ratio (x) = 0.64747 0.09841
# Poissons Ratio (y) = 0.35351 0.19762
# Poissons Ratio (z) = 0.05022 0.18470
#
# Static dielectric constant tensor:
#      x y z
#    x 3.479620 0.000000 0.024290 
#    y 0.000000 3.705630 0.000000 
#    z 0.024290 0.000000 3.785330 
# 
# 
# High freq. dielectric constant tensor:
#      x y z
#    x 1.777900 0.000000 0.005870 
#    y 0.000000 1.791600 0.000000 
#    z 0.005870 0.000000 1.798800 
# 
# From -- ./inp_files/117587.got.cif
#   From: 2010.06.25/outbox.cif.g09.slc.cpg/sg15_59_cif.got.tgz:117587.got - 2010.06.28 07:06:18.
