data_PCOD8144428
_publ_section_title
;
Structure prediction by ZEFSAII (Michael W. Deem and Ramdas Pophale) SiO2 
 PCOD8144428
Probable space group: C 2/C
;
_chemical_formula_sum "Si O2"
_cell_formula_units_Z 60
_cell_length_a 24.020844
_cell_length_b 8.092113
_cell_length_c 21.022354
_cell_angle_alpha 90.000000
_cell_angle_beta 39.808744
_cell_angle_gamma 90.000000
_cell_volume 2616.167173
_symmetry_space_group_name_H-M "C 2/C"
_symmetry_group_IT_number 15
_symmetry_cell_setting 'monoclinic'
loop_
_space_group_symop_operation_xyz
x,y,z
-x,y,1/2-z
-x,-y,-z
x,-y,1/2+z
1/2+x,1/2+y,z
1/2-x,1/2+y,1/2-z
1/2-x,1/2-y,-z
1/2+x,1/2-y,1/2+z
loop_
_atom_site_type_symbol
_atom_site_label
_atom_site_fract_x
_atom_site_fract_y
_atom_site_fract_z
Si Si1 0.356885 0.192989 0.679841
Si Si2 0.957716 0.781188 0.032595
Si Si3 0.692688 0.165698 0.257742
Si Si4 0.695690 0.362683 0.128366
Si Si5 0.461764 0.526224 0.926253
Si Si6 0.624030 0.815808 0.571910
Si Si7 0.909526 0.837727 0.760825
Si Si8 0.000000 0.551199 0.750000
O O1 0.453181 0.178905 0.562038
O O2 0.290204 0.281852 0.690646
O O3 0.367230 0.314122 0.729532
O O4 0.313519 0.029896 0.749222
O O5 0.876337 0.669509 0.123510
O O6 0.970041 0.896672 0.083593
O O7 0.918379 0.881453 0.006584
O O8 0.666162 0.278994 0.220744
O O9 0.662085 0.233329 0.106322
O O10 0.654490 0.539232 0.146531
O O11 0.798444 0.400897 0.035329
O O12 0.398510 0.663813 0.954141
O O13 0.502130 0.441307 0.827936
O O14 0.543162 0.939443 0.656243
O O15 0.926377 0.667155 0.783167
#
# Coordination Sequence:
#
# PCOD8144428 Si02
#       8
#     8   8   8   8   8   8   8   4
#     4  11  26  41  67 104 137 182 231 278 347 409
#     4  10  23  42  70 101 136 186 228 278 341 416
#     4  12  24  45  69  99 143 179 225 291 341 409
#     4  11  24  45  70  97 135 177 229 285 347 407
#     4  10  21  42  71  95 135 174 232 274 343 404
#     4  11  25  43  71 101 130 179 229 285 344 412
#     4  11  23  45  65  97 137 178 226 281 341 406
#     4  12  26  44  68 100 134 182 234 280 348 408
#
# _framework density 22.934313
#
# number of rings (size 3 to 8) (size 9 to 14) (size 15 to 20)
#    0.000    1.067    1.333    4.400    7.467    0.533 
#    9.600    0.000    0.000    0.000    0.000    0.000 
#    0.000    0.000    0.000    0.000    0.000    0.000 
#
# Total GULP energy -371735.546417 kJ/mol
# GULP energy per Si atom -12391.184881 kJ/mol
# Density = 2.288211 g / cm^3
# Si number density = 22.934313 Si / 1000 Ang^3
#
#
#
# Elastic Constant Matrix: (Units=GPa)
#
#
# Indices 1 2 3 4 5 6 
#
# 1 81.1198 29.2183 29.9729 0.0101 -2.1126 -0.0034
# 2 29.2183 97.2556 49.6087 0.0892 -14.4790 0.0063
# 3 29.9729 49.6087 132.5313 0.0620 -12.1993 -0.0089
# 4 0.0101 0.0892 0.0620 24.5228 -0.0195 -6.0355
# 5 -2.1126 -14.4790 -12.1993 -0.0195 25.0642 0.0041
# 6 -0.0034 0.0063 -0.0089 -6.0355 0.0041 39.4527
#
#
#
# Elastic Compliance Matrix: (Units=1/GPa)
#
#
# Indices 1 2 3 4 5 6 
#
# 1 0.014316 -0.003506 -0.002094 0.000011 -0.001838 0.000003
# 2 -0.003506 0.014267 -0.003995 -0.000038 0.006002 -0.000010
# 3 -0.002094 -0.003995 0.009721 -0.000007 0.002247 0.000001
# 4 0.000011 -0.000038 -0.000007 0.042374 0.000007 0.006482
# 5 -0.001838 0.006002 0.002247 0.000007 0.044303 -0.000004
# 6 0.000003 -0.000010 0.000001 0.006482 -0.000004 0.026338
#
#
# Mechanical properties :
#
#
# Convention : Reuss Voigt Hill
#
# Bulk Modulus (GPa) = 52.32017 58.72296 55.52156
# Shear Modulus (GPa) = 28.26731 31.28173 29.77452
#
# Velocity S-wave (km/s) = 3.51455 3.69720 3.60704
# Velocity P-wave (km/s) = 6.27153 6.62467 6.45051
#
# Compressibility (1/GPa) = 0.01911309
#
# Stress axis : x y z
#
# Youngs Moduli (GPa) = 69.84986 70.09246 102.86713
#
# Poissons Ratio (x) = 0.24577 0.21545
# Poissons Ratio (y) = 0.24492 0.41094
# Poissons Ratio (z) = 0.14630 0.28001
#
# Static dielectric constant tensor:
#      x y z
#    x 3.944480 -0.000040 0.072760 
#    y -0.000040 4.204260 0.000030 
#    z 0.072760 0.000030 4.301240 
# 
# 
# High freq. dielectric constant tensor:
#      x y z
#    x 1.899420 0.000000 0.005990 
#    y 0.000000 1.906210 0.000000 
#    z 0.005990 0.000000 1.907460 
# 
# From -- ./inp_files/255157.got.cif
#   From: 2010.06.25/outbox.cif.g09.slc.cpg/sg15_128_cif.got.tgz:255157.got - 2010.06.28 07:06:18.
