data_PCOD8144225
_publ_section_title
;
Structure prediction by ZEFSAII (Michael W. Deem and Ramdas Pophale) SiO2 
 PCOD8144225
Probable space group: C 2/C
;
_chemical_formula_sum "Si O2"
_cell_formula_units_Z 52
_cell_length_a 22.868329
_cell_length_b 6.683093
_cell_length_c 19.880314
_cell_angle_alpha 90.000000
_cell_angle_beta 46.939129
_cell_angle_gamma 90.000000
_cell_volume 2219.892399
_symmetry_space_group_name_H-M "C 2/C"
_symmetry_group_IT_number 15
_symmetry_cell_setting 'monoclinic'
loop_
_space_group_symop_operation_xyz
x,y,z
-x,y,1/2-z
-x,-y,-z
x,-y,1/2+z
1/2+x,1/2+y,z
1/2-x,1/2+y,1/2-z
1/2-x,1/2-y,-z
1/2+x,1/2-y,1/2+z
loop_
_atom_site_type_symbol
_atom_site_label
_atom_site_fract_x
_atom_site_fract_y
_atom_site_fract_z
Si Si1 0.394826 0.517552 0.309658
Si Si2 0.928412 0.663400 0.890440
Si Si3 0.931990 0.335833 0.541696
Si Si4 0.302608 0.856136 0.152071
Si Si5 0.000000 0.345885 0.750000
Si Si6 0.276594 0.080471 0.528297
Si Si7 0.128335 0.993865 0.321120
O O1 0.441019 0.655740 0.327505
O O2 0.420818 0.289094 0.304025
O O3 0.300542 0.550961 0.391824
O O4 0.413752 0.563109 0.216008
O O5 0.991753 0.487655 0.822343
O O6 0.938995 0.736803 0.958643
O O7 0.840391 0.571664 0.947153
O O8 0.845553 0.429939 0.626378
O O9 0.935839 0.141363 0.587085
O O10 0.000000 0.500000 0.500000
O O11 0.309956 0.802649 0.067442
O O12 0.210232 0.869774 0.246231
O O13 0.352697 0.693081 0.153014
O O14 0.250000 0.250000 0.500000
#
# Coordination Sequence:
#
# PCOD8144225 Si02
#       7
#     8   8   8   8   4   8   8
#     4  11  25  41  67  99 132 177 225 274 342 392
#     4  11  25  43  68  99 134 178 228 271 338 409
#     4  11  25  44  68 100 138 178 223 279 338 399
#     4  10  23  40  67  98 131 178 225 270 339 400
#     4  12  24  44  64  94 138 172 220 284 334 402
#     4  10  21  42  65  96 132 174 220 282 329 393
#     4  11  23  43  68  98 135 176 225 278 331 406
#
# _framework density 23.424558999999999
#
# number of rings (size 3 to 8) (size 9 to 14) (size 15 to 20)
#    0.000    1.231    3.077    1.846    2.154    5.538 
#    0.000    0.000    0.000    0.000    0.000    0.000 
#    0.000    0.000    0.000    0.000    0.000    0.000 
#
# Total GULP energy -322344.728184 kJ/mol
# GULP energy per Si atom -12397.874161 kJ/mol
# Density = 2.337124 g / cm^3
# Si number density = 23.424559 Si / 1000 Ang^3
#
#
#
# Elastic Constant Matrix: (Units=GPa)
#
#
# Indices 1 2 3 4 5 6 
#
# 1 92.1719 30.7142 38.4535 -0.0100 38.7036 -0.0013
# 2 30.7142 98.9439 64.9736 -0.0203 38.1427 -0.0183
# 3 38.4535 64.9736 125.8930 -0.0166 21.6388 0.0102
# 4 -0.0100 -0.0203 -0.0166 43.8723 0.0059 3.8930
# 5 38.7036 38.1427 21.6388 0.0059 50.4454 -0.0083
# 6 -0.0013 -0.0183 0.0102 3.8930 -0.0083 35.2187
#
#
#
# Elastic Compliance Matrix: (Units=1/GPa)
#
#
# Indices 1 2 3 4 5 6 
#
# 1 0.017481 0.002687 -0.004396 0.000005 -0.013558 0.000000
# 2 0.002687 0.020478 -0.009040 0.000008 -0.013667 0.000009
# 3 -0.004396 -0.009040 0.013168 0.000000 0.004560 -0.000008
# 4 0.000005 0.000008 0.000000 0.023019 -0.000013 -0.002545
# 5 -0.013558 -0.013667 0.004560 -0.000013 0.038604 0.000002
# 6 0.000000 0.000009 -0.000008 -0.002545 0.000002 0.028675
#
#
# Mechanical properties :
#
#
# Convention : Reuss Voigt Hill
#
# Bulk Modulus (GPa) = 33.75154 65.03237 49.39196
# Shear Modulus (GPa) = 28.93530 38.09844 33.51687
#
# Velocity S-wave (km/s) = 3.51843 4.03728 3.78675
# Velocity P-wave (km/s) = 5.56289 7.03957 6.34434
#
# Compressibility (1/GPa) = 0.02962827
#
# Stress axis : x y z
#
# Youngs Moduli (GPa) = 57.20504 48.83333 75.94273
#
# Poissons Ratio (x) = -0.13120 0.33382
# Poissons Ratio (y) = -0.15369 0.68653
# Poissons Ratio (z) = 0.25146 0.44146
#
# Static dielectric constant tensor:
#      x y z
#    x 4.329780 -0.000010 -0.173780 
#    y -0.000010 3.874410 0.000020 
#    z -0.173780 0.000020 4.727500 
# 
# 
# High freq. dielectric constant tensor:
#      x y z
#    x 1.927210 -0.000010 -0.003380 
#    y -0.000010 1.912840 0.000000 
#    z -0.003380 0.000000 1.950000 
# 
# From -- ./inp_files/256717.got.cif
#   From: 2010.06.25/outbox.cif.g09.slc.cpg/sg15_129_cif.got.tgz:256717.got - 2010.06.28 07:06:18.
