data_PCOD8144246
_publ_section_title
;
Structure prediction by ZEFSAII (Michael W. Deem and Ramdas Pophale) SiO2 
 PCOD8144246
Probable space group: C 2/C
;
_chemical_formula_sum "Si O2"
_cell_formula_units_Z 64
_cell_length_a 17.093679
_cell_length_b 12.327475
_cell_length_c 29.701879
_cell_angle_alpha 90.000000
_cell_angle_beta 29.972955
_cell_angle_gamma 90.000000
_cell_volume 3126.859329
_symmetry_space_group_name_H-M "C 2/C"
_symmetry_group_IT_number 15
_symmetry_cell_setting 'monoclinic'
loop_
_space_group_symop_operation_xyz
x,y,z
-x,y,1/2-z
-x,-y,-z
x,-y,1/2+z
1/2+x,1/2+y,z
1/2-x,1/2+y,1/2-z
1/2-x,1/2-y,-z
1/2+x,1/2-y,1/2+z
loop_
_atom_site_type_symbol
_atom_site_label
_atom_site_fract_x
_atom_site_fract_y
_atom_site_fract_z
Si Si1 0.982781 0.273551 0.854017
Si Si2 0.953127 0.352083 0.409213
Si Si3 0.334296 0.014197 0.239057
Si Si4 0.905408 0.110935 0.413645
Si Si5 0.352025 0.746711 0.012713
Si Si6 0.522614 0.476588 0.437332
Si Si7 0.395735 0.095465 0.571462
Si Si8 0.873506 0.956456 0.237674
O O1 0.836050 0.265502 0.893179
O O2 0.101117 0.367525 0.779207
O O3 0.076905 0.160340 0.807088
O O4 0.913212 0.308523 0.937503
O O5 0.969777 0.232789 0.380086
O O6 0.777455 0.390201 0.504888
O O7 0.023811 0.429635 0.335564
O O8 0.041903 0.358241 0.412498
O O9 0.210372 0.972438 0.337663
O O10 0.247833 0.018654 0.234259
O O11 0.946314 0.066267 0.442832
O O12 0.977122 0.037205 0.337226
O O13 0.400719 0.808665 0.033203
O O14 0.438770 0.633675 0.966922
O O15 0.500000 0.500000 0.500000
O O16 0.214665 0.056125 0.670256
O O17 0.500000 0.000000 0.500000
#
# Coordination Sequence:
#
# PCOD8144246 Si02
#       8
#     8   8   8   8   8   8   8   8
#     4  11  23  41  67  95 126 171 223 263 327 400
#     4  10  22  41  67  92 124 170 218 258 327 396
#     4  10  22  37  64  89 124 165 217 259 317 397
#     4  10  21  42  66  90 125 170 217 265 317 403
#     4  11  23  41  65  94 129 166 213 276 328 383
#     4  11  23  38  61  91 128 168 211 271 329 378
#     4  11  25  41  63  98 132 168 210 278 328 389
#     4  10  23  39  66  92 128 172 215 265 329 386
#
# _framework density 20.467822000000002
#
# number of rings (size 3 to 8) (size 9 to 14) (size 15 to 20)
#    0.000    1.500    2.500    3.000   12.250    1.500 
#    0.000    1.875    0.000    3.000    0.000    0.000 
#    0.000    0.000    0.000    0.000    0.000    0.000 
#
# Total GULP energy -396737.373401 kJ/mol
# GULP energy per Si atom -12398.042919 kJ/mol
# Density = 2.042124 g / cm^3
# Si number density = 20.467822 Si / 1000 Ang^3
#
#
#
# Elastic Constant Matrix: (Units=GPa)
#
#
# Indices 1 2 3 4 5 6 
#
# 1 57.8706 21.2331 29.6001 0.0001 -7.2753 0.0001
# 2 21.2331 116.5587 61.3778 0.0000 -20.6313 0.0001
# 3 29.6001 61.3778 119.7529 0.0004 -2.5327 -0.0001
# 4 0.0001 0.0000 0.0004 29.0911 -0.0002 -14.2050
# 5 -7.2753 -20.6313 -2.5327 -0.0002 29.6303 -0.0001
# 6 0.0001 0.0001 -0.0001 -14.2050 -0.0001 21.5725
#
#
#
# Elastic Compliance Matrix: (Units=1/GPa)
#
#
# Indices 1 2 3 4 5 6 
#
# 1 0.020400 -0.000483 -0.004705 0.000000 0.004271 0.000000
# 2 -0.000483 0.013812 -0.006771 0.000000 0.008920 0.000000
# 3 -0.004705 -0.006771 0.012883 0.000000 -0.004769 0.000000
# 4 0.000000 0.000000 0.000000 0.050665 0.000000 0.033362
# 5 0.004271 0.008920 -0.004769 0.000000 0.040601 0.000000
# 6 0.000000 0.000000 0.000000 0.033362 0.000000 0.068323
#
#
# Mechanical properties :
#
#
# Convention : Reuss Voigt Hill
#
# Bulk Modulus (GPa) = 43.14474 57.62269 50.38372
# Shear Modulus (GPa) = 20.97955 28.19018 24.58487
#
# Velocity S-wave (km/s) = 3.20504 3.71522 3.46952
# Velocity P-wave (km/s) = 5.90097 6.82772 6.38119
#
# Compressibility (1/GPa) = 0.02317779
#
# Stress axis : x y z
#
# Youngs Moduli (GPa) = 49.01867 72.40293 77.62224
#
# Poissons Ratio (x) = 0.03497 0.36518
# Poissons Ratio (y) = 0.02368 0.52557
# Poissons Ratio (z) = 0.23061 0.49024
#
# Static dielectric constant tensor:
#      x y z
#    x 3.508250 0.000000 -0.055170 
#    y 0.000000 3.740120 0.000000 
#    z -0.055170 0.000000 4.288460 
# 
# 
# High freq. dielectric constant tensor:
#      x y z
#    x 1.777530 0.000000 -0.013220 
#    y 0.000000 1.808060 0.000000 
#    z -0.013220 0.000000 1.818510 
# 
# From -- ./inp_files/316163.got.cif
#   From: 2010.06.25/outbox.cif.g09.slc.cpg/sg15_159_cif.got.tgz:316163.got - 2010.06.28 07:06:18.
