data_PCOD8144482
_publ_section_title
;
Structure prediction by ZEFSAII (Michael W. Deem and Ramdas Pophale) SiO2 
 PCOD8144482
Probable space group: C 2/C
;
_chemical_formula_sum "Si O2"
_cell_formula_units_Z 56
_cell_length_a 12.213393
_cell_length_b 27.095885
_cell_length_c 8.887321
_cell_angle_alpha 90.000000
_cell_angle_beta 99.519759
_cell_angle_gamma 90.000000
_cell_volume 2900.602003
_symmetry_space_group_name_H-M "C 2/C"
_symmetry_group_IT_number 15
_symmetry_cell_setting 'monoclinic'
loop_
_space_group_symop_operation_xyz
x,y,z
-x,y,1/2-z
-x,-y,-z
x,-y,1/2+z
1/2+x,1/2+y,z
1/2-x,1/2+y,1/2-z
1/2-x,1/2-y,-z
1/2+x,1/2-y,1/2+z
loop_
_atom_site_type_symbol
_atom_site_label
_atom_site_fract_x
_atom_site_fract_y
_atom_site_fract_z
Si Si1 0.229635 0.192730 0.477484
Si Si2 0.111074 0.132421 0.191314
Si Si3 0.281143 0.547301 0.465200
Si Si4 0.958893 0.853968 0.402076
Si Si5 0.100284 0.617185 0.882262
Si Si6 0.027093 0.449688 0.927772
Si Si7 0.691322 0.557639 0.685918
O O1 0.250000 0.250000 0.500000
O O2 0.182969 0.171257 0.306704
O O3 0.139738 0.183108 0.584920
O O4 0.345148 0.166887 0.543604
O O5 0.180995 0.085079 0.155832
O O6 0.000000 0.113679 0.250000
O O7 0.065532 0.157694 0.029806
O O8 0.338693 0.551707 0.642954
O O9 0.303605 0.493632 0.401722
O O10 0.155830 0.561295 0.474932
O O11 0.909056 0.909791 0.406671
O O12 0.000000 0.839966 0.250000
O O13 0.189597 0.583503 0.814524
O O14 0.000000 0.631230 0.750000
O O15 0.050706 0.591559 0.018263
O O16 0.000000 0.455663 0.750000
O O17 0.000000 0.500000 0.000000
#
# Coordination Sequence:
#
# PCOD8144482 Si02
#       7
#     8   8   8   8   8   8   8
#     4  10  24  45  69  93 121 160 218 276 333 396
#     4  10  23  42  65  89 128 167 213 263 328 378
#     4  12  23  36  59  92 132 176 222 255 312 379
#     4  10  21  43  64  90 128 169 209 265 325 379
#     4  11  22  41  60  90 127 172 210 262 334 390
#     4  12  22  35  57  88 132 176 213 254 318 382
#     4  11  24  35  59  92 134 175 216 258 305 389
#
# _framework density 19.306336000000002
#
# number of rings (size 3 to 8) (size 9 to 14) (size 15 to 20)
#    0.000    1.143    4.286    2.143    6.000    2.857 
#    0.000    2.857    0.000    0.000    0.000    0.000 
#    0.000    0.000    0.000    0.000    0.000    0.000 
#
# Total GULP energy -347023.245246 kJ/mol
# GULP energy per Si atom -12393.687330 kJ/mol
# Density = 1.926239 g / cm^3
# Si number density = 19.306336 Si / 1000 Ang^3
#
#
#
# Elastic Constant Matrix: (Units=GPa)
#
#
# Indices 1 2 3 4 5 6 
#
# 1 92.4770 63.8855 59.3833 0.0000 1.2965 0.0000
# 2 63.8855 159.0998 69.2615 0.0000 -1.3240 0.0000
# 3 59.3833 69.2615 159.3264 0.0000 -1.1756 0.0000
# 4 0.0000 0.0000 0.0000 24.3101 0.0000 -1.2969
# 5 1.2965 -1.3240 -1.1756 0.0000 39.1508 0.0000
# 6 0.0000 0.0000 0.0000 -1.2969 0.0000 13.0930
#
#
#
# Elastic Compliance Matrix: (Units=1/GPa)
#
#
# Indices 1 2 3 4 5 6 
#
# 1 0.016947 -0.005007 -0.004146 0.000000 -0.000855 0.000000
# 2 -0.005007 0.009233 -0.002144 0.000000 0.000414 0.000000
# 3 -0.004146 -0.002144 0.008756 0.000000 0.000328 0.000000
# 4 0.000000 0.000000 0.000000 0.041354 0.000000 0.004096
# 5 -0.000855 0.000414 0.000328 0.000000 0.025594 0.000000
# 6 0.000000 0.000000 0.000000 0.004096 0.000000 0.076782
#
#
# Mechanical properties :
#
#
# Convention : Reuss Voigt Hill
#
# Bulk Modulus (GPa) = 81.03031 88.44042 84.73537
# Shear Modulus (GPa) = 24.34567 29.86897 27.10732
#
# Velocity S-wave (km/s) = 3.55494 3.93760 3.75115
# Velocity P-wave (km/s) = 7.67542 8.15974 7.92128
#
# Compressibility (1/GPa) = 0.01234106
#
# Stress axis : x y z
#
# Youngs Moduli (GPa) = 59.00803 108.30817 114.20336
#
# Poissons Ratio (x) = 0.54231 0.47348
# Poissons Ratio (y) = 0.29546 0.24490
# Poissons Ratio (z) = 0.24465 0.23226
#
# Static dielectric constant tensor:
#      x y z
#    x 3.887200 0.000000 0.183790 
#    y 0.000000 3.193530 0.000000 
#    z 0.183790 0.000000 4.059830 
# 
# 
# High freq. dielectric constant tensor:
#      x y z
#    x 1.768620 0.000000 -0.002020 
#    y 0.000000 1.720590 0.000000 
#    z -0.002020 0.000000 1.771060 
# 
# From -- ./inp_files/34312.got.cif
#   From: 2010.06.25/outbox.cif.g09.slc.cpg/sg15_18_cif.got.tgz:34312.got - 2010.06.28 07:06:18.
