data_PCOD8144484
_publ_section_title
;
Structure prediction by ZEFSAII (Michael W. Deem and Ramdas Pophale) SiO2 
 PCOD8144484
Probable space group: C 2/C
;
_chemical_formula_sum "Si O2"
_cell_formula_units_Z 60
_cell_length_a 27.533377
_cell_length_b 13.212382
_cell_length_c 22.092048
_cell_angle_alpha 90.000000
_cell_angle_beta 19.687942
_cell_angle_gamma 90.000000
_cell_volume 2707.533728
_symmetry_space_group_name_H-M "C 2/C"
_symmetry_group_IT_number 15
_symmetry_cell_setting 'monoclinic'
loop_
_space_group_symop_operation_xyz
x,y,z
-x,y,1/2-z
-x,-y,-z
x,-y,1/2+z
1/2+x,1/2+y,z
1/2-x,1/2+y,1/2-z
1/2-x,1/2-y,-z
1/2+x,1/2-y,1/2+z
loop_
_atom_site_type_symbol
_atom_site_label
_atom_site_fract_x
_atom_site_fract_y
_atom_site_fract_z
Si Si1 0.128468 0.429384 0.370065
Si Si2 0.000000 0.494316 0.750000
Si Si3 0.089632 0.661155 0.048675
Si Si4 0.618213 0.652432 0.721103
Si Si5 0.442951 0.508257 0.500887
Si Si6 0.718611 0.526140 0.027779
Si Si7 0.715924 0.161336 0.649248
Si Si8 0.521050 0.677872 0.322363
O O1 0.106218 0.370679 0.459214
O O2 0.270175 0.499649 0.205400
O O3 0.143531 0.345588 0.299866
O O4 0.000000 0.500000 0.500000
O O5 0.986251 0.429775 0.827401
O O6 0.145397 0.558463 0.589063
O O7 0.976190 0.752669 0.189221
O O8 0.245652 0.685278 0.896399
O O9 0.674967 0.590513 0.594675
O O10 0.507921 0.582124 0.886088
O O11 0.500000 0.500000 0.500000
O O12 0.493342 0.616766 0.416796
O O13 0.590669 0.602741 0.192309
O O14 0.758607 0.548226 0.910254
O O15 0.617230 0.224297 0.720010
O O16 0.869211 0.217799 0.474848
#
# Coordination Sequence:
#
# PCOD8144484 Si02
#       8
#     8   4   8   8   8   8   8   8
#     4  11  25  41  66 100 130 173 219 271 329 397
#     4  10  24  44  66  96 124 172 220 276 318 394
#     4  11  24  44  65  99 128 167 234 264 334 388
#     4  10  24  44  69  94 131 179 215 282 323 397
#     4  10  21  43  64  91 135 178 214 266 336 392
#     4  10  22  43  66  92 131 174 215 263 337 382
#     4  11  24  42  65 100 134 168 220 267 329 396
#     4  10  24  40  65  98 128 174 215 265 326 394
#
# _framework density 22.160388999999999
#
# number of rings (size 3 to 8) (size 9 to 14) (size 15 to 20)
#    0.000    1.600    1.333    1.600    5.600    3.200 
#   12.000    0.000    0.000    0.000    0.000    0.000 
#    0.000    0.000    0.000    0.000    0.000    0.000 
#
# Total GULP energy -371842.910503 kJ/mol
# GULP energy per Si atom -12394.763683 kJ/mol
# Density = 2.210995 g / cm^3
# Si number density = 22.160389 Si / 1000 Ang^3
#
#
#
# Elastic Constant Matrix: (Units=GPa)
#
#
# Indices 1 2 3 4 5 6 
#
# 1 112.7959 45.3946 48.6288 0.0021 1.7510 -0.0018
# 2 45.3946 65.9764 37.6067 0.0011 -9.7549 -0.0003
# 3 48.6288 37.6067 119.6300 0.0010 -17.3265 -0.0005
# 4 0.0021 0.0011 0.0010 32.2166 -0.0014 -13.6030
# 5 1.7510 -9.7549 -17.3265 -0.0014 55.1639 0.0015
# 6 -0.0018 -0.0003 -0.0005 -13.6030 0.0015 29.6579
#
#
#
# Elastic Compliance Matrix: (Units=1/GPa)
#
#
# Indices 1 2 3 4 5 6 
#
# 1 0.013532 -0.007754 -0.003483 0.000000 -0.002895 0.000001
# 2 -0.007754 0.023029 -0.003627 0.000000 0.003179 -0.000001
# 3 -0.003483 -0.003627 0.011355 0.000000 0.003036 0.000000
# 4 0.000000 0.000000 0.000000 0.038495 0.000000 0.017656
# 5 -0.002895 0.003179 0.003036 0.000000 0.019735 -0.000001
# 6 0.000001 -0.000001 0.000000 0.017656 -0.000001 0.041816
#
#
# Mechanical properties :
#
#
# Convention : Reuss Voigt Hill
#
# Bulk Modulus (GPa) = 54.97711 62.40697 58.69204
# Shear Modulus (GPa) = 27.21041 34.52583 30.86812
#
# Velocity S-wave (km/s) = 3.50792 3.95143 3.73626
# Velocity P-wave (km/s) = 6.42417 7.00293 6.71978
#
# Compressibility (1/GPa) = 0.01818939
#
# Stress axis : x y z
#
# Youngs Moduli (GPa) = 73.89650 43.42272 88.06961
#
# Poissons Ratio (x) = 0.33669 0.30671
# Poissons Ratio (y) = 0.57298 0.31944
# Poissons Ratio (z) = 0.25735 0.15750
#
# Static dielectric constant tensor:
#      x y z
#    x 4.085150 0.000000 -0.049820 
#    y 0.000000 4.060380 0.000000 
#    z -0.049820 0.000000 4.417120 
# 
# 
# High freq. dielectric constant tensor:
#      x y z
#    x 1.885630 0.000000 -0.007480 
#    y 0.000000 1.843310 0.000000 
#    z -0.007480 0.000000 1.898580 
# 
# From -- ./inp_files/257839.got.cif
#   From: 2010.06.25/outbox.cif.g09.slc.cpg/sg15_129_cif.got.tgz:257839.got - 2010.06.28 07:06:18.
