data_PCOD8144376
_publ_section_title
;
Structure prediction by ZEFSAII (Michael W. Deem and Ramdas Pophale) SiO2 
 PCOD8144376
Probable space group: C 2/C
;
_chemical_formula_sum "Si O2"
_cell_formula_units_Z 56
_cell_length_a 11.151305
_cell_length_b 10.835637
_cell_length_c 21.791371
_cell_angle_alpha 90.000000
_cell_angle_beta 97.338127
_cell_angle_gamma 90.000000
_cell_volume 2611.518065
_symmetry_space_group_name_H-M "C 2/C"
_symmetry_group_IT_number 15
_symmetry_cell_setting 'monoclinic'
loop_
_space_group_symop_operation_xyz
x,y,z
-x,y,1/2-z
-x,-y,-z
x,-y,1/2+z
1/2+x,1/2+y,z
1/2-x,1/2+y,1/2-z
1/2-x,1/2-y,-z
1/2+x,1/2-y,1/2+z
loop_
_atom_site_type_symbol
_atom_site_label
_atom_site_fract_x
_atom_site_fract_y
_atom_site_fract_z
Si Si1 0.240108 0.555263 0.261763
Si Si2 0.362834 0.350018 0.344782
Si Si3 0.214319 0.786414 0.630099
Si Si4 0.534403 0.864982 0.826406
Si Si5 0.019402 0.052305 0.068473
Si Si6 0.338637 0.995606 0.370558
Si Si7 0.775761 0.192460 0.067096
O O1 0.283350 0.423697 0.290356
O O2 0.315533 0.663637 0.301797
O O3 0.095916 0.581674 0.267013
O O4 0.251986 0.548368 0.189183
O O5 0.434148 0.243721 0.312035
O O6 0.462323 0.436558 0.384584
O O7 0.264829 0.293428 0.385491
O O8 0.355897 0.808899 0.625514
O O9 0.177798 0.646827 0.619319
O O10 0.141159 0.866672 0.576025
O O11 0.477207 0.978506 0.860823
O O12 0.913265 0.145103 0.083129
O O13 0.000000 0.000000 0.000000
O O14 0.306893 0.069979 0.430121
O O15 0.750000 0.250000 0.000000
#
# Coordination Sequence:
#
# PCOD8144376 Si02
#       7
#     8   8   8   8   8   8   8
#     4   9  22  39  64 100 131 171 213 265 343 400
#     4  10  21  42  69  94 133 170 218 275 334 393
#     4   9  23  40  61  99 128 160 227 262 329 403
#     4   9  21  40  64  92 134 171 208 267 333 394
#     4  11  22  43  67  87 126 175 218 280 326 385
#     4  11  22  40  68  95 133 177 215 275 336 400
#     4  11  24  41  65  94 126 178 224 268 331 393
#
# _framework density 21.443465
#
# number of rings (size 3 to 8) (size 9 to 14) (size 15 to 20)
#    0.857    1.143    1.429    1.286    6.000    0.000 
#    0.000   10.714    0.000    0.000    0.000    0.000 
#    0.000    0.000    0.000    0.000    0.000    0.000 
#
# Total GULP energy -346920.345112 kJ/mol
# GULP energy per Si atom -12390.012325 kJ/mol
# Density = 2.139466 g / cm^3
# Si number density = 21.443465 Si / 1000 Ang^3
#
#
#
# Elastic Constant Matrix: (Units=GPa)
#
#
# Indices 1 2 3 4 5 6 
#
# 1 98.2654 37.6598 37.0776 0.0000 3.9979 0.0000
# 2 37.6598 104.5047 44.1037 0.0000 16.3092 0.0000
# 3 37.0776 44.1037 83.3787 0.0000 0.9567 0.0000
# 4 0.0000 0.0000 0.0000 31.0752 0.0000 6.3590
# 5 3.9979 16.3092 0.9567 0.0000 18.5871 0.0000
# 6 0.0000 0.0000 0.0000 6.3590 0.0000 40.7065
#
#
#
# Elastic Compliance Matrix: (Units=1/GPa)
#
#
# Indices 1 2 3 4 5 6 
#
# 1 0.012859 -0.002849 -0.004211 0.000000 -0.000049 0.000000
# 2 -0.002849 0.015396 -0.006732 0.000000 -0.012549 0.000000
# 3 -0.004211 -0.006732 0.017359 0.000000 0.005920 0.000000
# 4 0.000000 0.000000 0.000000 0.033243 0.000000 -0.005193
# 5 -0.000049 -0.012549 0.005920 0.000000 0.064518 0.000000
# 6 0.000000 0.000000 0.000000 -0.005193 0.000000 0.025377
#
#
# Mechanical properties :
#
#
# Convention : Reuss Voigt Hill
#
# Bulk Modulus (GPa) = 55.46622 58.20342 56.83482
# Shear Modulus (GPa) = 24.71009 29.22762 26.96885
#
# Velocity S-wave (km/s) = 3.39829 3.69590 3.55022
# Velocity P-wave (km/s) = 6.42808 6.73903 6.58539
#
# Compressibility (1/GPa) = 0.01802899
#
# Stress axis : x y z
#
# Youngs Moduli (GPa) = 77.76482 64.95393 57.60648
#
# Poissons Ratio (x) = 0.18508 0.24256
# Poissons Ratio (y) = 0.22158 0.38783
# Poissons Ratio (z) = 0.32744 0.43730
#
# Static dielectric constant tensor:
#      x y z
#    x 3.969140 0.000000 0.089500 
#    y 0.000000 4.122300 0.000000 
#    z 0.089500 0.000000 3.640520 
# 
# 
# High freq. dielectric constant tensor:
#      x y z
#    x 1.838550 0.000000 0.012060 
#    y 0.000000 1.856510 0.000000 
#    z 0.012060 0.000000 1.825330 
# 
# From -- ./inp_files/268510.got.cif
#   From: 2010.06.25/outbox.cif.g09.slc.cpg/sg15_135_cif.got.tgz:268510.got - 2010.06.28 07:06:18.
