data_PCOD8144017
_publ_section_title
;
Structure prediction by ZEFSAII (Michael W. Deem and Ramdas Pophale) SiO2 
 PCOD8144017
Probable space group: C 2/C
;
_chemical_formula_sum "Si O2"
_cell_formula_units_Z 48
_cell_length_a 13.468687
_cell_length_b 18.885148
_cell_length_c 15.275038
_cell_angle_alpha 90.000000
_cell_angle_beta 33.339172
_cell_angle_gamma 90.000000
_cell_volume 2135.354703
_symmetry_space_group_name_H-M "C 2/C"
_symmetry_group_IT_number 15
_symmetry_cell_setting 'monoclinic'
loop_
_space_group_symop_operation_xyz
x,y,z
-x,y,1/2-z
-x,-y,-z
x,-y,1/2+z
1/2+x,1/2+y,z
1/2-x,1/2+y,1/2-z
1/2-x,1/2-y,-z
1/2+x,1/2-y,1/2+z
loop_
_atom_site_type_symbol
_atom_site_label
_atom_site_fract_x
_atom_site_fract_y
_atom_site_fract_z
Si Si1 0.240487 0.019256 0.738589
Si Si2 0.164037 0.806912 0.999201
Si Si3 0.296318 0.571968 0.405994
Si Si4 0.513845 0.153185 0.923666
Si Si5 0.811898 0.255216 0.714556
Si Si6 0.826546 0.959931 0.532881
O O1 0.383187 0.082279 0.621775
O O2 0.257195 0.968688 0.642960
O O3 0.281519 0.974978 0.797489
O O4 0.038613 0.049194 0.896034
O O5 0.948011 0.798296 0.164229
O O6 0.250000 0.750000 0.000000
O O7 0.211189 0.798774 0.862958
O O8 0.230137 0.886447 0.973417
O O9 0.500000 0.603085 0.250000
O O10 0.147349 0.634443 0.526095
O O11 0.280050 0.522807 0.501814
O O12 0.660350 0.208047 0.774641
O O13 0.417751 0.189512 0.077161
#
# Coordination Sequence:
#
# PCOD8144017 Si02
#       6
#     8   8   8   8   8   8
#     4  10  21  41  69  94 137 180 224 286 341 416
#     4  11  22  39  62 100 142 172 219 287 350 427
#     4  10  23  40  67  98 136 174 232 294 344 411
#     4  11  22  45  66  97 129 186 230 282 344 410
#     4  10  24  39  67  93 134 189 227 272 354 427
#     4  10  22  40  67 102 133 178 226 281 351 411
#
# _framework density 22.4787
#
# number of rings (size 3 to 8) (size 9 to 14) (size 15 to 20)
#    0.000    1.667    1.667    2.000    4.667    2.000 
#    3.000    0.833    0.000    0.000    0.000    0.000 
#    0.000    0.000    0.000    0.000    0.000    0.000 
#
# Total GULP energy -297462.769638 kJ/mol
# GULP energy per Si atom -12394.282068 kJ/mol
# Density = 2.242754 g / cm^3
# Si number density = 22.478700 Si / 1000 Ang^3
#
#
#
# Elastic Constant Matrix: (Units=GPa)
#
#
# Indices 1 2 3 4 5 6 
#
# 1 102.7357 47.3238 40.5396 0.0282 -12.5295 -0.0041
# 2 47.3238 102.7706 36.1348 0.1246 -21.1746 -0.0363
# 3 40.5396 36.1348 87.0664 0.0623 -22.3655 -0.0434
# 4 0.0282 0.1246 0.0623 39.5717 0.0137 -11.9759
# 5 -12.5295 -21.1746 -22.3655 0.0137 37.7864 0.0091
# 6 -0.0041 -0.0363 -0.0434 -11.9759 0.0091 37.5172
#
#
#
# Elastic Compliance Matrix: (Units=1/GPa)
#
#
# Indices 1 2 3 4 5 6 
#
# 1 0.013675 -0.004874 -0.004577 0.000012 -0.000906 -0.000005
# 2 -0.004874 0.013734 -0.002204 -0.000039 0.004776 -0.000003
# 3 -0.004577 -0.002204 0.016303 -0.000015 0.006897 0.000010
# 4 0.000012 -0.000039 -0.000015 0.027973 -0.000039 0.008929
# 5 -0.000906 0.004776 0.006897 -0.000039 0.032922 -0.000008
# 6 -0.000005 -0.000003 0.000010 0.008929 -0.000008 0.029505
#
#
# Mechanical properties :
#
#
# Convention : Reuss Voigt Hill
#
# Bulk Modulus (GPa) = 49.01590 60.06325 54.53958
# Shear Modulus (GPa) = 30.44672 34.21338 32.33005
#
# Velocity S-wave (km/s) = 3.68431 3.90556 3.79654
# Velocity P-wave (km/s) = 6.32073 6.86411 6.59801
#
# Compressibility (1/GPa) = 0.02040154
#
# Stress axis : x y z
#
# Youngs Moduli (GPa) = 73.12866 72.81371 61.33911
#
# Poissons Ratio (x) = 0.35492 0.28074
# Poissons Ratio (y) = 0.35645 0.13516
# Poissons Ratio (z) = 0.33470 0.16045
#
# Static dielectric constant tensor:
#      x y z
#    x 3.973640 -0.000040 -0.376190 
#    y -0.000040 4.122120 0.000100 
#    z -0.376190 0.000100 4.360980 
# 
# 
# High freq. dielectric constant tensor:
#      x y z
#    x 1.866060 0.000000 -0.015750 
#    y 0.000000 1.883360 0.000010 
#    z -0.015750 0.000010 1.899090 
# 
# From -- ./inp_files/39603.got.cif
#   From: 2010.06.25/outbox.cif.g09.slc.cpg/sg15_20_cif.got.tgz:39603.got - 2010.06.28 07:06:18.
