data_PCOD8144486
_publ_section_title
;
Structure prediction by ZEFSAII (Michael W. Deem and Ramdas Pophale) SiO2 
 PCOD8144486
Probable space group: C 2/C
;
_chemical_formula_sum "Si O2"
_cell_formula_units_Z 32
_cell_length_a 14.236908
_cell_length_b 6.860151
_cell_length_c 14.535235
_cell_angle_alpha 90.000000
_cell_angle_beta 62.484623
_cell_angle_gamma 90.000000
_cell_volume 1259.040326
_symmetry_space_group_name_H-M "C 2/C"
_symmetry_group_IT_number 15
_symmetry_cell_setting 'monoclinic'
loop_
_space_group_symop_operation_xyz
x,y,z
-x,y,1/2-z
-x,-y,-z
x,-y,1/2+z
1/2+x,1/2+y,z
1/2-x,1/2+y,1/2-z
1/2-x,1/2-y,-z
1/2+x,1/2-y,1/2+z
loop_
_atom_site_type_symbol
_atom_site_label
_atom_site_fract_x
_atom_site_fract_y
_atom_site_fract_z
Si Si1 0.430592 0.171550 0.155030
Si Si2 0.915004 0.364767 0.463849
Si Si3 0.801698 0.393185 0.334237
Si Si4 0.387958 0.410488 0.659768
O O1 0.437483 0.395480 0.185273
O O2 0.544248 0.085614 0.071765
O O3 0.389083 0.046778 0.258989
O O4 0.360200 0.152322 0.089985
O O5 0.830277 0.317302 0.423128
O O6 0.015315 0.217619 0.419557
O O7 0.688188 0.503769 0.386644
O O8 0.809275 0.207899 0.262187
#
# Coordination Sequence:
#
# PCOD8144486 Si02
#       4
#     8   8   8   8
#     4  10  21  43  64  92 131 163 220 265 318 397
#     4  10  24  41  66  94 127 175 211 268 329 380
#     4  11  23  41  65  94 131 169 214 270 322 382
#     4  11  21  41  62  92 130 167 216 265 317 388
#
# _framework density 25.416183
#
# number of rings (size 3 to 8) (size 9 to 14) (size 15 to 20)
#    0.000    1.500    2.500    3.750    0.000    5.000 
#    0.000   11.250    0.000    0.000    0.000    0.000 
#    0.000    0.000    0.000    0.000    0.000    0.000 
#
# Total GULP energy -198222.007111 kJ/mol
# GULP energy per Si atom -12388.875444 kJ/mol
# Density = 2.535833 g / cm^3
# Si number density = 25.416183 Si / 1000 Ang^3
#
#
#
# Elastic Constant Matrix: (Units=GPa)
#
#
# Indices 1 2 3 4 5 6 
#
# 1 109.3473 28.0524 37.3869 0.0000 17.0102 0.0000
# 2 28.0524 149.5257 21.2689 0.0000 -14.3687 0.0000
# 3 37.3869 21.2689 100.8802 0.0000 5.6331 0.0000
# 4 0.0000 0.0000 0.0000 16.0222 0.0000 -15.6983
# 5 17.0102 -14.3687 5.6331 0.0000 48.3804 0.0000
# 6 0.0000 0.0000 0.0000 -15.6983 0.0000 33.9701
#
#
#
# Elastic Compliance Matrix: (Units=1/GPa)
#
#
# Indices 1 2 3 4 5 6 
#
# 1 0.011575 -0.002067 -0.003616 0.000000 -0.004262 0.000000
# 2 -0.002067 0.007512 -0.000989 0.000000 0.003073 0.000000
# 3 -0.003616 -0.000989 0.011481 0.000000 -0.000359 0.000000
# 4 0.000000 0.000000 0.000000 0.114055 0.000000 0.052707
# 5 -0.004262 0.003073 -0.000359 0.000000 0.023123 0.000000
# 6 0.000000 0.000000 0.000000 0.052707 0.000000 0.053795
#
#
# Mechanical properties :
#
#
# Convention : Reuss Voigt Hill
#
# Bulk Modulus (GPa) = 58.05929 59.24105 58.65017
# Shear Modulus (GPa) = 20.77918 37.87755 29.32837
#
# Velocity S-wave (km/s) = 2.86240 3.86462 3.40063
# Velocity P-wave (km/s) = 5.81528 6.57820 6.20847
#
# Compressibility (1/GPa) = 0.01722377
#
# Stress axis : x y z
#
# Youngs Moduli (GPa) = 86.39474 133.12819 87.09676
#
# Poissons Ratio (x) = 0.27515 0.31494
# Poissons Ratio (y) = 0.17856 0.08616
# Poissons Ratio (z) = 0.31240 0.13170
#
# Static dielectric constant tensor:
#      x y z
#    x 4.452140 0.000000 -0.017770 
#    y 0.000000 4.916400 0.000000 
#    z -0.017770 0.000000 4.527360 
# 
# 
# High freq. dielectric constant tensor:
#      x y z
#    x 2.003300 0.000000 -0.008910 
#    y 0.000000 2.033310 0.000000 
#    z -0.008910 0.000000 2.008860 
# 
# From -- ./inp_files/201984.got.cif
#   From: 2010.06.25/outbox.cif.g09.slc.cpg/sg15_101_cif.got.tgz:201984.got - 2010.06.28 07:06:18.
