data_PCOD8144303
_publ_section_title
;
Structure prediction by ZEFSAII (Michael W. Deem and Ramdas Pophale) SiO2 
 PCOD8144303
Probable space group: C 2/C
;
_chemical_formula_sum "Si O2"
_cell_formula_units_Z 44
_cell_length_a 26.145323
_cell_length_b 15.504218
_cell_length_c 7.744761
_cell_angle_alpha 90.000000
_cell_angle_beta 145.800846
_cell_angle_gamma 90.000000
_cell_volume 1764.587524
_symmetry_space_group_name_H-M "C 2/C"
_symmetry_group_IT_number 15
_symmetry_cell_setting 'monoclinic'
loop_
_space_group_symop_operation_xyz
x,y,z
-x,y,1/2-z
-x,-y,-z
x,-y,1/2+z
1/2+x,1/2+y,z
1/2-x,1/2+y,1/2-z
1/2-x,1/2-y,-z
1/2+x,1/2-y,1/2+z
loop_
_atom_site_type_symbol
_atom_site_label
_atom_site_fract_x
_atom_site_fract_y
_atom_site_fract_z
Si Si1 0.813165 0.451254 0.848362
Si Si2 0.690706 0.438193 0.808608
Si Si3 0.226317 0.785615 0.120226
Si Si4 0.500000 0.379204 0.250000
Si Si5 0.966345 0.750302 0.842936
Si Si6 0.116491 0.377010 0.777119
O O1 0.760219 0.400534 0.853937
O O2 0.732107 0.470452 0.481930
O O3 0.882437 0.394623 0.927386
O O4 0.866538 0.536966 0.062335
O O5 0.691899 0.382648 0.986585
O O6 0.586584 0.441368 0.453324
O O7 0.142822 0.732772 0.972230
O O8 0.250000 0.750000 0.000000
O O9 0.314211 0.797191 0.487718
O O10 0.512820 0.320737 0.453598
O O11 0.000000 0.783360 0.750000
O O12 0.016053 0.660576 0.036456
#
# Coordination Sequence:
#
# PCOD8144303 Si02
#       6
#     8   8   8   4   8   8
#     4   9  20  38  65  92 124 179 217 259 331 394
#     4   9  19  36  60  89 124 169 221 263 336 385
#     4  10  22  40  67  92 129 176 213 278 333 382
#     4  10  22  42  60  92 138 166 210 300 318 382
#     4  11  25  41  65 104 127 172 226 266 341 392
#     4  10  21  42  67  94 133 171 219 274 320 397
#
# _framework density 24.935006000000001
#
# number of rings (size 3 to 8) (size 9 to 14) (size 15 to 20)
#    0.000    2.182    0.000    2.182    5.091    1.455 
#    3.273    0.909    0.000    0.000    0.000    0.000 
#    0.000    0.000    0.000    0.000    0.000    0.000 
#
# Total GULP energy -272583.104993 kJ/mol
# GULP energy per Si atom -12390.141136 kJ/mol
# Density = 2.487825 g / cm^3
# Si number density = 24.935006 Si / 1000 Ang^3
#
#
#
# Elastic Constant Matrix: (Units=GPa)
#
#
# Indices 1 2 3 4 5 6 
#
# 1 149.5321 33.8401 33.0099 0.0000 1.6761 0.0000
# 2 33.8401 41.3050 25.2137 0.0000 8.2250 0.0000
# 3 33.0099 25.2137 77.0838 0.0000 4.5077 0.0000
# 4 0.0000 0.0000 0.0000 18.6800 0.0000 4.3378
# 5 1.6761 8.2250 4.5077 0.0000 49.4962 0.0000
# 6 0.0000 0.0000 0.0000 4.3378 0.0000 45.0135
#
#
#
# Elastic Compliance Matrix: (Units=1/GPa)
#
#
# Indices 1 2 3 4 5 6 
#
# 1 0.008416 -0.006045 -0.001678 0.000000 0.000872 0.000000
# 2 -0.006045 0.035463 -0.008725 0.000000 -0.004894 0.000000
# 3 -0.001678 -0.008725 0.016545 0.000000 0.000000 0.000000
# 4 0.000000 0.000000 0.000000 0.054759 0.000000 -0.005277
# 5 0.000872 -0.004894 0.000000 0.000000 0.020987 0.000000
# 6 0.000000 0.000000 0.000000 -0.005277 0.000000 0.022724
#
#
# Mechanical properties :
#
#
# Convention : Reuss Voigt Hill
#
# Bulk Modulus (GPa) = 36.32503 50.22760 43.27631
# Shear Modulus (GPa) = 24.87989 34.36175 29.62082
#
# Velocity S-wave (km/s) = 3.16221 3.71624 3.45036
# Velocity P-wave (km/s) = 5.28510 6.21297 5.76773
#
# Compressibility (1/GPa) = 0.02752923
#
# Stress axis : x y z
#
# Youngs Moduli (GPa) = 118.82017 28.19856 60.43989
#
# Poissons Ratio (x) = 0.17045 0.10141
# Poissons Ratio (y) = 0.71821 0.52734
# Poissons Ratio (z) = 0.19937 0.24603
#
# Static dielectric constant tensor:
#      x y z
#    x 6.873250 0.000000 0.532000 
#    y 0.000000 5.206310 0.000000 
#    z 0.532000 0.000000 4.841360 
# 
# 
# High freq. dielectric constant tensor:
#      x y z
#    x 1.999800 0.000000 -0.003530 
#    y 0.000000 1.976920 0.000000 
#    z -0.003530 0.000000 2.000050 
# 
# From -- ./inp_files/70540.got.cif
#   From: 2010.06.25/outbox.cif.g09.slc.cpg/sg15_36_cif.got.tgz:70540.got - 2010.06.28 07:06:18.
