data_PCOD8144254
_publ_section_title
;
Structure prediction by ZEFSAII (Michael W. Deem and Ramdas Pophale) SiO2 
 PCOD8144254
Probable space group: C 2/C
;
_chemical_formula_sum "Si O2"
_cell_formula_units_Z 48
_cell_length_a 12.596003
_cell_length_b 12.809405
_cell_length_c 15.013301
_cell_angle_alpha 90.000000
_cell_angle_beta 120.258685
_cell_angle_gamma 90.000000
_cell_volume 2092.331804
_symmetry_space_group_name_H-M "C 2/C"
_symmetry_group_IT_number 15
_symmetry_cell_setting 'monoclinic'
loop_
_space_group_symop_operation_xyz
x,y,z
-x,y,1/2-z
-x,-y,-z
x,-y,1/2+z
1/2+x,1/2+y,z
1/2-x,1/2+y,1/2-z
1/2-x,1/2-y,-z
1/2+x,1/2-y,1/2+z
loop_
_atom_site_type_symbol
_atom_site_label
_atom_site_fract_x
_atom_site_fract_y
_atom_site_fract_z
Si Si1 0.185316 0.495973 0.266110
Si Si2 0.580994 0.782579 0.207718
Si Si3 0.431357 0.765036 0.490509
Si Si4 0.713357 0.410226 0.366940
Si Si5 0.145814 0.726365 0.222120
Si Si6 0.372179 0.462043 0.986302
O O1 0.082274 0.407258 0.224764
O O2 0.261653 0.487327 0.205377
O O3 0.125005 0.609772 0.249263
O O4 0.271450 0.474835 0.387905
O O5 0.500000 0.727747 0.250000
O O6 0.512181 0.763507 0.085238
O O7 0.719728 0.738618 0.265350
O O8 0.342030 0.865609 0.462851
O O9 0.541719 0.755633 0.605389
O O10 0.348706 0.661273 0.462590
O O11 0.633350 0.310729 0.297183
O O12 0.641926 0.477388 0.412370
O O13 0.500000 0.500000 0.000000
#
# Coordination Sequence:
#
# PCOD8144254 Si02
#       6
#     8   8   8   8   8   8
#     4  10  22  41  63  95 128 175 224 273 324 410
#     4  10  23  41  61  96 138 170 228 278 331 405
#     4  10  22  41  65  90 132 182 216 278 336 403
#     4  10  24  43  63  99 137 167 231 278 332 406
#     4  10  21  42  66  91 135 175 222 273 341 400
#     4  12  23  41  66  97 133 177 228 276 338 399
#
# _framework density 22.940912000000001
#
# number of rings (size 3 to 8) (size 9 to 14) (size 15 to 20)
#    0.000    2.000    3.333    2.500    0.000   10.000 
#    0.000    0.000    0.000    0.000    0.000    0.000 
#    0.000    0.000    0.000    0.000    0.000    0.000 
#
# Total GULP energy -297421.872214 kJ/mol
# GULP energy per Si atom -12392.578009 kJ/mol
# Density = 2.288870 g / cm^3
# Si number density = 22.940912 Si / 1000 Ang^3
#
#
#
# Elastic Constant Matrix: (Units=GPa)
#
#
# Indices 1 2 3 4 5 6 
#
# 1 84.6151 -17.0537 53.7530 0.0000 -16.2508 0.0000
# 2 -17.0537 50.8432 19.1665 0.0000 8.3014 0.0000
# 3 53.7530 19.1665 170.3106 0.0000 -8.0544 0.0000
# 4 0.0000 0.0000 0.0000 39.4261 0.0000 -6.5330
# 5 -16.2508 8.3014 -8.0544 0.0000 27.4712 0.0000
# 6 0.0000 0.0000 0.0000 -6.5330 0.0000 9.1632
#
#
#
# Elastic Compliance Matrix: (Units=1/GPa)
#
#
# Indices 1 2 3 4 5 6 
#
# 1 0.018781 0.007603 -0.006456 0.000000 0.006919 0.000000
# 2 0.007603 0.025029 -0.005437 0.000000 -0.004660 0.000000
# 3 -0.006456 -0.005437 0.008537 0.000000 0.000327 0.000000
# 4 0.000000 0.000000 0.000000 0.028762 0.000000 0.020506
# 5 0.006919 -0.004660 0.000327 0.000000 0.041999 0.000000
# 6 0.000000 0.000000 0.000000 0.020506 0.000000 0.123752
#
#
# Mechanical properties :
#
#
# Convention : Reuss Voigt Hill
#
# Bulk Modulus (GPa) = 22.84805 46.38896 34.61850
# Shear Modulus (GPa) = 18.51667 31.87231 25.19449
#
# Velocity S-wave (km/s) = 2.84411 3.73140 3.31756
# Velocity P-wave (km/s) = 4.55702 6.23133 5.45875
#
# Compressibility (1/GPa) = 0.04376741
#
# Stress axis : x y z
#
# Youngs Moduli (GPa) = 53.24580 39.95374 117.14331
#
# Poissons Ratio (x) = -0.30378 0.75628
# Poissons Ratio (y) = -0.40485 0.63689
# Poissons Ratio (z) = 0.34375 0.21722
#
# Static dielectric constant tensor:
#      x y z
#    x 3.855440 0.000000 -0.253320 
#    y 0.000000 4.141110 0.000000 
#    z -0.253320 0.000000 4.458700 
# 
# 
# High freq. dielectric constant tensor:
#      x y z
#    x 1.889440 0.000000 -0.009250 
#    y 0.000000 1.895340 0.000000 
#    z -0.009250 0.000000 1.917750 
# 
# From -- ./inp_files/153593.got.cif
#   From: 2010.06.25/outbox.cif.g09.slc.cpg/sg15_77_cif.got.tgz:153593.got - 2010.06.28 07:06:18.
