data_PCOD8144764
_publ_section_title
;
Structure prediction by ZEFSAII (Michael W. Deem and Ramdas Pophale) SiO2 
 PCOD8144764
Probable space group: C 2/C
;
_chemical_formula_sum "Si O2"
_cell_formula_units_Z 40
_cell_length_a 8.900498
_cell_length_b 17.389022
_cell_length_c 12.106953
_cell_angle_alpha 90.000000
_cell_angle_beta 87.673792
_cell_angle_gamma 90.000000
_cell_volume 1872.260545
_symmetry_space_group_name_H-M "C 2/C"
_symmetry_group_IT_number 15
_symmetry_cell_setting 'monoclinic'
loop_
_space_group_symop_operation_xyz
x,y,z
-x,y,1/2-z
-x,-y,-z
x,-y,1/2+z
1/2+x,1/2+y,z
1/2-x,1/2+y,1/2-z
1/2-x,1/2-y,-z
1/2+x,1/2-y,1/2+z
loop_
_atom_site_type_symbol
_atom_site_label
_atom_site_fract_x
_atom_site_fract_y
_atom_site_fract_z
Si Si1 0.383022 0.907442 0.420658
Si Si2 0.779312 0.067041 0.349569
Si Si3 0.664526 0.399886 0.228219
Si Si4 0.000000 0.528210 0.250000
Si Si5 0.351976 0.205828 0.584099
Si Si6 0.000000 0.185246 0.250000
O O1 0.283912 0.938370 0.524634
O O2 0.264167 0.880529 0.332396
O O3 0.491604 0.836903 0.457614
O O4 0.481284 0.975349 0.360794
O O5 0.641688 0.082956 0.268425
O O6 0.901320 0.134170 0.336865
O O7 0.854078 0.988583 0.305247
O O8 0.500000 0.364397 0.250000
O O9 0.741269 0.361014 0.122695
O O10 0.250000 0.250000 0.500000
O O11 0.388291 0.263644 0.681746
#
# Coordination Sequence:
#
# PCOD8144764 Si02
#       6
#     8   8   8   4   8   4
#     4  11  22  46  72  97 144 183 231 284 357 414
#     4  11  25  40  76 103 135 180 236 292 348 406
#     4  11  24  47  70 105 138 186 235 290 349 423
#     4  10  21  44  70 105 136 172 232 292 341 424
#     4  12  27  46  71  97 147 194 229 289 361 419
#     4  12  27  50  62 115 146 168 246 304 329 428
#
# _framework density 21.364547999999999
#
# number of rings (size 3 to 8) (size 9 to 14) (size 15 to 20)
#    0.000    0.800    7.000    0.600    5.600    4.800 
#    0.000    0.000    0.000    0.000    0.000    0.000 
#    0.000    0.000    0.000    0.000    0.000    0.000 
#
# Total GULP energy -247881.593671 kJ/mol
# GULP energy per Si atom -12394.079684 kJ/mol
# Density = 2.131592 g / cm^3
# Si number density = 21.364548 Si / 1000 Ang^3
#
#
#
# Elastic Constant Matrix: (Units=GPa)
#
#
# Indices 1 2 3 4 5 6 
#
# 1 122.8122 28.0683 29.3943 0.0000 2.4660 0.0000
# 2 28.0683 56.0761 16.1206 0.0000 4.8554 0.0000
# 3 29.3943 16.1206 94.9711 0.0000 -2.3587 0.0000
# 4 0.0000 0.0000 0.0000 24.5799 0.0000 8.7195
# 5 2.4660 4.8554 -2.3587 0.0000 41.1048 0.0000
# 6 0.0000 0.0000 0.0000 8.7195 0.0000 29.4531
#
#
#
# Elastic Compliance Matrix: (Units=1/GPa)
#
#
# Indices 1 2 3 4 5 6 
#
# 1 0.009642 -0.004150 -0.002285 0.000000 -0.000219 0.000000
# 2 -0.004150 0.020774 -0.002300 0.000000 -0.002337 0.000000
# 3 -0.002285 -0.002300 0.011654 0.000000 0.001077 0.000000
# 4 0.000000 0.000000 0.000000 0.045458 0.000000 -0.013458
# 5 -0.000219 -0.002337 0.001077 0.000000 0.024679 0.000000
# 6 0.000000 0.000000 0.000000 -0.013458 0.000000 0.037936
#
#
# Mechanical properties :
#
#
# Convention : Reuss Voigt Hill
#
# Bulk Modulus (GPa) = 40.65148 46.78063 43.71606
# Shear Modulus (GPa) = 28.43917 32.37932 30.40924
#
# Velocity S-wave (km/s) = 3.65243 3.89725 3.77682
# Velocity P-wave (km/s) = 6.07091 6.49579 6.28694
#
# Compressibility (1/GPa) = 0.02459935
#
# Stress axis : x y z
#
# Youngs Moduli (GPa) = 103.70780 48.13757 85.80776
#
# Poissons Ratio (x) = 0.19979 0.19610
# Poissons Ratio (y) = 0.43043 0.19733
# Poissons Ratio (z) = 0.23701 0.11070
#
# Static dielectric constant tensor:
#      x y z
#    x 4.176480 0.000000 0.181310 
#    y 0.000000 3.881440 0.000000 
#    z 0.181310 0.000000 3.775690 
# 
# 
# High freq. dielectric constant tensor:
#      x y z
#    x 1.859060 0.000000 0.002910 
#    y 0.000000 1.827840 0.000000 
#    z 0.002910 0.000000 1.830970 
# 
# From -- ./inp_files/76756.got.cif
#   From: 2010.06.25/outbox.cif.g09.slc.cpg/sg15_39_cif.got.tgz:76756.got - 2010.06.28 07:06:18.
