data_PCOD8144911
_publ_section_title
;
Structure prediction by ZEFSAII (Michael W. Deem and Ramdas Pophale) SiO2 
 PCOD8144911
Probable space group: C 2/C
;
_chemical_formula_sum "Si O2"
_cell_formula_units_Z 40
_cell_length_a 14.768025
_cell_length_b 27.516114
_cell_length_c 14.272883
_cell_angle_alpha 90.000000
_cell_angle_beta 159.874093
_cell_angle_gamma 90.000000
_cell_volume 1995.657735
_symmetry_space_group_name_H-M "C 2/C"
_symmetry_group_IT_number 15
_symmetry_cell_setting 'monoclinic'
loop_
_space_group_symop_operation_xyz
x,y,z
-x,y,1/2-z
-x,-y,-z
x,-y,1/2+z
1/2+x,1/2+y,z
1/2-x,1/2+y,1/2-z
1/2-x,1/2-y,-z
1/2+x,1/2-y,1/2+z
loop_
_atom_site_type_symbol
_atom_site_label
_atom_site_fract_x
_atom_site_fract_y
_atom_site_fract_z
Si Si1 0.779672 0.644201 0.290237
Si Si2 0.070771 0.047666 0.125036
Si Si3 0.479087 0.218574 0.337861
Si Si4 0.001548 0.781684 0.857698
Si Si5 0.539746 0.918473 0.182618
O O1 0.633385 0.593798 0.116572
O O2 0.914692 0.670115 0.333210
O O3 0.560098 0.676515 0.128107
O O4 0.004842 0.630099 0.585198
O O5 0.324660 0.040840 0.439688
O O6 0.827068 0.059493 0.954449
O O7 0.000000 0.000000 0.000000
O O8 0.500000 0.203084 0.250000
O O9 0.755559 0.241037 0.639156
O O10 0.787406 0.738935 0.661141
O O11 0.000000 0.802398 0.750000
O O12 0.500000 0.902289 0.250000
#
# Coordination Sequence:
#
# PCOD8144911 Si02
#       5
#     8   8   8   8   8
#     4  10  24  34  68  84 130 159 213 251 321 367
#     4  10  23  41  63  90 126 164 212 264 305 383
#     4  10  22  40  62  89 122 164 216 264 316 372
#     4  10  22  34  50  84 126 161 198 240 292 368
#     4  10  23  38  65  92 124 165 206 251 319 386
#
# _framework density 20.043517000000001
#
# number of rings (size 3 to 8) (size 9 to 14) (size 15 to 20)
#    1.200    0.800    0.000    2.400    8.400    0.800 
#    0.000    1.000    4.400    0.000    0.000    0.000 
#    0.000    0.000    0.000    0.000    0.000    0.000 
#
# Total GULP energy -247868.323889 kJ/mol
# GULP energy per Si atom -12393.416194 kJ/mol
# Density = 1.999790 g / cm^3
# Si number density = 20.043517 Si / 1000 Ang^3
#
#
#
# Elastic Constant Matrix: (Units=GPa)
#
#
# Indices 1 2 3 4 5 6 
#
# 1 123.8941 68.0633 25.1703 -0.0002 8.9024 -0.0002
# 2 68.0633 111.0143 7.4395 0.0020 -0.5142 -0.0022
# 3 25.1703 7.4395 68.1906 0.0170 14.2984 0.0004
# 4 -0.0002 0.0020 0.0170 20.8389 0.0027 -2.0104
# 5 8.9024 -0.5142 14.2984 0.0027 32.2774 -0.0008
# 6 -0.0002 -0.0022 0.0004 -2.0104 -0.0008 16.7835
#
#
#
# Elastic Compliance Matrix: (Units=1/GPa)
#
#
# Indices 1 2 3 4 5 6 
#
# 1 0.013318 -0.007935 -0.003587 0.000004 -0.002211 0.000000
# 2 -0.007935 0.013814 0.001011 -0.000002 0.001961 0.000002
# 3 -0.003587 0.001011 0.017272 -0.000014 -0.006646 -0.000002
# 4 0.000004 -0.000002 -0.000014 0.048548 0.000001 0.005815
# 5 -0.002211 0.001961 -0.006646 0.000001 0.034566 0.000002
# 6 0.000000 0.000002 -0.000002 0.005815 0.000002 0.060279
#
#
# Mechanical properties :
#
#
# Convention : Reuss Voigt Hill
#
# Bulk Modulus (GPa) = 42.76789 56.04948 49.40868
# Shear Modulus (GPa) = 23.08241 27.47502 25.27871
#
# Velocity S-wave (km/s) = 3.39723 3.70641 3.55518
# Velocity P-wave (km/s) = 6.06399 6.80744 6.44644
#
# Compressibility (1/GPa) = 0.02338203
#
# Stress axis : x y z
#
# Youngs Moduli (GPa) = 75.08389 72.38792 57.89740
#
# Poissons Ratio (x) = 0.57443 0.20766
# Poissons Ratio (y) = 0.59583 -0.05852
# Poissons Ratio (z) = 0.26930 -0.07317
#
# Static dielectric constant tensor:
#      x y z
#    x 3.589080 -0.000030 0.195250 
#    y -0.000030 3.473440 -0.000050 
#    z 0.195250 -0.000050 3.827190 
# 
# 
# High freq. dielectric constant tensor:
#      x y z
#    x 1.772220 0.000000 0.017100 
#    y 0.000000 1.758480 0.000000 
#    z 0.017100 0.000000 1.797120 
# 
# From -- ./inp_files/157283.got.cif
#   From: 2010.06.25/outbox.cif.g09.slc.cpg/sg15_79_cif.got.tgz:157283.got - 2010.06.28 07:06:18.
