data_PCOD8144595
_publ_section_title
;
Structure prediction by ZEFSAII (Michael W. Deem and Ramdas Pophale) SiO2 
 PCOD8144595
Probable space group: C 2/C
;
_chemical_formula_sum "Si O2"
_cell_formula_units_Z 48
_cell_length_a 5.286426
_cell_length_b 22.265757
_cell_length_c 21.647807
_cell_angle_alpha 90.000000
_cell_angle_beta 129.715303
_cell_angle_gamma 90.000000
_cell_volume 1960.058952
_symmetry_space_group_name_H-M "C 2/C"
_symmetry_group_IT_number 15
_symmetry_cell_setting 'monoclinic'
loop_
_space_group_symop_operation_xyz
x,y,z
-x,y,1/2-z
-x,-y,-z
x,-y,1/2+z
1/2+x,1/2+y,z
1/2-x,1/2+y,1/2-z
1/2-x,1/2-y,-z
1/2+x,1/2-y,1/2+z
loop_
_atom_site_type_symbol
_atom_site_label
_atom_site_fract_x
_atom_site_fract_y
_atom_site_fract_z
Si Si1 0.411644 0.583588 0.929818
Si Si2 0.629525 0.185069 0.538643
Si Si3 0.210122 0.726387 0.126374
Si Si4 0.275439 0.904918 0.838390
Si Si5 0.874318 0.334776 0.324076
Si Si6 0.002082 0.950689 0.577839
O O1 0.707527 0.631827 0.976491
O O2 0.525491 0.522065 0.915414
O O3 0.115040 0.611029 0.840274
O O4 0.314215 0.568831 0.985846
O O5 0.316849 0.209422 0.451077
O O6 0.522453 0.161883 0.588218
O O7 0.881797 0.238523 0.593090
O O8 0.229354 0.667241 0.170935
O O9 0.525554 0.769784 0.188180
O O10 0.617806 0.931940 0.868991
O O11 0.000000 0.932204 0.750000
O O12 0.186324 0.919986 0.895105
O O13 0.500000 0.349622 0.250000
#
# Coordination Sequence:
#
# PCOD8144595 Si02
#       6
#     8   8   8   8   8   8
#     4  10  24  44  73  99 135 188 241 299 339 431
#     4  10  21  43  68  97 132 180 235 290 350 413
#     4  10  23  40  68  97 134 180 235 285 352 426
#     4  12  27  45  71 106 146 189 231 297 360 427
#     4  11  25  40  67 103 140 183 227 298 363 420
#     4  11  26  47  73 105 140 192 246 289 352 420
#
# _framework density 24.489062000000001
#
# number of rings (size 3 to 8) (size 9 to 14) (size 15 to 20)
#    0.000    1.333    1.667    2.000    7.000    4.000 
#    3.000    0.000    0.000    0.000    0.000    0.000 
#    0.000    0.000    0.000    0.000    0.000    0.000 
#
# Total GULP energy -297561.747621 kJ/mol
# GULP energy per Si atom -12398.406151 kJ/mol
# Density = 2.443332 g / cm^3
# Si number density = 24.489062 Si / 1000 Ang^3
#
#
#
# Elastic Constant Matrix: (Units=GPa)
#
#
# Indices 1 2 3 4 5 6 
#
# 1 64.8928 22.6467 6.0945 0.0000 8.5537 0.0000
# 2 22.6467 155.8118 21.6061 0.0000 12.5708 0.0000
# 3 6.0945 21.6061 54.6862 0.0000 29.3058 0.0000
# 4 0.0000 0.0000 0.0000 16.6597 0.0000 0.2744
# 5 8.5537 12.5708 29.3058 0.0000 45.4583 0.0000
# 6 0.0000 0.0000 0.0000 0.2744 0.0000 20.6888
#
#
#
# Elastic Compliance Matrix: (Units=1/GPa)
#
#
# Indices 1 2 3 4 5 6 
#
# 1 0.016518 -0.002251 0.000581 0.000000 -0.002860 0.000000
# 2 -0.002251 0.007098 -0.002641 0.000000 0.000163 0.000000
# 3 0.000581 -0.002641 0.028925 0.000000 -0.018026 0.000000
# 4 0.000000 0.000000 0.000000 0.060038 0.000000 -0.000796
# 5 -0.002860 0.000163 -0.018026 0.000000 0.034112 0.000000
# 6 0.000000 0.000000 0.000000 -0.000796 0.000000 0.048346
#
#
# Mechanical properties :
#
#
# Convention : Reuss Voigt Hill
#
# Bulk Modulus (GPa) = 22.76866 41.78728 32.27797
# Shear Modulus (GPa) = 22.90443 31.56426 27.23435
#
# Velocity S-wave (km/s) = 3.06157 3.59404 3.33844
# Velocity P-wave (km/s) = 4.67069 5.85863 5.29806
#
# Compressibility (1/GPa) = 0.04392002
#
# Stress axis : x y z
#
# Youngs Moduli (GPa) = 60.54024 140.88107 34.57234
#
# Poissons Ratio (x) = 0.31707 -0.02010
# Poissons Ratio (y) = 0.13625 0.09131
# Poissons Ratio (z) = -0.03519 0.37208
#
# Static dielectric constant tensor:
#      x y z
#    x 4.145180 0.000000 -0.016430 
#    y 0.000000 4.627290 0.000000 
#    z -0.016430 0.000000 4.235110 
# 
# 
# High freq. dielectric constant tensor:
#      x y z
#    x 1.961150 0.000000 0.007190 
#    y 0.000000 1.989630 0.000000 
#    z 0.007190 0.000000 1.968750 
# 
# From -- ./inp_files/228255.got.cif
#   From: 2010.06.25/outbox.cif.g09.slc.cpg/sg15_115_cif.got.tgz:228255.got - 2010.06.28 07:06:18.
