data_PCOD8144960
_publ_section_title
;
Structure prediction by ZEFSAII (Michael W. Deem and Ramdas Pophale) SiO2 
 PCOD8144960
Probable space group: C 2/C
;
_chemical_formula_sum "Si O2"
_cell_formula_units_Z 44
_cell_length_a 18.498399
_cell_length_b 12.394892
_cell_length_c 8.975307
_cell_angle_alpha 90.000000
_cell_angle_beta 70.473141
_cell_angle_gamma 90.000000
_cell_volume 1939.548330
_symmetry_space_group_name_H-M "C 2/C"
_symmetry_group_IT_number 15
_symmetry_cell_setting 'monoclinic'
loop_
_space_group_symop_operation_xyz
x,y,z
-x,y,1/2-z
-x,-y,-z
x,-y,1/2+z
1/2+x,1/2+y,z
1/2-x,1/2+y,1/2-z
1/2-x,1/2-y,-z
1/2+x,1/2-y,1/2+z
loop_
_atom_site_type_symbol
_atom_site_label
_atom_site_fract_x
_atom_site_fract_y
_atom_site_fract_z
Si Si1 0.847385 0.532347 0.736398
Si Si2 0.100372 0.300372 0.516729
Si Si3 0.500000 0.048242 0.250000
Si Si4 0.810108 0.298916 0.746402
Si Si5 0.189039 0.095158 0.957614
Si Si6 0.350435 0.613979 0.173684
O O1 0.841781 0.621895 0.613189
O O2 0.837623 0.415408 0.666664
O O3 0.778290 0.558879 0.899562
O O4 0.929436 0.531117 0.762441
O O5 0.023253 0.370467 0.598741
O O6 0.141065 0.266707 0.642758
O O7 0.080431 0.192076 0.433289
O O8 0.822527 0.210725 0.610318
O O9 0.720666 0.317081 0.845745
O O10 0.345247 0.395393 0.854263
O O11 0.141096 0.004975 0.900465
#
# Coordination Sequence:
#
# PCOD8144960 Si02
#       6
#     8   8   4   8   8   8
#     4  10  23  37  65  92 138 164 213 257 317 386
#     4  11  22  41  61  90 128 173 216 262 313 378
#     4  10  24  40  60  94 130 184 212 252 302 390
#     4  10  22  35  61  91 131 163 206 266 324 380
#     4  11  23  38  62 101 127 163 208 266 339 376
#     4  11  23  36  62  90 130 164 206 269 322 382
#
# _framework density 22.685694000000002
#
# number of rings (size 3 to 8) (size 9 to 14) (size 15 to 20)
#    0.000    1.455    1.818    2.727   15.273    0.000 
#    0.000    0.000    0.000    9.818    0.000    5.091 
#    0.000    0.000    0.000    0.000    0.000    0.000 
#
# Total GULP energy -272639.868393 kJ/mol
# GULP energy per Si atom -12392.721291 kJ/mol
# Density = 2.263406 g / cm^3
# Si number density = 22.685694 Si / 1000 Ang^3
#
#
#
# Elastic Constant Matrix: (Units=GPa)
#
#
# Indices 1 2 3 4 5 6 
#
# 1 58.5689 23.6565 18.2094 0.0000 14.9722 0.0000
# 2 23.6565 141.2316 32.5340 0.0000 23.2066 0.0000
# 3 18.2094 32.5340 100.3655 0.0000 27.7824 0.0000
# 4 0.0000 0.0000 0.0000 46.5201 0.0000 0.5462
# 5 14.9722 23.2066 27.7824 0.0000 20.1065 0.0000
# 6 0.0000 0.0000 0.0000 0.5462 0.0000 21.2685
#
#
#
# Elastic Compliance Matrix: (Units=1/GPa)
#
#
# Indices 1 2 3 4 5 6 
#
# 1 0.021293 -0.001190 0.000861 0.000000 -0.015672 0.000000
# 2 -0.001190 0.008804 -0.000114 0.000000 -0.009118 0.000000
# 3 0.000861 -0.000114 0.016170 0.000000 -0.022853 0.000000
# 4 0.000000 0.000000 0.000000 0.021503 0.000000 -0.000552
# 5 -0.015672 -0.009118 -0.022853 0.000000 0.103506 0.000000
# 6 0.000000 0.000000 0.000000 -0.000552 0.000000 0.047032
#
#
# Mechanical properties :
#
#
# Convention : Reuss Voigt Hill
#
# Bulk Modulus (GPa) = 22.03547 49.88508 35.96027
# Shear Modulus (GPa) = 21.33811 32.63009 26.98410
#
# Velocity S-wave (km/s) = 3.07024 3.79668 3.45262
# Velocity P-wave (km/s) = 4.72260 6.42317 5.63738
#
# Compressibility (1/GPa) = 0.04538139
#
# Stress axis : x y z
#
# Youngs Moduli (GPa) = 46.96345 113.57929 61.84168
#
# Poissons Ratio (x) = 0.13513 -0.05322
# Poissons Ratio (y) = 0.05588 0.00705
# Poissons Ratio (z) = -0.04042 0.01296
#
# Static dielectric constant tensor:
#      x y z
#    x 3.773840 0.000000 -0.135600 
#    y 0.000000 4.347450 0.000000 
#    z -0.135600 0.000000 4.071400 
# 
# 
# High freq. dielectric constant tensor:
#      x y z
#    x 1.848850 0.000000 0.008930 
#    y 0.000000 1.914580 0.000000 
#    z 0.008930 0.000000 1.894280 
# 
# From -- ./inp_files/110495.got.cif
#   From: 2010.06.25/outbox.cif.g09.slc.cpg/sg15_56_cif.got.tgz:110495.got - 2010.06.28 07:06:18.
