data_PCOD8144869
_publ_section_title
;
Structure prediction by ZEFSAII (Michael W. Deem and Ramdas Pophale) SiO2 
 PCOD8144869
Probable space group: C 2/C
;
_chemical_formula_sum "Si O2"
_cell_formula_units_Z 52
_cell_length_a 11.189840
_cell_length_b 10.872411
_cell_length_c 24.854795
_cell_angle_alpha 90.000000
_cell_angle_beta 48.479406
_cell_angle_gamma 90.000000
_cell_volume 2264.007757
_symmetry_space_group_name_H-M "C 2/C"
_symmetry_group_IT_number 15
_symmetry_cell_setting 'monoclinic'
loop_
_space_group_symop_operation_xyz
x,y,z
-x,y,1/2-z
-x,-y,-z
x,-y,1/2+z
1/2+x,1/2+y,z
1/2-x,1/2+y,1/2-z
1/2-x,1/2-y,-z
1/2+x,1/2-y,1/2+z
loop_
_atom_site_type_symbol
_atom_site_label
_atom_site_fract_x
_atom_site_fract_y
_atom_site_fract_z
Si Si1 0.919570 0.334978 0.566343
Si Si2 0.000000 0.596517 0.750000
Si Si3 0.221062 0.473105 0.468518
Si Si4 0.253126 0.737113 0.275873
Si Si5 0.229064 0.621667 0.172714
Si Si6 0.960861 0.146714 0.817115
Si Si7 0.942622 0.108874 0.481566
O O1 0.872412 0.454226 0.548341
O O2 0.801906 0.323365 0.651782
O O3 0.896834 0.219275 0.534343
O O4 0.104885 0.365511 0.528024
O O5 0.077742 0.690079 0.770491
O O6 0.142715 0.508912 0.683942
O O7 0.364545 0.414676 0.393114
O O8 0.287405 0.564592 0.494634
O O9 0.249930 0.632584 0.230979
O O10 0.127128 0.839805 0.297428
O O11 0.119797 0.726178 0.178537
O O12 0.408297 0.642882 0.099813
O O13 0.000000 0.069578 0.750000
O O14 0.000000 0.000000 0.500000
#
# Coordination Sequence:
#
# PCOD8144869 Si02
#       7
#     8   4   8   8   8   8   8
#     4  11  26  46  66 111 140 184 240 296 359 438
#     4  12  24  46  70 106 140 186 240 296 368 416
#     4  11  25  44  72  99 145 188 235 298 361 430
#     4  11  26  43  74 101 139 186 241 292 362 434
#     4  11  24  47  71 103 146 186 244 303 354 434
#     4  10  21  46  70 100 138 189 235 294 358 424
#     4  12  26  45  73 100 144 191 237 299 367 435
#
# _framework density 22.968121
#
# number of rings (size 3 to 8) (size 9 to 14) (size 15 to 20)
#    0.000    0.923    3.846    3.231    4.308    6.154 
#    2.769    0.000    0.000    0.000    0.000    0.000 
#    0.000    0.000    0.000    0.000    0.000    0.000 
#
# Total GULP energy -322129.264828 kJ/mol
# GULP energy per Si atom -12389.587109 kJ/mol
# Density = 2.291584 g / cm^3
# Si number density = 22.968121 Si / 1000 Ang^3
#
#
#
# Elastic Constant Matrix: (Units=GPa)
#
#
# Indices 1 2 3 4 5 6 
#
# 1 128.1224 33.0452 28.7189 0.0000 2.9729 0.0000
# 2 33.0452 47.1819 36.8996 0.0000 5.4685 0.0000
# 3 28.7189 36.8996 111.7037 0.0000 13.8382 -0.0001
# 4 0.0000 0.0000 0.0000 35.3046 0.0000 -27.5952
# 5 2.9729 5.4685 13.8382 0.0000 28.9912 0.0000
# 6 0.0000 0.0000 -0.0001 -27.5952 0.0000 110.1887
#
#
#
# Elastic Compliance Matrix: (Units=1/GPa)
#
#
# Indices 1 2 3 4 5 6 
#
# 1 0.009540 -0.006433 -0.000379 0.000000 0.000416 0.000000
# 2 -0.006433 0.032940 -0.009076 0.000000 -0.001221 0.000000
# 3 -0.000379 -0.009076 0.012574 0.000000 -0.004251 0.000000
# 4 0.000000 0.000000 0.000000 0.035219 0.000000 0.008820
# 5 0.000416 -0.001221 -0.004251 0.000000 0.036710 0.000000
# 6 0.000000 0.000000 0.000000 0.008820 0.000000 0.011284
#
#
# Mechanical properties :
#
#
# Convention : Reuss Voigt Hill
#
# Bulk Modulus (GPa) = 42.95965 53.81505 48.38735
# Shear Modulus (GPa) = 28.12111 47.45321 37.78716
#
# Velocity S-wave (km/s) = 3.50287 4.55031 4.06051
# Velocity P-wave (km/s) = 5.92493 7.14761 6.56480
#
# Compressibility (1/GPa) = 0.02327765
#
# Stress axis : x y z
#
# Youngs Moduli (GPa) = 104.82661 30.35848 79.52630
#
# Poissons Ratio (x) = 0.19530 0.03015
# Poissons Ratio (y) = 0.67436 0.72177
# Poissons Ratio (z) = 0.03974 0.27553
#
# Static dielectric constant tensor:
#      x y z
#    x 4.372690 0.000000 -0.083100 
#    y 0.000000 3.963940 0.000000 
#    z -0.083100 0.000000 4.653280 
# 
# 
# High freq. dielectric constant tensor:
#      x y z
#    x 1.925320 0.000000 -0.007230 
#    y 0.000000 1.900290 0.000000 
#    z -0.007230 0.000000 1.911270 
# 
# From -- ./inp_files/269201.got.cif
#   From: 2010.06.25/outbox.cif.g09.slc.cpg/sg15_135_cif.got.tgz:269201.got - 2010.06.28 07:06:18.
