data_PCOD8144526
_publ_section_title
;
Structure prediction by ZEFSAII (Michael W. Deem and Ramdas Pophale) SiO2 
 PCOD8144526
Probable space group: C 2/C
;
_chemical_formula_sum "Si O2"
_cell_formula_units_Z 64
_cell_length_a 14.110720
_cell_length_b 17.760303
_cell_length_c 14.959471
_cell_angle_alpha 90.000000
_cell_angle_beta 130.508235
_cell_angle_gamma 90.000000
_cell_volume 2850.414226
_symmetry_space_group_name_H-M "C 2/C"
_symmetry_group_IT_number 15
_symmetry_cell_setting 'monoclinic'
loop_
_space_group_symop_operation_xyz
x,y,z
-x,y,1/2-z
-x,-y,-z
x,-y,1/2+z
1/2+x,1/2+y,z
1/2-x,1/2+y,1/2-z
1/2-x,1/2-y,-z
1/2+x,1/2-y,1/2+z
loop_
_atom_site_type_symbol
_atom_site_label
_atom_site_fract_x
_atom_site_fract_y
_atom_site_fract_z
Si Si1 0.173810 0.163149 0.208124
Si Si2 0.777039 0.429181 0.334952
Si Si3 0.547131 0.496779 0.628709
Si Si4 0.714397 0.822631 0.534210
Si Si5 0.937407 0.672717 0.298894
Si Si6 0.456183 0.795975 0.451460
Si Si7 0.104056 0.492787 0.755577
Si Si8 0.722167 0.513653 0.480062
O O1 0.133401 0.076678 0.193350
O O2 0.212010 0.189955 0.329128
O O3 0.287435 0.176715 0.208879
O O4 0.062270 0.213507 0.101947
O O5 0.635179 0.432424 0.210052
O O6 0.827341 0.343840 0.371261
O O7 0.868018 0.468426 0.320362
O O8 0.786751 0.470842 0.436666
O O9 0.500000 0.500000 0.500000
O O10 0.426535 0.498615 0.618524
O O11 0.750000 0.750000 0.500000
O O12 0.567148 0.833029 0.462220
O O13 0.756138 0.897098 0.508093
O O14 0.966265 0.583824 0.316418
O O15 0.000000 0.711034 0.250000
O O16 0.000670 0.714377 0.420537
O O17 0.000000 0.538676 0.750000
O O18 0.226676 0.482282 0.893502
#
# Coordination Sequence:
#
# PCOD8144526 Si02
#       8
#     8   8   8   8   8   8   8   8
#     4  11  24  46  64 100 141 183 231 293 358 425
#     4  12  23  43  65 103 135 179 237 290 346 422
#     4  12  24  44  69  98 137 189 237 297 357 421
#     4  11  25  44  69 101 141 184 226 284 367 434
#     4  10  21  43  66  93 128 178 228 289 352 404
#     4  11  26  41  69 100 141 183 233 293 353 429
#     4  11  22  39  67  97 131 169 225 289 343 411
#     4  12  24  42  70 101 138 187 234 292 362 419
#
# _framework density 22.452877999999998
#
# number of rings (size 3 to 8) (size 9 to 14) (size 15 to 20)
#    0.000    0.750    3.750    4.125    1.750    5.500 
#    0.000    1.250    0.000    0.000    0.000    0.000 
#    0.000    0.000    0.000    0.000    0.000    0.000 
#
# Total GULP energy -396763.485098 kJ/mol
# GULP energy per Si atom -12398.858909 kJ/mol
# Density = 2.240177 g / cm^3
# Si number density = 22.452878 Si / 1000 Ang^3
#
#
#
# Elastic Constant Matrix: (Units=GPa)
#
#
# Indices 1 2 3 4 5 6 
#
# 1 122.9513 21.2894 36.4773 0.0000 2.3952 0.0000
# 2 21.2894 59.0344 21.1034 0.0000 -0.0315 0.0000
# 3 36.4773 21.1034 89.4652 0.0000 7.5183 0.0000
# 4 0.0000 0.0000 0.0000 32.0531 0.0000 2.5043
# 5 2.3952 -0.0315 7.5183 0.0000 43.6209 0.0000
# 6 0.0000 0.0000 0.0000 2.5043 0.0000 34.1905
#
#
#
# Elastic Compliance Matrix: (Units=1/GPa)
#
#
# Indices 1 2 3 4 5 6 
#
# 1 0.009515 -0.002231 -0.003358 0.000000 0.000055 0.000000
# 2 -0.002231 0.019048 -0.003648 0.000000 0.000765 0.000000
# 3 -0.003358 -0.003648 0.013589 0.000000 -0.002160 0.000000
# 4 0.000000 0.000000 0.000000 0.031378 0.000000 -0.002298
# 5 0.000055 0.000765 -0.002160 0.000000 0.023295 0.000000
# 6 0.000000 0.000000 0.000000 -0.002298 0.000000 0.029416
#
#
# Mechanical properties :
#
#
# Convention : Reuss Voigt Hill
#
# Bulk Modulus (GPa) = 42.23244 47.68791 44.96017
# Shear Modulus (GPa) = 32.76409 34.81162 33.78786
#
# Velocity S-wave (km/s) = 3.82414 3.94182 3.88343
# Velocity P-wave (km/s) = 6.19265 6.48093 6.33843
#
# Compressibility (1/GPa) = 0.02367848
#
# Stress axis : x y z
#
# Youngs Moduli (GPa) = 105.10036 52.49836 73.59118
#
# Poissons Ratio (x) = 0.11712 0.24710
# Poissons Ratio (y) = 0.23447 0.26845
# Poissons Ratio (z) = 0.35290 0.19151
#
# Static dielectric constant tensor:
#      x y z
#    x 4.646590 0.000000 0.141260 
#    y 0.000000 3.710360 0.000000 
#    z 0.141260 0.000000 4.201270 
# 
# 
# High freq. dielectric constant tensor:
#      x y z
#    x 1.908080 0.000000 -0.001650 
#    y 0.000000 1.854370 0.000000 
#    z -0.001650 0.000000 1.893120 
# 
# From -- ./inp_files/155513.got.cif
#   From: 2010.06.25/outbox.cif.g09.slc.cpg/sg15_78_cif.got.tgz:155513.got - 2010.06.28 07:06:18.
