data_PCOD8144443
_publ_section_title
;
Structure prediction by ZEFSAII (Michael W. Deem and Ramdas Pophale) SiO2 
 PCOD8144443
Probable space group: C 2/C
;
_chemical_formula_sum "Si O2"
_cell_formula_units_Z 56
_cell_length_a 9.029158
_cell_length_b 15.345202
_cell_length_c 29.367733
_cell_angle_alpha 90.000000
_cell_angle_beta 38.386765
_cell_angle_gamma 90.000000
_cell_volume 2526.728746
_symmetry_space_group_name_H-M "C 2/C"
_symmetry_group_IT_number 15
_symmetry_cell_setting 'monoclinic'
loop_
_space_group_symop_operation_xyz
x,y,z
-x,y,1/2-z
-x,-y,-z
x,-y,1/2+z
1/2+x,1/2+y,z
1/2-x,1/2+y,1/2-z
1/2-x,1/2-y,-z
1/2+x,1/2-y,1/2+z
loop_
_atom_site_type_symbol
_atom_site_label
_atom_site_fract_x
_atom_site_fract_y
_atom_site_fract_z
Si Si1 0.033876 0.394639 0.829905
Si Si2 0.775431 0.446717 0.277668
Si Si3 0.826394 0.012992 0.936275
Si Si4 0.521499 0.360548 0.545148
Si Si5 0.824289 0.217128 0.750152
Si Si6 0.079077 0.402073 0.924492
Si Si7 0.665787 0.244148 0.591132
O O1 0.748983 0.390948 0.895752
O O2 0.146669 0.470811 0.771803
O O3 0.146709 0.302578 0.787865
O O4 0.105542 0.413709 0.864376
O O5 0.604321 0.476460 0.359669
O O6 0.621301 0.372625 0.289174
O O7 0.000000 0.406068 0.250000
O O8 0.808628 0.937890 0.978694
O O9 0.702576 0.985467 0.918514
O O10 0.695066 0.096862 0.990507
O O11 0.534221 0.283051 0.578604
O O12 0.636559 0.327849 0.469987
O O13 0.548079 0.201885 0.829258
O O14 0.000000 0.227175 0.750000
O O15 0.203390 0.313549 0.908932
#
# Coordination Sequence:
#
# PCOD8144443 Si02
#       7
#     8   8   8   8   8   8   8
#     4  12  25  47  74 104 144 194 237 290 364 422
#     4  12  28  46  73 106 143 186 239 300 355 426
#     4  10  23  46  67 100 146 184 236 292 359 418
#     4  10  21  42  73  94 137 190 232 284 354 427
#     4  12  28  46  73 104 143 188 240 298 363 428
#     4  10  25  41  72 103 141 187 234 298 348 422
#     4  10  23  43  68 101 139 183 238 288 353 421
#
# _framework density 22.163043999999999
#
# number of rings (size 3 to 8) (size 9 to 14) (size 15 to 20)
#    0.000    1.143    2.857    2.143    8.000    4.571 
#    0.000    0.000    0.000    0.000    0.000    0.000 
#    0.000    0.000    0.000    0.000    0.000    0.000 
#
# Total GULP energy -347166.556305 kJ/mol
# GULP energy per Si atom -12398.805582 kJ/mol
# Density = 2.211260 g / cm^3
# Si number density = 22.163044 Si / 1000 Ang^3
#
#
#
# Elastic Constant Matrix: (Units=GPa)
#
#
# Indices 1 2 3 4 5 6 
#
# 1 65.1781 22.0687 31.8241 0.0024 2.4422 -0.0007
# 2 22.0687 95.2141 30.3786 -0.0013 2.6626 0.0011
# 3 31.8241 30.3786 118.5976 0.0160 -9.7054 -0.0078
# 4 0.0024 -0.0013 0.0160 34.7093 -0.0025 -0.6496
# 5 2.4422 2.6626 -9.7054 -0.0025 33.3324 0.0025
# 6 -0.0007 0.0011 -0.0078 -0.6496 0.0025 26.5457
#
#
#
# Elastic Compliance Matrix: (Units=1/GPa)
#
#
# Indices 1 2 3 4 5 6 
#
# 1 0.018564 -0.002811 -0.004460 0.000000 -0.002434 0.000000
# 2 -0.002811 0.011971 -0.002431 0.000002 -0.001458 -0.000001
# 3 -0.004460 -0.002431 0.010545 -0.000004 0.003592 0.000003
# 4 0.000000 0.000002 -0.000004 0.028824 0.000001 0.000705
# 5 -0.002434 -0.001458 0.003592 0.000001 0.031341 -0.000002
# 6 0.000000 -0.000001 0.000003 0.000705 -0.000002 0.037688
#
#
# Mechanical properties :
#
#
# Convention : Reuss Voigt Hill
#
# Bulk Modulus (GPa) = 46.13890 49.72585 47.93238
# Shear Modulus (GPa) = 30.19984 31.89870 31.04927
#
# Velocity S-wave (km/s) = 3.69537 3.79789 3.74698
# Velocity P-wave (km/s) = 6.25067 6.45888 6.35562
#
# Compressibility (1/GPa) = 0.02167368
#
# Stress axis : x y z
#
# Youngs Moduli (GPa) = 53.86898 83.53688 94.82799
#
# Poissons Ratio (x) = 0.23486 0.42296
# Poissons Ratio (y) = 0.15145 0.23055
# Poissons Ratio (z) = 0.24027 0.20309
#
# Static dielectric constant tensor:
#      x y z
#    x 3.966730 0.000000 -0.018160 
#    y 0.000000 3.816260 0.000000 
#    z -0.018160 0.000000 4.205500 
# 
# 
# High freq. dielectric constant tensor:
#      x y z
#    x 1.875750 0.000000 -0.005010 
#    y 0.000000 1.863680 0.000000 
#    z -0.005010 0.000000 1.886180 
# 
# From -- ./inp_files/289672.got.cif
#   From: 2010.06.25/outbox.cif.g09.slc.cpg/sg15_145_cif.got.tgz:289672.got - 2010.06.28 07:06:18.
