data_PCOD8144079
_publ_section_title
;
Structure prediction by ZEFSAII (Michael W. Deem and Ramdas Pophale) SiO2 
 PCOD8144079
Probable space group: C 2/C
;
_chemical_formula_sum "Si O2"
_cell_formula_units_Z 40
_cell_length_a 13.487740
_cell_length_b 8.917828
_cell_length_c 13.173238
_cell_angle_alpha 90.000000
_cell_angle_beta 93.764520
_cell_angle_gamma 90.000000
_cell_volume 1581.075952
_symmetry_space_group_name_H-M "C 2/C"
_symmetry_group_IT_number 15
_symmetry_cell_setting 'monoclinic'
loop_
_space_group_symop_operation_xyz
x,y,z
-x,y,1/2-z
-x,-y,-z
x,-y,1/2+z
1/2+x,1/2+y,z
1/2-x,1/2+y,1/2-z
1/2-x,1/2-y,-z
1/2+x,1/2-y,1/2+z
loop_
_atom_site_type_symbol
_atom_site_label
_atom_site_fract_x
_atom_site_fract_y
_atom_site_fract_z
Si Si1 0.130046 0.744829 0.877307
Si Si2 0.866293 0.755831 0.387556
Si Si3 0.534150 0.957337 0.112979
Si Si4 0.280825 0.766165 0.385242
Si Si5 0.161853 0.995165 0.745824
O O1 0.247070 0.728979 0.863547
O O2 0.093410 0.887980 0.810739
O O3 0.066754 0.598153 0.834157
O O4 0.106059 0.770066 0.993385
O O5 0.910639 0.605032 0.338971
O O6 0.908480 0.898415 0.328571
O O7 0.603986 0.812254 0.111507
O O8 0.500000 0.000000 0.000000
O O9 0.250000 0.750000 0.500000
O O10 0.268825 0.608437 0.324496
O O11 0.222863 0.901821 0.328390
#
# Coordination Sequence:
#
# PCOD8144079 Si02
#       5
#     8   8   8   8   8
#     4  10  21  41  76 103 143 189 248 309 362 447
#     4  10  21  44  75 104 142 196 243 302 380 439
#     4  10  23  45  74 104 135 193 251 307 368 441
#     4  12  26  44  72 105 147 197 246 304 380 450
#     4  12  23  44  72 107 146 198 241 301 385 443
#
# _framework density 25.299229
#
# number of rings (size 3 to 8) (size 9 to 14) (size 15 to 20)
#    0.000    1.200    4.000    1.200    5.600    0.800 
#    0.000   15.000    0.000    0.000    0.000    0.000 
#    0.000    0.000    0.000    0.000    0.000    0.000 
#
# Total GULP energy -247770.853706 kJ/mol
# GULP energy per Si atom -12388.542685 kJ/mol
# Density = 2.524165 g / cm^3
# Si number density = 25.299229 Si / 1000 Ang^3
#
#
#
# Elastic Constant Matrix: (Units=GPa)
#
#
# Indices 1 2 3 4 5 6 
#
# 1 103.8396 77.7949 29.3238 0.0000 -5.1591 0.0000
# 2 77.7949 225.0213 91.6239 0.0000 -13.0659 0.0000
# 3 29.3238 91.6239 141.0127 0.0000 -17.8146 0.0000
# 4 0.0000 0.0000 0.0000 62.0497 0.0000 -3.5551
# 5 -5.1591 -13.0659 -17.8146 0.0000 22.4822 0.0000
# 6 0.0000 0.0000 0.0000 -3.5551 0.0000 53.7382
#
#
#
# Elastic Compliance Matrix: (Units=1/GPa)
#
#
# Indices 1 2 3 4 5 6 
#
# 1 0.013013 -0.004614 0.000367 0.000000 0.000596 0.000000
# 2 -0.004614 0.007682 -0.004003 0.000000 0.000234 0.000000
# 3 0.000367 -0.004003 0.010371 0.000000 0.005976 0.000000
# 4 0.000000 0.000000 0.000000 0.016177 0.000000 0.001070
# 5 0.000596 0.000234 0.005976 0.000000 0.049488 0.000000
# 6 0.000000 0.000000 0.000000 0.001070 0.000000 0.018680
#
#
# Mechanical properties :
#
#
# Convention : Reuss Voigt Hill
#
# Bulk Modulus (GPa) = 68.64657 96.37321 82.50989
# Shear Modulus (GPa) = 36.55897 45.72940 41.14419
#
# Velocity S-wave (km/s) = 3.80552 4.25613 4.03712
# Velocity P-wave (km/s) = 6.81924 7.89487 7.37669
#
# Compressibility (1/GPa) = 0.01456737
#
# Stress axis : x y z
#
# Youngs Moduli (GPa) = 76.84846 130.16631 96.42284
#
# Poissons Ratio (x) = 0.60053 -0.03538
# Poissons Ratio (y) = 0.35455 0.38595
# Poissons Ratio (z) = -0.02820 0.52102
#
# Static dielectric constant tensor:
#      x y z
#    x 4.550800 0.000000 0.158320 
#    y 0.000000 5.294610 0.000000 
#    z 0.158320 0.000000 4.896370 
# 
# 
# High freq. dielectric constant tensor:
#      x y z
#    x 1.983430 0.000000 0.014360 
#    y 0.000000 2.024800 0.000000 
#    z 0.014360 0.000000 2.032040 
# 
# From -- ./inp_files/202267.got.cif
#   From: 2010.06.25/outbox.cif.g09.slc.cpg/sg15_102_cif.got.tgz:202267.got - 2010.06.28 07:06:18.
