data_PCOD8144018
_publ_section_title
;
Structure prediction by ZEFSAII (Michael W. Deem and Ramdas Pophale) SiO2 
 PCOD8144018
Probable space group: C 2/C
;
_chemical_formula_sum "Si O2"
_cell_formula_units_Z 56
_cell_length_a 9.488245
_cell_length_b 10.996536
_cell_length_c 23.901651
_cell_angle_alpha 90.000000
_cell_angle_beta 70.594273
_cell_angle_gamma 90.000000
_cell_volume 2352.169567
_symmetry_space_group_name_H-M "C 2/C"
_symmetry_group_IT_number 15
_symmetry_cell_setting 'monoclinic'
loop_
_space_group_symop_operation_xyz
x,y,z
-x,y,1/2-z
-x,-y,-z
x,-y,1/2+z
1/2+x,1/2+y,z
1/2-x,1/2+y,1/2-z
1/2-x,1/2-y,-z
1/2+x,1/2-y,1/2+z
loop_
_atom_site_type_symbol
_atom_site_label
_atom_site_fract_x
_atom_site_fract_y
_atom_site_fract_z
Si Si1 0.637080 0.588438 0.973975
Si Si2 0.774833 0.135219 0.224556
Si Si3 0.051313 0.289561 0.162737
Si Si4 0.353898 0.006991 0.152490
Si Si5 0.170767 0.897875 0.344262
Si Si6 0.789418 0.345395 0.558215
Si Si7 0.091524 0.174747 0.685636
O O1 0.699487 0.559838 0.904157
O O2 0.604931 0.734533 0.977635
O O3 0.500000 0.500000 0.000000
O O4 0.751562 0.566458 0.010549
O O5 0.918632 0.221877 0.212723
O O6 0.314446 0.103266 0.206987
O O7 0.661449 0.195026 0.194221
O O8 0.844435 0.012754 0.192476
O O9 0.993460 0.420261 0.147401
O O10 0.181464 0.319780 0.191602
O O11 0.130831 0.207950 0.103865
O O12 0.384780 0.083886 0.092216
O O13 0.215204 0.922728 0.154237
O O14 0.022478 0.815465 0.352394
O O15 0.000000 0.122031 0.750000
#
# Coordination Sequence:
#
# PCOD8144018 Si02
#       7
#     8   8   8   8   8   8   8
#     4  10  21  41  69  95 125 169 221 272 329 387
#     4  11  25  41  64  93 136 174 212 265 328 387
#     4  10  25  42  64  96 130 172 224 266 325 396
#     4  11  24  43  66  95 137 177 219 268 326 395
#     4  11  24  44  67  95 132 169 219 271 325 391
#     4  10  23  42  67  93 128 171 218 276 327 379
#     4  11  24  42  60  96 132 171 215 262 316 391
#
# _framework density 23.807807
#
# number of rings (size 3 to 8) (size 9 to 14) (size 15 to 20)
#    0.000    1.429    1.429    2.571    6.000    1.143 
#    0.000    7.857    0.000   12.000    0.000    0.000 
#    0.000    0.000    0.000    0.000    0.000    0.000 
#
# Total GULP energy -346882.924942 kJ/mol
# GULP energy per Si atom -12388.675891 kJ/mol
# Density = 2.375362 g / cm^3
# Si number density = 23.807807 Si / 1000 Ang^3
#
#
#
# Elastic Constant Matrix: (Units=GPa)
#
#
# Indices 1 2 3 4 5 6 
#
# 1 149.7308 50.4551 16.9679 0.0000 6.6085 0.0000
# 2 50.4551 71.7736 22.1642 0.0000 12.1204 0.0000
# 3 16.9679 22.1642 73.9322 0.0000 19.8649 0.0000
# 4 0.0000 0.0000 0.0000 24.3692 0.0000 -10.8899
# 5 6.6085 12.1204 19.8649 0.0000 35.9802 0.0000
# 6 0.0000 0.0000 0.0000 -10.8899 0.0000 39.5506
#
#
#
# Elastic Compliance Matrix: (Units=1/GPa)
#
#
# Indices 1 2 3 4 5 6 
#
# 1 0.008767 -0.006169 -0.000339 0.000000 0.000655 0.000000
# 2 -0.006169 0.019993 -0.003608 0.000000 -0.003610 0.000000
# 3 -0.000339 -0.003608 0.016840 0.000000 -0.008020 0.000000
# 4 0.000000 0.000000 0.000000 0.046793 0.000000 0.012884
# 5 0.000655 -0.003610 -0.008020 0.000000 0.033317 0.000000
# 6 0.000000 0.000000 0.000000 0.012884 0.000000 0.028832
#
#
# Mechanical properties :
#
#
# Convention : Reuss Voigt Hill
#
# Bulk Modulus (GPa) = 39.41812 52.73457 46.07635
# Shear Modulus (GPa) = 27.28832 33.70330 30.49581
#
# Velocity S-wave (km/s) = 3.38922 3.76658 3.58287
# Velocity P-wave (km/s) = 5.64876 6.41205 6.04247
#
# Compressibility (1/GPa) = 0.02536904
#
# Stress axis : x y z
#
# Youngs Moduli (GPa) = 114.06571 50.01733 59.38189
#
# Poissons Ratio (x) = 0.30855 0.02011
# Poissons Ratio (y) = 0.70366 0.21425
# Poissons Ratio (z) = 0.03862 0.18046
#
# Static dielectric constant tensor:
#      x y z
#    x 5.012470 0.000000 0.297680 
#    y 0.000000 4.451940 0.000000 
#    z 0.297680 0.000000 4.492690 
# 
# 
# High freq. dielectric constant tensor:
#      x y z
#    x 1.944120 0.000000 0.018330 
#    y 0.000000 1.949790 0.000000 
#    z 0.018330 0.000000 1.928950 
# 
# From -- ./inp_files/287940.got.cif
#   From: 2010.06.25/outbox.cif.g09.slc.cpg/sg15_144_cif.got.tgz:287940.got - 2010.06.28 07:06:18.
