data_PCOD8144273
_publ_section_title
;
Structure prediction by ZEFSAII (Michael W. Deem and Ramdas Pophale) SiO2 
 PCOD8144273
Probable space group: C 2/C
;
_chemical_formula_sum "Si O2"
_cell_formula_units_Z 64
_cell_length_a 11.835381
_cell_length_b 19.246917
_cell_length_c 18.359771
_cell_angle_alpha 90.000000
_cell_angle_beta 49.934541
_cell_angle_gamma 90.000000
_cell_volume 3200.721029
_symmetry_space_group_name_H-M "C 2/C"
_symmetry_group_IT_number 15
_symmetry_cell_setting 'monoclinic'
loop_
_space_group_symop_operation_xyz
x,y,z
-x,y,1/2-z
-x,-y,-z
x,-y,1/2+z
1/2+x,1/2+y,z
1/2-x,1/2+y,1/2-z
1/2-x,1/2-y,-z
1/2+x,1/2-y,1/2+z
loop_
_atom_site_type_symbol
_atom_site_label
_atom_site_fract_x
_atom_site_fract_y
_atom_site_fract_z
Si Si1 0.359191 0.266159 0.517872
Si Si2 0.605341 0.175159 0.637775
Si Si3 0.623765 0.563249 0.757705
Si Si4 0.557600 0.580032 0.519997
Si Si5 0.163590 0.081966 0.171993
Si Si6 0.320500 0.195225 0.678263
Si Si7 0.808319 0.724837 0.132018
Si Si8 0.181375 0.942975 0.494304
O O1 0.250000 0.250000 0.500000
O O2 0.364592 0.347694 0.508944
O O3 0.283630 0.240168 0.622983
O O4 0.517235 0.230176 0.445267
O O5 0.500000 0.165535 0.750000
O O6 0.499022 0.192180 0.613681
O O7 0.723654 0.237898 0.599128
O O8 0.685976 0.101908 0.593248
O O9 0.500000 0.584015 0.750000
O O10 0.556701 0.565175 0.866556
O O11 0.686718 0.486333 0.712717
O O12 0.757936 0.617354 0.696923
O O13 0.691660 0.524196 0.467659
O O14 0.473514 0.580432 0.477359
O O15 0.274230 0.142936 0.149432
O O16 0.182976 0.062397 0.080136
O O17 0.000000 0.112589 0.250000
O O18 0.242518 0.234976 0.775749
#
# Coordination Sequence:
#
# PCOD8144273 Si02
#       8
#     8   8   8   8   8   8   8   8
#     4  12  26  42  64  93 129 174 226 263 322 391
#     4  10  21  42  66  97 130 169 212 270 343 382
#     4  11  21  44  66  90 130 177 215 261 321 399
#     4  11  22  41  66  93 126 177 221 257 325 391
#     4  11  23  38  67 101 128 164 217 276 329 384
#     4  11  24  40  71  92 128 179 209 272 332 391
#     4  11  24  42  66  99 132 165 219 276 326 396
#     4  11  22  38  68  95 130 166 218 270 319 391
#
# _framework density 19.995494000000001
#
# number of rings (size 3 to 8) (size 9 to 14) (size 15 to 20)
#    0.000    1.000    5.000    3.375    3.500    1.000 
#    2.250    1.250    0.000    0.000    0.000    0.000 
#    0.000    0.000    0.000    0.000    0.000    0.000 
#
# Total GULP energy -396729.771169 kJ/mol
# GULP energy per Si atom -12397.805349 kJ/mol
# Density = 1.994998 g / cm^3
# Si number density = 19.995494 Si / 1000 Ang^3
#
#
#
# Elastic Constant Matrix: (Units=GPa)
#
#
# Indices 1 2 3 4 5 6 
#
# 1 90.3152 49.0205 14.5708 -0.0008 0.4633 0.0001
# 2 49.0205 151.7028 30.1445 -0.0015 3.5757 0.0003
# 3 14.5708 30.1445 30.1972 -0.0020 0.1434 0.0009
# 4 -0.0008 -0.0015 -0.0020 34.1371 0.0016 -4.5592
# 5 0.4633 3.5757 0.1434 0.0016 27.4209 -0.0008
# 6 0.0001 0.0003 0.0009 -4.5592 -0.0008 7.9757
#
#
#
# Elastic Compliance Matrix: (Units=1/GPa)
#
#
# Indices 1 2 3 4 5 6 
#
# 1 0.013606 -0.003865 -0.002708 0.000000 0.000288 0.000000
# 2 -0.003865 0.009350 -0.007463 0.000000 -0.001115 0.000000
# 3 -0.002708 -0.007463 0.041869 0.000002 0.000800 -0.000004
# 4 0.000000 0.000000 0.000002 0.031715 -0.000001 0.018130
# 5 0.000288 -0.001115 0.000800 -0.000001 0.036605 0.000003
# 6 0.000000 0.000000 -0.000004 0.018130 0.000003 0.135745
#
#
# Mechanical properties :
#
#
# Convention : Reuss Voigt Hill
#
# Bulk Modulus (GPa) = 27.20979 51.07631 39.14305
# Shear Modulus (GPa) = 16.17008 25.80537 20.98773
#
# Velocity S-wave (km/s) = 2.84683 3.59633 3.24330
# Velocity P-wave (km/s) = 4.94403 6.54555 5.80033
#
# Compressibility (1/GPa) = 0.03675147
#
# Stress axis : x y z
#
# Youngs Moduli (GPa) = 73.49888 106.95035 23.88405
#
# Poissons Ratio (x) = 0.41338 0.06468
# Poissons Ratio (y) = 0.28409 0.17826
# Poissons Ratio (z) = 0.19903 0.79822
#
# Static dielectric constant tensor:
#      x y z
#    x 3.883890 0.000000 0.148730 
#    y 0.000000 3.816350 0.000000 
#    z 0.148730 0.000000 3.642530 
# 
# 
# High freq. dielectric constant tensor:
#      x y z
#    x 1.782250 0.000000 0.016590 
#    y 0.000000 1.793140 0.000000 
#    z 0.016590 0.000000 1.775440 
# 
# From -- ./inp_files/239779.got.cif
#   From: 2010.06.25/outbox.cif.g09.slc.cpg/sg15_120_cif.got.tgz:239779.got - 2010.06.28 07:06:18.
