data_PCOD8144673
_publ_section_title
;
Structure prediction by ZEFSAII (Michael W. Deem and Ramdas Pophale) SiO2 
 PCOD8144673
Probable space group: C 2/C
;
_chemical_formula_sum "Si O2"
_cell_formula_units_Z 44
_cell_length_a 7.731481
_cell_length_b 23.710389
_cell_length_c 10.930286
_cell_angle_alpha 90.000000
_cell_angle_beta 64.319519
_cell_angle_gamma 90.000000
_cell_volume 1805.784770
_symmetry_space_group_name_H-M "C 2/C"
_symmetry_group_IT_number 15
_symmetry_cell_setting 'monoclinic'
loop_
_space_group_symop_operation_xyz
x,y,z
-x,y,1/2-z
-x,-y,-z
x,-y,1/2+z
1/2+x,1/2+y,z
1/2-x,1/2+y,1/2-z
1/2-x,1/2-y,-z
1/2+x,1/2-y,1/2+z
loop_
_atom_site_type_symbol
_atom_site_label
_atom_site_fract_x
_atom_site_fract_y
_atom_site_fract_z
Si Si1 0.312692 0.424047 0.241038
Si Si2 0.586022 0.761499 0.855290
Si Si3 0.095542 0.524601 0.348853
Si Si4 0.485901 0.356985 0.498431
Si Si5 0.081308 0.629158 0.010530
Si Si6 0.500000 0.694148 0.250000
O O1 0.500000 0.399674 0.250000
O O2 0.298914 0.492024 0.267412
O O3 0.352273 0.403904 0.089409
O O4 0.128755 0.392815 0.358730
O O5 0.500000 0.776780 0.750000
O O6 0.518869 0.700264 0.913508
O O7 0.493920 0.807081 0.976918
O O8 0.816148 0.765458 0.788714
O O9 0.000000 0.506295 0.250000
O O10 0.000000 0.500000 0.500000
O O11 0.088512 0.592118 0.371276
O O12 0.269490 0.378149 0.539149
O O13 0.522292 0.347545 0.629293
#
# Coordination Sequence:
#
# PCOD8144673 Si02
#       6
#     8   8   8   8   8   4
#     4   9  21  43  70 101 136 187 237 291 355 425
#     4  12  24  44  71  99 145 189 232 290 355 425
#     4  10  22  42  67 101 133 178 239 289 351 423
#     4  11  24  44  69 102 144 186 239 289 356 430
#     4  10  21  43  73  96 137 190 234 284 361 422
#     4  12  28  42  64 112 144 186 242 288 348 432
#
# _framework density 24.366139
#
# number of rings (size 3 to 8) (size 9 to 14) (size 15 to 20)
#    0.000    1.455    1.818    3.273    2.545    2.909 
#    3.273    8.182    0.000    0.000    0.000    0.000 
#    0.000    0.000    0.000    0.000    0.000    0.000 
#
# Total GULP energy -272585.736729 kJ/mol
# GULP energy per Si atom -12390.260760 kJ/mol
# Density = 2.431068 g / cm^3
# Si number density = 24.366139 Si / 1000 Ang^3
#
#
#
# Elastic Constant Matrix: (Units=GPa)
#
#
# Indices 1 2 3 4 5 6 
#
# 1 71.8129 16.4149 26.5825 0.0000 -9.4312 0.0000
# 2 16.4149 124.8631 45.2478 0.0000 -28.3478 0.0000
# 3 26.5825 45.2478 116.6365 0.0000 0.6948 0.0000
# 4 0.0000 0.0000 0.0000 36.2451 0.0000 -15.8885
# 5 -9.4312 -28.3478 0.6948 0.0000 38.2256 0.0000
# 6 0.0000 0.0000 0.0000 -15.8885 0.0000 32.9070
#
#
#
# Elastic Compliance Matrix: (Units=1/GPa)
#
#
# Indices 1 2 3 4 5 6 
#
# 1 0.015789 0.000198 -0.003700 0.000000 0.004110 0.000000
# 2 0.000198 0.011646 -0.004615 0.000000 0.008769 0.000000
# 3 -0.003700 -0.004615 0.011234 0.000000 -0.004540 0.000000
# 4 0.000000 0.000000 0.000000 0.034997 0.000000 0.016898
# 5 0.004110 0.008769 -0.004540 0.000000 0.033760 0.000000
# 6 0.000000 0.000000 0.000000 0.016898 0.000000 0.038547
#
#
# Mechanical properties :
#
#
# Convention : Reuss Voigt Hill
#
# Bulk Modulus (GPa) = 44.57236 54.42255 49.49746
# Shear Modulus (GPa) = 29.46596 36.48002 32.97299
#
# Velocity S-wave (km/s) = 3.48127 3.87351 3.68262
# Velocity P-wave (km/s) = 5.87294 6.51071 6.20003
#
# Compressibility (1/GPa) = 0.02243543
#
# Stress axis : x y z
#
# Youngs Moduli (GPa) = 63.33503 85.86492 89.01236
#
# Poissons Ratio (x) = -0.01701 0.32933
# Poissons Ratio (y) = -0.01255 0.41083
# Poissons Ratio (z) = 0.23433 0.39630
#
# Static dielectric constant tensor:
#      x y z
#    x 4.270580 0.000000 -0.045140 
#    y 0.000000 4.444940 0.000000 
#    z -0.045140 0.000000 4.887520 
# 
# 
# High freq. dielectric constant tensor:
#      x y z
#    x 1.947160 0.000000 -0.000060 
#    y 0.000000 1.966350 0.000000 
#    z -0.000060 0.000000 1.981000 
# 
# From -- ./inp_files/79685.got.cif
#   From: 2010.06.25/outbox.cif.g09.slc.cpg/sg15_40_cif.got.tgz:79685.got - 2010.06.28 07:06:18.
