data_PCOD8144556
_publ_section_title
;
Structure prediction by ZEFSAII (Michael W. Deem and Ramdas Pophale) SiO2 
 PCOD8144556
Probable space group: C 2/C
;
_chemical_formula_sum "Si O2"
_cell_formula_units_Z 60
_cell_length_a 8.611251
_cell_length_b 21.338138
_cell_length_c 22.753231
_cell_angle_alpha 90.000000
_cell_angle_beta 137.658719
_cell_angle_gamma 90.000000
_cell_volume 2815.999749
_symmetry_space_group_name_H-M "C 2/C"
_symmetry_group_IT_number 15
_symmetry_cell_setting 'monoclinic'
loop_
_space_group_symop_operation_xyz
x,y,z
-x,y,1/2-z
-x,-y,-z
x,-y,1/2+z
1/2+x,1/2+y,z
1/2-x,1/2+y,1/2-z
1/2-x,1/2-y,-z
1/2+x,1/2-y,1/2+z
loop_
_atom_site_type_symbol
_atom_site_label
_atom_site_fract_x
_atom_site_fract_y
_atom_site_fract_z
Si Si1 0.723162 0.648109 0.777350
Si Si2 0.226239 0.321274 0.597223
Si Si3 0.293521 0.715041 0.295872
Si Si4 0.341924 0.118558 0.539816
Si Si5 0.040427 0.203823 0.024948
Si Si6 0.022847 0.633872 0.364099
Si Si7 0.000000 0.577655 0.750000
Si Si8 0.230541 0.497196 0.412722
O O1 0.500000 0.618528 0.750000
O O2 0.667496 0.719749 0.743349
O O3 0.914080 0.651542 0.881704
O O4 0.831050 0.614475 0.749143
O O5 0.478567 0.292975 0.680215
O O6 0.238565 0.372699 0.549133
O O7 0.046380 0.266464 0.530741
O O8 0.158517 0.361508 0.634414
O O9 0.381956 0.715250 0.386827
O O10 0.103818 0.661099 0.229666
O O11 0.160554 0.151693 0.533203
O O12 0.369542 0.045045 0.562285
O O13 0.260771 0.175534 0.053626
O O14 0.103817 0.563519 0.375872
O O15 0.179963 0.535451 0.836278
O O16 0.500000 0.500000 0.500000
#
# Coordination Sequence:
#
# PCOD8144556 Si02
#       8
#     8   8   8   8   8   8   4   8
#     4  11  22  43  69 104 139 180 230 292 369 422
#     4  11  23  41  65 104 138 175 227 293 364 426
#     4  11  23  41  64 101 146 177 217 303 361 425
#     4  10  21  43  67  91 134 180 227 284 350 416
#     4  11  20  42  68  94 139 179 223 287 359 427
#     4  12  26  37  67 104 132 183 245 279 354 430
#     4  10  28  44  76 102 138 192 248 298 352 438
#     4  11  25  48  68  96 136 191 242 291 349 425
#
# _framework density 21.306819999999998
#
# number of rings (size 3 to 8) (size 9 to 14) (size 15 to 20)
#    0.000    1.067    4.000    2.800    3.733    1.600 
#    0.000    6.667    0.000    0.000    0.000    0.000 
#    0.000    0.000    0.000    0.000    0.000    0.000 
#
# Total GULP energy -371745.211850 kJ/mol
# GULP energy per Si atom -12391.507062 kJ/mol
# Density = 2.125832 g / cm^3
# Si number density = 21.306820 Si / 1000 Ang^3
#
#
#
# Elastic Constant Matrix: (Units=GPa)
#
#
# Indices 1 2 3 4 5 6 
#
# 1 124.1302 33.6248 28.8953 0.0004 12.0292 0.0006
# 2 33.6248 139.3522 43.2491 0.0001 2.2486 0.0003
# 3 28.8953 43.2491 91.2679 -0.0006 16.7941 0.0009
# 4 0.0004 0.0001 -0.0006 31.4820 0.0003 4.3576
# 5 12.0292 2.2486 16.7941 0.0003 32.0554 0.0002
# 6 0.0006 0.0003 0.0009 4.3576 0.0002 23.9345
#
#
#
# Elastic Compliance Matrix: (Units=1/GPa)
#
#
# Indices 1 2 3 4 5 6 
#
# 1 0.009125 -0.001647 -0.001659 0.000000 -0.002439 0.000000
# 2 -0.001647 0.008791 -0.004033 0.000000 0.002115 0.000000
# 3 -0.001659 -0.004033 0.014638 0.000000 -0.006763 0.000000
# 4 0.000000 0.000000 0.000000 0.032585 0.000000 -0.005933
# 5 -0.002439 0.002115 -0.006763 0.000000 0.035506 0.000000
# 6 0.000000 0.000000 0.000000 -0.005933 0.000000 0.042861
#
#
# Mechanical properties :
#
#
# Convention : Reuss Voigt Hill
#
# Bulk Modulus (GPa) = 55.94851 62.92098 59.43474
# Shear Modulus (GPa) = 30.46081 34.09311 32.27696
#
# Velocity S-wave (km/s) = 3.78514 4.00447 3.89635
# Velocity P-wave (km/s) = 6.73933 7.13975 6.94243
#
# Compressibility (1/GPa) = 0.01787358
#
# Stress axis : x y z
#
# Youngs Moduli (GPa) = 109.58910 113.74915 68.31538
#
# Poissons Ratio (x) = 0.18739 0.11337
# Poissons Ratio (y) = 0.18054 0.27555
# Poissons Ratio (z) = 0.18186 0.45880
#
# Static dielectric constant tensor:
#      x y z
#    x 3.947850 0.000000 0.266260 
#    y 0.000000 3.945040 0.000000 
#    z 0.266260 0.000000 4.003720 
# 
# 
# High freq. dielectric constant tensor:
#      x y z
#    x 1.834480 0.000000 0.012150 
#    y 0.000000 1.825200 0.000000 
#    z 0.012150 0.000000 1.847420 
# 
# From -- ./inp_files/266251.got.cif
#   From: 2010.06.25/outbox.cif.g09.slc.cpg/sg15_134_cif.got.tgz:266251.got - 2010.06.28 07:06:18.
