data_PCOD8144701
_publ_section_title
;
Structure prediction by ZEFSAII (Michael W. Deem and Ramdas Pophale) SiO2 
 PCOD8144701
Probable space group: C 2/C
;
_chemical_formula_sum "Si O2"
_cell_formula_units_Z 52
_cell_length_a 24.895959
_cell_length_b 6.127540
_cell_length_c 13.961716
_cell_angle_alpha 90.000000
_cell_angle_beta 73.405300
_cell_angle_gamma 90.000000
_cell_volume 2041.162155
_symmetry_space_group_name_H-M "C 2/C"
_symmetry_group_IT_number 15
_symmetry_cell_setting 'monoclinic'
loop_
_space_group_symop_operation_xyz
x,y,z
-x,y,1/2-z
-x,-y,-z
x,-y,1/2+z
1/2+x,1/2+y,z
1/2-x,1/2+y,1/2-z
1/2-x,1/2-y,-z
1/2+x,1/2-y,1/2+z
loop_
_atom_site_type_symbol
_atom_site_label
_atom_site_fract_x
_atom_site_fract_y
_atom_site_fract_z
Si Si1 0.929430 0.982874 0.955816
Si Si2 0.637051 0.102009 0.454848
Si Si3 0.309714 0.458225 0.784581
Si Si4 0.238706 0.912757 0.373012
Si Si5 0.816762 0.783432 0.457811
Si Si6 0.415699 0.739778 0.142847
Si Si7 0.500000 0.643938 0.250000
O O1 0.969005 0.013251 0.843029
O O2 0.868210 0.072949 0.966066
O O3 0.919237 0.723747 0.978753
O O4 0.950916 0.116699 0.039358
O O5 0.668235 0.963873 0.522033
O O6 0.616454 0.953020 0.377019
O O7 0.681430 0.276318 0.395533
O O8 0.292237 0.247169 0.859721
O O9 0.260303 0.468298 0.730583
O O10 0.310253 0.679034 0.847430
O O11 0.370282 0.429372 0.706745
O O12 0.237563 0.103392 0.457181
O O13 0.457800 0.795531 0.209200
#
# Coordination Sequence:
#
# PCOD8144701 Si02
#       7
#     8   8   8   8   8   8   4
#     4  10  22  44  66  98 130 172 219 282 331 385
#     4  10  21  44  65  92 142 167 213 283 320 391
#     4  12  22  42  68  96 132 178 217 264 329 395
#     4  11  24  42  65 101 134 175 220 264 334 390
#     4  10  22  43  66  96 132 174 218 271 330 390
#     4  11  23  44  67  95 137 170 222 276 326 389
#     4  12  24  42  74  96 124 184 222 270 346 392
#
# _framework density 25.475681999999999
#
# number of rings (size 3 to 8) (size 9 to 14) (size 15 to 20)
#    0.000    1.231    6.154    1.846    0.000    2.462 
#    5.538    3.846    0.000    0.000    0.000    0.000 
#    0.000    0.000    0.000    0.000    0.000    0.000 
#
# Total GULP energy -322359.508688 kJ/mol
# GULP energy per Si atom -12398.442642 kJ/mol
# Density = 2.541770 g / cm^3
# Si number density = 25.475682 Si / 1000 Ang^3
#
#
#
# Elastic Constant Matrix: (Units=GPa)
#
#
# Indices 1 2 3 4 5 6 
#
# 1 71.8925 31.5178 42.9011 0.0000 19.7732 0.0000
# 2 31.5178 95.9628 48.2114 0.0000 9.6364 0.0000
# 3 42.9011 48.2114 152.1054 0.0000 9.6963 0.0000
# 4 0.0000 0.0000 0.0000 37.2262 0.0000 5.4080
# 5 19.7732 9.6364 9.6963 0.0000 55.5886 0.0000
# 6 0.0000 0.0000 0.0000 5.4080 0.0000 18.9844
#
#
#
# Elastic Compliance Matrix: (Units=1/GPa)
#
#
# Indices 1 2 3 4 5 6 
#
# 1 0.019473 -0.003872 -0.003910 0.000000 -0.005574 0.000000
# 2 -0.003872 0.013286 -0.003094 0.000000 -0.000386 0.000000
# 3 -0.003910 -0.003094 0.008631 0.000000 0.000422 0.000000
# 4 0.000000 0.000000 0.000000 0.028022 0.000000 -0.007983
# 5 -0.005574 -0.000386 0.000422 0.000000 0.019965 0.000000
# 6 0.000000 0.000000 0.000000 -0.007983 0.000000 0.054949
#
#
# Mechanical properties :
#
#
# Convention : Reuss Voigt Hill
#
# Bulk Modulus (GPa) = 50.92190 62.80235 56.86212
# Shear Modulus (GPa) = 28.96461 35.51522 32.23991
#
# Velocity S-wave (km/s) = 3.37553 3.73779 3.56127
# Velocity P-wave (km/s) = 5.93499 6.58282 6.26728
#
# Compressibility (1/GPa) = 0.01963792
#
# Stress axis : x y z
#
# Youngs Moduli (GPa) = 51.35276 75.26876 115.86012
#
# Poissons Ratio (x) = 0.29142 0.45300
# Poissons Ratio (y) = 0.19882 0.35852
# Poissons Ratio (z) = 0.20078 0.23291
#
# Static dielectric constant tensor:
#      x y z
#    x 4.955220 0.000000 0.168890 
#    y 0.000000 4.774260 0.000000 
#    z 0.168890 0.000000 4.936910 
# 
# 
# High freq. dielectric constant tensor:
#      x y z
#    x 2.025560 0.000000 0.009000 
#    y 0.000000 2.008940 0.000000 
#    z 0.009000 0.000000 2.028590 
# 
# From -- ./inp_files/180037.got.cif
#   From: 2010.06.25/outbox.cif.g09.slc.cpg/sg15_91_cif.got.tgz:180037.got - 2010.06.28 07:06:18.
