data_PCOD8144542
_publ_section_title
;
Structure prediction by ZEFSAII (Michael W. Deem and Ramdas Pophale) SiO2 
 PCOD8144542
Probable space group: C 2/C
;
_chemical_formula_sum "Si O2"
_cell_formula_units_Z 48
_cell_length_a 28.378539
_cell_length_b 16.276981
_cell_length_c 14.021204
_cell_angle_alpha 90.000000
_cell_angle_beta 160.436304
_cell_angle_gamma 90.000000
_cell_volume 2168.729848
_symmetry_space_group_name_H-M "C 2/C"
_symmetry_group_IT_number 15
_symmetry_cell_setting 'monoclinic'
loop_
_space_group_symop_operation_xyz
x,y,z
-x,y,1/2-z
-x,-y,-z
x,-y,1/2+z
1/2+x,1/2+y,z
1/2-x,1/2+y,1/2-z
1/2-x,1/2-y,-z
1/2+x,1/2-y,1/2+z
loop_
_atom_site_type_symbol
_atom_site_label
_atom_site_fract_x
_atom_site_fract_y
_atom_site_fract_z
Si Si1 0.000000 0.881374 0.250000
Si Si2 0.837124 0.992593 0.710458
Si Si3 0.209893 0.979973 0.160727
Si Si4 0.607506 0.954078 0.637517
Si Si5 0.542574 0.782263 0.179109
Si Si6 0.000000 0.841081 0.750000
Si Si7 0.152751 0.186055 0.217528
O O1 0.047161 0.825221 0.428102
O O2 0.128402 0.939915 0.465471
O O3 0.810507 0.895400 0.651059
O O4 0.787865 0.022286 0.720919
O O5 0.753347 0.047694 0.474939
O O6 0.000000 0.000000 0.000000
O O7 0.363395 0.992140 0.403912
O O8 0.133795 0.897906 0.977919
O O9 0.549937 0.864776 0.499412
O O10 0.500000 0.000000 0.500000
O O11 0.457854 0.713899 0.077699
O O12 0.691471 0.787928 0.520241
O O13 0.575413 0.753931 0.134343
#
# Coordination Sequence:
#
# PCOD8144542 Si02
#       7
#     4   8   8   8   8   4   8
#     4   9  20  42  72  95 128 184 240 285 336 426
#     4  11  22  44  74  97 133 183 239 287 343 426
#     4  10  23  43  71 100 129 184 237 287 344 424
#     4  12  25  43  67 101 141 184 233 283 353 423
#     4  11  25  40  68 101 144 185 225 298 363 412
#     4  11  24  44  70 101 136 180 238 287 362 418
#     4  10  21  43  66  99 141 182 231 293 357 412
#
# _framework density 22.132770000000001
#
# number of rings (size 3 to 8) (size 9 to 14) (size 15 to 20)
#    0.000    1.333    1.667    5.000    7.000    0.667 
#    3.000    4.167    0.000    0.000    0.000    0.000 
#    0.000    0.000    0.000    0.000    0.000    0.000 
#
# Total GULP energy -297449.389243 kJ/mol
# GULP energy per Si atom -12393.724552 kJ/mol
# Density = 2.208239 g / cm^3
# Si number density = 22.132770 Si / 1000 Ang^3
#
#
#
# Elastic Constant Matrix: (Units=GPa)
#
#
# Indices 1 2 3 4 5 6 
#
# 1 142.2470 45.5155 43.4490 0.0000 11.6922 0.0000
# 2 45.5155 120.0889 28.3491 0.0000 4.4022 0.0000
# 3 43.4490 28.3491 82.9825 0.0000 -7.0044 0.0000
# 4 0.0000 0.0000 0.0000 38.1630 0.0000 -0.4144
# 5 11.6922 4.4022 -7.0044 0.0000 43.1721 0.0000
# 6 0.0000 0.0000 0.0000 -0.4144 0.0000 30.5753
#
#
#
# Elastic Compliance Matrix: (Units=1/GPa)
#
#
# Indices 1 2 3 4 5 6 
#
# 1 0.009375 -0.002420 -0.004335 0.000000 -0.002995 0.000000
# 2 -0.002420 0.009772 -0.002129 0.000000 -0.000687 0.000000
# 3 -0.004335 -0.002129 0.015376 0.000000 0.003886 0.000000
# 4 0.000000 0.000000 0.000000 0.026207 0.000000 0.000355
# 5 -0.002995 -0.000687 0.003886 0.000000 0.024675 0.000000
# 6 0.000000 0.000000 0.000000 0.000355 0.000000 0.032711
#
#
# Mechanical properties :
#
#
# Convention : Reuss Voigt Hill
#
# Bulk Modulus (GPa) = 59.68472 64.43842 62.06157
# Shear Modulus (GPa) = 35.34369 37.58241 36.46305
#
# Velocity S-wave (km/s) = 4.00045 4.12520 4.06331
# Velocity P-wave (km/s) = 6.95438 7.20190 7.07922
#
# Compressibility (1/GPa) = 0.01675471
#
# Stress axis : x y z
#
# Youngs Moduli (GPa) = 106.67163 102.33083 65.03789
#
# Poissons Ratio (x) = 0.24765 0.28191
# Poissons Ratio (y) = 0.25815 0.13848
# Poissons Ratio (z) = 0.46237 0.21789
#
# Static dielectric constant tensor:
#      x y z
#    x 4.616180 0.000000 0.186920 
#    y 0.000000 3.482930 0.000000 
#    z 0.186920 0.000000 4.992240 
# 
# 
# High freq. dielectric constant tensor:
#      x y z
#    x 1.891000 0.000000 0.009540 
#    y 0.000000 1.864790 0.000000 
#    z 0.009540 0.000000 1.854480 
# 
# From -- ./inp_files/182549.got.cif
#   From: 2010.06.25/outbox.cif.g09.slc.cpg/sg15_92_cif.got.tgz:182549.got - 2010.06.28 07:06:18.
