data_PCOD8144887
_publ_section_title
;
Structure prediction by ZEFSAII (Michael W. Deem and Ramdas Pophale) SiO2 
 PCOD8144887
Probable space group: C 2/C
;
_chemical_formula_sum "Si O2"
_cell_formula_units_Z 48
_cell_length_a 19.826390
_cell_length_b 11.141257
_cell_length_c 19.166232
_cell_angle_alpha 90.000000
_cell_angle_beta 149.234876
_cell_angle_gamma 90.000000
_cell_volume 2165.594448
_symmetry_space_group_name_H-M "C 2/C"
_symmetry_group_IT_number 15
_symmetry_cell_setting 'monoclinic'
loop_
_space_group_symop_operation_xyz
x,y,z
-x,y,1/2-z
-x,-y,-z
x,-y,1/2+z
1/2+x,1/2+y,z
1/2-x,1/2+y,1/2-z
1/2-x,1/2-y,-z
1/2+x,1/2-y,1/2+z
loop_
_atom_site_type_symbol
_atom_site_label
_atom_site_fract_x
_atom_site_fract_y
_atom_site_fract_z
Si Si1 0.859606 0.249288 0.655439
Si Si2 0.492915 0.198805 0.906692
Si Si3 0.166144 0.517452 0.277740
Si Si4 0.847692 0.003129 0.185996
Si Si5 0.765010 0.651213 0.297498
Si Si6 0.617989 0.402802 0.937349
O O1 0.750000 0.250000 0.500000
O O2 0.876277 0.373422 0.710492
O O3 0.812101 0.137066 0.659280
O O4 0.000000 0.211821 0.750000
O O5 0.354043 0.254394 0.808641
O O6 0.561706 0.267918 0.902106
O O7 0.462288 0.061200 0.856753
O O8 0.590280 0.209105 0.060567
O O9 0.239025 0.573677 0.276107
O O10 0.264019 0.428576 0.405013
O O11 0.744386 0.064442 0.144551
O O12 0.836373 0.073152 0.101502
O O13 0.996648 0.009992 0.347461
#
# Coordination Sequence:
#
# PCOD8144887 Si02
#       6
#     8   8   8   8   8   8
#     4  12  25  44  70 104 141 182 231 288 344 414
#     4  11  25  48  67 106 140 185 239 290 353 410
#     4  12  26  44  74 106 140 183 242 285 356 413
#     4  10  22  45  70 103 142 183 232 281 358 419
#     4  11  27  45  73 102 143 186 232 296 350 422
#     4  10  21  47  70 100 139 187 231 289 351 420
#
# _framework density 22.164814
#
# number of rings (size 3 to 8) (size 9 to 14) (size 15 to 20)
#    0.000    1.000    5.000    0.500    4.667    6.000 
#   12.000    0.000    0.000    0.000    0.000    0.000 
#    0.000    0.000    0.000    0.000    0.000    0.000 
#
# Total GULP energy -297492.006236 kJ/mol
# GULP energy per Si atom -12395.500260 kJ/mol
# Density = 2.211437 g / cm^3
# Si number density = 22.164814 Si / 1000 Ang^3
#
#
#
# Elastic Constant Matrix: (Units=GPa)
#
#
# Indices 1 2 3 4 5 6 
#
# 1 71.9601 40.4435 25.2857 0.0003 -4.5652 0.0001
# 2 40.4435 120.8825 14.2288 -0.0004 1.7935 -0.0001
# 3 25.2857 14.2288 126.3934 -0.0009 9.0698 -0.0002
# 4 0.0003 -0.0004 -0.0009 27.8918 -0.0003 -0.9057
# 5 -4.5652 1.7935 9.0698 -0.0003 18.7654 -0.0001
# 6 0.0001 -0.0001 -0.0002 -0.9057 -0.0001 33.4023
#
#
#
# Elastic Compliance Matrix: (Units=1/GPa)
#
#
# Indices 1 2 3 4 5 6 
#
# 1 0.019001 -0.006034 -0.003621 0.000000 0.006949 0.000000
# 2 -0.006034 0.010302 0.000231 0.000000 -0.002564 0.000000
# 3 -0.003621 0.000231 0.008987 0.000000 -0.005246 0.000000
# 4 0.000000 0.000000 0.000000 0.035884 0.000000 0.000973
# 5 0.006949 -0.002564 -0.005246 0.000000 0.057761 0.000000
# 6 0.000000 0.000000 0.000000 0.000973 0.000000 0.029964
#
#
# Mechanical properties :
#
#
# Convention : Reuss Voigt Hill
#
# Bulk Modulus (GPa) = 51.43219 53.23911 52.33565
# Shear Modulus (GPa) = 26.70553 31.96376 29.33464
#
# Velocity S-wave (km/s) = 3.47488 3.80161 3.64191
# Velocity P-wave (km/s) = 6.27332 6.58342 6.43024
#
# Compressibility (1/GPa) = 0.01944308
#
# Stress axis : x y z
#
# Youngs Moduli (GPa) = 52.62883 97.06739 111.27733
#
# Poissons Ratio (x) = 0.58571 0.40289
# Poissons Ratio (y) = 0.31757 -0.02575
# Poissons Ratio (z) = 0.19055 -0.02246
#
# Static dielectric constant tensor:
#      x y z
#    x 3.766870 0.000000 -0.056250 
#    y 0.000000 3.635680 0.000000 
#    z -0.056250 0.000000 4.114840 
# 
# 
# High freq. dielectric constant tensor:
#      x y z
#    x 1.852240 0.000000 0.003090 
#    y 0.000000 1.882580 0.000000 
#    z 0.003090 0.000000 1.888600 
# 
# From -- ./inp_files/252616.got.cif
#   From: 2010.06.25/outbox.cif.g09.slc.cpg/sg15_127_cif.got.tgz:252616.got - 2010.06.28 07:06:18.
