data_PCOD8144885
_publ_section_title
;
Structure prediction by ZEFSAII (Michael W. Deem and Ramdas Pophale) SiO2 
 PCOD8144885
Probable space group: C 2/C
;
_chemical_formula_sum "Si O2"
_cell_formula_units_Z 48
_cell_length_a 9.343172
_cell_length_b 21.880494
_cell_length_c 11.428165
_cell_angle_alpha 90.000000
_cell_angle_beta 81.039182
_cell_angle_gamma 90.000000
_cell_volume 2307.782263
_symmetry_space_group_name_H-M "C 2/C"
_symmetry_group_IT_number 15
_symmetry_cell_setting 'monoclinic'
loop_
_space_group_symop_operation_xyz
x,y,z
-x,y,1/2-z
-x,-y,-z
x,-y,1/2+z
1/2+x,1/2+y,z
1/2-x,1/2+y,1/2-z
1/2-x,1/2-y,-z
1/2+x,1/2-y,1/2+z
loop_
_atom_site_type_symbol
_atom_site_label
_atom_site_fract_x
_atom_site_fract_y
_atom_site_fract_z
Si Si1 0.663549 0.154998 0.732857
Si Si2 0.668778 0.110337 0.211446
Si Si3 0.645547 0.520095 0.164128
Si Si4 0.613843 0.622082 0.976752
Si Si5 0.652766 0.295241 0.678463
Si Si6 0.206092 0.891298 0.058718
O O1 0.500000 0.129471 0.750000
O O2 0.765121 0.112455 0.638794
O O3 0.670186 0.223226 0.682170
O O4 0.720437 0.154664 0.858286
O O5 0.500000 0.101892 0.250000
O O6 0.746746 0.052612 0.260005
O O7 0.718557 0.173151 0.265805
O O8 0.703312 0.113629 0.070770
O O9 0.500000 0.501690 0.250000
O O10 0.607496 0.563093 0.059759
O O11 0.720621 0.459657 0.106002
O O12 0.655083 0.683008 0.043644
O O13 0.458606 0.630255 0.936389
O O14 0.500000 0.318370 0.750000
#
# Coordination Sequence:
#
# PCOD8144885 Si02
#       6
#     8   8   8   8   8   8
#     4  11  27  41  63 102 135 167 215 281 330 375
#     4  11  25  42  66 100 129 173 218 270 332 386
#     4  11  23  43  70  94 131 172 221 271 319 395
#     4  11  21  44  69  94 126 176 223 264 325 389
#     4  10  21  47  68  91 131 174 221 268 326 392
#     4  12  25  42  69  97 129 175 224 265 321 403
#
# _framework density 20.799191
#
# number of rings (size 3 to 8) (size 9 to 14) (size 15 to 20)
#    0.000    1.000    3.333    3.500    7.000    3.333 
#    0.000    0.000    0.000    0.000    0.000    0.000 
#    0.000    0.000    0.000    0.000    0.000    0.000 
#
# Total GULP energy -297765.009110 kJ/mol
# GULP energy per Si atom -12406.875380 kJ/mol
# Density = 2.075185 g / cm^3
# Si number density = 20.799191 Si / 1000 Ang^3
#
#
#
# Elastic Constant Matrix: (Units=GPa)
#
#
# Indices 1 2 3 4 5 6 
#
# 1 137.9590 14.4557 64.4985 0.0000 -11.1105 0.0000
# 2 14.4557 56.1700 14.0836 0.0000 7.1539 0.0000
# 3 64.4985 14.0836 142.9985 0.0000 -1.2684 0.0000
# 4 0.0000 0.0000 0.0000 26.8095 0.0000 6.2370
# 5 -11.1105 7.1539 -1.2684 0.0000 40.7104 0.0000
# 6 0.0000 0.0000 0.0000 6.2370 0.0000 17.2036
#
#
#
# Elastic Compliance Matrix: (Units=1/GPa)
#
#
# Indices 1 2 3 4 5 6 
#
# 1 0.009590 -0.001791 -0.004124 0.000000 0.002804 0.000000
# 2 -0.001791 0.019033 -0.001101 0.000000 -0.003868 0.000000
# 3 -0.004124 -0.001101 0.008956 0.000000 -0.000653 0.000000
# 4 0.000000 0.000000 0.000000 0.040736 0.000000 -0.014769
# 5 0.002804 -0.003868 -0.000653 0.000000 0.025988 0.000000
# 6 0.000000 0.000000 0.000000 -0.014769 0.000000 0.063482
#
#
# Mechanical properties :
#
#
# Convention : Reuss Voigt Hill
#
# Bulk Modulus (GPa) = 42.46974 58.13367 50.30170
# Shear Modulus (GPa) = 26.36210 33.21732 29.78971
#
# Velocity S-wave (km/s) = 3.56400 4.00064 3.78862
# Velocity P-wave (km/s) = 6.11550 7.02502 6.58598
#
# Compressibility (1/GPa) = 0.02354618
#
# Stress axis : x y z
#
# Youngs Moduli (GPa) = 104.27327 52.54118 111.65744
#
# Poissons Ratio (x) = 0.09410 0.46051
# Poissons Ratio (y) = 0.18676 0.12293
# Poissons Ratio (z) = 0.43006 0.05785
#
# Static dielectric constant tensor:
#      x y z
#    x 3.832180 0.000000 0.037820 
#    y 0.000000 3.597110 0.000000 
#    z 0.037820 0.000000 3.974890 
# 
# 
# High freq. dielectric constant tensor:
#      x y z
#    x 1.817970 0.000000 0.001400 
#    y 0.000000 1.807710 0.000000 
#    z 0.001400 0.000000 1.833670 
# 
# From -- ./inp_files/79091.got.cif
#   From: 2010.06.25/outbox.cif.g09.slc.cpg/sg15_40_cif.got.tgz:79091.got - 2010.06.28 07:06:18.
