data_PCOD8144077
_publ_section_title
;
Structure prediction by ZEFSAII (Michael W. Deem and Ramdas Pophale) SiO2 
 PCOD8144077
Probable space group: C 2/C
;
_chemical_formula_sum "Si O2"
_cell_formula_units_Z 64
_cell_length_a 14.457566
_cell_length_b 29.779445
_cell_length_c 8.573222
_cell_angle_alpha 90.000000
_cell_angle_beta 129.399642
_cell_angle_gamma 90.000000
_cell_volume 2852.251805
_symmetry_space_group_name_H-M "C 2/C"
_symmetry_group_IT_number 15
_symmetry_cell_setting 'monoclinic'
loop_
_space_group_symop_operation_xyz
x,y,z
-x,y,1/2-z
-x,-y,-z
x,-y,1/2+z
1/2+x,1/2+y,z
1/2-x,1/2+y,1/2-z
1/2-x,1/2-y,-z
1/2+x,1/2-y,1/2+z
loop_
_atom_site_type_symbol
_atom_site_label
_atom_site_fract_x
_atom_site_fract_y
_atom_site_fract_z
Si Si1 0.126624 0.464993 0.462171
Si Si2 0.512801 0.629438 0.053951
Si Si3 0.374980 0.939134 0.673514
Si Si4 0.352247 0.182106 0.722448
Si Si5 0.855221 0.207456 0.801551
Si Si6 0.790626 0.860240 0.964882
Si Si7 0.107354 0.696030 0.082303
Si Si8 0.696106 0.599975 0.504100
O O1 0.125894 0.452810 0.644340
O O2 0.145271 0.517943 0.459664
O O3 0.244010 0.444465 0.501957
O O4 0.000000 0.449514 0.250000
O O5 0.583934 0.621347 0.969457
O O6 0.610954 0.625791 0.292508
O O7 0.398835 0.594433 0.951414
O O8 0.460663 0.680282 0.001524
O O9 0.500000 0.917725 0.750000
O O10 0.273080 0.902823 0.522891
O O11 0.261804 0.213379 0.718608
O O12 0.367228 0.205912 0.571782
O O13 0.305986 0.131316 0.665710
O O14 0.474158 0.176368 0.950414
O O15 0.820807 0.180887 0.609172
O O16 0.893411 0.258813 0.812764
O O17 0.700387 0.841625 0.737356
#
# Coordination Sequence:
#
# PCOD8144077 Si02
#       8
#     8   8   8   8   8   8   8   8
#     4  11  23  42  72 106 138 170 220 276 339 409
#     4  10  22  43  68  94 130 181 228 277 332 403
#     4  11  25  43  69 104 137 175 217 278 340 404
#     4  10  23  40  66  99 127 178 225 282 330 398
#     4  11  26  41  65  93 133 179 227 281 337 391
#     4  12  25  46  67  97 138 178 222 279 348 402
#     4  11  24  41  66  97 133 175 231 280 333 403
#     4  10  21  41  73  97 131 177 227 275 334 398
#
# _framework density 22.438412
#
# number of rings (size 3 to 8) (size 9 to 14) (size 15 to 20)
#    0.000    1.250    2.500    2.625    7.000    7.000 
#    2.250    0.625    5.500    0.000    0.000    0.000 
#    0.000    0.000    0.000    0.000    0.000    0.000 
#
# Total GULP energy -396560.452054 kJ/mol
# GULP energy per Si atom -12392.514127 kJ/mol
# Density = 2.238734 g / cm^3
# Si number density = 22.438412 Si / 1000 Ang^3
#
#
#
# Elastic Constant Matrix: (Units=GPa)
#
#
# Indices 1 2 3 4 5 6 
#
# 1 165.9408 67.0820 33.7471 0.0000 29.6956 0.0000
# 2 67.0820 64.7589 32.7265 0.0000 4.0319 0.0000
# 3 33.7471 32.7265 98.5375 0.0000 15.2366 0.0000
# 4 0.0000 0.0000 0.0000 19.1138 0.0000 -1.3308
# 5 29.6956 4.0319 15.2366 0.0000 27.9369 0.0000
# 6 0.0000 0.0000 0.0000 -1.3308 0.0000 26.3566
#
#
#
# Elastic Compliance Matrix: (Units=1/GPa)
#
#
# Indices 1 2 3 4 5 6 
#
# 1 0.014099 -0.014887 0.002294 0.000000 -0.014090 0.000000
# 2 -0.014887 0.034290 -0.008706 0.000000 0.015624 0.000000
# 3 0.002294 -0.008706 0.013582 0.000000 -0.008590 0.000000
# 4 0.000000 0.000000 0.000000 0.052503 0.000000 0.002651
# 5 -0.014090 0.015624 -0.008590 0.000000 0.053202 0.000000
# 6 0.000000 0.000000 0.000000 0.002651 0.000000 0.038075
#
#
# Mechanical properties :
#
#
# Convention : Reuss Voigt Hill
#
# Bulk Modulus (GPa) = 51.61516 66.26092 58.93804
# Shear Modulus (GPa) = 19.62275 27.72692 23.67483
#
# Velocity S-wave (km/s) = 2.96043 3.51905 3.25176
# Velocity P-wave (km/s) = 5.89394 6.79013 6.35784
#
# Compressibility (1/GPa) = 0.01937415
#
# Stress axis : x y z
#
# Youngs Moduli (GPa) = 70.92579 29.16303 73.62536
#
# Poissons Ratio (x) = 0.43416 -0.16892
# Poissons Ratio (y) = 1.05589 0.64096
# Poissons Ratio (z) = -0.16273 0.25389
#
# Static dielectric constant tensor:
#      x y z
#    x 4.896190 0.000000 0.125620 
#    y 0.000000 3.742820 0.000000 
#    z 0.125620 0.000000 4.041580 
# 
# 
# High freq. dielectric constant tensor:
#      x y z
#    x 1.907220 0.000000 0.008260 
#    y 0.000000 1.855870 0.000000 
#    z 0.008260 0.000000 1.886240 
# 
# From -- ./inp_files/44878.got.cif
#   From: 2010.06.25/outbox.cif.g09.slc.cpg/sg15_23_cif.got.tgz:44878.got - 2010.06.28 07:06:18.
