data_PCOD8144964
_publ_section_title
;
Structure prediction by ZEFSAII (Michael W. Deem and Ramdas Pophale) SiO2 
 PCOD8144964
Probable space group: C 2/C
;
_chemical_formula_sum "Si O2"
_cell_formula_units_Z 44
_cell_length_a 16.326253
_cell_length_b 8.554644
_cell_length_c 18.805319
_cell_angle_alpha 90.000000
_cell_angle_beta 65.391339
_cell_angle_gamma 90.000000
_cell_volume 2387.898048
_symmetry_space_group_name_H-M "C 2/C"
_symmetry_group_IT_number 15
_symmetry_cell_setting 'monoclinic'
loop_
_space_group_symop_operation_xyz
x,y,z
-x,y,1/2-z
-x,-y,-z
x,-y,1/2+z
1/2+x,1/2+y,z
1/2-x,1/2+y,1/2-z
1/2-x,1/2-y,-z
1/2+x,1/2-y,1/2+z
loop_
_atom_site_type_symbol
_atom_site_label
_atom_site_fract_x
_atom_site_fract_y
_atom_site_fract_z
Si Si1 0.139838 0.203133 0.930226
Si Si2 0.021341 0.742437 0.108562
Si Si3 0.000000 0.522297 0.250000
Si Si4 0.659140 0.169876 0.647713
Si Si5 0.643167 0.520704 0.075671
Si Si6 0.343676 0.011148 0.496983
O O1 0.237917 0.162527 0.861076
O O2 0.064780 0.178820 0.897705
O O3 0.123743 0.094458 0.004909
O O4 0.131747 0.386779 0.951289
O O5 0.995458 0.627199 0.181424
O O6 0.086357 0.655846 0.027217
O O7 0.072762 0.889317 0.122712
O O8 0.087947 0.410514 0.226579
O O9 0.634666 0.348933 0.639846
O O10 0.650537 0.074837 0.579214
O O11 0.740476 0.435554 0.044308
#
# Coordination Sequence:
#
# PCOD8144964 Si02
#       6
#     8   8   4   8   8   8
#     4   9  17  32  53  76  97 122 159 204 246 283
#     4  11  19  30  50  78 102 121 158 206 240 282
#     4  10  22  36  46  62  98 144 166 184 234 298
#     4   8  17  35  51  64  94 135 163 185 234 299
#     4   9  17  31  53  76  95 122 159 205 248 283
#     4   8  16  31  52  74  98 124 152 192 249 292
#
# _framework density 18.426247
#
# number of rings (size 3 to 8) (size 9 to 14) (size 15 to 20)
#    0.000    2.909    0.000    3.818    0.000    0.727 
#    0.000    5.455    0.000    4.364    0.000    0.000 
#    0.000    0.000    0.000    0.000    0.000    0.000 
#
# Total GULP energy -272639.265602 kJ/mol
# GULP energy per Si atom -12392.693891 kJ/mol
# Density = 1.838431 g / cm^3
# Si number density = 18.426247 Si / 1000 Ang^3
#
#
#
# Elastic Constant Matrix: (Units=GPa)
#
#
# Indices 1 2 3 4 5 6 
#
# 1 93.8172 35.2584 38.1807 0.0000 -27.8521 0.0000
# 2 35.2584 82.4302 38.4485 0.0000 -25.0231 0.0001
# 3 38.1807 38.4485 70.6212 0.0000 -19.7507 0.0000
# 4 0.0000 0.0000 0.0000 28.6887 0.0000 -8.5583
# 5 -27.8521 -25.0231 -19.7507 0.0000 22.3190 0.0000
# 6 0.0000 0.0001 0.0000 -8.5583 0.0000 27.7443
#
#
#
# Elastic Compliance Matrix: (Units=1/GPa)
#
#
# Indices 1 2 3 4 5 6 
#
# 1 0.017981 0.000044 -0.004593 0.000000 0.018424 0.000000
# 2 0.000044 0.020254 -0.006225 0.000000 0.017254 0.000000
# 3 -0.004593 -0.006225 0.021897 0.000000 0.006666 0.000000
# 4 0.000000 0.000000 0.000000 0.038390 0.000000 0.011842
# 5 0.018424 0.017254 0.006666 0.000000 0.093040 0.000000
# 6 0.000000 0.000000 0.000000 0.011842 0.000000 0.039696
#
#
# Mechanical properties :
#
#
# Convention : Reuss Voigt Hill
#
# Bulk Modulus (GPa) = 25.91759 52.29375 39.10567
# Shear Modulus (GPa) = 18.82054 24.74913 21.78483
#
# Velocity S-wave (km/s) = 3.19940 3.66887 3.44215
# Velocity P-wave (km/s) = 5.26729 6.81096 6.08825
#
# Compressibility (1/GPa) = 0.03858384
#
# Stress axis : x y z
#
# Youngs Moduli (GPa) = 55.61351 49.37266 45.66918
#
# Poissons Ratio (x) = -0.00217 0.20974
# Poissons Ratio (y) = -0.00244 0.28431
# Poissons Ratio (z) = 0.25541 0.30736
#
# Static dielectric constant tensor:
#      x y z
#    x 3.416550 0.000000 -0.479820 
#    y 0.000000 3.578680 0.000000 
#    z -0.479820 0.000000 3.404320 
# 
# 
# High freq. dielectric constant tensor:
#      x y z
#    x 1.712620 0.000000 -0.026300 
#    y 0.000000 1.717200 0.000000 
#    z -0.026300 0.000000 1.681130 
# 
# From -- ./inp_files/159209.got.cif
#   From: 2010.06.25/outbox.cif.g09.slc.cpg/sg15_80_cif.got.tgz:159209.got - 2010.06.28 07:06:18.
