data_PCOD8144094
_publ_section_title
;
Structure prediction by ZEFSAII (Michael W. Deem and Ramdas Pophale) SiO2 
 PCOD8144094
Probable space group: C 2/C
;
_chemical_formula_sum "Si O2"
_cell_formula_units_Z 40
_cell_length_a 10.981789
_cell_length_b 16.480458
_cell_length_c 14.958276
_cell_angle_alpha 90.000000
_cell_angle_beta 139.315604
_cell_angle_gamma 90.000000
_cell_volume 1764.816293
_symmetry_space_group_name_H-M "C 2/C"
_symmetry_group_IT_number 15
_symmetry_cell_setting 'monoclinic'
loop_
_space_group_symop_operation_xyz
x,y,z
-x,y,1/2-z
-x,-y,-z
x,-y,1/2+z
1/2+x,1/2+y,z
1/2-x,1/2+y,1/2-z
1/2-x,1/2-y,-z
1/2+x,1/2-y,1/2+z
loop_
_atom_site_type_symbol
_atom_site_label
_atom_site_fract_x
_atom_site_fract_y
_atom_site_fract_z
Si Si1 0.698161 0.923342 0.947695
Si Si2 0.550022 0.693931 0.025455
Si Si3 0.153629 0.340577 0.671921
Si Si4 0.814230 0.050493 0.885304
Si Si5 0.716491 0.997312 0.138036
O O1 0.835014 0.852754 0.988029
O O2 0.487267 0.889502 0.840953
O O3 0.669872 0.002791 0.868597
O O4 0.801403 0.953738 0.097321
O O5 0.691279 0.708579 0.186284
O O6 0.477766 0.782337 0.958821
O O7 0.363905 0.641648 0.946120
O O8 0.271527 0.407266 0.680202
O O9 0.756159 0.054093 0.749269
O O10 0.000000 0.000000 0.000000
O O11 0.500000 0.000000 0.000000
#
# Coordination Sequence:
#
# PCOD8144094 Si02
#       5
#     8   8   8   8   8
#     4  10  22  41  69  89 121 170 216 256 308 370
#     4  11  24  40  63  93 134 160 206 262 319 364
#     4  11  23  42  60  97 130 163 203 265 312 373
#     4  10  21  42  60  88 126 166 207 263 305 368
#     4  10  22  38  64  91 124 165 214 253 311 373
#
# _framework density 22.665248999999999
#
# number of rings (size 3 to 8) (size 9 to 14) (size 15 to 20)
#    0.000    1.600    4.000    1.200    8.400    3.200 
#    0.000    1.000    0.000    0.000    0.000    0.000 
#    0.000    0.000    0.000    0.000    0.000    0.000 
#
# Total GULP energy -247786.690624 kJ/mol
# GULP energy per Si atom -12389.334531 kJ/mol
# Density = 2.261366 g / cm^3
# Si number density = 22.665249 Si / 1000 Ang^3
#
#
#
# Elastic Constant Matrix: (Units=GPa)
#
#
# Indices 1 2 3 4 5 6 
#
# 1 17.2430 8.7175 11.1035 0.0000 -7.6665 0.0000
# 2 8.7175 72.2296 21.4304 -0.0003 7.7722 -0.0003
# 3 11.1035 21.4304 152.5662 -0.0005 -15.0909 -0.0006
# 4 0.0000 -0.0003 -0.0005 44.3239 -0.0001 1.0563
# 5 -7.6665 7.7722 -15.0909 -0.0001 29.5191 -0.0001
# 6 0.0000 -0.0003 -0.0006 1.0563 -0.0001 32.7247
#
#
#
# Elastic Compliance Matrix: (Units=1/GPa)
#
#
# Indices 1 2 3 4 5 6 
#
# 1 0.073913 -0.010656 -0.001797 0.000000 0.021083 0.000000
# 2 -0.010656 0.016751 -0.002409 0.000000 -0.008410 0.000000
# 3 -0.001797 -0.002409 0.007415 0.000000 0.003958 0.000000
# 4 0.000000 0.000000 0.000000 0.022579 0.000000 -0.000729
# 5 0.021083 -0.008410 0.003958 0.000000 0.043590 0.000000
# 6 0.000000 0.000000 0.000000 -0.000729 0.000000 0.030582
#
#
# Mechanical properties :
#
#
# Convention : Reuss Voigt Hill
#
# Bulk Modulus (GPa) = 14.62965 36.06016 25.34490
# Shear Modulus (GPa) = 20.21521 34.69936 27.45728
#
# Velocity S-wave (km/s) = 2.98971 3.91698 3.48433
# Velocity P-wave (km/s) = 4.28795 6.03336 5.23392
#
# Compressibility (1/GPa) = 0.06835434
#
# Stress axis : x y z
#
# Youngs Moduli (GPa) = 13.52937 59.69950 134.85690
#
# Poissons Ratio (x) = 0.63617 0.24234
# Poissons Ratio (y) = 0.14417 0.32489
# Poissons Ratio (z) = 0.02431 0.14383
#
# Static dielectric constant tensor:
#      x y z
#    x 5.453530 0.000000 -0.523800 
#    y 0.000000 5.080330 0.000000 
#    z -0.523800 0.000000 4.590270 
# 
# 
# High freq. dielectric constant tensor:
#      x y z
#    x 1.858300 0.000000 -0.001670 
#    y 0.000000 1.884430 0.000000 
#    z -0.001670 0.000000 1.919340 
# 
# From -- ./inp_files/86849.got.cif
#   From: 2010.06.25/outbox.cif.g09.slc.cpg/sg15_44_cif.got.tgz:86849.got - 2010.06.28 07:06:18.
