data_PCOD8144571
_publ_section_title
;
Structure prediction by ZEFSAII (Michael W. Deem and Ramdas Pophale) SiO2 
 PCOD8144571
Probable space group: C 2/C
;
_chemical_formula_sum "Si O2"
_cell_formula_units_Z 64
_cell_length_a 15.111899
_cell_length_b 12.089148
_cell_length_c 26.384924
_cell_angle_alpha 90.000000
_cell_angle_beta 36.749778
_cell_angle_gamma 90.000000
_cell_volume 2884.065971
_symmetry_space_group_name_H-M "C 2/C"
_symmetry_group_IT_number 15
_symmetry_cell_setting 'monoclinic'
loop_
_space_group_symop_operation_xyz
x,y,z
-x,y,1/2-z
-x,-y,-z
x,-y,1/2+z
1/2+x,1/2+y,z
1/2-x,1/2+y,1/2-z
1/2-x,1/2-y,-z
1/2+x,1/2-y,1/2+z
loop_
_atom_site_type_symbol
_atom_site_label
_atom_site_fract_x
_atom_site_fract_y
_atom_site_fract_z
Si Si1 0.995762 0.385224 0.028182
Si Si2 0.535597 0.783954 0.307554
Si Si3 0.479521 0.389737 0.075501
Si Si4 0.224965 0.800299 0.897288
Si Si5 0.152279 0.107707 0.326130
Si Si6 0.244029 0.737275 0.623785
Si Si7 0.074932 0.498683 0.338562
Si Si8 0.904925 0.282391 0.904723
O O1 0.956566 0.408064 0.104030
O O2 0.870064 0.311446 0.060127
O O3 0.156359 0.334433 0.944576
O O4 0.000000 0.500000 0.000000
O O5 0.556650 0.709491 0.348434
O O6 0.362268 0.794508 0.373954
O O7 0.636248 0.724204 0.218844
O O8 0.584424 0.913516 0.287145
O O9 0.462216 0.513103 0.104733
O O10 0.347887 0.361672 0.096580
O O11 0.476102 0.302733 0.125144
O O12 0.633672 0.387421 0.974070
O O13 0.248557 0.848863 0.830193
O O14 0.381560 0.774117 0.853990
O O15 0.267850 0.061633 0.231526
O O16 0.947615 0.591024 0.397202
O O17 0.750000 0.250000 0.000000
#
# Coordination Sequence:
#
# PCOD8144571 Si02
#       8
#     8   8   8   8   8   8   8   8
#     4  11  22  43  69  95 132 186 223 278 335 408
#     4  11  24  43  64 102 128 181 219 281 343 403
#     4  10  21  43  67  95 135 181 215 285 338 397
#     4  10  23  41  65 100 133 174 231 271 341 407
#     4  12  24  42  66  96 140 170 228 283 340 408
#     4  10  23  43  66  92 138 169 232 270 340 407
#     4  12  25  41  70  95 138 177 226 283 345 400
#     4  10  23  43  67  97 129 174 227 277 337 403
#
# _framework density 22.190892999999999
#
# number of rings (size 3 to 8) (size 9 to 14) (size 15 to 20)
#    0.000    1.250    2.500    4.125    1.750    4.000 
#    2.250    0.000    0.000    0.000    0.000    0.000 
#    0.000    0.000    0.000    0.000    0.000    0.000 
#
# Total GULP energy -396554.363541 kJ/mol
# GULP energy per Si atom -12392.323861 kJ/mol
# Density = 2.214039 g / cm^3
# Si number density = 22.190893 Si / 1000 Ang^3
#
#
#
# Elastic Constant Matrix: (Units=GPa)
#
#
# Indices 1 2 3 4 5 6 
#
# 1 128.8152 40.7100 9.7233 0.0000 -1.6744 0.0000
# 2 40.7100 137.1321 27.4233 0.0000 -3.2254 0.0000
# 3 9.7233 27.4233 64.5039 -0.0002 1.7052 0.0000
# 4 0.0000 0.0000 -0.0002 33.6121 0.0001 2.4554
# 5 -1.6744 -3.2254 1.7052 0.0001 28.5328 0.0000
# 6 0.0000 0.0000 0.0000 2.4554 0.0000 23.0362
#
#
#
# Elastic Compliance Matrix: (Units=1/GPa)
#
#
# Indices 1 2 3 4 5 6 
#
# 1 0.008571 -0.002491 -0.000239 0.000000 0.000236 0.000000
# 2 -0.002491 0.008729 -0.003363 0.000000 0.001042 0.000000
# 3 -0.000239 -0.003363 0.017006 0.000000 -0.001411 0.000000
# 4 0.000000 0.000000 0.000000 0.029985 0.000000 -0.003196
# 5 0.000236 0.001042 -0.001411 0.000000 0.035263 0.000000
# 6 0.000000 0.000000 0.000000 -0.003196 0.000000 0.043751
#
#
# Mechanical properties :
#
#
# Convention : Reuss Voigt Hill
#
# Bulk Modulus (GPa) = 45.20888 54.01829 49.61359
# Shear Modulus (GPa) = 30.70031 33.87586 32.28809
#
# Velocity S-wave (km/s) = 3.72353 3.91137 3.81860
# Velocity P-wave (km/s) = 6.23724 6.69282 6.46904
#
# Compressibility (1/GPa) = 0.02211955
#
# Stress axis : x y z
#
# Youngs Moduli (GPa) = 116.66590 114.56306 58.80272
#
# Poissons Ratio (x) = 0.28540 0.01406
# Poissons Ratio (y) = 0.29064 0.19775
# Poissons Ratio (z) = 0.02790 0.38527
#
# Static dielectric constant tensor:
#      x y z
#    x 9.385390 0.000000 0.144020 
#    y 0.000000 3.860630 0.000000 
#    z 0.144020 0.000000 3.646060 
# 
# 
# High freq. dielectric constant tensor:
#      x y z
#    x 1.876110 0.000000 0.006170 
#    y 0.000000 1.876290 0.000000 
#    z 0.006170 0.000000 1.865610 
# 
# From -- ./inp_files/296113.got.cif
#   From: 2010.06.25/outbox.cif.g09.slc.cpg/sg15_149_cif.got.tgz:296113.got - 2010.06.28 07:06:18.
