data_PCOD8144894
_publ_section_title
;
Structure prediction by ZEFSAII (Michael W. Deem and Ramdas Pophale) SiO2 
 PCOD8144894
Probable space group: C 2/C
;
_chemical_formula_sum "Si O2"
_cell_formula_units_Z 48
_cell_length_a 25.467271
_cell_length_b 17.173062
_cell_length_c 17.317820
_cell_angle_alpha 90.000000
_cell_angle_beta 21.720023
_cell_angle_gamma 90.000000
_cell_volume 2802.908589
_symmetry_space_group_name_H-M "C 2/C"
_symmetry_group_IT_number 15
_symmetry_cell_setting 'monoclinic'
loop_
_space_group_symop_operation_xyz
x,y,z
-x,y,1/2-z
-x,-y,-z
x,-y,1/2+z
1/2+x,1/2+y,z
1/2-x,1/2+y,1/2-z
1/2-x,1/2-y,-z
1/2+x,1/2-y,1/2+z
loop_
_atom_site_type_symbol
_atom_site_label
_atom_site_fract_x
_atom_site_fract_y
_atom_site_fract_z
Si Si1 0.945749 0.621048 0.165837
Si Si2 0.731100 0.398907 0.828724
Si Si3 0.991494 0.790148 0.170086
Si Si4 0.029885 0.971552 0.628518
Si Si5 0.286458 0.573262 0.906594
Si Si6 0.764958 0.546736 0.699101
O O1 0.871605 0.622418 0.183636
O O2 0.856189 0.568422 0.348104
O O3 0.959846 0.708191 0.175619
O O4 0.098351 0.582282 0.946040
O O5 0.770135 0.451628 0.699972
O O6 0.641830 0.321361 0.929888
O O7 0.621379 0.451627 0.030145
O O8 0.000000 0.780115 0.250000
O O9 0.862919 0.846279 0.322836
O O10 0.000000 0.925546 0.750000
O O11 0.884548 0.997681 0.785723
O O12 0.124851 0.922317 0.437719
O O13 0.241246 0.574811 0.879437
#
# Coordination Sequence:
#
# PCOD8144894 Si02
#       6
#     8   8   8   8   8   8
#     4  12  21  33  54  79 118 141 174 215 274 328
#     4   9  20  35  47  73 110 142 177 212 258 313
#     4  11  21  33  52  79 113 150 169 207 272 342
#     4   9  17  34  52  67 102 141 178 217 261 302
#     4  11  18  34  51  77 111 140 173 219 264 328
#     4  10  22  31  51  79 105 142 186 219 259 317
#
# _framework density 17.125067999999999
#
# number of rings (size 3 to 8) (size 9 to 14) (size 15 to 20)
#    1.000    0.667    3.333    4.000    2.333    0.000 
#    0.000    0.000    0.000    0.000    0.000    3.500 
#    0.000    0.000    0.000    0.000    0.000    0.000 
#
# Total GULP energy -297416.254348 kJ/mol
# GULP energy per Si atom -12392.343931 kJ/mol
# Density = 1.708609 g / cm^3
# Si number density = 17.125068 Si / 1000 Ang^3
#
#
#
# Elastic Constant Matrix: (Units=GPa)
#
#
# Indices 1 2 3 4 5 6 
#
# 1 70.2395 15.1705 10.7477 0.0002 -7.5525 0.0000
# 2 15.1705 36.4250 12.6286 -0.0011 2.0175 0.0004
# 3 10.7477 12.6286 75.5654 -0.0011 -1.8327 0.0005
# 4 0.0002 -0.0011 -0.0011 22.9955 0.0001 -1.8990
# 5 -7.5525 2.0175 -1.8327 0.0001 23.0268 -0.0001
# 6 0.0000 0.0004 0.0005 -1.8990 -0.0001 24.7644
#
#
#
# Elastic Compliance Matrix: (Units=1/GPa)
#
#
# Indices 1 2 3 4 5 6 
#
# 1 0.016514 -0.006838 -0.001062 -0.000001 0.005931 0.000000
# 2 -0.006838 0.032175 -0.004536 0.000001 -0.005423 0.000000
# 3 -0.001062 -0.004536 0.014171 0.000000 0.001177 0.000000
# 4 -0.000001 0.000001 0.000000 0.043764 0.000000 0.003356
# 5 0.005931 -0.005423 0.001177 0.000000 0.045942 0.000000
# 6 0.000000 0.000000 0.000000 0.003356 0.000000 0.040638
#
#
# Mechanical properties :
#
#
# Convention : Reuss Voigt Hill
#
# Bulk Modulus (GPa) = 26.32451 28.81373 27.56912
# Shear Modulus (GPa) = 21.66951 23.73621 22.70286
#
# Velocity S-wave (km/s) = 3.56106 3.72701 3.64498
# Velocity P-wave (km/s) = 5.68450 5.94834 5.81792
#
# Compressibility (1/GPa) = 0.03798741
#
# Stress axis : x y z
#
# Youngs Moduli (GPa) = 60.55397 31.08032 70.56539
#
# Poissons Ratio (x) = 0.21253 0.07495
# Poissons Ratio (y) = 0.41408 0.32008
# Poissons Ratio (z) = 0.06432 0.14098
#
# Static dielectric constant tensor:
#      x y z
#    x 3.105970 0.000000 -0.170890 
#    y 0.000000 2.891030 0.000000 
#    z -0.170890 0.000000 3.296480 
# 
# 
# High freq. dielectric constant tensor:
#      x y z
#    x 1.663370 0.000000 -0.020630 
#    y 0.000000 1.618520 0.000000 
#    z -0.020630 0.000000 1.659260 
# 
# From -- ./inp_files/174474.got.cif
#   From: 2010.06.25/outbox.cif.g09.slc.cpg/sg15_88_cif.got.tgz:174474.got - 2010.06.28 07:06:18.
