data_PCOD8144108
_publ_section_title
;
Structure prediction by ZEFSAII (Michael W. Deem and Ramdas Pophale) SiO2 
 PCOD8144108
Probable space group: C 2/C
;
_chemical_formula_sum "Si O2"
_cell_formula_units_Z 52
_cell_length_a 13.523516
_cell_length_b 12.284263
_cell_length_c 18.149503
_cell_angle_alpha 90.000000
_cell_angle_beta 126.131833
_cell_angle_gamma 90.000000
_cell_volume 2435.192688
_symmetry_space_group_name_H-M "C 2/C"
_symmetry_group_IT_number 15
_symmetry_cell_setting 'monoclinic'
loop_
_space_group_symop_operation_xyz
x,y,z
-x,y,1/2-z
-x,-y,-z
x,-y,1/2+z
1/2+x,1/2+y,z
1/2-x,1/2+y,1/2-z
1/2-x,1/2-y,-z
1/2+x,1/2-y,1/2+z
loop_
_atom_site_type_symbol
_atom_site_label
_atom_site_fract_x
_atom_site_fract_y
_atom_site_fract_z
Si Si1 0.500000 0.772431 0.750000
Si Si2 0.332067 0.243930 0.434364
Si Si3 0.397770 0.732135 0.393650
Si Si4 0.682632 0.654149 0.730543
Si Si5 0.224696 0.350101 0.934665
Si Si6 0.716729 0.570413 0.477019
Si Si7 0.542778 0.446216 0.685101
O O1 0.563222 0.694495 0.719707
O O2 0.597349 0.845518 0.835379
O O3 0.474964 0.225335 0.516695
O O4 0.309541 0.276738 0.340597
O O5 0.269313 0.340546 0.452814
O O6 0.263255 0.129089 0.421891
O O7 0.304981 0.831425 0.334051
O O8 0.335714 0.649003 0.424587
O O9 0.417247 0.673297 0.323797
O O10 0.654542 0.525865 0.710747
O O11 0.250000 0.250000 0.000000
O O12 0.207220 0.462218 0.971563
O O13 0.578990 0.524783 0.413923
O O14 0.500000 0.444932 0.750000
#
# Coordination Sequence:
#
# PCOD8144108 Si02
#       7
#     4   8   8   8   8   8   8
#     4  10  22  38  56  90 122 160 204 250 306 370
#     4  10  21  42  61  92 123 158 211 257 310 369
#     4  10  23  39  61  93 123 159 209 259 310 362
#     4  11  21  39  62  89 122 161 204 255 305 369
#     4  11  22  40  62  89 127 166 205 256 313 370
#     4  10  22  39  64  88 122 167 203 255 313 373
#     4  11  21  38  65  90 121 165 210 253 308 377
#
# _framework density 21.353546000000001
#
# number of rings (size 3 to 8) (size 9 to 14) (size 15 to 20)
#    0.000    1.538    0.769    4.615    2.154    2.462 
#    8.308    1.538    0.000    0.000    0.000    0.000 
#    0.000    0.000    0.000    0.000    0.000    0.000 
#
# Total GULP energy -322307.516140 kJ/mol
# GULP energy per Si atom -12396.442928 kJ/mol
# Density = 2.130494 g / cm^3
# Si number density = 21.353546 Si / 1000 Ang^3
#
#
#
# Elastic Constant Matrix: (Units=GPa)
#
#
# Indices 1 2 3 4 5 6 
#
# 1 78.1769 19.4845 22.6182 0.0000 -0.0406 0.0000
# 2 19.4845 86.3698 34.2286 0.0000 6.8869 0.0000
# 3 22.6182 34.2286 71.9331 0.0000 -9.9930 0.0000
# 4 0.0000 0.0000 0.0000 29.6465 0.0000 0.5759
# 5 -0.0406 6.8869 -9.9930 0.0000 39.7542 0.0000
# 6 0.0000 0.0000 0.0000 0.5759 0.0000 25.0519
#
#
#
# Elastic Compliance Matrix: (Units=1/GPa)
#
#
# Indices 1 2 3 4 5 6 
#
# 1 0.014305 -0.001672 -0.003792 0.000000 -0.000649 0.000000
# 2 -0.001672 0.015222 -0.007340 0.000000 -0.004484 0.000000
# 3 -0.003792 -0.007340 0.019442 0.000000 0.006155 0.000000
# 4 0.000000 0.000000 0.000000 0.033746 0.000000 -0.000776
# 5 -0.000649 -0.004484 0.006155 0.000000 0.027478 0.000000
# 6 0.000000 0.000000 0.000000 -0.000776 0.000000 0.039935
#
#
# Mechanical properties :
#
#
# Convention : Reuss Voigt Hill
#
# Bulk Modulus (GPa) = 42.80992 43.23805 43.02398
# Shear Modulus (GPa) = 27.24437 29.56709 28.40573
#
# Velocity S-wave (km/s) = 3.57581 3.72512 3.65123
# Velocity P-wave (km/s) = 6.09428 6.22853 6.16177
#
# Compressibility (1/GPa) = 0.02335907
#
# Stress axis : x y z
#
# Youngs Moduli (GPa) = 69.90461 65.69484 51.43497
#
# Poissons Ratio (x) = 0.10987 0.19506
# Poissons Ratio (y) = 0.11692 0.37754
# Poissons Ratio (z) = 0.26510 0.48221
#
# Static dielectric constant tensor:
#      x y z
#    x 4.000140 0.000000 0.025860 
#    y 0.000000 3.652420 0.000000 
#    z 0.025860 0.000000 3.857420 
# 
# 
# High freq. dielectric constant tensor:
#      x y z
#    x 1.842940 0.000000 -0.002830 
#    y 0.000000 1.821920 0.000000 
#    z -0.002830 0.000000 1.847390 
# 
# From -- ./inp_files/204169.got.cif
#   From: 2010.06.25/outbox.cif.g09.slc.cpg/sg15_103_cif.got.tgz:204169.got - 2010.06.28 07:06:18.
