data_PCOD8144932
_publ_section_title
;
Structure prediction by ZEFSAII (Michael W. Deem and Ramdas Pophale) SiO2 
 PCOD8144932
Probable space group: C 2/C
;
_chemical_formula_sum "Si O2"
_cell_formula_units_Z 48
_cell_length_a 9.836115
_cell_length_b 16.327582
_cell_length_c 21.184217
_cell_angle_alpha 90.000000
_cell_angle_beta 131.643406
_cell_angle_gamma 90.000000
_cell_volume 2542.435279
_symmetry_space_group_name_H-M "C 2/C"
_symmetry_group_IT_number 15
_symmetry_cell_setting 'monoclinic'
loop_
_space_group_symop_operation_xyz
x,y,z
-x,y,1/2-z
-x,-y,-z
x,-y,1/2+z
1/2+x,1/2+y,z
1/2-x,1/2+y,1/2-z
1/2-x,1/2-y,-z
1/2+x,1/2-y,1/2+z
loop_
_atom_site_type_symbol
_atom_site_label
_atom_site_fract_x
_atom_site_fract_y
_atom_site_fract_z
Si Si1 0.720404 0.494838 0.929709
Si Si2 0.901493 0.956328 0.911904
Si Si3 0.826441 0.582868 0.730627
Si Si4 0.944841 0.474464 0.881627
Si Si5 0.397065 0.837360 0.652534
Si Si6 0.526537 0.655661 0.831969
O O1 0.547078 0.442372 0.900517
O O2 0.787100 0.457019 0.884265
O O3 0.663290 0.589409 0.903318
O O4 0.877105 0.489024 0.030076
O O5 0.810137 0.870864 0.905080
O O6 0.735998 0.012245 0.836975
O O7 0.000000 0.000000 0.000000
O O8 0.876641 0.543245 0.812837
O O9 0.669326 0.649623 0.693682
O O10 0.000000 0.625222 0.750000
O O11 0.987412 0.388640 0.862030
O O12 0.500000 0.842049 0.750000
O O13 0.386443 0.743767 0.626271
O O14 0.500000 0.639413 0.750000
#
# Coordination Sequence:
#
# PCOD8144932 Si02
#       6
#     8   8   8   8   8   8
#     4  10  22  34  60  86 112 153 190 241 275 338
#     4  11  19  35  58  88 108 146 197 230 277 343
#     4  11  19  36  60  81 110 155 193 237 279 346
#     4  11  19  37  58  84 115 147 199 233 280 334
#     4  11  21  38  58  84 116 152 187 238 287 339
#     4  10  22  37  56  85 117 152 185 237 300 335
#
# _framework density 18.879536000000002
#
# number of rings (size 3 to 8) (size 9 to 14) (size 15 to 20)
#    0.000    1.333    6.667    0.000    0.000    0.667 
#    0.000    3.333    0.000    2.000    0.000    0.000 
#    0.000    0.000    0.000    0.000    0.000    0.000 
#
# Total GULP energy -297625.031752 kJ/mol
# GULP energy per Si atom -12401.042990 kJ/mol
# Density = 1.883657 g / cm^3
# Si number density = 18.879536 Si / 1000 Ang^3
#
#
#
# Elastic Constant Matrix: (Units=GPa)
#
#
# Indices 1 2 3 4 5 6 
#
# 1 155.6307 62.2199 27.8746 0.0000 13.5754 0.0000
# 2 62.2199 101.9901 32.2458 0.0000 6.1073 0.0000
# 3 27.8746 32.2458 84.8865 0.0000 -0.2071 0.0000
# 4 0.0000 0.0000 0.0000 18.2629 0.0000 6.0187
# 5 13.5754 6.1073 -0.2071 0.0000 29.6368 0.0000
# 6 0.0000 0.0000 0.0000 6.0187 0.0000 30.1830
#
#
#
# Elastic Compliance Matrix: (Units=1/GPa)
#
#
# Indices 1 2 3 4 5 6 
#
# 1 0.008827 -0.004868 -0.001057 0.000000 -0.003047 0.000000
# 2 -0.004868 0.013991 -0.003718 0.000000 -0.000679 0.000000
# 3 -0.001057 -0.003718 0.013543 0.000000 0.001345 0.000000
# 4 0.000000 0.000000 0.000000 0.058607 0.000000 -0.011687
# 5 -0.003047 -0.000679 0.001345 0.000000 0.035287 0.000000
# 6 0.000000 0.000000 0.000000 -0.011687 0.000000 0.035462
#
#
# Mechanical properties :
#
#
# Convention : Reuss Voigt Hill
#
# Bulk Modulus (GPa) = 58.56408 65.24311 61.90359
# Shear Modulus (GPa) = 26.21999 30.29432 28.25715
#
# Velocity S-wave (km/s) = 3.73071 4.01011 3.87293
# Velocity P-wave (km/s) = 7.04591 7.48825 7.27044
#
# Compressibility (1/GPa) = 0.01707531
#
# Stress axis : x y z
#
# Youngs Moduli (GPa) = 113.29058 71.47479 73.83922
#
# Poissons Ratio (x) = 0.34796 0.07802
# Poissons Ratio (y) = 0.55154 0.27452
# Poissons Ratio (z) = 0.11970 0.26573
#
# Static dielectric constant tensor:
#      x y z
#    x 4.010880 0.000000 -0.095540 
#    y 0.000000 3.206280 0.000000 
#    z -0.095540 0.000000 3.598890 
# 
# 
# High freq. dielectric constant tensor:
#      x y z
#    x 1.755660 0.000000 -0.003640 
#    y 0.000000 1.690100 0.000000 
#    z -0.003640 0.000000 1.745960 
# 
# From -- ./inp_files/232861.got.cif
#   From: 2010.06.25/outbox.cif.g09.slc.cpg/sg15_117_cif.got.tgz:232861.got - 2010.06.28 07:06:18.
