data_PCOD8144382
_publ_section_title
;
Structure prediction by ZEFSAII (Michael W. Deem and Ramdas Pophale) SiO2 
 PCOD8144382
Probable space group: C 2/C
;
_chemical_formula_sum "Si O2"
_cell_formula_units_Z 60
_cell_length_a 21.837886
_cell_length_b 20.965140
_cell_length_c 8.702461
_cell_angle_alpha 90.000000
_cell_angle_beta 39.218215
_cell_angle_gamma 90.000000
_cell_volume 2519.166621
_symmetry_space_group_name_H-M "C 2/C"
_symmetry_group_IT_number 15
_symmetry_cell_setting 'monoclinic'
loop_
_space_group_symop_operation_xyz
x,y,z
-x,y,1/2-z
-x,-y,-z
x,-y,1/2+z
1/2+x,1/2+y,z
1/2-x,1/2+y,1/2-z
1/2-x,1/2-y,-z
1/2+x,1/2-y,1/2+z
loop_
_atom_site_type_symbol
_atom_site_label
_atom_site_fract_x
_atom_site_fract_y
_atom_site_fract_z
Si Si1 0.860225 0.048860 0.772545
Si Si2 0.695219 0.113164 0.222454
Si Si3 0.000000 0.994761 0.750000
Si Si4 0.692387 0.689907 0.056441
Si Si5 0.169840 0.245823 0.782235
Si Si6 0.712249 0.063282 0.512595
Si Si7 0.487640 0.114678 0.592130
Si Si8 0.983073 0.750432 0.463643
O O1 0.922889 0.049037 0.493801
O O2 0.937931 0.039686 0.757993
O O3 0.772898 0.997213 0.949811
O O4 0.793581 0.112907 0.924092
O O5 0.669705 0.181730 0.348486
O O6 0.720096 0.065713 0.313222
O O7 0.595803 0.093122 0.322675
O O8 0.739529 0.623093 0.999381
O O9 0.592240 0.694678 0.343627
O O10 0.750000 0.750000 0.000000
O O11 0.684068 0.694728 0.888453
O O12 0.250000 0.250000 0.500000
O O13 0.074509 0.226031 0.879345
O O14 0.596746 0.062559 0.780674
O O15 0.500000 0.125573 0.750000
O O16 0.452532 0.179715 0.577635
O O17 0.000000 0.750409 0.250000
#
# Coordination Sequence:
#
# PCOD8144382 Si02
#       8
#     8   8   4   8   8   8   8   8
#     4  11  23  46  69  95 131 177 232 279 347 402
#     4  10  21  42  69  96 131 173 220 282 345 408
#     4  10  24  46  68  90 130 178 224 292 336 394
#     4  12  21  40  67  95 134 178 223 271 339 413
#     4  11  24  42  65  97 132 172 224 288 336 410
#     4  11  22  40  71  97 131 178 224 278 339 411
#     4   9  19  39  68  96 130 174 214 275 346 400
#     4  11  22  39  60  94 137 176 217 272 341 402
#
# _framework density 23.817401
#
# number of rings (size 3 to 8) (size 9 to 14) (size 15 to 20)
#    0.000    1.333    4.000    2.800    0.000    1.600 
#   10.800    0.000    0.000    0.000    0.000    0.000 
#    0.000    0.000    0.000    0.000    0.000    0.000 
#
# Total GULP energy -371690.965329 kJ/mol
# GULP energy per Si atom -12389.698844 kJ/mol
# Density = 2.376319 g / cm^3
# Si number density = 23.817401 Si / 1000 Ang^3
#
#
#
# Elastic Constant Matrix: (Units=GPa)
#
#
# Indices 1 2 3 4 5 6 
#
# 1 117.0458 23.6182 44.7000 0.0000 -2.3340 0.0000
# 2 23.6182 31.0025 9.3817 0.0000 -7.6642 0.0000
# 3 44.7000 9.3817 161.6330 0.0000 -15.8332 0.0000
# 4 0.0000 0.0000 0.0000 34.9856 0.0000 -5.3362
# 5 -2.3340 -7.6642 -15.8332 0.0000 46.8438 0.0000
# 6 0.0000 0.0000 0.0000 -5.3362 0.0000 23.8855
#
#
#
# Elastic Compliance Matrix: (Units=1/GPa)
#
#
# Indices 1 2 3 4 5 6 
#
# 1 0.011217 -0.008123 -0.002799 0.000000 -0.001716 0.000000
# 2 -0.008123 0.039834 0.000551 0.000000 0.006299 0.000000
# 3 -0.002799 0.000551 0.007161 0.000000 0.002371 0.000000
# 4 0.000000 0.000000 0.000000 0.029592 0.000000 0.006611
# 5 -0.001716 0.006299 0.002371 0.000000 0.023094 0.000000
# 6 0.000000 0.000000 0.000000 0.006611 0.000000 0.043343
#
#
# Mechanical properties :
#
#
# Convention : Reuss Voigt Hill
#
# Bulk Modulus (GPa) = 26.68674 51.67567 39.18120
# Shear Modulus (GPa) = 26.67054 36.60841 31.63947
#
# Velocity S-wave (km/s) = 3.34996 3.92477 3.64870
# Velocity P-wave (km/s) = 5.11781 6.50247 5.85125
#
# Compressibility (1/GPa) = 0.03747180
#
# Stress axis : x y z
#
# Youngs Moduli (GPa) = 89.14724 25.10422 139.64227
#
# Poissons Ratio (x) = 0.20392 0.39083
# Poissons Ratio (y) = 0.72413 -0.07699
# Poissons Ratio (z) = 0.24951 -0.01384
#
# Static dielectric constant tensor:
#      x y z
#    x 8.327950 0.000000 -5.721210 
#    y 0.000000 6.669570 0.000000 
#    z -5.721210 0.000000 12.124610 
# 
# 
# High freq. dielectric constant tensor:
#      x y z
#    x 1.953910 0.000000 -0.019090 
#    y 0.000000 1.915700 0.000000 
#    z -0.019090 0.000000 1.963330 
# 
# From -- ./inp_files/58731.got.cif
#   From: 2010.06.25/outbox.cif.g09.slc.cpg/sg15_30_cif.got.tgz:58731.got - 2010.06.28 07:06:18.
