data_PCOD8144334
_publ_section_title
;
Structure prediction by ZEFSAII (Michael W. Deem and Ramdas Pophale) SiO2 
 PCOD8144334
Probable space group: C 2/C
;
_chemical_formula_sum "Si O2"
_cell_formula_units_Z 48
_cell_length_a 15.081395
_cell_length_b 16.590508
_cell_length_c 9.372613
_cell_angle_alpha 90.000000
_cell_angle_beta 84.000389
_cell_angle_gamma 90.000000
_cell_volume 2332.257740
_symmetry_space_group_name_H-M "C 2/C"
_symmetry_group_IT_number 15
_symmetry_cell_setting 'monoclinic'
loop_
_space_group_symop_operation_xyz
x,y,z
-x,y,1/2-z
-x,-y,-z
x,-y,1/2+z
1/2+x,1/2+y,z
1/2-x,1/2+y,1/2-z
1/2-x,1/2-y,-z
1/2+x,1/2-y,1/2+z
loop_
_atom_site_type_symbol
_atom_site_label
_atom_site_fract_x
_atom_site_fract_y
_atom_site_fract_z
Si Si1 0.000000 0.672088 0.750000
Si Si2 0.156386 0.594095 0.214347
Si Si3 0.500000 0.214037 0.250000
Si Si4 0.008201 0.802514 0.531217
Si Si5 0.407663 0.460711 0.967276
Si Si6 0.911432 0.458007 0.074722
Si Si7 0.853137 0.914406 0.674622
O O1 0.045942 0.730649 0.624775
O O2 0.930197 0.617001 0.676563
O O3 0.085596 0.660681 0.275773
O O4 0.145851 0.518677 0.321159
O O5 0.257121 0.626808 0.219155
O O6 0.143842 0.572196 0.050948
O O7 0.474068 0.268943 0.387390
O O8 0.923411 0.845621 0.619930
O O9 0.088767 0.865825 0.490905
O O10 0.391323 0.464262 0.801940
O O11 0.500000 0.500000 0.000000
O O12 0.334453 0.515232 0.059786
O O13 0.000000 0.500000 0.000000
#
# Coordination Sequence:
#
# PCOD8144334 Si02
#       7
#     4   8   4   8   8   8   8
#     4  12  19  40  65  88 124 164 214 258 319 384
#     4  12  24  42  64  96 127 166 222 265 314 380
#     4  12  25  40  65  90 128 174 214 254 323 402
#     4  11  23  41  65  92 127 171 211 259 329 393
#     4  10  21  42  68  92 124 171 214 258 320 388
#     4  12  21  40  67  90 121 173 220 254 312 387
#     4  11  24  42  66  97 129 162 219 276 311 375
#
# _framework density 20.580915999999998
#
# number of rings (size 3 to 8) (size 9 to 14) (size 15 to 20)
#    0.000    0.667    6.667    2.500    4.667    0.667 
#    0.000    0.833    0.000    0.000    0.000    0.000 
#    0.000    0.000    0.000    0.000    0.000    0.000 
#
# Total GULP energy -297485.572951 kJ/mol
# GULP energy per Si atom -12395.232206 kJ/mol
# Density = 2.053407 g / cm^3
# Si number density = 20.580916 Si / 1000 Ang^3
#
#
#
# Elastic Constant Matrix: (Units=GPa)
#
#
# Indices 1 2 3 4 5 6 
#
# 1 100.3133 21.7844 28.6067 0.0000 -4.7072 0.0000
# 2 21.7844 99.2442 40.9479 0.0000 -7.5467 0.0000
# 3 28.6067 40.9479 136.7630 0.0000 13.3646 0.0000
# 4 0.0000 0.0000 0.0000 54.6700 0.0000 -6.3552
# 5 -4.7072 -7.5467 13.3646 0.0000 22.3460 0.0000
# 6 0.0000 0.0000 0.0000 -6.3552 0.0000 8.6830
#
#
#
# Elastic Compliance Matrix: (Units=1/GPa)
#
#
# Indices 1 2 3 4 5 6 
#
# 1 0.011034 -0.001245 -0.002253 0.000000 0.003251 0.000000
# 2 -0.001245 0.012540 -0.004123 0.000000 0.006439 0.000000
# 3 -0.002253 -0.004123 0.009771 0.000000 -0.007711 0.000000
# 4 0.000000 0.000000 0.000000 0.019993 0.000000 0.014633
# 5 0.003251 0.006439 -0.007711 0.000000 0.052222 0.000000
# 6 0.000000 0.000000 0.000000 0.014633 0.000000 0.125877
#
#
# Mechanical properties :
#
#
# Convention : Reuss Voigt Hill
#
# Bulk Modulus (GPa) = 55.24035 57.66651 56.45343
# Shear Modulus (GPa) = 19.78511 33.47192 26.62852
#
# Velocity S-wave (km/s) = 3.10390 4.03719 3.60091
# Velocity P-wave (km/s) = 6.30432 7.05777 6.69166
#
# Compressibility (1/GPa) = 0.01810271
#
# Stress axis : x y z
#
# Youngs Moduli (GPa) = 90.62713 79.74190 102.34058
#
# Poissons Ratio (x) = 0.09930 0.23056
# Poissons Ratio (y) = 0.11286 0.42200
# Poissons Ratio (z) = 0.20417 0.32881
#
# Static dielectric constant tensor:
#      x y z
#    x 3.535610 0.000000 -0.038040 
#    y 0.000000 4.096140 0.000000 
#    z -0.038040 0.000000 4.172570 
# 
# 
# High freq. dielectric constant tensor:
#      x y z
#    x 1.774530 0.000000 0.010340 
#    y 0.000000 1.810750 0.000000 
#    z 0.010340 0.000000 1.827520 
# 
# From -- ./inp_files/39673.got.cif
#   From: 2010.06.25/outbox.cif.g09.slc.cpg/sg15_20_cif.got.tgz:39673.got - 2010.06.28 07:06:18.
