data_PCOD8144198
_publ_section_title
;
Structure prediction by ZEFSAII (Michael W. Deem and Ramdas Pophale) SiO2 
 PCOD8144198
Probable space group: C 2/C
;
_chemical_formula_sum "Si O2"
_cell_formula_units_Z 52
_cell_length_a 27.515431
_cell_length_b 10.131874
_cell_length_c 9.748478
_cell_angle_alpha 90.000000
_cell_angle_beta 57.056581
_cell_angle_gamma 90.000000
_cell_volume 2280.722952
_symmetry_space_group_name_H-M "C 2/C"
_symmetry_group_IT_number 15
_symmetry_cell_setting 'monoclinic'
loop_
_space_group_symop_operation_xyz
x,y,z
-x,y,1/2-z
-x,-y,-z
x,-y,1/2+z
1/2+x,1/2+y,z
1/2-x,1/2+y,1/2-z
1/2-x,1/2-y,-z
1/2+x,1/2-y,1/2+z
loop_
_atom_site_type_symbol
_atom_site_label
_atom_site_fract_x
_atom_site_fract_y
_atom_site_fract_z
Si Si1 0.242756 0.889759 0.937007
Si Si2 0.594337 0.097480 0.017662
Si Si3 0.105771 0.722405 0.728039
Si Si4 0.067398 0.010243 0.419636
Si Si5 0.610163 0.374416 0.111895
Si Si6 0.196361 0.573437 0.446967
Si Si7 0.500000 0.089271 0.750000
O O1 0.280114 0.899834 0.740885
O O2 0.250000 0.750000 0.000000
O O3 0.177665 0.892303 0.983582
O O4 0.256258 0.012082 0.020194
O O5 0.581717 0.237330 0.108634
O O6 0.536739 0.008046 0.095551
O O7 0.617240 0.116128 0.829677
O O8 0.644430 0.031336 0.029423
O O9 0.099812 0.866782 0.799116
O O10 0.164559 0.709608 0.545808
O O11 0.044425 0.686954 0.755143
O O12 0.080774 0.010479 0.561728
O O13 0.095026 0.886575 0.296441
O O14 0.000000 0.000000 0.500000
#
# Coordination Sequence:
#
# PCOD8144198 Si02
#       7
#     8   8   8   8   8   8   4
#     4  12  25  46  73 106 140 191 231 297 359 420
#     4  10  21  42  65 101 134 176 222 289 346 413
#     4  10  23  42  66 104 133 180 230 288 354 412
#     4  11  26  46  69  97 143 187 230 289 352 426
#     4  11  25  45  67 102 136 183 239 277 350 426
#     4  11  23  45  73 102 144 172 236 292 350 423
#     4  10  22  36  68  98 136 170 228 286 354 410
#
# _framework density 22.799789000000001
#
# number of rings (size 3 to 8) (size 9 to 14) (size 15 to 20)
#    0.000    1.231    3.077    1.846    6.462    2.462 
#    2.769    3.077    0.000    0.000    0.000    0.000 
#    0.000    0.000    0.000    0.000    0.000    0.000 
#
# Total GULP energy -322245.667449 kJ/mol
# GULP energy per Si atom -12394.064133 kJ/mol
# Density = 2.274790 g / cm^3
# Si number density = 22.799789 Si / 1000 Ang^3
#
#
#
# Elastic Constant Matrix: (Units=GPa)
#
#
# Indices 1 2 3 4 5 6 
#
# 1 93.1114 3.9318 -8.2869 0.0000 -3.3139 0.0000
# 2 3.9318 36.1447 11.5562 0.0000 -0.4589 0.0000
# 3 -8.2869 11.5562 93.2480 0.0000 -1.3778 0.0000
# 4 0.0000 0.0000 0.0000 37.0551 0.0000 4.2956
# 5 -3.3139 -0.4589 -1.3778 0.0000 35.6439 0.0000
# 6 0.0000 0.0000 0.0000 4.2956 0.0000 20.9512
#
#
#
# Elastic Compliance Matrix: (Units=1/GPa)
#
#
# Indices 1 2 3 4 5 6 
#
# 1 0.010948 -0.001555 0.001181 0.000000 0.001043 0.000000
# 2 -0.001555 0.029031 -0.003735 0.000000 0.000085 0.000000
# 3 0.001181 -0.003735 0.011299 0.000000 0.000498 0.000000
# 4 0.000000 0.000000 0.000000 0.027644 0.000000 -0.005668
# 5 0.001043 0.000085 0.000498 0.000000 0.028173 0.000000
# 6 0.000000 0.000000 0.000000 -0.005668 0.000000 0.048892
#
#
# Mechanical properties :
#
#
# Convention : Reuss Voigt Hill
#
# Bulk Modulus (GPa) = 23.22339 26.32294 24.77317
# Shear Modulus (GPa) = 28.00215 33.08358 30.54287
#
# Velocity S-wave (km/s) = 3.50834 3.81339 3.66404
# Velocity P-wave (km/s) = 5.15937 5.56414 5.36557
#
# Compressibility (1/GPa) = 0.04306004
#
# Stress axis : x y z
#
# Youngs Moduli (GPa) = 91.34293 34.44602 88.50135
#
# Poissons Ratio (x) = 0.05357 -0.10453
# Poissons Ratio (y) = 0.14206 0.33053
# Poissons Ratio (z) = -0.10788 0.12865
#
# Static dielectric constant tensor:
#      x y z
#    x 4.314720 0.000000 0.080140 
#    y 0.000000 4.108150 0.000000 
#    z 0.080140 0.000000 4.448900 
# 
# 
# High freq. dielectric constant tensor:
#      x y z
#    x 1.910300 0.000000 0.001110 
#    y 0.000000 1.892890 0.000000 
#    z 0.001110 0.000000 1.907540 
# 
# From -- ./inp_files/65355.got.cif
#   From: 2010.06.25/outbox.cif.g09.slc.cpg/sg15_33_cif.got.tgz:65355.got - 2010.06.28 07:06:18.
