data_PCOD8144316
_publ_section_title
;
Structure prediction by ZEFSAII (Michael W. Deem and Ramdas Pophale) SiO2 
 PCOD8144316
Probable space group: C 2/C
;
_chemical_formula_sum "Si O2"
_cell_formula_units_Z 40
_cell_length_a 14.558235
_cell_length_b 22.697729
_cell_length_c 8.128144
_cell_angle_alpha 90.000000
_cell_angle_beta 40.549808
_cell_angle_gamma 90.000000
_cell_volume 1746.097894
_symmetry_space_group_name_H-M "C 2/C"
_symmetry_group_IT_number 15
_symmetry_cell_setting 'monoclinic'
loop_
_space_group_symop_operation_xyz
x,y,z
-x,y,1/2-z
-x,-y,-z
x,-y,1/2+z
1/2+x,1/2+y,z
1/2-x,1/2+y,1/2-z
1/2-x,1/2-y,-z
1/2+x,1/2-y,1/2+z
loop_
_atom_site_type_symbol
_atom_site_label
_atom_site_fract_x
_atom_site_fract_y
_atom_site_fract_z
Si Si1 0.656857 0.047040 0.973093
Si Si2 0.361130 0.245753 0.539614
Si Si3 0.157695 0.578238 0.590768
Si Si4 0.677907 0.653422 0.650886
Si Si5 0.412760 0.335304 0.704001
O O1 0.664032 0.065381 0.774981
O O2 0.749026 0.090054 0.963509
O O3 0.500000 0.051734 0.250000
O O4 0.708974 0.980037 0.923549
O O5 0.296162 0.305142 0.543078
O O6 0.252330 0.191432 0.697883
O O7 0.388362 0.265923 0.691817
O O8 0.500000 0.224969 0.250000
O O9 0.267243 0.629426 0.399328
O O10 0.000000 0.597381 0.750000
O O11 0.513631 0.642203 0.916329
O O12 0.500000 0.343987 0.750000
#
# Coordination Sequence:
#
# PCOD8144316 Si02
#       5
#     8   8   8   8   8
#     4  11  23  41  69  94 129 173 225 271 321 395
#     4   9  21  40  67  96 133 174 218 264 328 392
#     4  11  25  44  65  97 131 177 221 270 330 393
#     4  10  21  42  67  98 127 173 220 271 321 393
#     4  11  23  44  63 100 139 163 218 271 329 391
#
# _framework density 22.908225000000002
#
# number of rings (size 3 to 8) (size 9 to 14) (size 15 to 20)
#    0.000    1.600    2.000    3.000    5.600    1.600 
#    0.000    0.000    0.000    0.000    0.000    0.000 
#    0.000    0.000    0.000    0.000    0.000    0.000 
#
# Total GULP energy -247902.835894 kJ/mol
# GULP energy per Si atom -12395.141795 kJ/mol
# Density = 2.285609 g / cm^3
# Si number density = 22.908225 Si / 1000 Ang^3
#
#
#
# Elastic Constant Matrix: (Units=GPa)
#
#
# Indices 1 2 3 4 5 6 
#
# 1 50.2526 26.9418 11.9178 0.0000 -18.7283 0.0000
# 2 26.9418 83.4145 49.2249 0.0000 -24.3367 0.0000
# 3 11.9178 49.2249 86.0554 0.0000 -6.8452 0.0000
# 4 0.0000 0.0000 0.0000 32.6491 0.0000 -3.2243
# 5 -18.7283 -24.3367 -6.8452 0.0000 37.4896 0.0000
# 6 0.0000 0.0000 0.0000 -3.2243 0.0000 40.1765
#
#
#
# Elastic Compliance Matrix: (Units=1/GPa)
#
#
# Indices 1 2 3 4 5 6 
#
# 1 0.026572 -0.006223 0.000623 0.000000 0.009349 0.000000
# 2 -0.006223 0.024200 -0.012155 0.000000 0.010382 0.000000
# 3 0.000623 -0.012155 0.018148 0.000000 -0.004266 0.000000
# 4 0.000000 0.000000 0.000000 0.030873 0.000000 0.002478
# 5 0.009349 0.010382 -0.004266 0.000000 0.037305 0.000000
# 6 0.000000 0.000000 0.000000 0.002478 0.000000 0.025089
#
#
# Mechanical properties :
#
#
# Convention : Reuss Voigt Hill
#
# Bulk Modulus (GPa) = 29.93089 43.98795 36.95942
# Shear Modulus (GPa) = 23.94252 30.83892 27.39072
#
# Velocity S-wave (km/s) = 3.23638 3.67303 3.46160
# Velocity P-wave (km/s) = 5.20188 6.10178 5.66971
#
# Compressibility (1/GPa) = 0.03341029
#
# Stress axis : x y z
#
# Youngs Moduli (GPa) = 37.63382 41.32185 55.10304
#
# Poissons Ratio (x) = 0.25713 -0.03433
# Poissons Ratio (y) = 0.23418 0.66980
# Poissons Ratio (z) = -0.02345 0.50228
#
# Static dielectric constant tensor:
#      x y z
#    x 4.613430 0.000000 0.016650 
#    y 0.000000 4.493680 0.000000 
#    z 0.016650 0.000000 4.156000 
# 
# 
# High freq. dielectric constant tensor:
#      x y z
#    x 1.917030 0.000000 -0.003440 
#    y 0.000000 1.893940 0.000000 
#    z -0.003440 0.000000 1.899930 
# 
# From -- ./inp_files/41945.got.cif
#   From: 2010.06.25/outbox.cif.g09.slc.cpg/sg15_21_cif.got.tgz:41945.got - 2010.06.28 07:06:18.
