data_PCOD8144199
_publ_section_title
;
Structure prediction by ZEFSAII (Michael W. Deem and Ramdas Pophale) SiO2 
 PCOD8144199
Probable space group: C 2/C
;
_chemical_formula_sum "Si O2"
_cell_formula_units_Z 52
_cell_length_a 14.879562
_cell_length_b 8.708220
_cell_length_c 22.393125
_cell_angle_alpha 90.000000
_cell_angle_beta 79.703220
_cell_angle_gamma 90.000000
_cell_volume 2854.848295
_symmetry_space_group_name_H-M "C 2/C"
_symmetry_group_IT_number 15
_symmetry_cell_setting 'monoclinic'
loop_
_space_group_symop_operation_xyz
x,y,z
-x,y,1/2-z
-x,-y,-z
x,-y,1/2+z
1/2+x,1/2+y,z
1/2-x,1/2+y,1/2-z
1/2-x,1/2-y,-z
1/2+x,1/2-y,1/2+z
loop_
_atom_site_type_symbol
_atom_site_label
_atom_site_fract_x
_atom_site_fract_y
_atom_site_fract_z
Si Si1 0.939463 0.774571 0.136917
Si Si2 0.608844 0.095129 0.130997
Si Si3 0.124720 0.283429 0.062138
Si Si4 0.540023 0.575602 0.436122
Si Si5 0.000000 0.676658 0.250000
Si Si6 0.279001 0.240066 0.564733
Si Si7 0.304493 0.887052 0.570993
O O1 0.942228 0.778300 0.209175
O O2 0.847171 0.694093 0.124164
O O3 0.027078 0.675911 0.102623
O O4 0.946443 0.948859 0.115912
O O5 0.574227 0.075922 0.203914
O O6 0.697375 0.204146 0.117296
O O7 0.633327 0.929961 0.103013
O O8 0.200173 0.161497 0.073794
O O9 0.026581 0.205861 0.081570
O O10 0.135858 0.333467 0.992406
O O11 0.500000 0.500000 0.500000
O O12 0.637487 0.645909 0.437846
O O13 0.250000 0.250000 0.500000
O O14 0.308317 0.069191 0.579327
#
# Coordination Sequence:
#
# PCOD8144199 Si02
#       7
#     8   8   8   8   4   8   8
#     4  10  21  42  65  86 127 163 209 260 304 379
#     4  10  21  42  65  86 127 162 210 262 309 371
#     4  11  22  36  62  99 129 159 202 260 315 384
#     4  12  23  36  62 100 130 161 203 254 328 374
#     4   8  24  44  68  84 124 172 216 252 318 362
#     4  12  23  36  61  99 129 164 201 256 322 381
#     4  11  22  36  61 100 130 160 200 254 326 371
#
# _framework density 18.214627
#
# number of rings (size 3 to 8) (size 9 to 14) (size 15 to 20)
#    0.923    0.308    3.077    4.615    0.000    1.231 
#    0.000    3.846    0.000    0.000    0.000    0.000 
#    0.000    0.000    0.000    0.000    0.000    0.000 
#
# Total GULP energy -322364.376899 kJ/mol
# GULP energy per Si atom -12398.629881 kJ/mol
# Density = 1.817317 g / cm^3
# Si number density = 18.214627 Si / 1000 Ang^3
#
#
#
# Elastic Constant Matrix: (Units=GPa)
#
#
# Indices 1 2 3 4 5 6 
#
# 1 89.1822 21.6105 37.8469 0.0000 -3.4851 0.0000
# 2 21.6105 91.3799 27.0052 0.0000 8.4346 0.0000
# 3 37.8469 27.0052 101.9819 0.0000 15.1758 0.0000
# 4 0.0000 0.0000 0.0000 15.8841 0.0000 -6.1201
# 5 -3.4851 8.4346 15.1758 0.0000 25.3073 0.0000
# 6 0.0000 0.0000 0.0000 -6.1201 0.0000 32.5492
#
#
#
# Elastic Compliance Matrix: (Units=1/GPa)
#
#
# Indices 1 2 3 4 5 6 
#
# 1 0.014410 -0.002305 -0.005651 0.000000 0.006141 0.000000
# 2 -0.002305 0.012361 -0.001930 0.000000 -0.003280 0.000000
# 3 -0.005651 -0.001930 0.013652 0.000000 -0.008322 0.000000
# 4 0.000000 0.000000 0.000000 0.067873 0.000000 0.012762
# 5 0.006141 -0.003280 -0.008322 0.000000 0.046443 0.000000
# 6 0.000000 0.000000 0.000000 0.012762 0.000000 0.033122
#
#
# Mechanical properties :
#
#
# Convention : Reuss Voigt Hill
#
# Bulk Modulus (GPa) = 48.42182 50.60768 49.51475
# Shear Modulus (GPa) = 23.30809 27.82022 25.56416
#
# Velocity S-wave (km/s) = 3.58108 3.91238 3.75039
# Velocity P-wave (km/s) = 6.61367 6.94646 6.78211
#
# Compressibility (1/GPa) = 0.02065185
#
# Stress axis : x y z
#
# Youngs Moduli (GPa) = 69.39782 80.89667 73.24747
#
# Poissons Ratio (x) = 0.18643 0.41394
# Poissons Ratio (y) = 0.15993 0.14137
# Poissons Ratio (z) = 0.39218 0.15613
#
# Static dielectric constant tensor:
#      x y z
#    x 3.500240 0.000000 -0.023970 
#    y 0.000000 3.416100 0.000000 
#    z -0.023970 0.000000 3.150060 
# 
# 
# High freq. dielectric constant tensor:
#      x y z
#    x 1.720190 0.000000 0.001720 
#    y 0.000000 1.712910 0.000000 
#    z 0.001720 0.000000 1.677040 
# 
# From -- ./inp_files/272295.got.cif
#   From: 2010.06.25/outbox.cif.g09.slc.cpg/sg15_137_cif.got.tgz:272295.got - 2010.06.28 07:06:18.
