data_PCOD8144045
_publ_section_title
;
Structure prediction by ZEFSAII (Michael W. Deem and Ramdas Pophale) SiO2 
 PCOD8144045
Probable space group: C 2/C
;
_chemical_formula_sum "Si O2"
_cell_formula_units_Z 56
_cell_length_a 28.308071
_cell_length_b 21.391081
_cell_length_c 11.504260
_cell_angle_alpha 90.000000
_cell_angle_beta 158.297651
_cell_angle_gamma 90.000000
_cell_volume 2576.029370
_symmetry_space_group_name_H-M "C 2/C"
_symmetry_group_IT_number 15
_symmetry_cell_setting 'monoclinic'
loop_
_space_group_symop_operation_xyz
x,y,z
-x,y,1/2-z
-x,-y,-z
x,-y,1/2+z
1/2+x,1/2+y,z
1/2-x,1/2+y,1/2-z
1/2-x,1/2-y,-z
1/2+x,1/2-y,1/2+z
loop_
_atom_site_type_symbol
_atom_site_label
_atom_site_fract_x
_atom_site_fract_y
_atom_site_fract_z
Si Si1 0.211545 0.080422 0.649529
Si Si2 0.117881 0.111997 0.193779
Si Si3 0.131796 0.817989 0.341382
Si Si4 0.799230 0.628265 0.415798
Si Si5 0.571140 0.001650 0.789270
Si Si6 0.000000 0.985888 0.250000
Si Si7 0.781306 0.202052 0.699454
Si Si8 0.000000 0.706491 0.750000
O O1 0.192895 0.078058 0.469134
O O2 0.193376 0.153058 0.641360
O O3 0.354432 0.063219 0.018678
O O4 0.114525 0.032433 0.483947
O O5 0.225960 0.148436 0.366142
O O6 0.042077 0.057918 0.952495
O O7 0.017714 0.164683 0.009796
O O8 0.195105 0.864072 0.577942
O O9 0.211326 0.833965 0.406056
O O10 0.153205 0.744246 0.425029
O O11 0.824526 0.555272 0.485093
O O12 0.930532 0.665435 0.691545
O O13 0.500000 0.015593 0.750000
O O14 0.500000 0.000000 0.500000
O O15 0.896359 0.251558 0.949618
#
# Coordination Sequence:
#
# PCOD8144045 Si02
#       8
#     8   8   8   8   8   4   8   4
#     4  12  26  43  68 104 144 176 226 292 348 418
#     4  12  22  43  67 106 135 177 233 291 352 404
#     4  10  21  41  70  94 134 176 235 276 338 414
#     4  11  22  42  68  94 130 175 233 278 338 413
#     4  12  27  45  68 100 140 186 233 283 352 430
#     4  12  23  40  74 100 143 182 232 284 356 414
#     4  10  23  41  66  99 136 184 227 280 345 410
#     4  10  21  42  66  96 129 186 236 276 340 412
#
# _framework density 21.738883000000001
#
# number of rings (size 3 to 8) (size 9 to 14) (size 15 to 20)
#    0.000    0.857    3.571    3.429    2.000    1.143 
#    0.000   10.714    0.000    0.000    0.000    0.000 
#    0.000    0.000    0.000    0.000    0.000    0.000 
#
# Total GULP energy -346958.212774 kJ/mol
# GULP energy per Si atom -12391.364742 kJ/mol
# Density = 2.168940 g / cm^3
# Si number density = 21.738883 Si / 1000 Ang^3
#
#
#
# Elastic Constant Matrix: (Units=GPa)
#
#
# Indices 1 2 3 4 5 6 
#
# 1 105.3373 44.5870 62.4182 0.0000 -11.1832 0.0000
# 2 44.5870 102.3314 48.4733 0.0000 -0.5917 0.0000
# 3 62.4182 48.4733 107.7876 0.0000 -6.4272 0.0000
# 4 0.0000 0.0000 0.0000 38.1365 0.0000 2.8190
# 5 -11.1832 -0.5917 -6.4272 0.0000 46.4990 0.0000
# 6 0.0000 0.0000 0.0000 2.8190 0.0000 29.1684
#
#
#
# Elastic Compliance Matrix: (Units=1/GPa)
#
#
# Indices 1 2 3 4 5 6 
#
# 1 0.015519 -0.003259 -0.007362 0.000000 0.002673 0.000000
# 2 -0.003259 0.013120 -0.004083 0.000000 -0.001181 0.000000
# 3 -0.007362 -0.004083 0.015395 0.000000 0.000305 0.000000
# 4 0.000000 0.000000 0.000000 0.026410 0.000000 -0.002552
# 5 0.002673 -0.001181 0.000305 0.000000 0.022176 0.000000
# 6 0.000000 0.000000 0.000000 -0.002552 0.000000 0.034530
#
#
# Mechanical properties :
#
#
# Convention : Reuss Voigt Hill
#
# Bulk Modulus (GPa) = 68.37369 69.60148 68.98758
# Shear Modulus (GPa) = 30.97261 33.42596 32.19928
#
# Velocity S-wave (km/s) = 3.77869 3.92549 3.85279
# Velocity P-wave (km/s) = 7.11045 7.25483 7.18300
#
# Compressibility (1/GPa) = 0.01462551
#
# Stress axis : x y z
#
# Youngs Moduli (GPa) = 64.43776 76.22233 64.95624
#
# Poissons Ratio (x) = 0.24842 0.47819
# Poissons Ratio (y) = 0.21001 0.26522
# Poissons Ratio (z) = 0.47437 0.31122
#
# Static dielectric constant tensor:
#      x y z
#    x 4.098750 0.000000 0.127160 
#    y 0.000000 3.952720 0.000000 
#    z 0.127160 0.000000 4.127330 
# 
# 
# High freq. dielectric constant tensor:
#      x y z
#    x 1.857350 0.000000 -0.003390 
#    y 0.000000 1.851620 0.000000 
#    z -0.003390 0.000000 1.860900 
# 
# From -- ./inp_files/127499.got.cif
#   From: 2010.06.25/outbox.cif.g09.slc.cpg/sg15_64_cif.got.tgz:127499.got - 2010.06.28 07:06:18.
