data_PCOD8144804
_publ_section_title
;
Structure prediction by ZEFSAII (Michael W. Deem and Ramdas Pophale) SiO2 
 PCOD8144804
Probable space group: C 2/C
;
_chemical_formula_sum "Si O2"
_cell_formula_units_Z 36
_cell_length_a 19.794608
_cell_length_b 14.909942
_cell_length_c 11.042407
_cell_angle_alpha 90.000000
_cell_angle_beta 31.221714
_cell_angle_gamma 90.000000
_cell_volume 1689.315112
_symmetry_space_group_name_H-M "C 2/C"
_symmetry_group_IT_number 15
_symmetry_cell_setting 'monoclinic'
loop_
_space_group_symop_operation_xyz
x,y,z
-x,y,1/2-z
-x,-y,-z
x,-y,1/2+z
1/2+x,1/2+y,z
1/2-x,1/2+y,1/2-z
1/2-x,1/2-y,-z
1/2+x,1/2-y,1/2+z
loop_
_atom_site_type_symbol
_atom_site_label
_atom_site_fract_x
_atom_site_fract_y
_atom_site_fract_z
Si Si1 0.419944 0.503905 0.497396
Si Si2 0.221400 0.650843 0.788300
Si Si3 0.702840 0.148606 0.353260
Si Si4 0.000000 0.432426 0.750000
Si Si5 0.439986 0.904166 0.188258
O O1 0.500000 0.489537 0.250000
O O2 0.500000 0.500000 0.500000
O O3 0.361907 0.604723 0.586745
O O4 0.306129 0.430213 0.672543
O O5 0.226619 0.756833 0.767411
O O6 0.152791 0.602279 0.782124
O O7 0.128166 0.629336 0.044657
O O8 0.641329 0.141341 0.579761
O O9 0.579700 0.144412 0.449785
O O10 0.024838 0.493165 0.831225
#
# Coordination Sequence:
#
# PCOD8144804 Si02
#       5
#     8   8   8   4   8
#     4  12  28  45  67 101 143 176 216 281 345 393
#     4  12  24  41  70  92 131 177 219 274 332 400
#     4  10  24  42  65 100 127 173 226 274 325 403
#     4  10  22  40  66  92 124 172 226 270 328 380
#     4  10  21  45  66  90 126 174 230 269 317 398
#
# _framework density 21.310410999999998
#
# number of rings (size 3 to 8) (size 9 to 14) (size 15 to 20)
#    0.000    1.333    4.444    2.667    7.778    0.000 
#    0.000    2.222    0.000    0.000    0.000    0.000 
#    0.000    0.000    0.000    0.000    0.000    0.000 
#
# Total GULP energy -223098.233301 kJ/mol
# GULP energy per Si atom -12394.346295 kJ/mol
# Density = 2.126191 g / cm^3
# Si number density = 21.310411 Si / 1000 Ang^3
#
#
#
# Elastic Constant Matrix: (Units=GPa)
#
#
# Indices 1 2 3 4 5 6 
#
# 1 103.0929 0.1857 33.8779 0.0000 -8.9341 0.0000
# 2 0.1857 121.5532 46.5686 0.0000 -2.4904 0.0000
# 3 33.8779 46.5686 132.6373 0.0000 -6.4915 0.0000
# 4 0.0000 0.0000 0.0000 40.0190 0.0000 -13.3142
# 5 -8.9341 -2.4904 -6.4915 0.0000 24.0615 0.0000
# 6 0.0000 0.0000 0.0000 -13.3142 0.0000 -12.1671
#
#
#
# Elastic Compliance Matrix: (Units=1/GPa)
#
#
# Indices 1 2 3 4 5 6 
#
# 1 0.011002 0.001231 -0.003077 0.000000 0.003382 0.000000
# 2 0.001231 0.009643 -0.003678 0.000000 0.000463 0.000000
# 3 -0.003077 -0.003678 0.009670 0.000000 0.001086 0.000000
# 4 0.000000 0.000000 0.000000 0.018319 0.000000 -0.020046
# 5 0.003382 0.000463 0.001086 0.000000 0.043157 0.000000
# 6 0.000000 0.000000 0.000000 -0.020046 0.000000 -0.060253
#
#
# Mechanical properties :
#
#
# Convention : Reuss Voigt Hill
#
# Bulk Modulus (GPa) = 51.89786 57.61642 54.75714
# Shear Modulus (GPa) = 102.02594 28.82608 65.42601
#
# Velocity S-wave (km/s) = 6.92676 3.68186 5.54690
# Velocity P-wave (km/s) = 9.40104 6.72088 8.17159
#
# Compressibility (1/GPa) = 0.01926862
#
# Stress axis : x y z
#
# Youngs Moduli (GPa) = 90.89255 103.69787 103.41716
#
# Poissons Ratio (x) = -0.12768 0.31820
# Poissons Ratio (y) = -0.11191 0.38033
# Poissons Ratio (z) = 0.27966 0.38136
#
# Static dielectric constant tensor:
#      x y z
#    x 3.905880 0.000000 -0.078810 
#    y 0.000000 3.724250 0.000000 
#    z -0.078810 0.000000 4.277860 
# 
# 
# High freq. dielectric constant tensor:
#      x y z
#    x 1.834150 0.000000 -0.005870 
#    y 0.000000 1.832700 0.000000 
#    z -0.005870 0.000000 1.856400 
# 
# From -- ./inp_files/85852.got.cif
#   From: 2010.06.25/outbox.cif.g09.slc.cpg/sg15_43_cif.got.tgz:85852.got - 2010.06.28 07:06:18.
