data_PCOD8144152
_publ_section_title
;
Structure prediction by ZEFSAII (Michael W. Deem and Ramdas Pophale) SiO2 
 PCOD8144152
Probable space group: C 2/C
;
_chemical_formula_sum "Si O2"
_cell_formula_units_Z 60
_cell_length_a 24.892315
_cell_length_b 5.453643
_cell_length_c 19.344859
_cell_angle_alpha 90.000000
_cell_angle_beta 82.589848
_cell_angle_gamma 90.000000
_cell_volume 2604.205460
_symmetry_space_group_name_H-M "C 2/C"
_symmetry_group_IT_number 15
_symmetry_cell_setting 'monoclinic'
loop_
_space_group_symop_operation_xyz
x,y,z
-x,y,1/2-z
-x,-y,-z
x,-y,1/2+z
1/2+x,1/2+y,z
1/2-x,1/2+y,1/2-z
1/2-x,1/2-y,-z
1/2+x,1/2-y,1/2+z
loop_
_atom_site_type_symbol
_atom_site_label
_atom_site_fract_x
_atom_site_fract_y
_atom_site_fract_z
Si Si1 0.538344 0.245579 0.438067
Si Si2 0.577007 0.904925 0.314318
Si Si3 0.630576 0.612715 0.411878
Si Si4 0.236150 0.934289 0.340149
Si Si5 0.904891 0.738142 0.315930
Si Si6 0.292843 0.435006 0.314564
Si Si7 0.078572 0.371695 0.536319
Si Si8 0.000000 0.042262 0.250000
O O1 0.573392 0.477750 0.411746
O O2 0.474744 0.306163 0.460025
O O3 0.541004 0.061968 0.372647
O O4 0.563267 0.130486 0.504311
O O5 0.629692 0.801268 0.346850
O O6 0.536734 0.698354 0.294430
O O7 0.602531 0.052819 0.246478
O O8 0.682841 0.438868 0.398079
O O9 0.628591 0.749538 0.486021
O O10 0.268168 0.683071 0.352794
O O11 0.217523 0.933764 0.264691
O O12 0.269550 0.182533 0.351562
O O13 0.857030 0.938861 0.318883
O O14 0.901997 0.589269 0.388403
O O15 0.962640 0.871374 0.303909
#
# Coordination Sequence:
#
# PCOD8144152 Si02
#       8
#     8   8   8   8   8   8   8   4
#     4  10  21  42  63  96 130 180 228 275 333 419
#     4  11  23  37  67  97 130 173 223 287 336 410
#     4  11  23  40  69  92 129 176 232 277 338 408
#     4  10  23  43  69 102 127 179 228 296 339 408
#     4  12  25  42  63 103 137 176 219 285 349 412
#     4  10  24  42  70  98 138 169 231 290 352 398
#     4  10  23  39  62  95 137 181 218 275 343 417
#     4  12  24  38  64  98 138 170 216 282 346 410
#
# _framework density 23.039657999999999
#
# number of rings (size 3 to 8) (size 9 to 14) (size 15 to 20)
#    0.000    1.333    0.000    5.600   11.200    3.200 
#    0.000    1.333    0.000    0.000    0.000    0.000 
#    0.000    0.000    0.000    0.000    0.000    0.000 
#
# Total GULP energy -372015.075347 kJ/mol
# GULP energy per Si atom -12400.502512 kJ/mol
# Density = 2.298722 g / cm^3
# Si number density = 23.039658 Si / 1000 Ang^3
#
#
#
# Elastic Constant Matrix: (Units=GPa)
#
#
# Indices 1 2 3 4 5 6 
#
# 1 96.3027 37.0981 44.8384 0.0000 -20.1297 0.0000
# 2 37.0981 106.8758 48.0605 0.0000 -10.0154 0.0000
# 3 44.8384 48.0605 139.2594 0.0000 -0.6566 0.0000
# 4 0.0000 0.0000 0.0000 25.8044 0.0000 -6.1111
# 5 -20.1297 -10.0154 -0.6566 0.0000 29.3202 0.0000
# 6 0.0000 0.0000 0.0000 -6.1111 0.0000 39.6013
#
#
#
# Elastic Compliance Matrix: (Units=1/GPa)
#
#
# Indices 1 2 3 4 5 6 
#
# 1 0.015208 -0.002617 -0.003949 0.000000 0.009459 0.000000
# 2 -0.002617 0.011942 -0.003268 0.000000 0.002209 0.000000
# 3 -0.003949 -0.003268 0.009563 0.000000 -0.003613 0.000000
# 4 0.000000 0.000000 0.000000 0.040223 0.000000 0.006207
# 5 0.009459 0.002209 -0.003613 0.000000 0.041274 0.000000
# 6 0.000000 0.000000 0.000000 0.006207 0.000000 0.026210
#
#
# Mechanical properties :
#
#
# Convention : Reuss Voigt Hill
#
# Bulk Modulus (GPa) = 58.66896 66.93686 62.80291
# Shear Modulus (GPa) = 29.45192 33.10790 31.27991
#
# Velocity S-wave (km/s) = 3.57923 3.79489 3.68863
# Velocity P-wave (km/s) = 6.52693 6.95108 6.74234
#
# Compressibility (1/GPa) = 0.01704479
#
# Stress axis : x y z
#
# Youngs Moduli (GPa) = 65.75670 83.74010 104.56750
#
# Poissons Ratio (x) = 0.21912 0.41292
# Poissons Ratio (y) = 0.17206 0.34176
# Poissons Ratio (z) = 0.25966 0.27369
#
# Static dielectric constant tensor:
#      x y z
#    x 3.980190 0.000000 -0.214360 
#    y 0.000000 4.263070 0.000000 
#    z -0.214360 0.000000 4.205310 
# 
# 
# High freq. dielectric constant tensor:
#      x y z
#    x 1.894420 0.000000 -0.012790 
#    y 0.000000 1.908880 0.000000 
#    z -0.012790 0.000000 1.907980 
# 
# From -- ./inp_files/256526.got.cif
#   From: 2010.06.25/outbox.cif.g09.slc.cpg/sg15_129_cif.got.tgz:256526.got - 2010.06.28 07:06:18.
