data_PCOD8144558
_publ_section_title
;
Structure prediction by ZEFSAII (Michael W. Deem and Ramdas Pophale) SiO2 
 PCOD8144558
Probable space group: C 2/C
;
_chemical_formula_sum "Si O2"
_cell_formula_units_Z 60
_cell_length_a 13.509812
_cell_length_b 23.512605
_cell_length_c 8.625377
_cell_angle_alpha 90.000000
_cell_angle_beta 78.083428
_cell_angle_gamma 90.000000
_cell_volume 2680.812673
_symmetry_space_group_name_H-M "C 2/C"
_symmetry_group_IT_number 15
_symmetry_cell_setting 'monoclinic'
loop_
_space_group_symop_operation_xyz
x,y,z
-x,y,1/2-z
-x,-y,-z
x,-y,1/2+z
1/2+x,1/2+y,z
1/2-x,1/2+y,1/2-z
1/2-x,1/2-y,-z
1/2+x,1/2-y,1/2+z
loop_
_atom_site_type_symbol
_atom_site_label
_atom_site_fract_x
_atom_site_fract_y
_atom_site_fract_z
Si Si1 0.702267 0.518907 0.049067
Si Si2 0.573462 0.455205 0.852162
Si Si3 0.957965 0.170320 0.101391
Si Si4 0.000000 0.541378 0.250000
Si Si5 0.070923 0.366725 0.496938
Si Si6 0.730250 0.202301 0.132349
Si Si7 0.669381 0.951266 0.268011
Si Si8 0.556105 0.767710 0.888877
O O1 0.602972 0.495648 0.985963
O O2 0.764630 0.557615 0.908767
O O3 0.671975 0.556938 0.209303
O O4 0.764768 0.465639 0.098849
O O5 0.500000 0.485907 0.750000
O O6 0.523207 0.396827 0.930690
O O7 0.838539 0.178889 0.143297
O O8 0.000000 0.192188 0.250000
O O9 0.021861 0.204957 0.952649
O O10 0.983696 0.580060 0.405556
O O11 0.904575 0.503199 0.240636
O O12 0.162998 0.346561 0.576411
O O13 0.114102 0.391255 0.320229
O O14 0.989115 0.316849 0.482696
O O15 0.675485 0.227346 0.307235
O O16 0.750000 0.250000 0.000000
O O17 0.500000 0.783348 0.750000
#
# Coordination Sequence:
#
# PCOD8144558 Si02
#       8
#     8   8   8   4   8   8   8   8
#     4  10  22  40  65  92 128 167 218 258 320 393
#     4  10  22  43  66  90 130 168 213 271 323 379
#     4  11  24  43  63 100 133 160 210 284 329 375
#     4  12  22  40  64  94 140 174 206 268 328 392
#     4  11  21  40  65  95 129 174 218 261 323 396
#     4  11  21  42  73  92 123 174 221 266 318 397
#     4  11  23  39  60  98 133 168 212 263 319 391
#     4  10  21  43  67  93 124 172 226 257 316 400
#
# _framework density 22.381274000000001
#
# number of rings (size 3 to 8) (size 9 to 14) (size 15 to 20)
#    0.000    1.333    6.000    1.600    1.867    0.533 
#    6.000    3.333    0.000    0.000    0.000    0.000 
#    0.000    0.000    0.000    0.000    0.000    0.000 
#
# Total GULP energy -371772.721630 kJ/mol
# GULP energy per Si atom -12392.424054 kJ/mol
# Density = 2.233033 g / cm^3
# Si number density = 22.381274 Si / 1000 Ang^3
#
#
#
# Elastic Constant Matrix: (Units=GPa)
#
#
# Indices 1 2 3 4 5 6 
#
# 1 54.6173 0.4706 -1.3532 0.0000 6.4457 0.0000
# 2 0.4706 97.7090 37.2471 0.0000 -11.5626 0.0000
# 3 -1.3532 37.2471 89.4014 0.0000 -21.9667 0.0000
# 4 0.0000 0.0000 0.0000 38.5597 0.0000 -7.1120
# 5 6.4457 -11.5626 -21.9667 0.0000 35.2091 0.0000
# 6 0.0000 0.0000 0.0000 -7.1120 0.0000 17.9286
#
#
#
# Elastic Compliance Matrix: (Units=1/GPa)
#
#
# Indices 1 2 3 4 5 6 
#
# 1 0.018757 -0.000350 -0.000522 0.000000 -0.003874 0.000000
# 2 -0.000350 0.012202 -0.004829 0.000000 0.001058 0.000000
# 3 -0.000522 -0.004829 0.015145 0.000000 0.007959 0.000000
# 4 0.000000 0.000000 0.000000 0.027981 0.000000 0.011100
# 5 -0.003874 0.001058 0.007959 0.000000 0.034424 0.000000
# 6 0.000000 0.000000 0.000000 0.011100 0.000000 0.060180
#
#
# Mechanical properties :
#
#
# Convention : Reuss Voigt Hill
#
# Bulk Modulus (GPa) = 28.81714 34.93962 31.87838
# Shear Modulus (GPa) = 26.08811 32.03036 29.05924
#
# Velocity S-wave (km/s) = 3.41782 3.78712 3.60720
# Velocity P-wave (km/s) = 5.33656 5.89644 5.62347
#
# Compressibility (1/GPa) = 0.03470157
#
# Stress axis : x y z
#
# Youngs Moduli (GPa) = 53.31476 81.95207 66.02832
#
# Poissons Ratio (x) = 0.02866 0.03449
# Poissons Ratio (y) = 0.01864 0.31885
# Poissons Ratio (z) = 0.02785 0.39575
#
# Static dielectric constant tensor:
#      x y z
#    x 2.471090 0.000000 -0.350290 
#    y 0.000000 3.786050 0.000000 
#    z -0.350290 0.000000 4.283350 
# 
# 
# High freq. dielectric constant tensor:
#      x y z
#    x 1.891260 0.000000 -0.017710 
#    y 0.000000 1.862870 0.000000 
#    z -0.017710 0.000000 1.882490 
# 
# From -- ./inp_files/42194.got.cif
#   From: 2010.06.25/outbox.cif.g09.slc.cpg/sg15_22_cif.got.tgz:42194.got - 2010.06.28 07:06:18.
