data_PCOD8144581
_publ_section_title
;
Structure prediction by ZEFSAII (Michael W. Deem and Ramdas Pophale) SiO2 
 PCOD8144581
Probable space group: C 2/C
;
_chemical_formula_sum "Si O2"
_cell_formula_units_Z 40
_cell_length_a 11.911720
_cell_length_b 5.348534
_cell_length_c 24.911902
_cell_angle_alpha 90.000000
_cell_angle_beta 96.353433
_cell_angle_gamma 90.000000
_cell_volume 1577.395304
_symmetry_space_group_name_H-M "C 2/C"
_symmetry_group_IT_number 15
_symmetry_cell_setting 'monoclinic'
loop_
_space_group_symop_operation_xyz
x,y,z
-x,y,1/2-z
-x,-y,-z
x,-y,1/2+z
1/2+x,1/2+y,z
1/2-x,1/2+y,1/2-z
1/2-x,1/2-y,-z
1/2+x,1/2-y,1/2+z
loop_
_atom_site_type_symbol
_atom_site_label
_atom_site_fract_x
_atom_site_fract_y
_atom_site_fract_z
Si Si1 0.403366 0.603243 0.045975
Si Si2 0.323098 0.653493 0.929019
Si Si3 0.052396 0.592876 0.626296
Si Si4 0.161829 0.704893 0.377561
Si Si5 0.764280 0.617133 0.783840
O O1 0.300388 0.791937 0.052208
O O2 0.520795 0.691599 0.080696
O O3 0.373382 0.334360 0.068578
O O4 0.414140 0.591502 0.981267
O O5 0.369358 0.880737 0.896679
O O6 0.289691 0.412617 0.890445
O O7 0.113771 0.681217 0.683791
O O8 0.933003 0.494636 0.641818
O O9 0.172019 0.892495 0.327523
O O10 0.764976 0.344119 0.757487
#
# Coordination Sequence:
#
# PCOD8144581 Si02
#       5
#     8   8   8   8   8
#     4  10  22  40  73 106 149 187 239 284 368 450
#     4  10  21  43  68 109 152 191 225 293 366 447
#     4  11  25  45  72 104 144 190 243 301 364 446
#     4  11  25  45  71 106 142 189 246 300 359 452
#     4  12  29  53  75 101 144 191 248 320 369 417
#
# _framework density 25.358260999999999
#
# number of rings (size 3 to 8) (size 9 to 14) (size 15 to 20)
#    0.000    1.200    2.000    2.400    8.400    1.600 
#    0.000    0.000    0.000    0.000    0.000    0.000 
#    0.000    0.000    0.000    0.000    0.000    0.000 
#
# Total GULP energy -248018.324846 kJ/mol
# GULP energy per Si atom -12400.916242 kJ/mol
# Density = 2.530054 g / cm^3
# Si number density = 25.358261 Si / 1000 Ang^3
#
#
#
# Elastic Constant Matrix: (Units=GPa)
#
#
# Indices 1 2 3 4 5 6 
#
# 1 99.9460 10.9299 47.5399 0.0000 33.7787 0.0000
# 2 10.9299 96.0659 33.5825 0.0000 12.4335 0.0000
# 3 47.5399 33.5825 127.3440 0.0000 26.8858 0.0000
# 4 0.0000 0.0000 0.0000 53.8871 0.0000 2.1426
# 5 33.7787 12.4335 26.8858 0.0000 48.3262 0.0000
# 6 0.0000 0.0000 0.0000 2.1426 0.0000 44.2892
#
#
#
# Elastic Compliance Matrix: (Units=1/GPa)
#
#
# Indices 1 2 3 4 5 6 
#
# 1 0.014548 0.000770 -0.003904 0.000000 -0.008195 0.000000
# 2 0.000770 0.011596 -0.002948 0.000000 -0.001882 0.000000
# 3 -0.003904 -0.002948 0.010596 0.000000 -0.002408 0.000000
# 4 0.000000 0.000000 0.000000 0.018593 0.000000 -0.000900
# 5 -0.008195 -0.001882 -0.002408 0.000000 0.028244 0.000000
# 6 0.000000 0.000000 0.000000 -0.000900 0.000000 0.022622
#
#
# Mechanical properties :
#
#
# Convention : Reuss Voigt Hill
#
# Bulk Modulus (GPa) = 40.69077 56.38449 48.53763
# Shear Modulus (GPa) = 39.50841 44.72074 42.11458
#
# Velocity S-wave (km/s) = 3.95145 4.20403 4.07969
# Velocity P-wave (km/s) = 6.07452 6.77116 6.43227
#
# Compressibility (1/GPa) = 0.02457560
#
# Stress axis : x y z
#
# Youngs Moduli (GPa) = 68.73967 86.23605 94.37523
#
# Poissons Ratio (x) = -0.06642 0.36843
# Poissons Ratio (y) = -0.05294 0.27825
# Poissons Ratio (z) = 0.26835 0.25425
#
# Static dielectric constant tensor:
#      x y z
#    x 4.851080 0.000000 0.306230 
#    y 0.000000 4.477720 0.000000 
#    z 0.306230 0.000000 4.619340 
# 
# 
# High freq. dielectric constant tensor:
#      x y z
#    x 2.045420 0.000000 0.012660 
#    y 0.000000 2.014870 0.000000 
#    z 0.012660 0.000000 2.012470 
# 
# From -- ./inp_files/290598.got.cif
#   From: 2010.06.25/outbox.cif.g09.slc.cpg/sg15_146_cif.got.tgz:290598.got - 2010.06.28 07:06:18.
