data_PCOD8144413
_publ_section_title
;
Structure prediction by ZEFSAII (Michael W. Deem and Ramdas Pophale) SiO2 
 PCOD8144413
Probable space group: C 2/C
;
_chemical_formula_sum "Si O2"
_cell_formula_units_Z 52
_cell_length_a 12.771808
_cell_length_b 24.941754
_cell_length_c 9.205352
_cell_angle_alpha 90.000000
_cell_angle_beta 52.596749
_cell_angle_gamma 90.000000
_cell_volume 2329.421929
_symmetry_space_group_name_H-M "C 2/C"
_symmetry_group_IT_number 15
_symmetry_cell_setting 'monoclinic'
loop_
_space_group_symop_operation_xyz
x,y,z
-x,y,1/2-z
-x,-y,-z
x,-y,1/2+z
1/2+x,1/2+y,z
1/2-x,1/2+y,1/2-z
1/2-x,1/2-y,-z
1/2+x,1/2-y,1/2+z
loop_
_atom_site_type_symbol
_atom_site_label
_atom_site_fract_x
_atom_site_fract_y
_atom_site_fract_z
Si Si1 0.500000 0.392992 0.250000
Si Si2 0.190765 0.335436 0.107302
Si Si3 0.772668 0.442839 0.043869
Si Si4 0.482784 0.204866 0.991731
Si Si5 0.000000 0.636596 0.250000
Si Si6 0.000000 0.905841 0.750000
Si Si7 0.025090 0.173438 0.007625
Si Si8 0.255283 0.950485 0.404394
O O1 0.628277 0.428004 0.101598
O O2 0.449668 0.354710 0.165313
O O3 0.341505 0.323173 0.011274
O O4 0.167107 0.398854 0.098811
O O5 0.111418 0.322759 0.319815
O O6 0.140647 0.300391 0.013929
O O7 0.764582 0.453378 0.222455
O O8 0.880025 0.398253 0.913159
O O9 0.817887 0.497005 0.924113
O O10 0.443028 0.176013 0.174372
O O11 0.525463 0.266776 0.977078
O O12 0.932715 0.865802 0.684408
O O13 0.103259 0.944481 0.582934
#
# Coordination Sequence:
#
# PCOD8144413 Si02
#       8
#     4   8   8   8   4   4   8   8
#     4  12  24  46  70 106 152 168 230 304 336 426
#     4  10  22  45  64  98 141 174 237 290 327 432
#     4  12  28  46  72 101 144 181 239 286 358 411
#     4  11  23  42  71  96 142 187 229 281 348 411
#     4  12  27  48  68 106 142 190 233 286 346 418
#     4  10  21  42  70  98 140 170 231 278 348 414
#     4  11  23  41  69 107 136 181 230 284 350 414
#     4  11  25  46  68 103 136 180 231 292 346 418
#
# _framework density 22.323134
#
# number of rings (size 3 to 8) (size 9 to 14) (size 15 to 20)
#    0.000    0.923    4.615    2.308    4.308    6.769 
#    0.000    3.077    0.000    0.000    0.000    0.000 
#    0.000    0.000    0.000    0.000    0.000    0.000 
#
# Total GULP energy -322312.837982 kJ/mol
# GULP energy per Si atom -12396.647615 kJ/mol
# Density = 2.227233 g / cm^3
# Si number density = 22.323134 Si / 1000 Ang^3
#
#
#
# Elastic Constant Matrix: (Units=GPa)
#
#
# Indices 1 2 3 4 5 6 
#
# 1 50.5713 12.6383 28.5169 0.0000 4.4277 0.0000
# 2 12.6383 123.0101 31.7411 0.0000 17.4332 0.0000
# 3 28.5169 31.7411 123.7856 0.0000 22.3984 0.0000
# 4 0.0000 0.0000 0.0000 21.9402 0.0000 -1.5510
# 5 4.4277 17.4332 22.3984 0.0000 34.0836 0.0000
# 6 0.0000 0.0000 0.0000 -1.5510 0.0000 19.2365
#
#
#
# Elastic Compliance Matrix: (Units=1/GPa)
#
#
# Indices 1 2 3 4 5 6 
#
# 1 0.022884 -0.001164 -0.005156 0.000000 0.001011 0.000000
# 2 -0.001164 0.009124 -0.001424 0.000000 -0.003580 0.000000
# 3 -0.005156 -0.001424 0.010644 0.000000 -0.005597 0.000000
# 4 0.000000 0.000000 0.000000 0.045840 0.000000 0.003696
# 5 0.001011 -0.003580 -0.005597 0.000000 0.034717 0.000000
# 6 0.000000 0.000000 0.000000 0.003696 0.000000 0.052283
#
#
# Mechanical properties :
#
#
# Convention : Reuss Voigt Hill
#
# Bulk Modulus (GPa) = 36.81329 49.23996 43.02663
# Shear Modulus (GPa) = 24.99575 30.01679 27.50627
#
# Velocity S-wave (km/s) = 3.34986 3.67092 3.51406
# Velocity P-wave (km/s) = 5.61150 6.33035 5.98173
#
# Compressibility (1/GPa) = 0.02716410
#
# Stress axis : x y z
#
# Youngs Moduli (GPa) = 43.69852 109.60490 93.94821
#
# Poissons Ratio (x) = 0.12757 0.48443
# Poissons Ratio (y) = 0.05086 0.13374
# Poissons Ratio (z) = 0.22533 0.15603
#
# Static dielectric constant tensor:
#      x y z
#    x 3.747950 0.000000 0.154920 
#    y 0.000000 4.294390 0.000000 
#    z 0.154920 0.000000 4.238480 
# 
# 
# High freq. dielectric constant tensor:
#      x y z
#    x 1.854660 0.000000 0.008350 
#    y 0.000000 1.896440 0.000000 
#    z 0.008350 0.000000 1.893040 
# 
# From -- ./inp_files/43420.got.cif
#   From: 2010.06.25/outbox.cif.g09.slc.cpg/sg15_22_cif.got.tgz:43420.got - 2010.06.28 07:06:18.
