data_PCOD8144641
_publ_section_title
;
Structure prediction by ZEFSAII (Michael W. Deem and Ramdas Pophale) SiO2 
 PCOD8144641
Probable space group: C 2/C
;
_chemical_formula_sum "Si O2"
_cell_formula_units_Z 60
_cell_length_a 21.985436
_cell_length_b 8.589446
_cell_length_c 17.068086
_cell_angle_alpha 90.000000
_cell_angle_beta 62.165356
_cell_angle_gamma 90.000000
_cell_volume 2850.257521
_symmetry_space_group_name_H-M "C 2/C"
_symmetry_group_IT_number 15
_symmetry_cell_setting 'monoclinic'
loop_
_space_group_symop_operation_xyz
x,y,z
-x,y,1/2-z
-x,-y,-z
x,-y,1/2+z
1/2+x,1/2+y,z
1/2-x,1/2+y,1/2-z
1/2-x,1/2-y,-z
1/2+x,1/2-y,1/2+z
loop_
_atom_site_type_symbol
_atom_site_label
_atom_site_fract_x
_atom_site_fract_y
_atom_site_fract_z
Si Si1 0.918894 0.763196 0.892606
Si Si2 0.500000 0.020066 0.750000
Si Si3 0.917005 0.285837 0.698957
Si Si4 0.530721 0.438474 0.061536
Si Si5 0.215592 0.148969 0.087579
Si Si6 0.306328 0.699536 0.881498
Si Si7 0.149185 0.385880 0.920020
Si Si8 0.343736 0.221439 0.521472
O O1 0.969592 0.627196 0.836866
O O2 0.861397 0.781085 0.857549
O O3 0.958685 0.925750 0.880887
O O4 0.886557 0.728890 0.996896
O O5 0.441803 0.916675 0.744343
O O6 0.858388 0.184521 0.777592
O O7 0.880987 0.365204 0.647187
O O8 0.980653 0.182037 0.634362
O O9 0.500000 0.500000 0.000000
O O10 0.601779 0.356411 0.993549
O O11 0.267877 0.150945 0.130653
O O12 0.206750 0.968204 0.069809
O O13 0.250000 0.250000 0.000000
O O14 0.232039 0.768113 0.899167
O O15 0.338521 0.806618 0.930587
O O16 0.131233 0.561523 0.955283
#
# Coordination Sequence:
#
# PCOD8144641 Si02
#       8
#     8   4   8   8   8   8   8   8
#     4  11  23  44  65 103 132 180 229 283 347 413
#     4  12  30  42  66  98 142 188 226 288 340 428
#     4  12  26  46  66 103 143 184 233 285 351 413
#     4  12  25  42  72 101 137 182 228 286 348 423
#     4   9  20  41  71  98 127 172 226 286 341 405
#     4  10  21  43  71 100 132 180 236 285 337 412
#     4  10  22  44  68  97 137 175 233 278 346 417
#     4  10  22  43  73  96 130 187 228 280 349 411
#
# _framework density 21.050729
#
# number of rings (size 3 to 8) (size 9 to 14) (size 15 to 20)
#    0.000    1.333    2.667    2.400    3.733    2.133 
#    9.600    0.000    0.000    0.000    0.000    0.000 
#    0.000    0.000    0.000    0.000    0.000    0.000 
#
# Total GULP energy -371846.963079 kJ/mol
# GULP energy per Si atom -12394.898769 kJ/mol
# Density = 2.100282 g / cm^3
# Si number density = 21.050729 Si / 1000 Ang^3
#
#
#
# Elastic Constant Matrix: (Units=GPa)
#
#
# Indices 1 2 3 4 5 6 
#
# 1 143.8519 57.4714 46.0622 0.0001 1.2141 0.0001
# 2 57.4714 116.9381 40.8179 0.0001 1.4866 0.0002
# 3 46.0622 40.8179 80.6557 0.0000 -6.3949 0.0001
# 4 0.0001 0.0001 0.0000 28.2057 0.0000 0.0726
# 5 1.2141 1.4866 -6.3949 0.0000 34.9704 0.0000
# 6 0.0001 0.0002 0.0001 0.0726 0.0000 36.4472
#
#
#
# Elastic Compliance Matrix: (Units=1/GPa)
#
#
# Indices 1 2 3 4 5 6 
#
# 1 0.009512 -0.003331 -0.003817 0.000000 -0.000887 0.000000
# 2 -0.003331 0.011623 -0.004069 0.000000 -0.001122 0.000000
# 3 -0.003817 -0.004069 0.016907 0.000000 0.003397 0.000000
# 4 0.000000 0.000000 0.000000 0.035454 0.000000 -0.000071
# 5 -0.000887 -0.001122 0.003397 0.000000 0.029295 0.000000
# 6 0.000000 0.000000 0.000000 -0.000071 0.000000 0.027437
#
#
# Mechanical properties :
#
#
# Convention : Reuss Voigt Hill
#
# Bulk Modulus (GPa) = 64.06844 70.01651 67.04248
# Shear Modulus (GPa) = 31.67266 33.06427 32.36846
#
# Velocity S-wave (km/s) = 3.88311 3.96750 3.92553
# Velocity P-wave (km/s) = 7.11379 7.37029 7.24317
#
# Compressibility (1/GPa) = 0.01560831
#
# Stress axis : x y z
#
# Youngs Moduli (GPa) = 105.12845 86.03411 59.14877
#
# Poissons Ratio (x) = 0.28662 0.22575
# Poissons Ratio (y) = 0.35023 0.24066
# Poissons Ratio (z) = 0.40125 0.35005
#
# Static dielectric constant tensor:
#      x y z
#    x 4.222950 0.000000 -0.222570 
#    y 0.000000 3.846480 0.000000 
#    z -0.222570 0.000000 3.541160 
# 
# 
# High freq. dielectric constant tensor:
#      x y z
#    x 1.846880 0.000000 -0.013700 
#    y 0.000000 1.831210 0.000000 
#    z -0.013700 0.000000 1.795170 
# 
# From -- ./inp_files/218589.got.cif
#   From: 2010.06.25/outbox.cif.g09.slc.cpg/sg15_110_cif.got.tgz:218589.got - 2010.06.28 07:06:18.
