data_PCOD8144944
_publ_section_title
;
Structure prediction by ZEFSAII (Michael W. Deem and Ramdas Pophale) SiO2 
 PCOD8144944
Probable space group: C 2/C
;
_chemical_formula_sum "Si O2"
_cell_formula_units_Z 64
_cell_length_a 27.375906
_cell_length_b 16.576144
_cell_length_c 20.682657
_cell_angle_alpha 90.000000
_cell_angle_beta 18.838088
_cell_angle_gamma 90.000000
_cell_volume 3030.536739
_symmetry_space_group_name_H-M "C 2/C"
_symmetry_group_IT_number 15
_symmetry_cell_setting 'monoclinic'
loop_
_space_group_symop_operation_xyz
x,y,z
-x,y,1/2-z
-x,-y,-z
x,-y,1/2+z
1/2+x,1/2+y,z
1/2-x,1/2+y,1/2-z
1/2-x,1/2-y,-z
1/2+x,1/2-y,1/2+z
loop_
_atom_site_type_symbol
_atom_site_label
_atom_site_fract_x
_atom_site_fract_y
_atom_site_fract_z
Si Si1 0.324795 0.315620 0.318068
Si Si2 0.385898 0.172778 0.078744
Si Si3 0.536656 0.067291 0.777800
Si Si4 0.362054 0.916979 0.041521
Si Si5 0.327646 0.522741 0.477850
Si Si6 0.588807 0.765890 0.436144
Si Si7 0.322275 0.010572 0.209641
Si Si8 0.169675 0.164102 0.541763
O O1 0.252947 0.388329 0.368663
O O2 0.261275 0.225685 0.380442
O O3 0.279018 0.332698 0.448383
O O4 0.501415 0.310450 0.078104
O O5 0.265306 0.241581 0.208829
O O6 0.296616 0.106569 0.234430
O O7 0.455563 0.130584 0.927315
O O8 0.521612 0.214237 0.949301
O O9 0.500000 0.092684 0.750000
O O10 0.487707 0.974822 0.852177
O O11 0.718975 0.066259 0.561636
O O12 0.439065 0.841418 0.980944
O O13 0.269393 0.968938 0.209564
O O14 0.500000 0.550909 0.250000
O O15 0.271304 0.541596 0.620733
O O16 0.311132 0.426874 0.503382
O O17 0.500000 0.000000 0.000000
O O18 0.000000 0.195217 0.750000
#
# Coordination Sequence:
#
# PCOD8144944 Si02
#       8
#     8   8   8   8   8   8   8   8
#     4  11  22  35  55  95 128 169 206 263 315 388
#     4  11  24  42  68  95 130 176 220 271 332 394
#     4  11  23  46  66  93 130 175 220 270 334 392
#     4  11  21  37  68  95 123 170 220 268 323 391
#     4  11  22  38  64  93 124 171 218 266 317 395
#     4  12  22  39  66  97 131 165 223 268 326 389
#     4  11  20  42  67  90 129 179 219 263 331 406
#     4  10  22  35  54  87 136 170 204 246 326 395
#
# _framework density 21.118371
#
# number of rings (size 3 to 8) (size 9 to 14) (size 15 to 20)
#    0.000    1.000    5.000    3.000    3.500    2.500 
#    2.250    1.875    0.000    0.750    0.000    0.000 
#    0.000    0.000    0.000    0.000    0.000    0.000 
#
# Total GULP energy -396622.630297 kJ/mol
# GULP energy per Si atom -12394.457197 kJ/mol
# Density = 2.107030 g / cm^3
# Si number density = 21.118371 Si / 1000 Ang^3
#
#
#
# Elastic Constant Matrix: (Units=GPa)
#
#
# Indices 1 2 3 4 5 6 
#
# 1 109.9787 23.4931 31.6568 -0.0044 -4.4187 0.0037
# 2 23.4931 57.4134 13.6187 -0.0173 -9.1983 0.0174
# 3 31.6568 13.6187 92.2678 -0.0071 -4.0474 0.0084
# 4 -0.0044 -0.0173 -0.0071 21.0854 0.0049 -1.4033
# 5 -4.4187 -9.1983 -4.0474 0.0049 30.4523 -0.0039
# 6 0.0037 0.0174 0.0084 -1.4033 -0.0039 26.7764
#
#
#
# Elastic Compliance Matrix: (Units=1/GPa)
#
#
# Indices 1 2 3 4 5 6 
#
# 1 0.010785 -0.003657 -0.003159 -0.000002 0.000040 0.000002
# 2 -0.003657 0.020123 -0.001481 0.000013 0.005351 -0.000011
# 3 -0.003159 -0.001481 0.012172 0.000002 0.000712 -0.000002
# 4 -0.000002 0.000013 0.000002 0.047592 -0.000003 0.002494
# 5 0.000040 0.005351 0.000712 -0.000003 0.034555 0.000001
# 6 0.000002 -0.000011 -0.000002 0.002494 0.000001 0.037477
#
#
# Mechanical properties :
#
#
# Convention : Reuss Voigt Hill
#
# Bulk Modulus (GPa) = 37.75611 44.13302 40.94457
# Shear Modulus (GPa) = 26.57812 28.38889 27.48351
#
# Velocity S-wave (km/s) = 3.55143 3.67041 3.61141
# Velocity P-wave (km/s) = 5.89355 6.23746 6.06794
#
# Compressibility (1/GPa) = 0.02648578
#
# Stress axis : x y z
#
# Youngs Moduli (GPa) = 92.72356 49.69556 82.15910
#
# Poissons Ratio (x) = 0.18175 0.25951
# Poissons Ratio (y) = 0.33912 0.12164
# Poissons Ratio (z) = 0.29288 0.07358
#
# Static dielectric constant tensor:
#      x y z
#    x 4.072710 -0.000010 0.048890 
#    y -0.000010 3.774790 0.000010 
#    z 0.048890 0.000010 3.751450 
# 
# 
# High freq. dielectric constant tensor:
#      x y z
#    x 1.836460 0.000000 -0.001500 
#    y 0.000000 1.809810 0.000000 
#    z -0.001500 0.000000 1.813940 
# 
# From -- ./inp_files/258037.got.cif
#   From: 2010.06.25/outbox.cif.g09.slc.cpg/sg15_130_cif.got.tgz:258037.got - 2010.06.28 07:06:18.
