data_PCOD8144782
_publ_section_title
;
Structure prediction by ZEFSAII (Michael W. Deem and Ramdas Pophale) SiO2 
 PCOD8144782
Probable space group: C 2/C
;
_chemical_formula_sum "Si O2"
_cell_formula_units_Z 48
_cell_length_a 9.052994
_cell_length_b 28.481247
_cell_length_c 15.409625
_cell_angle_alpha 90.000000
_cell_angle_beta 145.236963
_cell_angle_gamma 90.000000
_cell_volume 2265.468896
_symmetry_space_group_name_H-M "C 2/C"
_symmetry_group_IT_number 15
_symmetry_cell_setting 'monoclinic'
loop_
_space_group_symop_operation_xyz
x,y,z
-x,y,1/2-z
-x,-y,-z
x,-y,1/2+z
1/2+x,1/2+y,z
1/2-x,1/2+y,1/2-z
1/2-x,1/2-y,-z
1/2+x,1/2-y,1/2+z
loop_
_atom_site_type_symbol
_atom_site_label
_atom_site_fract_x
_atom_site_fract_y
_atom_site_fract_z
Si Si1 0.500000 0.742473 0.750000
Si Si2 0.714554 0.483602 0.717328
Si Si3 0.000000 0.834563 0.750000
Si Si4 0.059282 0.589975 0.450419
Si Si5 0.277454 0.587645 0.039448
Si Si6 0.987036 0.303854 0.572325
Si Si7 0.500000 0.055372 0.750000
Si Si8 0.500000 0.543754 0.750000
O O1 0.245042 0.711696 0.604617
O O2 0.538604 0.773088 0.682304
O O3 0.435462 0.458605 0.586741
O O4 0.760145 0.521211 0.662264
O O5 0.723405 0.513295 0.811096
O O6 0.943915 0.445032 0.822371
O O7 0.963195 0.867178 0.644955
O O8 0.750148 0.801832 0.642734
O O9 0.065827 0.643331 0.420891
O O10 0.355919 0.576273 0.610368
O O11 0.875707 0.582805 0.445046
O O12 0.077613 0.591932 0.863546
#
# Coordination Sequence:
#
# PCOD8144782 Si02
#       8
#     4   8   4   8   8   8   4   4
#     4  10  23  45  70 103 134 146 203 266 340 392
#     4  12  21  38  58  83 123 174 216 262 298 356
#     4  10  21  44  72  84 124 174 211 239 318 391
#     4  11  21  38  65  86 119 174 218 242 309 377
#     4  11  20  41  56  83 121 165 212 263 300 361
#     4  10  22  44  70  98 129 165 199 267 322 395
#     4  12  26  33  52  93 129 159 218 275 313 324
#     4  12  20  34  60  86 121 175 222 248 287 369
#
# _framework density 21.187667999999999
#
# number of rings (size 3 to 8) (size 9 to 14) (size 15 to 20)
#    0.000    1.000    6.667    2.500    0.000    1.333 
#    3.000    3.333    0.000    0.000    0.000    0.000 
#    0.000    0.000    0.000    0.000    0.000    0.000 
#
# Total GULP energy -297351.641117 kJ/mol
# GULP energy per Si atom -12389.651713 kJ/mol
# Density = 2.113944 g / cm^3
# Si number density = 21.187668 Si / 1000 Ang^3
#
#
#
# Elastic Constant Matrix: (Units=GPa)
#
#
# Indices 1 2 3 4 5 6 
#
# 1 70.1142 34.8429 31.5251 0.0000 2.4278 0.0000
# 2 34.8429 100.0917 52.0774 0.0000 6.1366 0.0000
# 3 31.5251 52.0774 121.1467 0.0000 -1.5540 0.0000
# 4 0.0000 0.0000 0.0000 26.3832 0.0000 5.5592
# 5 2.4278 6.1366 -1.5540 0.0000 31.4476 0.0000
# 6 0.0000 0.0000 0.0000 5.5592 0.0000 31.0245
#
#
#
# Elastic Compliance Matrix: (Units=1/GPa)
#
#
# Indices 1 2 3 4 5 6 
#
# 1 0.017842 -0.004840 -0.002570 0.000000 -0.000560 0.000000
# 2 -0.004840 0.014431 -0.004978 0.000000 -0.002688 0.000000
# 3 -0.002570 -0.004978 0.011085 0.000000 0.001718 0.000000
# 4 0.000000 0.000000 0.000000 0.039390 0.000000 -0.007058
# 5 -0.000560 -0.002688 0.001718 0.000000 0.032452 0.000000
# 6 0.000000 0.000000 0.000000 -0.007058 0.000000 0.033497
#
#
# Mechanical properties :
#
#
# Convention : Reuss Voigt Hill
#
# Bulk Modulus (GPa) = 53.81387 58.69371 56.25379
# Shear Modulus (GPa) = 27.82923 29.29821 28.56372
#
# Velocity S-wave (km/s) = 3.62811 3.72263 3.67567
# Velocity P-wave (km/s) = 6.55780 6.79995 6.67997
#
# Compressibility (1/GPa) = 0.01858257
#
# Stress axis : x y z
#
# Youngs Moduli (GPa) = 56.04645 69.29684 90.21004
#
# Poissons Ratio (x) = 0.33538 0.23181
# Poissons Ratio (y) = 0.27125 0.44910
# Poissons Ratio (z) = 0.14402 0.34499
#
# Static dielectric constant tensor:
#      x y z
#    x 3.660090 0.000000 0.160120 
#    y 0.000000 3.809420 0.000000 
#    z 0.160120 0.000000 3.971940 
# 
# 
# High freq. dielectric constant tensor:
#      x y z
#    x 1.817230 0.000000 0.013330 
#    y 0.000000 1.810520 0.000000 
#    z 0.013330 0.000000 1.841690 
# 
# From -- ./inp_files/80609.got.cif
#   From: 2010.06.25/outbox.cif.g09.slc.cpg/sg15_41_cif.got.tgz:80609.got - 2010.06.28 07:06:18.
