data_PCOD8144115
_publ_section_title
;
Structure prediction by ZEFSAII (Michael W. Deem and Ramdas Pophale) SiO2 
 PCOD8144115
Probable space group: C 2/C
;
_chemical_formula_sum "Si O2"
_cell_formula_units_Z 56
_cell_length_a 14.650421
_cell_length_b 13.333248
_cell_length_c 17.579269
_cell_angle_alpha 90.000000
_cell_angle_beta 52.585499
_cell_angle_gamma 90.000000
_cell_volume 2727.407581
_symmetry_space_group_name_H-M "C 2/C"
_symmetry_group_IT_number 15
_symmetry_cell_setting 'monoclinic'
loop_
_space_group_symop_operation_xyz
x,y,z
-x,y,1/2-z
-x,-y,-z
x,-y,1/2+z
1/2+x,1/2+y,z
1/2-x,1/2+y,1/2-z
1/2-x,1/2-y,-z
1/2+x,1/2-y,1/2+z
loop_
_atom_site_type_symbol
_atom_site_label
_atom_site_fract_x
_atom_site_fract_y
_atom_site_fract_z
Si Si1 0.217397 0.593581 0.206605
Si Si2 0.563049 0.974739 0.389682
Si Si3 0.759860 0.696813 0.726860
Si Si4 0.856502 0.039735 0.385030
Si Si5 0.368073 0.240179 0.826967
Si Si6 0.342169 0.035818 0.905773
Si Si7 0.601213 0.521612 0.805426
O O1 0.140983 0.566774 0.320174
O O2 0.224631 0.712970 0.187855
O O3 0.162504 0.542794 0.160500
O O4 0.345538 0.551748 0.157814
O O5 0.641462 0.874981 0.358010
O O6 0.470326 0.956042 0.371492
O O7 0.500000 0.000000 0.500000
O O8 0.806118 0.755262 0.777604
O O9 0.643565 0.634226 0.803749
O O10 0.861166 0.160456 0.381740
O O11 0.743637 0.000338 0.484440
O O12 0.850404 0.000846 0.302862
O O13 0.964523 0.992747 0.375773
O O14 0.500000 0.210795 0.750000
O O15 0.303863 0.146668 0.898736
#
# Coordination Sequence:
#
# PCOD8144115 Si02
#       7
#     8   8   8   8   8   8   8
#     4  11  22  43  65  93 135 166 217 271 327 386
#     4  11  24  44  68  93 130 174 220 269 328 395
#     4  11  22  41  69  94 125 173 216 264 330 385
#     4  11  23  40  63  91 131 169 210 263 334 384
#     4  12  19  39  67  95 126 162 216 269 328 382
#     4  12  23  40  64  99 128 166 217 275 320 390
#     4  10  21  42  62  87 129 172 208 265 322 392
#
# _framework density 20.532318
#
# number of rings (size 3 to 8) (size 9 to 14) (size 15 to 20)
#    0.000    0.857    7.143    2.571    0.000    0.571 
#    7.714    1.429    0.000    0.000    0.000    0.000 
#    0.000    0.000    0.000    0.000    0.000    0.000 
#
# Total GULP energy -347162.620974 kJ/mol
# GULP energy per Si atom -12398.665035 kJ/mol
# Density = 2.048559 g / cm^3
# Si number density = 20.532318 Si / 1000 Ang^3
#
#
#
# Elastic Constant Matrix: (Units=GPa)
#
#
# Indices 1 2 3 4 5 6 
#
# 1 88.5569 51.6655 10.5888 0.0000 -4.5574 0.0000
# 2 51.6655 144.4935 23.8575 0.0000 -8.3375 0.0000
# 3 10.5888 23.8575 67.6016 0.0000 -10.8904 0.0000
# 4 0.0000 0.0000 0.0000 15.7928 0.0000 -0.5851
# 5 -4.5574 -8.3375 -10.8904 0.0000 27.0365 0.0000
# 6 0.0000 0.0000 0.0000 -0.5851 0.0000 24.5019
#
#
#
# Elastic Compliance Matrix: (Units=1/GPa)
#
#
# Indices 1 2 3 4 5 6 
#
# 1 0.014295 -0.005011 -0.000354 0.000000 0.000722 0.000000
# 2 -0.005011 0.009149 -0.002273 0.000000 0.001061 0.000000
# 3 -0.000354 -0.002273 0.016605 0.000000 0.005928 0.000000
# 4 0.000000 0.000000 0.000000 0.063376 0.000000 0.001513
# 5 0.000722 0.001061 0.005928 0.000000 0.039824 0.000000
# 6 0.000000 0.000000 0.000000 0.001513 0.000000 0.040849
#
#
# Mechanical properties :
#
#
# Convention : Reuss Voigt Hill
#
# Bulk Modulus (GPa) = 40.36753 52.54174 46.45463
# Shear Modulus (GPa) = 24.08088 27.76891 25.92489
#
# Velocity S-wave (km/s) = 3.42837 3.68156 3.55722
# Velocity P-wave (km/s) = 5.94767 6.61189 6.28856
#
# Compressibility (1/GPa) = 0.02477239
#
# Stress axis : x y z
#
# Youngs Moduli (GPa) = 69.95263 109.30019 60.22213
#
# Poissons Ratio (x) = 0.54774 0.02134
# Poissons Ratio (y) = 0.35056 0.13688
# Poissons Ratio (z) = 0.02479 0.24843
#
# Static dielectric constant tensor:
#      x y z
#    x 3.923510 0.000000 -0.045250 
#    y 0.000000 3.641750 0.000000 
#    z -0.045250 0.000000 3.487220 
# 
# 
# High freq. dielectric constant tensor:
#      x y z
#    x 1.819830 0.000000 -0.004530 
#    y 0.000000 1.796800 0.000000 
#    z -0.004530 0.000000 1.779720 
# 
# From -- ./inp_files/205325.got.cif
#   From: 2010.06.25/outbox.cif.g09.slc.cpg/sg15_103_cif.got.tgz:205325.got - 2010.06.28 07:06:18.
