data_PCOD8144986
_publ_section_title
;
Structure prediction by ZEFSAII (Michael W. Deem and Ramdas Pophale) SiO2 
 PCOD8144986
Probable space group: C 2/C
;
_chemical_formula_sum "Si O2"
_cell_formula_units_Z 56
_cell_length_a 16.722628
_cell_length_b 17.323076
_cell_length_c 19.640059
_cell_angle_alpha 90.000000
_cell_angle_beta 151.672463
_cell_angle_gamma 90.000000
_cell_volume 2699.721136
_symmetry_space_group_name_H-M "C 2/C"
_symmetry_group_IT_number 15
_symmetry_cell_setting 'monoclinic'
loop_
_space_group_symop_operation_xyz
x,y,z
-x,y,1/2-z
-x,-y,-z
x,-y,1/2+z
1/2+x,1/2+y,z
1/2-x,1/2+y,1/2-z
1/2-x,1/2-y,-z
1/2+x,1/2-y,1/2+z
loop_
_atom_site_type_symbol
_atom_site_label
_atom_site_fract_x
_atom_site_fract_y
_atom_site_fract_z
Si Si1 0.546623 0.396620 0.691770
Si Si2 0.069076 0.601505 0.726921
Si Si3 0.324510 0.675394 0.342986
Si Si4 0.752541 0.461406 0.332457
Si Si5 0.935552 0.550127 0.349617
Si Si6 0.258467 0.330659 0.545035
Si Si7 0.664067 0.670919 0.666560
O O1 0.578471 0.378117 0.637865
O O2 0.609699 0.482819 0.757661
O O3 0.347319 0.391539 0.559142
O O4 0.636870 0.329997 0.805935
O O5 0.072546 0.509360 0.719461
O O6 0.245872 0.639016 0.835206
O O7 0.000000 0.624178 0.750000
O O8 0.925264 0.638499 0.570388
O O9 0.163097 0.626977 0.249041
O O10 0.467235 0.690865 0.506837
O O11 0.262399 0.754019 0.264166
O O12 0.852330 0.513031 0.353477
O O13 0.667677 0.389833 0.230744
O O14 0.872649 0.430736 0.483672
O O15 0.250000 0.250000 0.500000
#
# Coordination Sequence:
#
# PCOD8144986 Si02
#       7
#     8   8   8   8   8   8   8
#     4  10  22  36  58  78 122 161 203 234 289 354
#     4  11  23  35  57  87 123 163 195 236 295 362
#     4  11  23  37  57  87 114 155 199 258 302 348
#     4   9  18  38  59  81 110 157 204 252 291 349
#     4   9  19  37  59  80 115 153 203 245 296 350
#     4  11  23  35  51  86 123 164 194 229 284 359
#     4  11  24  37  60  87 119 155 203 252 307 354
#
# _framework density 20.742884
#
# number of rings (size 3 to 8) (size 9 to 14) (size 15 to 20)
#    0.000    1.714    1.429    2.571   10.000    6.286 
#    0.000    0.000    0.000    0.000    3.714    3.000 
#    0.000    0.000    0.000    0.000    0.000    0.000 
#
# Total GULP energy -347035.390048 kJ/mol
# GULP energy per Si atom -12394.121073 kJ/mol
# Density = 2.069567 g / cm^3
# Si number density = 20.742884 Si / 1000 Ang^3
#
#
#
# Elastic Constant Matrix: (Units=GPa)
#
#
# Indices 1 2 3 4 5 6 
#
# 1 32.5535 34.2441 13.8503 0.0014 10.1302 0.0022
# 2 34.2441 105.8396 58.2535 -0.0098 3.5406 -0.0055
# 3 13.8503 58.2535 121.1903 -0.0103 12.5826 -0.0015
# 4 0.0014 -0.0098 -0.0103 33.0083 0.0018 6.4916
# 5 10.1302 3.5406 12.5826 0.0018 21.9097 0.0000
# 6 0.0022 -0.0055 -0.0015 6.4916 0.0000 28.6877
#
#
#
# Elastic Compliance Matrix: (Units=1/GPa)
#
#
# Indices 1 2 3 4 5 6 
#
# 1 0.059805 -0.022095 0.006684 -0.000004 -0.027920 -0.000007
# 2 -0.022095 0.021061 -0.008832 0.000003 0.011885 0.000005
# 3 0.006684 -0.008832 0.012661 0.000002 -0.008934 -0.000002
# 4 -0.000004 0.000003 0.000002 0.031706 -0.000002 -0.007175
# 5 -0.027920 0.011885 -0.008934 -0.000002 0.061761 0.000004
# 6 -0.000007 0.000005 -0.000002 -0.007175 0.000004 0.036482
#
#
# Mechanical properties :
#
#
# Convention : Reuss Voigt Hill
#
# Bulk Modulus (GPa) = 22.20185 52.47545 37.33865
# Shear Modulus (GPa) = 17.42313 26.93685 22.17999
#
# Velocity S-wave (km/s) = 2.90134 3.60753 3.27354
# Velocity P-wave (km/s) = 4.68512 6.53493 5.68576
#
# Compressibility (1/GPa) = 0.04504128
#
# Stress axis : x y z
#
# Youngs Moduli (GPa) = 16.72092 47.48200 78.98524
#
# Poissons Ratio (x) = 1.04911 -0.52798
# Poissons Ratio (y) = 0.36945 0.69761
# Poissons Ratio (z) = -0.11177 0.41937
#
# Static dielectric constant tensor:
#      x y z
#    x 3.526390 -0.000010 0.189520 
#    y -0.000010 3.712050 -0.000030 
#    z 0.189520 -0.000030 4.066570 
# 
# 
# High freq. dielectric constant tensor:
#      x y z
#    x 1.765280 0.000000 0.005910 
#    y 0.000000 1.797620 0.000000 
#    z 0.005910 0.000000 1.831860 
# 
# From -- ./inp_files/249278.got.cif
#   From: 2010.06.25/outbox.cif.g09.slc.cpg/sg15_125_cif.got.tgz:249278.got - 2010.06.28 07:06:18.
