data_PCOD8144448
_publ_section_title
;
Structure prediction by ZEFSAII (Michael W. Deem and Ramdas Pophale) SiO2 
 PCOD8144448
Probable space group: C 2/C
;
_chemical_formula_sum "Si O2"
_cell_formula_units_Z 48
_cell_length_a 11.318564
_cell_length_b 15.268312
_cell_length_c 14.397432
_cell_angle_alpha 90.000000
_cell_angle_beta 123.818781
_cell_angle_gamma 90.000000
_cell_volume 2067.116559
_symmetry_space_group_name_H-M "C 2/C"
_symmetry_group_IT_number 15
_symmetry_cell_setting 'monoclinic'
loop_
_space_group_symop_operation_xyz
x,y,z
-x,y,1/2-z
-x,-y,-z
x,-y,1/2+z
1/2+x,1/2+y,z
1/2-x,1/2+y,1/2-z
1/2-x,1/2-y,-z
1/2+x,1/2-y,1/2+z
loop_
_atom_site_type_symbol
_atom_site_label
_atom_site_fract_x
_atom_site_fract_y
_atom_site_fract_z
Si Si1 0.915884 0.585565 0.625021
Si Si2 0.394946 0.102619 0.073843
Si Si3 0.059362 0.009283 0.173937
Si Si4 0.406970 0.219258 0.913537
Si Si5 0.108126 0.875696 0.042259
Si Si6 0.206592 0.636963 0.272894
O O1 0.892278 0.501109 0.547823
O O2 0.774444 0.636636 0.593914
O O3 0.000000 0.544987 0.750000
O O4 0.016062 0.655879 0.623104
O O5 0.551368 0.141405 0.161753
O O6 0.291920 0.112583 0.117153
O O7 0.334294 0.160282 0.962610
O O8 0.088460 0.917698 0.135381
O O9 0.000000 0.989796 0.250000
O O10 0.205313 0.064341 0.245162
O O11 0.946790 0.063384 0.064863
O O12 0.283854 0.268567 0.801486
O O13 0.524815 0.284493 0.007087
#
# Coordination Sequence:
#
# PCOD8144448 Si02
#       6
#     8   8   8   8   8   8
#     4  12  24  45  68  98 138 182 229 280 343 408
#     4  11  22  46  70  94 143 181 220 285 333 406
#     4  10  21  42  74  98 137 187 225 277 347 408
#     4  11  26  40  71 102 137 180 224 283 347 402
#     4  10  23  45  64 105 141 171 232 291 330 413
#     4  10  22  45  66 101 138 176 229 281 329 401
#
# _framework density 23.220751
#
# number of rings (size 3 to 8) (size 9 to 14) (size 15 to 20)
#    0.000    1.333    3.333    1.500    4.667    2.667 
#    6.000    0.000    0.000    0.000    0.000    0.000 
#    0.000    0.000    0.000    0.000    0.000    0.000 
#
# Total GULP energy -297673.474794 kJ/mol
# GULP energy per Si atom -12403.061450 kJ/mol
# Density = 2.316790 g / cm^3
# Si number density = 23.220751 Si / 1000 Ang^3
#
#
#
# Elastic Constant Matrix: (Units=GPa)
#
#
# Indices 1 2 3 4 5 6 
#
# 1 104.7262 32.4443 14.0267 0.0000 -20.1111 0.0000
# 2 32.4443 137.6101 11.6785 0.0000 -12.7234 0.0000
# 3 14.0267 11.6785 39.2932 0.0000 -19.9824 0.0000
# 4 0.0000 0.0000 0.0000 12.8206 0.0000 -7.8733
# 5 -20.1111 -12.7234 -19.9824 0.0000 38.3808 0.0000
# 6 0.0000 0.0000 0.0000 -7.8733 0.0000 28.7714
#
#
#
# Elastic Compliance Matrix: (Units=1/GPa)
#
#
# Indices 1 2 3 4 5 6 
#
# 1 0.011239 -0.002134 -0.001010 0.000000 0.004656 0.000000
# 2 -0.002134 0.007952 -0.001129 0.000000 0.000930 0.000000
# 3 -0.001010 -0.001129 0.034936 0.000000 0.017286 0.000000
# 4 0.000000 0.000000 0.000000 0.093755 0.000000 0.025656
# 5 0.004656 0.000930 0.017286 0.000000 0.037802 0.000000
# 6 0.000000 0.000000 0.000000 0.025656 0.000000 0.041778
#
#
# Mechanical properties :
#
#
# Convention : Reuss Voigt Hill
#
# Bulk Modulus (GPa) = 21.93828 44.21429 33.07629
# Shear Modulus (GPa) = 19.90436 30.89322 25.39879
#
# Velocity S-wave (km/s) = 2.93094 3.65144 3.31085
# Velocity P-wave (km/s) = 4.57407 6.07121 5.37502
#
# Compressibility (1/GPa) = 0.04558242
#
# Stress axis : x y z
#
# Youngs Moduli (GPa) = 88.97496 125.75833 28.62358
#
# Poissons Ratio (x) = 0.26832 0.02892
# Poissons Ratio (y) = 0.18984 0.03230
# Poissons Ratio (z) = 0.08988 0.14192
#
# Static dielectric constant tensor:
#      x y z
#    x 4.236140 0.000000 0.056250 
#    y 0.000000 4.217640 0.000000 
#    z 0.056250 0.000000 4.007550 
# 
# 
# High freq. dielectric constant tensor:
#      x y z
#    x 1.928910 0.000000 0.003870 
#    y 0.000000 1.923750 0.000000 
#    z 0.003870 0.000000 1.901740 
# 
# From -- ./inp_files/144392.got.cif
#   From: 2010.06.25/outbox.cif.g09.slc.cpg/sg15_73_cif.got.tgz:144392.got - 2010.06.28 07:06:18.
