data_PCOD8144741
_publ_section_title
;
Structure prediction by ZEFSAII (Michael W. Deem and Ramdas Pophale) SiO2 
 PCOD8144741
Probable space group: C 2/C
;
_chemical_formula_sum "Si O2"
_cell_formula_units_Z 32
_cell_length_a 23.378797
_cell_length_b 7.083432
_cell_length_c 19.275108
_cell_angle_alpha 90.000000
_cell_angle_beta 21.013777
_cell_angle_gamma 90.000000
_cell_volume 1144.626555
_symmetry_space_group_name_H-M "C 2/C"
_symmetry_group_IT_number 15
_symmetry_cell_setting 'monoclinic'
loop_
_space_group_symop_operation_xyz
x,y,z
-x,y,1/2-z
-x,-y,-z
x,-y,1/2+z
1/2+x,1/2+y,z
1/2-x,1/2+y,1/2-z
1/2-x,1/2-y,-z
1/2+x,1/2-y,1/2+z
loop_
_atom_site_type_symbol
_atom_site_label
_atom_site_fract_x
_atom_site_fract_y
_atom_site_fract_z
Si Si1 0.330393 0.646215 0.124293
Si Si2 0.324554 0.543957 0.414766
Si Si3 0.082806 0.425474 0.794310
Si Si4 0.925182 0.158431 0.163783
O O1 0.428860 0.792636 0.964157
O O2 0.408069 0.438677 0.044009
O O3 0.158992 0.625839 0.283055
O O4 0.313783 0.706332 0.223643
O O5 0.500000 0.539006 0.250000
O O6 0.250000 0.750000 0.500000
O O7 0.207386 0.397391 0.588602
O O8 0.340888 0.508189 0.313211
O O9 0.031288 0.643902 0.849117
#
# Coordination Sequence:
#
# PCOD8144741 Si02
#       4
#     8   8   8   8
#     4  11  25  42  72 105 135 179 233 289 343 412
#     4  10  21  44  68  96 132 180 228 276 339 413
#     4  11  25  45  70 103 139 179 234 281 349 415
#     4  10  24  44  69  97 138 184 227 279 348 413
#
# _framework density 27.956716
#
# number of rings (size 3 to 8) (size 9 to 14) (size 15 to 20)
#    0.000    1.500    2.500    0.750    7.000    3.000 
#    4.500    0.000    0.000    0.000    0.000    0.000 
#    0.000    0.000    0.000    0.000    0.000    0.000 
#
# Total GULP energy -198266.511686 kJ/mol
# GULP energy per Si atom -12391.656980 kJ/mol
# Density = 2.789309 g / cm^3
# Si number density = 27.956716 Si / 1000 Ang^3
#
#
#
# Elastic Constant Matrix: (Units=GPa)
#
#
# Indices 1 2 3 4 5 6 
#
# 1 85.3516 14.0791 39.9635 -0.0027 19.7677 0.0000
# 2 14.0791 68.7067 10.0732 -0.0022 2.0848 -0.0014
# 3 39.9635 10.0732 73.7934 -0.0029 8.7388 -0.0010
# 4 -0.0027 -0.0022 -0.0029 51.8827 -0.0030 4.3935
# 5 19.7677 2.0848 8.7388 -0.0030 38.9112 0.0016
# 6 0.0000 -0.0014 -0.0010 4.3935 0.0016 35.3309
#
#
#
# Elastic Compliance Matrix: (Units=1/GPa)
#
#
# Indices 1 2 3 4 5 6 
#
# 1 0.017629 -0.002166 -0.008429 0.000000 -0.006947 0.000000
# 2 -0.002166 0.015123 -0.000951 0.000000 0.000504 0.000000
# 3 -0.008429 -0.000951 0.018217 0.000001 0.000242 0.000000
# 4 0.000000 0.000000 0.000001 0.019479 0.000002 -0.002422
# 5 -0.006947 0.000504 0.000242 0.000002 0.029147 -0.000001
# 6 0.000000 0.000000 0.000000 -0.002422 -0.000001 0.028605
#
#
# Mechanical properties :
#
#
# Convention : Reuss Voigt Hill
#
# Bulk Modulus (GPa) = 35.87137 39.56482 37.71810
# Shear Modulus (GPa) = 31.13623 36.14069 33.63846
#
# Velocity S-wave (km/s) = 3.34088 3.59937 3.47253
# Velocity P-wave (km/s) = 5.26696 5.60864 5.44048
#
# Compressibility (1/GPa) = 0.02787738
#
# Stress axis : x y z
#
# Youngs Moduli (GPa) = 56.72471 66.12625 54.89305
#
# Poissons Ratio (x) = 0.14322 0.46268
# Poissons Ratio (y) = 0.12286 0.05220
# Poissons Ratio (z) = 0.47812 0.06289
#
# Static dielectric constant tensor:
#      x y z
#    x 5.473690 -0.000040 1.104220 
#    y -0.000040 5.096270 -0.000030 
#    z 1.104220 -0.000030 5.860850 
# 
# 
# High freq. dielectric constant tensor:
#      x y z
#    x 2.114060 0.000000 0.021030 
#    y 0.000000 2.140320 0.000000 
#    z 0.021030 0.000000 2.133830 
# 
# From -- ./inp_files/257090.got.cif
#   From: 2010.06.25/outbox.cif.g09.slc.cpg/sg15_129_cif.got.tgz:257090.got - 2010.06.28 07:06:18.
