data_PCOD8144812
_publ_section_title
;
Structure prediction by ZEFSAII (Michael W. Deem and Ramdas Pophale) SiO2 
 PCOD8144812
Probable space group: C 2/C
;
_chemical_formula_sum "Si O2"
_cell_formula_units_Z 56
_cell_length_a 25.134305
_cell_length_b 20.658024
_cell_length_c 15.054935
_cell_angle_alpha 90.000000
_cell_angle_beta 18.876416
_cell_angle_gamma 90.000000
_cell_volume 2528.985671
_symmetry_space_group_name_H-M "C 2/C"
_symmetry_group_IT_number 15
_symmetry_cell_setting 'monoclinic'
loop_
_space_group_symop_operation_xyz
x,y,z
-x,y,1/2-z
-x,-y,-z
x,-y,1/2+z
1/2+x,1/2+y,z
1/2-x,1/2+y,1/2-z
1/2-x,1/2-y,-z
1/2+x,1/2-y,1/2+z
loop_
_atom_site_type_symbol
_atom_site_label
_atom_site_fract_x
_atom_site_fract_y
_atom_site_fract_z
Si Si1 0.500000 0.039310 0.750000
Si Si2 0.458724 0.825960 0.647006
Si Si3 0.467720 0.152648 0.933028
Si Si4 0.500000 0.261533 0.750000
Si Si5 0.353740 0.511525 0.658882
Si Si6 0.791227 0.152001 0.696963
Si Si7 0.891186 0.885677 0.506751
Si Si8 0.374225 0.317277 0.253615
O O1 0.482810 0.084878 0.690174
O O2 0.666636 0.996282 0.492267
O O3 0.521821 0.846327 0.449884
O O4 0.594655 0.853191 0.499915
O O5 0.430197 0.749780 0.708764
O O6 0.280824 0.854290 0.954632
O O7 0.270604 0.158162 0.242813
O O8 0.551319 0.213716 0.749967
O O9 0.645675 0.309936 0.490113
O O10 0.500000 0.500000 0.500000
O O11 0.372499 0.582029 0.584991
O O12 0.363016 0.462230 0.561074
O O13 0.840413 0.195632 0.703742
O O14 0.000000 0.868428 0.250000
O O15 0.977658 0.866491 0.463013
#
# Coordination Sequence:
#
# PCOD8144812 Si02
#       8
#     4   8   8   4   8   8   8   8
#     4   9  24  44  72  96 136 189 236 286 346 429
#     4  11  24  40  68 104 136 172 226 292 347 423
#     4  10  21  45  68 101 130 179 227 286 359 406
#     4  11  24  44  64  98 140 169 224 282 350 429
#     4  11  25  45  68  99 139 188 238 288 352 412
#     4  12  26  43  65 101 137 183 227 283 355 415
#     4  11  22  43  70  94 130 182 236 281 340 421
#     4  11  23  41  69  98 138 176 225 287 349 419
#
# _framework density 22.143265
#
# number of rings (size 3 to 8) (size 9 to 14) (size 15 to 20)
#    0.000    1.143    4.286    1.286    3.000    1.714 
#    2.571    1.429    0.000    0.000    0.000    0.000 
#    0.000    0.000    0.000    0.000    0.000    0.000 
#
# Total GULP energy -347021.851278 kJ/mol
# GULP energy per Si atom -12393.637546 kJ/mol
# Density = 2.209287 g / cm^3
# Si number density = 22.143265 Si / 1000 Ang^3
#
#
#
# Elastic Constant Matrix: (Units=GPa)
#
#
# Indices 1 2 3 4 5 6 
#
# 1 102.1545 24.2131 39.3704 0.0012 -9.4394 -0.0019
# 2 24.2131 89.8751 25.7574 -0.0238 -8.3165 0.0000
# 3 39.3704 25.7574 95.9710 -0.0061 -6.6331 0.0077
# 4 0.0012 -0.0238 -0.0061 26.3721 0.0084 -6.0484
# 5 -9.4394 -8.3165 -6.6331 0.0084 42.6893 0.0025
# 6 -0.0019 0.0000 0.0077 -6.0484 0.0025 25.1397
#
#
#
# Elastic Compliance Matrix: (Units=1/GPa)
#
#
# Indices 1 2 3 4 5 6 
#
# 1 0.012049 -0.001854 -0.004333 -0.000003 0.001630 0.000001
# 2 -0.001854 0.012488 -0.002478 0.000011 0.001638 0.000003
# 3 -0.004333 -0.002478 0.012901 0.000000 0.000564 -0.000004
# 4 -0.000003 0.000011 0.000000 0.040133 -0.000007 0.009656
# 5 0.001630 0.001638 0.000564 -0.000007 0.024192 -0.000004
# 6 0.000001 0.000003 -0.000004 0.009656 -0.000004 0.042101
#
#
# Mechanical properties :
#
#
# Convention : Reuss Voigt Hill
#
# Bulk Modulus (GPa) = 49.72807 51.85362 50.79084
# Shear Modulus (GPa) = 29.78042 32.08422 30.93232
#
# Velocity S-wave (km/s) = 3.67126 3.81062 3.74159
# Velocity P-wave (km/s) = 6.36216 6.54441 6.45393
#
# Compressibility (1/GPa) = 0.02010937
#
# Stress axis : x y z
#
# Youngs Moduli (GPa) = 82.99540 80.07930 77.51186
#
# Poissons Ratio (x) = 0.14843 0.33584
# Poissons Ratio (y) = 0.15383 0.19207
# Poissons Ratio (z) = 0.35960 0.19843
#
# Static dielectric constant tensor:
#      x y z
#    x 3.847400 -0.000020 0.052060 
#    y -0.000020 3.872510 0.000050 
#    z 0.052060 0.000050 4.121490 
# 
# 
# High freq. dielectric constant tensor:
#      x y z
#    x 1.863350 0.000000 -0.000050 
#    y 0.000000 1.869100 0.000010 
#    z -0.000050 0.000010 1.873970 
# 
# From -- ./inp_files/174753.got.cif
#   From: 2010.06.25/outbox.cif.g09.slc.cpg/sg15_88_cif.got.tgz:174753.got - 2010.06.28 07:06:18.
