data_PCOD8144375
_publ_section_title
;
Structure prediction by ZEFSAII (Michael W. Deem and Ramdas Pophale) SiO2 
 PCOD8144375
Probable space group: C 2/C
;
_chemical_formula_sum "Si O2"
_cell_formula_units_Z 40
_cell_length_a 18.874723
_cell_length_b 12.302017
_cell_length_c 17.148468
_cell_angle_alpha 90.000000
_cell_angle_beta 152.784268
_cell_angle_gamma 90.000000
_cell_volume 1821.056578
_symmetry_space_group_name_H-M "C 2/C"
_symmetry_group_IT_number 15
_symmetry_cell_setting 'monoclinic'
loop_
_space_group_symop_operation_xyz
x,y,z
-x,y,1/2-z
-x,-y,-z
x,-y,1/2+z
1/2+x,1/2+y,z
1/2-x,1/2+y,1/2-z
1/2-x,1/2-y,-z
1/2+x,1/2-y,1/2+z
loop_
_atom_site_type_symbol
_atom_site_label
_atom_site_fract_x
_atom_site_fract_y
_atom_site_fract_z
Si Si1 0.694910 0.718896 0.772872
Si Si2 0.665947 0.417878 0.947030
Si Si3 0.414416 0.642681 0.586044
Si Si4 0.018064 0.374419 0.029689
Si Si5 0.898460 0.692240 0.575114
O O1 0.557125 0.637080 0.663751
O O2 0.619071 0.818670 0.652550
O O3 0.793660 0.762843 0.943604
O O4 0.809765 0.658032 0.826837
O O5 0.500000 0.439076 0.750000
O O6 0.690089 0.531642 0.016688
O O7 0.680534 0.311275 0.017633
O O8 0.778403 0.402670 0.981972
O O9 0.500000 0.674228 0.750000
O O10 0.001392 0.346146 0.104527
O O11 0.000000 0.500000 0.000000
O O12 0.000000 0.716150 0.750000
#
# Coordination Sequence:
#
# PCOD8144375 Si02
#       5
#     8   8   8   8   8
#     4  10  25  44  62 100 130 175 215 273 325 388
#     4   9  21  38  68  92 119 160 221 263 320 366
#     4  10  21  42  69  94 130 173 221 264 321 387
#     4  11  27  43  67  94 140 170 215 270 336 386
#     4  10  23  41  64  95 123 164 220 263 315 390
#
# _framework density 21.96527
#
# number of rings (size 3 to 8) (size 9 to 14) (size 15 to 20)
#    0.000    2.000    0.000    0.600   16.800    0.000 
#    0.000    4.000    0.000    0.000    0.000    0.000 
#    0.000    0.000    0.000    0.000    0.000    0.000 
#
# Total GULP energy -247845.194500 kJ/mol
# GULP energy per Si atom -12392.259725 kJ/mol
# Density = 2.191528 g / cm^3
# Si number density = 21.965270 Si / 1000 Ang^3
#
#
#
# Elastic Constant Matrix: (Units=GPa)
#
#
# Indices 1 2 3 4 5 6 
#
# 1 133.0908 57.0129 19.5225 -0.0002 9.1336 -0.0002
# 2 57.0129 124.1414 17.2627 -0.0003 8.8247 -0.0002
# 3 19.5225 17.2627 61.0363 -0.0005 8.7524 -0.0004
# 4 -0.0002 -0.0003 -0.0005 26.3337 -0.0002 8.9794
# 5 9.1336 8.8247 8.7524 -0.0002 41.1857 -0.0002
# 6 -0.0002 -0.0002 -0.0004 8.9794 -0.0002 37.8270
#
#
#
# Elastic Compliance Matrix: (Units=1/GPa)
#
#
# Indices 1 2 3 4 5 6 
#
# 1 0.009589 -0.004094 -0.001784 0.000000 -0.000870 0.000000
# 2 -0.004094 0.010204 -0.001437 0.000000 -0.000973 0.000000
# 3 -0.001784 -0.001437 0.017802 0.000000 -0.003080 0.000000
# 4 0.000000 0.000000 0.000000 0.041319 0.000000 -0.009808
# 5 -0.000870 -0.000973 -0.003080 0.000000 0.025336 0.000000
# 6 0.000000 0.000000 0.000000 -0.009808 0.000000 0.028764
#
#
# Mechanical properties :
#
#
# Convention : Reuss Voigt Hill
#
# Bulk Modulus (GPa) = 43.54422 56.20719 49.87571
# Shear Modulus (GPa) = 32.19564 36.03398 34.11481
#
# Velocity S-wave (km/s) = 3.83267 4.05470 3.94525
# Velocity P-wave (km/s) = 6.28116 6.89677 6.59615
#
# Compressibility (1/GPa) = 0.02296516
#
# Stress axis : x y z
#
# Youngs Moduli (GPa) = 104.28850 97.99660 56.17193
#
# Poissons Ratio (x) = 0.40117 0.10023
# Poissons Ratio (y) = 0.42693 0.08073
# Poissons Ratio (z) = 0.18609 0.14084
#
# Static dielectric constant tensor:
#      x y z
#    x 4.314920 0.000000 0.408400 
#    y 0.000000 5.234410 0.000020 
#    z 0.408400 0.000020 3.877630 
# 
# 
# High freq. dielectric constant tensor:
#      x y z
#    x 1.861950 0.000000 0.016220 
#    y 0.000000 1.861070 0.000000 
#    z 0.016220 0.000000 1.868540 
# 
# From -- ./inp_files/54231.got.cif
#   From: 2010.06.25/outbox.cif.g09.slc.cpg/sg15_28_cif.got.tgz:54231.got - 2010.06.28 07:06:18.
