data_PCOD8144974
_publ_section_title
;
Structure prediction by ZEFSAII (Michael W. Deem and Ramdas Pophale) SiO2 
 PCOD8144974
Probable space group: C 2/C
;
_chemical_formula_sum "Si O2"
_cell_formula_units_Z 56
_cell_length_a 13.953306
_cell_length_b 29.583873
_cell_length_c 15.038537
_cell_angle_alpha 90.000000
_cell_angle_beta 151.540176
_cell_angle_gamma 90.000000
_cell_volume 2958.280131
_symmetry_space_group_name_H-M "C 2/C"
_symmetry_group_IT_number 15
_symmetry_cell_setting 'monoclinic'
loop_
_space_group_symop_operation_xyz
x,y,z
-x,y,1/2-z
-x,-y,-z
x,-y,1/2+z
1/2+x,1/2+y,z
1/2-x,1/2+y,1/2-z
1/2-x,1/2-y,-z
1/2+x,1/2-y,1/2+z
loop_
_atom_site_type_symbol
_atom_site_label
_atom_site_fract_x
_atom_site_fract_y
_atom_site_fract_z
Si Si1 0.883252 0.067105 0.239595
Si Si2 0.963003 0.793798 0.821312
Si Si3 0.676906 0.976045 0.091677
Si Si4 0.379358 0.809997 0.238316
Si Si5 0.003375 0.052779 0.523319
Si Si6 0.396270 0.142516 0.433543
Si Si7 0.573446 0.091419 0.215499
O O1 0.020870 0.075678 0.439849
O O2 0.681177 0.095939 0.086259
O O3 0.000000 0.085941 0.250000
O O4 0.826973 0.014650 0.178062
O O5 0.000000 0.808240 0.750000
O O6 0.955124 0.740099 0.823722
O O7 0.764818 0.817223 0.696714
O O8 0.143668 0.811771 0.028768
O O9 0.802220 0.939901 0.255082
O O10 0.579936 0.949314 0.931238
O O11 0.500000 0.000000 0.000000
O O12 0.500000 0.827502 0.250000
O O13 0.415386 0.841758 0.353295
O O14 0.800563 0.071703 0.404350
O O15 0.000000 0.000000 0.500000
O O16 0.453444 0.131881 0.378001
O O17 0.500000 0.111032 0.250000
#
# Coordination Sequence:
#
# PCOD8144974 Si02
#       7
#     8   8   8   8   8   8   8
#     4  10  22  36  55  84 120 152 187 244 293 346
#     4  11  19  36  61  91 127 155 191 228 293 376
#     4  11  20  39  59  80 114 153 205 242 295 354
#     4  11  20  35  62  92 122 161 188 225 298 376
#     4   9  19  37  56  80 109 143 195 245 285 343
#     4  11  22  39  55  88 125 148 197 247 290 352
#     4  11  25  41  61  82 116 162 205 255 296 341
#
# _framework density 18.929918000000001
#
# number of rings (size 3 to 8) (size 9 to 14) (size 15 to 20)
#    0.000    1.429    7.143    1.286    4.000    2.286 
#    0.000    0.714    0.000    0.857    0.000    0.000 
#    0.000    0.000    0.000    0.000    0.000    0.000 
#
# Total GULP energy -347104.509497 kJ/mol
# GULP energy per Si atom -12396.589625 kJ/mol
# Density = 1.888683 g / cm^3
# Si number density = 18.929918 Si / 1000 Ang^3
#
#
#
# Elastic Constant Matrix: (Units=GPa)
#
#
# Indices 1 2 3 4 5 6 
#
# 1 126.0271 28.6340 39.2262 -0.0002 -24.6243 0.0000
# 2 28.6340 56.9615 26.0139 0.0000 -17.4123 0.0000
# 3 39.2262 26.0139 142.8508 -0.0007 -10.8629 0.0002
# 4 -0.0002 0.0000 -0.0007 27.7699 -0.0002 -10.1939
# 5 -24.6243 -17.4123 -10.8629 -0.0002 20.0567 0.0001
# 6 0.0000 0.0000 0.0002 -10.1939 0.0001 19.5882
#
#
#
# Elastic Compliance Matrix: (Units=1/GPa)
#
#
# Indices 1 2 3 4 5 6 
#
# 1 0.011053 -0.001144 -0.001951 0.000000 0.011521 0.000000
# 2 -0.001144 0.025221 -0.002837 0.000000 0.018955 0.000000
# 3 -0.001951 -0.002837 0.008013 0.000000 -0.000518 0.000000
# 4 0.000000 0.000000 0.000000 0.044514 0.000001 0.023166
# 5 0.011521 0.018955 -0.000518 0.000001 0.080178 0.000000
# 6 0.000000 0.000000 0.000000 0.023166 0.000000 0.063107
#
#
# Mechanical properties :
#
#
# Convention : Reuss Voigt Hill
#
# Bulk Modulus (GPa) = 30.84209 57.06527 43.95368
# Shear Modulus (GPa) = 19.62658 28.94729 24.28694
#
# Velocity S-wave (km/s) = 3.22343 3.91472 3.58577
# Velocity P-wave (km/s) = 5.49383 7.11648 6.35714
#
# Compressibility (1/GPa) = 0.03242322
#
# Stress axis : x y z
#
# Youngs Moduli (GPa) = 90.47483 39.65023 124.79294
#
# Poissons Ratio (x) = 0.04534 0.24344
# Poissons Ratio (y) = 0.10346 0.35409
# Poissons Ratio (z) = 0.17649 0.11250
#
# Static dielectric constant tensor:
#      x y z
#    x 3.302410 0.000000 -0.101500 
#    y 0.000000 3.613680 0.000000 
#    z -0.101500 0.000000 4.062270 
# 
# 
# High freq. dielectric constant tensor:
#      x y z
#    x 1.704290 0.000000 -0.001220 
#    y 0.000000 1.721030 0.000000 
#    z -0.001220 0.000000 1.751770 
# 
# From -- ./inp_files/157226.got.cif
#   From: 2010.06.25/outbox.cif.g09.slc.cpg/sg15_79_cif.got.tgz:157226.got - 2010.06.28 07:06:18.
