data_PCOD8144425
_publ_section_title
;
Structure prediction by ZEFSAII (Michael W. Deem and Ramdas Pophale) SiO2 
 PCOD8144425
Probable space group: C 2/C
;
_chemical_formula_sum "Si O2"
_cell_formula_units_Z 48
_cell_length_a 15.440608
_cell_length_b 12.081013
_cell_length_c 14.094350
_cell_angle_alpha 90.000000
_cell_angle_beta 108.011384
_cell_angle_gamma 90.000000
_cell_volume 2500.294008
_symmetry_space_group_name_H-M "C 2/C"
_symmetry_group_IT_number 15
_symmetry_cell_setting 'monoclinic'
loop_
_space_group_symop_operation_xyz
x,y,z
-x,y,1/2-z
-x,-y,-z
x,-y,1/2+z
1/2+x,1/2+y,z
1/2-x,1/2+y,1/2-z
1/2-x,1/2-y,-z
1/2+x,1/2-y,1/2+z
loop_
_atom_site_type_symbol
_atom_site_label
_atom_site_fract_x
_atom_site_fract_y
_atom_site_fract_z
Si Si1 0.134575 0.218472 0.733997
Si Si2 0.762245 0.132472 0.550322
Si Si3 0.837735 0.745738 0.467707
Si Si4 0.418184 0.525254 0.042623
Si Si5 0.000000 0.593934 0.250000
Si Si6 0.000000 0.952067 0.250000
Si Si7 0.583559 0.988192 0.460552
O O1 0.204373 0.162999 0.832313
O O2 0.184898 0.248456 0.652599
O O3 0.085664 0.331710 0.747938
O O4 0.056734 0.125290 0.696015
O O5 0.750000 0.250000 0.500000
O O6 0.834369 0.062696 0.510214
O O7 0.667182 0.066734 0.520881
O O8 0.750000 0.750000 0.500000
O O9 0.896105 0.851295 0.509951
O O10 0.889987 0.638609 0.520652
O O11 0.442707 0.529955 0.162179
O O12 0.500000 0.500000 0.000000
O O13 0.955287 0.515561 0.156085
O O14 0.500000 0.000000 0.500000
#
# Coordination Sequence:
#
# PCOD8144425 Si02
#       7
#     8   8   8   8   4   4   8
#     4  10  21  42  71  91 133 178 226 271 332 406
#     4  11  24  45  70 100 127 181 234 267 329 423
#     4  12  25  45  63 100 143 172 215 291 341 384
#     4  11  23  43  69  97 135 171 222 280 332 398
#     4  11  22  43  70 100 130 185 229 274 338 416
#     4   9  20  39  70  98 118 177 229 260 326 406
#     4  12  26  43  69 101 142 178 226 283 344 400
#
# _framework density 19.197742000000002
#
# number of rings (size 3 to 8) (size 9 to 14) (size 15 to 20)
#    0.000    1.000    6.667    0.000    2.333    2.000 
#    6.000    0.000    0.000    0.000    0.000    0.000 
#    0.000    0.000    0.000    0.000    0.000    0.000 
#
# Total GULP energy -297344.941280 kJ/mol
# GULP energy per Si atom -12389.372553 kJ/mol
# Density = 1.915405 g / cm^3
# Si number density = 19.197742 Si / 1000 Ang^3
#
#
#
# Elastic Constant Matrix: (Units=GPa)
#
#
# Indices 1 2 3 4 5 6 
#
# 1 166.2300 71.7928 61.9305 0.0000 -11.7332 0.0000
# 2 71.7928 168.8622 70.5138 0.0000 3.4681 0.0000
# 3 61.9305 70.5138 138.9968 0.0000 -4.9377 0.0000
# 4 0.0000 0.0000 0.0000 33.0924 0.0000 7.2492
# 5 -11.7332 3.4681 -4.9377 0.0000 37.2178 0.0000
# 6 0.0000 0.0000 0.0000 7.2492 0.0000 30.9566
#
#
#
# Elastic Compliance Matrix: (Units=1/GPa)
#
#
# Indices 1 2 3 4 5 6 
#
# 1 0.008137 -0.002581 -0.002227 0.000000 0.002510 0.000000
# 2 -0.002581 0.008387 -0.003176 0.000000 -0.002017 0.000000
# 3 -0.002227 -0.003176 0.009830 0.000000 0.000898 0.000000
# 4 0.000000 0.000000 0.000000 0.031852 0.000000 -0.007459
# 5 0.002510 -0.002017 0.000898 0.000000 0.027967 0.000000
# 6 0.000000 0.000000 0.000000 -0.007459 0.000000 0.034050
#
#
# Mechanical properties :
#
#
# Convention : Reuss Voigt Hill
#
# Bulk Modulus (GPa) = 96.29028 98.06258 97.17643
# Shear Modulus (GPa) = 35.80230 38.24347 37.02289
#
# Velocity S-wave (km/s) = 4.32316 4.46812 4.39624
# Velocity P-wave (km/s) = 8.67096 8.82099 8.74630
#
# Compressibility (1/GPa) = 0.01038526
#
# Stress axis : x y z
#
# Youngs Moduli (GPa) = 122.88807 119.22792 101.72956
#
# Poissons Ratio (x) = 0.30776 0.22655
# Poissons Ratio (y) = 0.31721 0.32314
# Poissons Ratio (z) = 0.27367 0.37872
#
# Static dielectric constant tensor:
#      x y z
#    x 3.490130 0.000000 -0.083210 
#    y 0.000000 3.730510 0.000000 
#    z -0.083210 0.000000 3.656110 
# 
# 
# High freq. dielectric constant tensor:
#      x y z
#    x 1.752760 0.000000 -0.001170 
#    y 0.000000 1.760070 0.000000 
#    z -0.001170 0.000000 1.752930 
# 
# From -- ./inp_files/152147.got.cif
#   From: 2010.06.25/outbox.cif.g09.slc.cpg/sg15_77_cif.got.tgz:152147.got - 2010.06.28 07:06:18.
