data_PCOD8144431
_publ_section_title
;
Structure prediction by ZEFSAII (Michael W. Deem and Ramdas Pophale) SiO2 
 PCOD8144431
Probable space group: C 2/C
;
_chemical_formula_sum "Si O2"
_cell_formula_units_Z 60
_cell_length_a 20.007952
_cell_length_b 18.834988
_cell_length_c 8.870871
_cell_angle_alpha 90.000000
_cell_angle_beta 124.488387
_cell_angle_gamma 90.000000
_cell_volume 2755.424073
_symmetry_space_group_name_H-M "C 2/C"
_symmetry_group_IT_number 15
_symmetry_cell_setting 'monoclinic'
loop_
_space_group_symop_operation_xyz
x,y,z
-x,y,1/2-z
-x,-y,-z
x,-y,1/2+z
1/2+x,1/2+y,z
1/2-x,1/2+y,1/2-z
1/2-x,1/2-y,-z
1/2+x,1/2-y,1/2+z
loop_
_atom_site_type_symbol
_atom_site_label
_atom_site_fract_x
_atom_site_fract_y
_atom_site_fract_z
Si Si1 0.412987 0.298244 0.364362
Si Si2 0.500000 0.484762 0.750000
Si Si3 0.330111 0.935700 0.656737
Si Si4 0.516779 0.149602 0.095328
Si Si5 0.149215 0.416209 0.165738
Si Si6 0.945286 0.094128 0.449664
Si Si7 0.310275 0.329831 0.941871
Si Si8 0.736060 0.285709 0.141970
O O1 0.468986 0.228606 0.448752
O O2 0.468996 0.366762 0.425297
O O3 0.358175 0.303585 0.445369
O O4 0.358638 0.297841 0.144546
O O5 0.442706 0.531238 0.568956
O O6 0.560962 0.437091 0.726971
O O7 0.403567 0.896815 0.836981
O O8 0.345523 0.937884 0.500051
O O9 0.246618 0.895186 0.583943
O O10 0.327338 0.016645 0.704437
O O11 0.500000 0.155255 0.250000
O O12 0.441006 0.113368 0.912864
O O13 0.213310 0.356956 0.289999
O O14 0.870267 0.145467 0.385167
O O15 0.259870 0.265152 0.810574
O O16 0.750000 0.250000 0.000000
#
# Coordination Sequence:
#
# PCOD8144431 Si02
#       8
#     8   4   8   8   8   8   8   8
#     4  12  22  45  72 100 134 182 236 281 350 418
#     4  10  24  44  60  98 140 172 232 282 338 418
#     4  11  24  42  70 103 138 185 226 291 344 423
#     4  10  21  42  71  98 132 176 233 285 338 414
#     4  11  25  45  69 104 140 183 230 281 360 415
#     4  11  24  42  69  99 135 187 228 284 347 419
#     4  12  23  45  72  99 137 185 236 284 350 418
#     4  12  28  45  67 106 141 176 233 296 346 416
#
# _framework density 21.775231999999999
#
# number of rings (size 3 to 8) (size 9 to 14) (size 15 to 20)
#    0.000    0.800    4.000    4.000    3.733    3.200 
#    0.000    1.333    0.000    0.000    0.000    0.000 
#    0.000    0.000    0.000    0.000    0.000    0.000 
#
# Total GULP energy -372164.603459 kJ/mol
# GULP energy per Si atom -12405.486782 kJ/mol
# Density = 2.172567 g / cm^3
# Si number density = 21.775232 Si / 1000 Ang^3
#
#
#
# Elastic Constant Matrix: (Units=GPa)
#
#
# Indices 1 2 3 4 5 6 
#
# 1 132.1810 47.1923 34.2345 0.0000 0.3659 0.0000
# 2 47.1923 140.2689 53.6894 0.0000 -0.4514 0.0000
# 3 34.2345 53.6894 61.1563 0.0000 -7.0758 0.0000
# 4 0.0000 0.0000 0.0000 21.5302 0.0000 2.5341
# 5 0.3659 -0.4514 -7.0758 0.0000 31.8402 0.0000
# 6 0.0000 0.0000 0.0000 2.5341 0.0000 39.8377
#
#
#
# Elastic Compliance Matrix: (Units=1/GPa)
#
#
# Indices 1 2 3 4 5 6 
#
# 1 0.009131 -0.001620 -0.003802 0.000000 -0.000973 0.000000
# 2 -0.001620 0.011149 -0.009095 0.000000 -0.001844 0.000000
# 3 -0.003802 -0.009095 0.027152 0.000000 0.005949 0.000000
# 4 0.000000 0.000000 0.000000 0.046797 0.000000 -0.002977
# 5 -0.000973 -0.001844 0.005949 0.000000 0.032714 0.000000
# 6 0.000000 0.000000 0.000000 -0.002977 0.000000 0.025291
#
#
# Mechanical properties :
#
#
# Convention : Reuss Voigt Hill
#
# Bulk Modulus (GPa) = 54.34833 67.09317 60.72075
# Shear Modulus (GPa) = 26.68080 31.87427 29.27753
#
# Velocity S-wave (km/s) = 3.50420 3.83010 3.67077
# Velocity P-wave (km/s) = 6.43316 7.10198 6.77582
#
# Compressibility (1/GPa) = 0.01839983
#
# Stress axis : x y z
#
# Youngs Moduli (GPa) = 109.51539 89.69156 36.82943
#
# Poissons Ratio (x) = 0.14530 0.14002
# Poissons Ratio (y) = 0.17742 0.33495
# Poissons Ratio (z) = 0.41636 0.81571
#
# Static dielectric constant tensor:
#      x y z
#    x 4.200460 0.000000 0.062410 
#    y 0.000000 3.980010 0.000000 
#    z 0.062410 0.000000 3.540130 
# 
# 
# High freq. dielectric constant tensor:
#      x y z
#    x 1.871210 0.000000 -0.001020 
#    y 0.000000 1.871680 0.000000 
#    z -0.001020 0.000000 1.837160 
# 
# From -- ./inp_files/57021.got.cif
#   From: 2010.06.25/outbox.cif.g09.slc.cpg/sg15_29_cif.got.tgz:57021.got - 2010.06.28 07:06:18.
