data_PCOD8144003
_publ_section_title
;
Structure prediction by ZEFSAII (Michael W. Deem and Ramdas Pophale) SiO2 
 PCOD8144003
Probable space group: C 2/C
;
_chemical_formula_sum "Si O2"
_cell_formula_units_Z 52
_cell_length_a 13.242064
_cell_length_b 16.804897
_cell_length_c 11.155343
_cell_angle_alpha 90.000000
_cell_angle_beta 114.421968
_cell_angle_gamma 90.000000
_cell_volume 2260.301835
_symmetry_space_group_name_H-M "C 2/C"
_symmetry_group_IT_number 15
_symmetry_cell_setting 'monoclinic'
loop_
_space_group_symop_operation_xyz
x,y,z
-x,y,1/2-z
-x,-y,-z
x,-y,1/2+z
1/2+x,1/2+y,z
1/2-x,1/2+y,1/2-z
1/2-x,1/2-y,-z
1/2+x,1/2-y,1/2+z
loop_
_atom_site_type_symbol
_atom_site_label
_atom_site_fract_x
_atom_site_fract_y
_atom_site_fract_z
Si Si1 0.561682 0.510803 0.656299
Si Si2 0.514031 0.325427 0.381378
Si Si3 0.114723 0.531645 0.006089
Si Si4 0.000000 0.382963 0.250000
Si Si5 0.885903 0.265128 0.373755
Si Si6 0.261113 0.877285 0.487213
Si Si7 0.751368 0.883360 0.757136
O O1 0.500000 0.483470 0.750000
O O2 0.500000 0.500000 0.500000
O O3 0.582866 0.606986 0.670085
O O4 0.675108 0.462908 0.703992
O O5 0.500000 0.275495 0.250000
O O6 0.510611 0.270625 0.497676
O O7 0.629317 0.374761 0.439187
O O8 0.204640 0.461336 0.052933
O O9 0.159562 0.604886 0.108764
O O10 0.092002 0.563450 0.861118
O O11 0.000000 0.500000 0.000000
O O12 0.932936 0.330534 0.310157
O O13 0.801835 0.302940 0.428576
O O14 0.825028 0.195917 0.267802
O O15 0.311532 0.872099 0.646586
#
# Coordination Sequence:
#
# PCOD8144003 Si02
#       7
#     8   8   8   4   8   8   8
#     4  11  21  40  67 108 147 182 233 281 357 435
#     4  10  21  41  69 103 138 178 222 283 352 420
#     4  12  25  49  70  94 138 190 232 282 342 420
#     4  12  28  48  66 102 138 180 236 290 354 426
#     4  11  25  44  67 101 142 169 235 294 346 416
#     4  11  23  45  68  97 133 175 237 281 326 425
#     4  11  25  42  75 103 135 186 228 291 356 413
#
# _framework density 23.005776000000001
#
# number of rings (size 3 to 8) (size 9 to 14) (size 15 to 20)
#    0.000    0.923    4.615    4.615    1.077    3.077 
#    1.385    0.000    0.000    0.000    0.000    0.000 
#    0.000    0.000    0.000    0.000    0.000    0.000 
#
# Total GULP energy -322248.942327 kJ/mol
# GULP energy per Si atom -12394.190090 kJ/mol
# Density = 2.295341 g / cm^3
# Si number density = 23.005776 Si / 1000 Ang^3
#
#
#
# Elastic Constant Matrix: (Units=GPa)
#
#
# Indices 1 2 3 4 5 6 
#
# 1 64.7414 21.7244 11.3701 0.0000 -11.8677 0.0000
# 2 21.7244 101.6702 34.6118 0.0000 6.3574 0.0000
# 3 11.3701 34.6118 157.0298 0.0000 -7.4716 0.0000
# 4 0.0000 0.0000 0.0000 41.8333 0.0000 -12.8304
# 5 -11.8677 6.3574 -7.4716 0.0000 30.2166 0.0000
# 6 0.0000 0.0000 0.0000 -12.8304 0.0000 30.1583
#
#
#
# Elastic Compliance Matrix: (Units=1/GPa)
#
#
# Indices 1 2 3 4 5 6 
#
# 1 0.018439 -0.004465 0.000039 0.000000 0.008191 0.000000
# 2 -0.004465 0.011963 -0.002547 0.000000 -0.004901 0.000000
# 3 0.000039 -0.002547 0.007036 0.000000 0.002291 0.000000
# 4 0.000000 0.000000 0.000000 0.027492 0.000000 0.011696
# 5 0.008191 -0.004901 0.002291 0.000000 0.037909 0.000000
# 6 0.000000 0.000000 0.000000 0.011696 0.000000 0.038134
#
#
# Mechanical properties :
#
#
# Convention : Reuss Voigt Hill
#
# Bulk Modulus (GPa) = 42.56840 50.98380 46.77610
# Shear Modulus (GPa) = 30.72196 37.49065 34.10630
#
# Velocity S-wave (km/s) = 3.65828 4.04123 3.85452
# Velocity P-wave (km/s) = 6.03221 6.63211 6.33926
#
# Compressibility (1/GPa) = 0.02349161
#
# Stress axis : x y z
#
# Youngs Moduli (GPa) = 54.23241 83.58904 142.13139
#
# Poissons Ratio (x) = 0.37326 -0.00552
# Poissons Ratio (y) = 0.24217 0.36197
# Poissons Ratio (z) = -0.00211 0.21288
#
# Static dielectric constant tensor:
#      x y z
#    x 3.858430 0.000000 -0.177810 
#    y 0.000000 4.542080 0.000000 
#    z -0.177810 0.000000 4.996720 
# 
# 
# High freq. dielectric constant tensor:
#      x y z
#    x 1.878580 0.000000 -0.008330 
#    y 0.000000 1.914850 0.000000 
#    z -0.008330 0.000000 1.931960 
# 
# From -- ./inp_files/98460.got.cif
#   From: 2010.06.25/outbox.cif.g09.slc.cpg/sg15_50_cif.got.tgz:98460.got - 2010.06.28 07:06:18.
