data_PCOD8144917
_publ_section_title
;
Structure prediction by ZEFSAII (Michael W. Deem and Ramdas Pophale) SiO2 
 PCOD8144917
Probable space group: C 2/C
;
_chemical_formula_sum "Si O2"
_cell_formula_units_Z 56
_cell_length_a 16.585087
_cell_length_b 20.915122
_cell_length_c 9.697883
_cell_angle_alpha 90.000000
_cell_angle_beta 53.184136
_cell_angle_gamma 90.000000
_cell_volume 2693.096763
_symmetry_space_group_name_H-M "C 2/C"
_symmetry_group_IT_number 15
_symmetry_cell_setting 'monoclinic'
loop_
_space_group_symop_operation_xyz
x,y,z
-x,y,1/2-z
-x,-y,-z
x,-y,1/2+z
1/2+x,1/2+y,z
1/2-x,1/2+y,1/2-z
1/2-x,1/2-y,-z
1/2+x,1/2-y,1/2+z
loop_
_atom_site_type_symbol
_atom_site_label
_atom_site_fract_x
_atom_site_fract_y
_atom_site_fract_z
Si Si1 0.757619 0.149006 0.506499
Si Si2 0.782356 0.150670 0.963342
Si Si3 0.405251 0.252544 0.749473
Si Si4 0.197028 0.416086 0.801134
Si Si5 0.509757 0.061336 0.081668
Si Si6 0.404119 0.237153 0.428585
Si Si7 0.270484 0.066863 0.711703
O O1 0.683234 0.202584 0.637151
O O2 0.861423 0.178380 0.341140
O O3 0.701459 0.107115 0.451247
O O4 0.781263 0.099908 0.604837
O O5 0.770153 0.124852 0.130550
O O6 0.689994 0.190337 0.992395
O O7 0.879255 0.196406 0.874149
O O8 0.798106 0.088752 0.848318
O O9 0.500000 0.236230 0.750000
O O10 0.432663 0.250697 0.559248
O O11 0.225289 0.491041 0.769614
O O12 0.086024 0.396097 0.860320
O O13 0.500000 0.040720 0.250000
O O14 0.616089 0.094425 0.936276
O O15 0.500000 0.000000 0.000000
O O16 0.500000 0.206516 0.250000
#
# Coordination Sequence:
#
# PCOD8144917 Si02
#       7
#     8   8   8   8   8   8   8
#     4  11  25  42  64  94 127 164 213 253 318 379
#     4  11  23  42  65  95 127 163 215 256 312 379
#     4  11  26  44  65  93 125 167 214 265 317 365
#     4  11  23  39  64  90 133 168 204 256 311 383
#     4  10  22  34  52  87 128 167 205 239 298 370
#     4  11  26  42  68  94 122 167 215 267 315 360
#     4  11  23  39  63  94 128 170 203 255 316 379
#
# _framework density 20.793906
#
# number of rings (size 3 to 8) (size 9 to 14) (size 15 to 20)
#    0.000    1.143    4.286    0.857   14.000    0.000 
#    0.000    0.000    0.000    5.143    0.000    0.000 
#    0.000    0.000    0.000    0.000    0.000    0.000 
#
# Total GULP energy -347060.588523 kJ/mol
# GULP energy per Si atom -12395.021019 kJ/mol
# Density = 2.074658 g / cm^3
# Si number density = 20.793906 Si / 1000 Ang^3
#
#
#
# Elastic Constant Matrix: (Units=GPa)
#
#
# Indices 1 2 3 4 5 6 
#
# 1 60.6205 5.1787 20.7547 0.0000 19.5185 0.0000
# 2 5.1787 62.0383 12.5126 0.0000 11.0010 0.0000
# 3 20.7547 12.5126 114.8700 0.0000 24.7721 0.0000
# 4 0.0000 0.0000 0.0000 32.4998 0.0000 12.2807
# 5 19.5185 11.0010 24.7721 0.0000 28.0384 0.0000
# 6 0.0000 0.0000 0.0000 12.2807 0.0000 34.6075
#
#
#
# Elastic Compliance Matrix: (Units=1/GPa)
#
#
# Indices 1 2 3 4 5 6 
#
# 1 0.021375 0.000959 -0.000836 0.000000 -0.014517 0.000000
# 2 0.000959 0.017393 -0.000559 0.000000 -0.006998 0.000000
# 3 -0.000836 -0.000559 0.010803 0.000000 -0.008743 0.000000
# 4 0.000000 0.000000 0.000000 0.035534 0.000000 -0.012610
# 5 -0.014517 -0.006998 -0.008743 0.000000 0.056242 0.000000
# 6 0.000000 0.000000 0.000000 -0.012610 0.000000 0.033370
#
#
# Mechanical properties :
#
#
# Convention : Reuss Voigt Hill
#
# Bulk Modulus (GPa) = 20.53443 34.93567 27.73505
# Shear Modulus (GPa) = 26.06602 32.30133 29.18368
#
# Velocity S-wave (km/s) = 3.54438 3.94560 3.75036
# Velocity P-wave (km/s) = 5.16206 6.13143 5.66751
#
# Compressibility (1/GPa) = 0.04869869
#
# Stress axis : x y z
#
# Youngs Moduli (GPa) = 46.78457 57.49562 92.56782
#
# Poissons Ratio (x) = -0.05512 0.07735
# Poissons Ratio (y) = -0.04485 0.05171
# Poissons Ratio (z) = 0.03910 0.03212
#
# Static dielectric constant tensor:
#      x y z
#    x 3.265480 0.000000 0.377400 
#    y 0.000000 3.762900 0.000000 
#    z 0.377400 0.000000 3.697600 
# 
# 
# High freq. dielectric constant tensor:
#      x y z
#    x 1.796310 0.000000 0.028370 
#    y 0.000000 1.819360 0.000000 
#    z 0.028370 0.000000 1.818730 
# 
# From -- ./inp_files/50122.got.cif
#   From: 2010.06.25/outbox.cif.g09.slc.cpg/sg15_26_cif.got.tgz:50122.got - 2010.06.28 07:06:18.
