data_PCOD8144924
_publ_section_title
;
Structure prediction by ZEFSAII (Michael W. Deem and Ramdas Pophale) SiO2 
 PCOD8144924
Probable space group: C 2/C
;
_chemical_formula_sum "Si O2"
_cell_formula_units_Z 36
_cell_length_a 16.526451
_cell_length_b 8.278549
_cell_length_c 15.320133
_cell_angle_alpha 90.000000
_cell_angle_beta 63.147914
_cell_angle_gamma 90.000000
_cell_volume 1870.021873
_symmetry_space_group_name_H-M "C 2/C"
_symmetry_group_IT_number 15
_symmetry_cell_setting 'monoclinic'
loop_
_space_group_symop_operation_xyz
x,y,z
-x,y,1/2-z
-x,-y,-z
x,-y,1/2+z
1/2+x,1/2+y,z
1/2-x,1/2+y,1/2-z
1/2-x,1/2-y,-z
1/2+x,1/2-y,1/2+z
loop_
_atom_site_type_symbol
_atom_site_label
_atom_site_fract_x
_atom_site_fract_y
_atom_site_fract_z
Si Si1 0.284509 0.982691 0.651885
Si Si2 0.341640 0.196655 0.774938
Si Si3 0.319103 0.976447 0.947433
Si Si4 0.355601 0.630969 0.891687
Si Si5 0.000000 0.911459 0.750000
O O1 0.246760 0.807391 0.697444
O O2 0.343944 0.056666 0.701131
O O3 0.345051 0.968042 0.533647
O O4 0.198511 0.099841 0.672939
O O5 0.433321 0.300542 0.724765
O O6 0.337852 0.122694 0.873594
O O7 0.379042 0.820026 0.891375
O O8 0.211385 0.927462 0.996655
O O9 0.446969 0.524933 0.845268
#
# Coordination Sequence:
#
# PCOD8144924 Si02
#       5
#     8   8   8   8   4
#     4   9  19  32  57  84 106 151 199 219 271 351
#     4  11  20  36  60  84 118 147 192 236 282 333
#     4   9  18  36  61  79 107 158 197 224 272 356
#     4   8  18  36  58  78 116 144 198 227 286 327
#     4  10  22  34  56  90 118 150 178 246 298 312
#
# _framework density 19.251111000000002
#
# number of rings (size 3 to 8) (size 9 to 14) (size 15 to 20)
#    1.333    1.333    0.000    2.000    0.000    0.889 
#    0.000    2.222    0.000    0.000    0.000    0.000 
#    0.000    0.000    0.000    0.000    0.000    0.000 
#
# Total GULP energy -223020.615079 kJ/mol
# GULP energy per Si atom -12390.034171 kJ/mol
# Density = 1.920730 g / cm^3
# Si number density = 19.251111 Si / 1000 Ang^3
#
#
#
# Elastic Constant Matrix: (Units=GPa)
#
#
# Indices 1 2 3 4 5 6 
#
# 1 60.4139 42.5175 44.2975 0.0000 1.4391 0.0000
# 2 42.5175 103.9603 51.4039 0.0000 -3.7861 0.0000
# 3 44.2975 51.4039 95.8924 0.0000 10.6985 0.0000
# 4 0.0000 0.0000 0.0000 29.2822 0.0000 -0.4322
# 5 1.4391 -3.7861 10.6985 0.0000 29.8301 0.0000
# 6 0.0000 0.0000 0.0000 -0.4322 0.0000 30.1672
#
#
#
# Elastic Compliance Matrix: (Units=1/GPa)
#
#
# Indices 1 2 3 4 5 6 
#
# 1 0.028337 -0.006812 -0.009573 0.000000 0.001201 0.000000
# 2 -0.006812 0.015292 -0.005524 0.000000 0.004251 0.000000
# 3 -0.009573 -0.005524 0.018582 0.000000 -0.006904 0.000000
# 4 0.000000 0.000000 0.000000 0.034158 0.000000 0.000489
# 5 0.001201 0.004251 -0.006904 0.000000 0.036481 0.000000
# 6 0.000000 0.000000 0.000000 0.000489 0.000000 0.033156
#
#
# Mechanical properties :
#
#
# Convention : Reuss Voigt Hill
#
# Bulk Modulus (GPa) = 54.37135 59.63383 57.00259
# Shear Modulus (GPa) = 23.15306 25.99242 24.57274
#
# Velocity S-wave (km/s) = 3.47174 3.67846 3.57660
# Velocity P-wave (km/s) = 6.66147 7.00611 6.83596
#
# Compressibility (1/GPa) = 0.01839204
#
# Stress axis : x y z
#
# Youngs Moduli (GPa) = 35.28945 65.39560 53.81519
#
# Poissons Ratio (x) = 0.44549 0.51515
# Poissons Ratio (y) = 0.24040 0.29730
# Poissons Ratio (z) = 0.33781 0.36128
#
# Static dielectric constant tensor:
#      x y z
#    x 3.005190 0.000000 -0.069210 
#    y 0.000000 3.495390 0.000000 
#    z -0.069210 0.000000 3.326390 
# 
# 
# High freq. dielectric constant tensor:
#      x y z
#    x 1.697400 0.000000 0.000550 
#    y 0.000000 1.761690 0.000000 
#    z 0.000550 0.000000 1.733720 
# 
# From -- ./inp_files/158881.got.cif
#   From: 2010.06.25/outbox.cif.g09.slc.cpg/sg15_80_cif.got.tgz:158881.got - 2010.06.28 07:06:18.
