data_PCOD8144387
_publ_section_title
;
Structure prediction by ZEFSAII (Michael W. Deem and Ramdas Pophale) SiO2 
 PCOD8144387
Probable space group: C 2/C
;
_chemical_formula_sum "Si O2"
_cell_formula_units_Z 48
_cell_length_a 21.628759
_cell_length_b 9.112624
_cell_length_c 10.438383
_cell_angle_alpha 90.000000
_cell_angle_beta 102.142253
_cell_angle_gamma 90.000000
_cell_volume 2011.324222
_symmetry_space_group_name_H-M "C 2/C"
_symmetry_group_IT_number 15
_symmetry_cell_setting 'monoclinic'
loop_
_space_group_symop_operation_xyz
x,y,z
-x,y,1/2-z
-x,-y,-z
x,-y,1/2+z
1/2+x,1/2+y,z
1/2-x,1/2+y,1/2-z
1/2-x,1/2-y,-z
1/2+x,1/2-y,1/2+z
loop_
_atom_site_type_symbol
_atom_site_label
_atom_site_fract_x
_atom_site_fract_y
_atom_site_fract_z
Si Si1 0.274045 0.160957 0.815436
Si Si2 0.391631 0.967006 0.868209
Si Si3 0.022638 0.081444 0.634146
Si Si4 0.678688 0.381976 0.485549
Si Si5 0.150845 0.839992 0.102414
Si Si6 0.570139 0.158154 0.381809
O O1 0.302664 0.322086 0.863493
O O2 0.222163 0.170130 0.682860
O O3 0.329014 0.052207 0.794448
O O4 0.242021 0.100413 0.930937
O O5 0.371985 0.822772 0.941574
O O6 0.430332 0.934449 0.752727
O O7 0.430380 0.060089 0.989744
O O8 0.098395 0.096488 0.678967
O O9 0.000000 0.991479 0.750000
O O10 0.992837 0.244828 0.627943
O O11 0.000000 0.000000 0.500000
O O12 0.648885 0.545214 0.483483
O O13 0.631168 0.264854 0.400695
#
# Coordination Sequence:
#
# PCOD8144387 Si02
#       6
#     8   8   8   8   8   8
#     4  10  22  40  69 101 146 193 227 300 364 433
#     4  11  25  45  73 104 150 185 240 293 371 423
#     4  12  25  49  78 102 143 187 244 299 353 424
#     4  10  21  42  69  96 147 184 239 292 361 429
#     4  12  23  41  70 104 135 192 234 298 359 429
#     4  11  24  51  68 108 140 196 235 300 359 423
#
# _framework density 23.864875000000001
#
# number of rings (size 3 to 8) (size 9 to 14) (size 15 to 20)
#    0.000    1.000    5.000    1.000    4.667    1.333 
#    9.000    0.000    0.000    0.000    0.000    0.000 
#    0.000    0.000    0.000    0.000    0.000    0.000 
#
# Total GULP energy -297368.255013 kJ/mol
# GULP energy per Si atom -12390.343959 kJ/mol
# Density = 2.381056 g / cm^3
# Si number density = 23.864875 Si / 1000 Ang^3
#
#
#
# Elastic Constant Matrix: (Units=GPa)
#
#
# Indices 1 2 3 4 5 6 
#
# 1 52.2129 -2.3269 3.2591 0.0000 -13.1279 0.0000
# 2 -2.3269 78.2055 37.3304 0.0000 -6.1527 0.0000
# 3 3.2591 37.3304 131.9269 0.0000 -0.0757 0.0000
# 4 0.0000 0.0000 0.0000 44.5582 0.0000 -2.8931
# 5 -13.1279 -6.1527 -0.0757 0.0000 24.7112 0.0000
# 6 0.0000 0.0000 0.0000 -2.8931 0.0000 42.2081
#
#
#
# Elastic Compliance Matrix: (Units=1/GPa)
#
#
# Indices 1 2 3 4 5 6 
#
# 1 0.022462 0.002210 -0.001173 0.000000 0.012480 0.000000
# 2 0.002210 0.015341 -0.004393 0.000000 0.004980 0.000000
# 3 -0.001173 -0.004393 0.008851 0.000000 -0.001690 0.000000
# 4 0.000000 0.000000 0.000000 0.022543 0.000000 0.001545
# 5 0.012480 0.004980 -0.001690 0.000000 0.048332 0.000000
# 6 0.000000 0.000000 0.000000 0.001545 0.000000 0.023798
#
#
# Mechanical properties :
#
#
# Convention : Reuss Voigt Hill
#
# Bulk Modulus (GPa) = 25.03597 37.65226 31.34412
# Shear Modulus (GPa) = 30.98803 37.23435 34.11119
#
# Velocity S-wave (km/s) = 3.60735 3.95424 3.78477
# Velocity P-wave (km/s) = 5.27865 6.05471 5.67995
#
# Compressibility (1/GPa) = 0.03994252
#
# Stress axis : x y z
#
# Youngs Moduli (GPa) = 44.52000 65.18383 112.98226
#
# Poissons Ratio (x) = -0.14406 0.13254
# Poissons Ratio (y) = -0.09839 0.49630
# Poissons Ratio (z) = 0.05223 0.28634
#
# Static dielectric constant tensor:
#      x y z
#    x 4.666800 0.000000 0.057010 
#    y 0.000000 4.552310 0.000000 
#    z 0.057010 0.000000 4.223460 
# 
# 
# High freq. dielectric constant tensor:
#      x y z
#    x 1.965940 0.000000 0.008350 
#    y 0.000000 1.939460 0.000000 
#    z 0.008350 0.000000 1.932830 
# 
# From -- ./inp_files/116347.got.cif
#   From: 2010.06.25/outbox.cif.g09.slc.cpg/sg15_59_cif.got.tgz:116347.got - 2010.06.28 07:06:18.
