data_PCOD8144644
_publ_section_title
;
Structure prediction by ZEFSAII (Michael W. Deem and Ramdas Pophale) SiO2 
 PCOD8144644
Probable space group: C 2/C
;
_chemical_formula_sum "Si O2"
_cell_formula_units_Z 56
_cell_length_a 14.388095
_cell_length_b 11.521744
_cell_length_c 18.397184
_cell_angle_alpha 90.000000
_cell_angle_beta 57.988047
_cell_angle_gamma 90.000000
_cell_volume 2586.048860
_symmetry_space_group_name_H-M "C 2/C"
_symmetry_group_IT_number 15
_symmetry_cell_setting 'monoclinic'
loop_
_space_group_symop_operation_xyz
x,y,z
-x,y,1/2-z
-x,-y,-z
x,-y,1/2+z
1/2+x,1/2+y,z
1/2-x,1/2+y,1/2-z
1/2-x,1/2-y,-z
1/2+x,1/2-y,1/2+z
loop_
_atom_site_type_symbol
_atom_site_label
_atom_site_fract_x
_atom_site_fract_y
_atom_site_fract_z
Si Si1 0.077329 0.232427 0.068546
Si Si2 0.674279 0.667806 0.618697
Si Si3 0.259604 0.846629 0.393563
Si Si4 0.010063 0.988774 0.826873
Si Si5 0.325118 0.075419 0.437326
Si Si6 0.532676 0.961021 0.406940
Si Si7 0.261404 0.584416 0.757648
O O1 0.136481 0.280508 0.116165
O O2 0.036740 0.102982 0.097426
O O3 0.979264 0.320946 0.091292
O O4 0.155040 0.225622 0.965533
O O5 0.558771 0.609486 0.643014
O O6 0.673096 0.802700 0.603096
O O7 0.771426 0.595843 0.538865
O O8 0.696751 0.666560 0.694994
O O9 0.266283 0.841943 0.303274
O O10 0.254166 0.980805 0.422400
O O11 0.000000 0.936811 0.750000
O O12 0.135503 0.001365 0.800835
O O13 0.448372 0.027125 0.389380
O O14 0.655700 0.989640 0.328819
O O15 0.500000 0.000000 0.500000
#
# Coordination Sequence:
#
# PCOD8144644 Si02
#       7
#     8   8   8   8   8   8   8
#     4  10  23  43  72  93 140 185 218 279 354 406
#     4  10  21  45  68  95 134 183 216 276 341 404
#     4  10  23  44  68 104 130 176 227 281 335 413
#     4  10  23  43  67  98 136 176 222 285 340 398
#     4  10  21  43  71  91 136 180 224 264 347 410
#     4  11  24  45  68 102 133 182 227 283 343 407
#     4  11  25  44  67 104 136 166 241 282 328 404
#
# _framework density 21.654655999999999
#
# number of rings (size 3 to 8) (size 9 to 14) (size 15 to 20)
#    0.000    1.714    2.857    0.000    2.000    4.571 
#   15.429    0.000    0.000    0.000    0.000    0.000 
#    0.000    0.000    0.000    0.000    0.000    0.000 
#
# Total GULP energy -347114.129883 kJ/mol
# GULP energy per Si atom -12396.933210 kJ/mol
# Density = 2.160537 g / cm^3
# Si number density = 21.654656 Si / 1000 Ang^3
#
#
#
# Elastic Constant Matrix: (Units=GPa)
#
#
# Indices 1 2 3 4 5 6 
#
# 1 104.9930 35.8928 54.6876 0.0000 -15.0038 0.0000
# 2 35.8928 106.9044 34.3112 0.0000 -4.2466 0.0000
# 3 54.6876 34.3112 112.8782 0.0000 4.9871 0.0000
# 4 0.0000 0.0000 0.0000 26.4853 0.0000 1.0225
# 5 -15.0038 -4.2466 4.9871 0.0000 44.1125 0.0000
# 6 0.0000 0.0000 0.0000 1.0225 0.0000 12.7857
#
#
#
# Elastic Compliance Matrix: (Units=1/GPa)
#
#
# Indices 1 2 3 4 5 6 
#
# 1 0.014583 -0.002587 -0.006520 0.000000 0.005448 0.000000
# 2 -0.002587 0.010906 -0.002080 0.000000 0.000405 0.000000
# 3 -0.006520 -0.002080 0.012821 0.000000 -0.003867 0.000000
# 4 0.000000 0.000000 0.000000 0.037874 0.000000 -0.003029
# 5 0.005448 0.000405 -0.003867 0.000000 0.024999 0.000000
# 6 0.000000 0.000000 0.000000 -0.003029 0.000000 0.078455
#
#
# Mechanical properties :
#
#
# Convention : Reuss Voigt Hill
#
# Bulk Modulus (GPa) = 62.74557 63.83987 63.29272
# Shear Modulus (GPa) = 24.11694 30.00229 27.05961
#
# Velocity S-wave (km/s) = 3.34085 3.72625 3.53880
# Velocity P-wave (km/s) = 6.62723 6.93240 6.78153
#
# Compressibility (1/GPa) = 0.01593738
#
# Stress axis : x y z
#
# Youngs Moduli (GPa) = 68.57101 91.68949 77.99875
#
# Poissons Ratio (x) = 0.23724 0.50852
# Poissons Ratio (y) = 0.17742 0.16220
# Poissons Ratio (z) = 0.44706 0.19067
#
# Static dielectric constant tensor:
#      x y z
#    x 4.008340 0.000000 -0.179550 
#    y 0.000000 3.753350 0.000000 
#    z -0.179550 0.000000 3.958800 
# 
# 
# High freq. dielectric constant tensor:
#      x y z
#    x 1.848210 0.000000 -0.008260 
#    y 0.000000 1.841010 0.000000 
#    z -0.008260 0.000000 1.855620 
# 
# From -- ./inp_files/204386.got.cif
#   From: 2010.06.25/outbox.cif.g09.slc.cpg/sg15_103_cif.got.tgz:204386.got - 2010.06.28 07:06:18.
