data_PCOD8144317
_publ_section_title
;
Structure prediction by ZEFSAII (Michael W. Deem and Ramdas Pophale) SiO2 
 PCOD8144317
Probable space group: C 2/C
;
_chemical_formula_sum "Si O2"
_cell_formula_units_Z 56
_cell_length_a 10.865294
_cell_length_b 28.481898
_cell_length_c 9.172816
_cell_angle_alpha 90.000000
_cell_angle_beta 114.873175
_cell_angle_gamma 90.000000
_cell_volume 2575.347141
_symmetry_space_group_name_H-M "C 2/C"
_symmetry_group_IT_number 15
_symmetry_cell_setting 'monoclinic'
loop_
_space_group_symop_operation_xyz
x,y,z
-x,y,1/2-z
-x,-y,-z
x,-y,1/2+z
1/2+x,1/2+y,z
1/2-x,1/2+y,1/2-z
1/2-x,1/2-y,-z
1/2+x,1/2-y,1/2+z
loop_
_atom_site_type_symbol
_atom_site_label
_atom_site_fract_x
_atom_site_fract_y
_atom_site_fract_z
Si Si1 0.668739 0.797635 0.981116
Si Si2 0.612043 0.829034 0.642194
Si Si3 0.234242 0.042029 0.452908
Si Si4 0.130214 0.146743 0.732424
Si Si5 0.726712 0.454454 0.289162
Si Si6 0.135187 0.853858 0.899667
Si Si7 0.505524 0.067303 0.084688
O O1 0.677372 0.826382 0.834797
O O2 0.507788 0.789915 0.940650
O O3 0.750000 0.750000 0.000000
O O4 0.735371 0.828400 0.141315
O O5 0.734839 0.823868 0.589476
O O6 0.536034 0.877941 0.586455
O O7 0.251387 0.033131 0.632551
O O8 0.158870 0.090828 0.381924
O O9 0.380131 0.039125 0.446667
O O10 0.154739 0.998305 0.337372
O O11 0.131373 0.090807 0.755356
O O12 0.116202 0.159141 0.557009
O O13 0.000000 0.167665 0.750000
O O14 0.865528 0.442083 0.436989
O O15 0.000000 0.837674 0.750000
O O16 0.500000 0.050656 0.250000
#
# Coordination Sequence:
#
# PCOD8144317 Si02
#       7
#     8   8   8   8   8   8   8
#     4  11  23  42  70 101 131 162 213 270 328 410
#     4  10  21  42  67  98 130 173 211 265 335 389
#     4  10  23  34  58  88 129 172 222 272 320 377
#     4  11  24  41  67  93 127 178 220 274 333 394
#     4  11  21  38  53  90 127 170 222 271 325 383
#     4  10  23  43  67  94 134 180 225 268 325 394
#     4  11  18  34  59  86 124 167 217 263 319 385
#
# _framework density 21.744641999999999
#
# number of rings (size 3 to 8) (size 9 to 14) (size 15 to 20)
#    0.000    1.429    2.857    2.571    2.000    4.571 
#    0.000    3.571    3.143    0.000    0.000    0.000 
#    0.000    0.000    0.000    0.000    0.000    0.000 
#
# Total GULP energy -347173.253786 kJ/mol
# GULP energy per Si atom -12399.044778 kJ/mol
# Density = 2.169515 g / cm^3
# Si number density = 21.744642 Si / 1000 Ang^3
#
#
#
# Elastic Constant Matrix: (Units=GPa)
#
#
# Indices 1 2 3 4 5 6 
#
# 1 144.4322 32.9121 77.5278 0.0000 -9.5340 0.0000
# 2 32.9121 66.4771 32.7573 0.0000 -2.4815 0.0000
# 3 77.5278 32.7573 151.8938 0.0000 -9.7739 0.0000
# 4 0.0000 0.0000 0.0000 14.5466 0.0000 0.2754
# 5 -9.5340 -2.4815 -9.7739 0.0000 30.8142 0.0000
# 6 0.0000 0.0000 0.0000 0.2754 0.0000 25.2831
#
#
#
# Elastic Compliance Matrix: (Units=1/GPa)
#
#
# Indices 1 2 3 4 5 6 
#
# 1 0.010021 -0.002722 -0.004433 0.000000 0.001475 0.000000
# 2 -0.002722 0.017572 -0.002413 0.000000 -0.000192 0.000000
# 3 -0.004433 -0.002413 0.009459 0.000000 0.001434 0.000000
# 4 0.000000 0.000000 0.000000 0.068759 0.000000 -0.000749
# 5 0.001475 -0.000192 0.001434 0.000000 0.033349 0.000000
# 6 0.000000 0.000000 0.000000 -0.000749 0.000000 0.039560
#
#
# Mechanical properties :
#
#
# Convention : Reuss Voigt Hill
#
# Bulk Modulus (GPa) = 55.81325 72.13304 63.97315
# Shear Modulus (GPa) = 24.53078 28.76917 26.64998
#
# Velocity S-wave (km/s) = 3.36241 3.64132 3.50464
# Velocity P-wave (km/s) = 6.38731 7.13609 6.77205
#
# Compressibility (1/GPa) = 0.01791689
#
# Stress axis : x y z
#
# Youngs Moduli (GPa) = 99.79405 56.90870 105.72320
#
# Poissons Ratio (x) = 0.15489 0.46864
# Poissons Ratio (y) = 0.27162 0.25508
# Poissons Ratio (z) = 0.44236 0.13730
#
# Static dielectric constant tensor:
#      x y z
#    x 4.020630 0.000000 -0.029350 
#    y 0.000000 4.315590 0.000000 
#    z -0.029350 0.000000 3.953440 
# 
# 
# High freq. dielectric constant tensor:
#      x y z
#    x 1.853600 0.000000 -0.000210 
#    y 0.000000 1.844040 0.000000 
#    z -0.000210 0.000000 1.861910 
# 
# From -- ./inp_files/35778.got.cif
#   From: 2010.06.25/outbox.cif.g09.slc.cpg/sg15_18_cif.got.tgz:35778.got - 2010.06.28 07:06:18.
