data_PCOD8144551
_publ_section_title
;
Structure prediction by ZEFSAII (Michael W. Deem and Ramdas Pophale) SiO2 
 PCOD8144551
Probable space group: C 2/C
;
_chemical_formula_sum "Si O2"
_cell_formula_units_Z 64
_cell_length_a 15.270192
_cell_length_b 8.818210
_cell_length_c 23.094149
_cell_angle_alpha 90.000000
_cell_angle_beta 96.137856
_cell_angle_gamma 90.000000
_cell_volume 3091.933534
_symmetry_space_group_name_H-M "C 2/C"
_symmetry_group_IT_number 15
_symmetry_cell_setting 'monoclinic'
loop_
_space_group_symop_operation_xyz
x,y,z
-x,y,1/2-z
-x,-y,-z
x,-y,1/2+z
1/2+x,1/2+y,z
1/2-x,1/2+y,1/2-z
1/2-x,1/2-y,-z
1/2+x,1/2-y,1/2+z
loop_
_atom_site_type_symbol
_atom_site_label
_atom_site_fract_x
_atom_site_fract_y
_atom_site_fract_z
Si Si1 0.106899 0.085948 0.534810
Si Si2 0.698447 0.978063 0.650853
Si Si3 0.298292 0.990151 0.060593
Si Si4 0.665281 0.741864 0.861723
Si Si5 0.396637 0.988128 0.734665
Si Si6 0.355424 0.753223 0.149483
Si Si7 0.052024 0.998745 0.907948
Si Si8 0.912136 0.431069 0.966110
O O1 0.204221 0.083490 0.565538
O O2 0.068694 0.253706 0.529544
O O3 0.048731 0.994100 0.577642
O O4 0.109887 0.014792 0.470684
O O5 0.757382 0.128858 0.651812
O O6 0.654924 0.967067 0.709845
O O7 0.761164 0.831913 0.645208
O O8 0.615504 0.981609 0.600459
O O9 0.362885 0.883017 0.101458
O O10 0.299391 0.163153 0.081179
O O11 0.326649 0.981721 0.996200
O O12 0.578124 0.653363 0.876931
O O13 0.640118 0.855553 0.808821
O O14 0.500000 0.965150 0.750000
O O15 0.376902 0.159449 0.710692
O O16 0.432166 0.635820 0.137034
O O17 0.000000 0.500000 0.000000
#
# Coordination Sequence:
#
# PCOD8144551 Si02
#       8
#     8   8   8   8   8   8   8   8
#     4  11  22  37  63  99 133 174 208 267 322 404
#     4  11  24  44  67  94 130 178 222 271 331 384
#     4  11  21  39  64  94 132 167 215 253 334 385
#     4  10  24  43  65  97 132 171 217 273 320 396
#     4  11  26  42  69  95 128 172 226 276 328 386
#     4  10  21  43  67  89 130 174 217 267 319 401
#     4  10  22  39  63  94 137 165 215 262 329 379
#     4  12  25  38  68 100 137 173 219 273 329 396
#
# _framework density 20.699021999999999
#
# number of rings (size 3 to 8) (size 9 to 14) (size 15 to 20)
#    0.000    1.250    2.500    3.375    5.250    5.000 
#    0.000    2.500    0.000    0.000    0.000    0.000 
#    0.000    0.000    0.000    0.000    0.000    0.000 
#
# Total GULP energy -396740.422945 kJ/mol
# GULP energy per Si atom -12398.138217 kJ/mol
# Density = 2.065191 g / cm^3
# Si number density = 20.699022 Si / 1000 Ang^3
#
#
#
# Elastic Constant Matrix: (Units=GPa)
#
#
# Indices 1 2 3 4 5 6 
#
# 1 98.1299 39.6934 37.5551 0.0000 -1.8343 0.0000
# 2 39.6934 121.6297 51.0131 0.0000 -4.2811 0.0000
# 3 37.5551 51.0131 125.1623 0.0000 -15.2135 0.0000
# 4 0.0000 0.0000 0.0000 24.3636 0.0000 -0.4016
# 5 -1.8343 -4.2811 -15.2135 0.0000 37.7644 0.0000
# 6 0.0000 0.0000 0.0000 -0.4016 0.0000 18.4111
#
#
#
# Elastic Compliance Matrix: (Units=1/GPa)
#
#
# Indices 1 2 3 4 5 6 
#
# 1 0.012373 -0.002977 -0.002594 0.000000 -0.000782 0.000000
# 2 -0.002977 0.010643 -0.003486 0.000000 -0.000342 0.000000
# 3 -0.002594 -0.003486 0.010647 0.000000 0.003768 0.000000
# 4 0.000000 0.000000 0.000000 0.041060 0.000000 0.000896
# 5 -0.000782 -0.000342 0.003768 0.000000 0.027921 0.000000
# 6 0.000000 0.000000 0.000000 0.000896 0.000000 0.054335
#
#
# Mechanical properties :
#
#
# Convention : Reuss Voigt Hill
#
# Bulk Modulus (GPa) = 64.31708 66.82723 65.57215
# Shear Modulus (GPa) = 27.73509 30.55182 29.14346
#
# Velocity S-wave (km/s) = 3.66447 3.84605 3.75635
# Velocity P-wave (km/s) = 7.00317 7.21651 7.11064
#
# Compressibility (1/GPa) = 0.01554797
#
# Stress axis : x y z
#
# Youngs Moduli (GPa) = 80.82049 93.95413 93.92421
#
# Poissons Ratio (x) = 0.27974 0.24364
# Poissons Ratio (y) = 0.24064 0.32744
# Poissons Ratio (z) = 0.20965 0.32755
#
# Static dielectric constant tensor:
#      x y z
#    x 3.610240 0.000000 -0.120680 
#    y 0.000000 3.884690 0.000000 
#    z -0.120680 0.000000 3.766100 
# 
# 
# High freq. dielectric constant tensor:
#      x y z
#    x 1.807720 0.000000 -0.014350 
#    y 0.000000 1.822690 0.000000 
#    z -0.014350 0.000000 1.809270 
# 
# From -- ./inp_files/273149.got.cif
#   From: 2010.06.25/outbox.cif.g09.slc.cpg/sg15_137_cif.got.tgz:273149.got - 2010.06.28 07:06:18.
