data_PCOD8144129
_publ_section_title
;
Structure prediction by ZEFSAII (Michael W. Deem and Ramdas Pophale) SiO2 
 PCOD8144129
Probable space group: C 2/C
;
_chemical_formula_sum "Si O2"
_cell_formula_units_Z 52
_cell_length_a 28.796017
_cell_length_b 13.428395
_cell_length_c 9.596772
_cell_angle_alpha 90.000000
_cell_angle_beta 40.565971
_cell_angle_gamma 90.000000
_cell_volume 2413.297845
_symmetry_space_group_name_H-M "C 2/C"
_symmetry_group_IT_number 15
_symmetry_cell_setting 'monoclinic'
loop_
_space_group_symop_operation_xyz
x,y,z
-x,y,1/2-z
-x,-y,-z
x,-y,1/2+z
1/2+x,1/2+y,z
1/2-x,1/2+y,1/2-z
1/2-x,1/2-y,-z
1/2+x,1/2-y,1/2+z
loop_
_atom_site_type_symbol
_atom_site_label
_atom_site_fract_x
_atom_site_fract_y
_atom_site_fract_z
Si Si1 0.920680 0.564383 0.442817
Si Si2 0.156124 0.550547 0.609327
Si Si3 0.415525 0.594062 0.785066
Si Si4 0.164085 0.230905 0.051268
Si Si5 0.203135 0.151985 0.240618
Si Si6 0.924363 0.897312 0.940937
Si Si7 0.000000 0.244271 0.750000
O O1 0.874651 0.519157 0.671856
O O2 0.873316 0.537929 0.418001
O O3 0.931183 0.684472 0.437390
O O4 0.000000 0.514772 0.250000
O O5 0.125298 0.660753 0.640068
O O6 0.242996 0.557554 0.409008
O O7 0.435181 0.493708 0.819794
O O8 0.406177 0.575479 0.641919
O O9 0.479133 0.674485 0.666031
O O10 0.341783 0.633554 0.018228
O O11 0.151757 0.168127 0.222810
O O12 0.138596 0.170635 0.975055
O O13 0.250030 0.247524 0.842245
O O14 0.000000 0.839888 0.750000
#
# Coordination Sequence:
#
# PCOD8144129 Si02
#       7
#     8   8   8   8   8   8   4
#     4  10  23  37  65  95 133 173 209 266 327 383
#     4  10  21  42  62  97 134 167 221 259 322 401
#     4  12  25  45  66  99 131 169 229 272 333 400
#     4   9  22  44  69  96 133 172 219 264 334 382
#     4   9  22  44  69  93 134 177 209 271 325 388
#     4  12  27  41  71  99 129 173 220 284 332 392
#     4  10  26  40  68  90 134 176 218 268 334 392
#
# _framework density 21.547277999999999
#
# number of rings (size 3 to 8) (size 9 to 14) (size 15 to 20)
#    1.385    0.308    0.769    2.769    4.308    4.923 
#    0.000    0.000    0.000    0.000    0.000    0.000 
#    0.000    0.000    0.000    0.000    0.000    0.000 
#
# Total GULP energy -322139.315765 kJ/mol
# GULP energy per Si atom -12389.973683 kJ/mol
# Density = 2.149824 g / cm^3
# Si number density = 21.547278 Si / 1000 Ang^3
#
#
#
# Elastic Constant Matrix: (Units=GPa)
#
#
# Indices 1 2 3 4 5 6 
#
# 1 107.0527 30.8991 32.1148 0.0000 15.4944 0.0000
# 2 30.8991 49.7661 -0.0030 0.0000 -2.1839 0.0000
# 3 32.1148 -0.0030 107.9908 0.0000 14.6053 0.0000
# 4 0.0000 0.0000 0.0000 19.2651 0.0000 5.0856
# 5 15.4944 -2.1839 14.6053 0.0000 37.1626 0.0000
# 6 0.0000 0.0000 0.0000 5.0856 0.0000 30.2755
#
#
#
# Elastic Compliance Matrix: (Units=1/GPa)
#
#
# Indices 1 2 3 4 5 6 
#
# 1 0.013539 -0.008618 -0.003374 0.000000 -0.004825 0.000000
# 2 -0.008618 0.025635 0.001979 0.000000 0.004322 0.000000
# 3 -0.003374 0.001979 0.010622 0.000000 -0.002652 0.000000
# 4 0.000000 0.000000 0.000000 0.054316 0.000000 -0.009124
# 5 -0.004825 0.004322 -0.002652 0.000000 0.030217 0.000000
# 6 0.000000 0.000000 0.000000 -0.009124 0.000000 0.034563
#
#
# Mechanical properties :
#
#
# Convention : Reuss Voigt Hill
#
# Bulk Modulus (GPa) = 33.59107 43.42572 38.50840
# Shear Modulus (GPa) = 25.14572 30.79389 27.96981
#
# Velocity S-wave (km/s) = 3.41985 3.78449 3.60678
# Velocity P-wave (km/s) = 5.58723 6.26848 5.93764
#
# Compressibility (1/GPa) = 0.02976981
#
# Stress axis : x y z
#
# Youngs Moduli (GPa) = 73.85886 39.00948 94.14341
#
# Poissons Ratio (x) = 0.33620 0.31764
# Poissons Ratio (y) = 0.63654 -0.18632
# Poissons Ratio (z) = 0.24920 -0.07721
#
# Static dielectric constant tensor:
#      x y z
#    x 3.784150 0.000000 -0.056190 
#    y 0.000000 3.667690 0.000000 
#    z -0.056190 0.000000 3.835910 
# 
# 
# High freq. dielectric constant tensor:
#      x y z
#    x 1.839610 0.000000 -0.005920 
#    y 0.000000 1.827080 0.000000 
#    z -0.005920 0.000000 1.845590 
# 
# From -- ./inp_files/66127.got.cif
#   From: 2010.06.25/outbox.cif.g09.slc.cpg/sg15_34_cif.got.tgz:66127.got - 2010.06.28 07:06:18.
