data_PCOD8144747
_publ_section_title
;
Structure prediction by ZEFSAII (Michael W. Deem and Ramdas Pophale) SiO2 
 PCOD8144747
Probable space group: C 2/C
;
_chemical_formula_sum "Si O2"
_cell_formula_units_Z 60
_cell_length_a 21.473286
_cell_length_b 8.806585
_cell_length_c 23.069116
_cell_angle_alpha 90.000000
_cell_angle_beta 141.786046
_cell_angle_gamma 90.000000
_cell_volume 2698.651131
_symmetry_space_group_name_H-M "C 2/C"
_symmetry_group_IT_number 15
_symmetry_cell_setting 'monoclinic'
loop_
_space_group_symop_operation_xyz
x,y,z
-x,y,1/2-z
-x,-y,-z
x,-y,1/2+z
1/2+x,1/2+y,z
1/2-x,1/2+y,1/2-z
1/2-x,1/2-y,-z
1/2+x,1/2-y,1/2+z
loop_
_atom_site_type_symbol
_atom_site_label
_atom_site_fract_x
_atom_site_fract_y
_atom_site_fract_z
Si Si1 0.486395 0.664783 0.060541
Si Si2 0.880148 0.628710 0.567691
Si Si3 0.017994 0.678438 0.365403
Si Si4 0.665741 0.357322 0.870819
Si Si5 0.699998 0.901611 0.755885
Si Si6 0.598698 0.652178 0.027474
Si Si7 0.689317 0.743196 0.262844
Si Si8 0.500000 0.597020 0.750000
O O1 0.416286 0.798779 0.033277
O O2 0.516029 0.693956 0.015645
O O3 0.586223 0.656857 0.172394
O O4 0.426849 0.507021 0.021999
O O5 0.947667 0.484446 0.633054
O O6 0.763361 0.582045 0.476839
O O7 0.896611 0.745534 0.632640
O O8 0.089038 0.717705 0.472164
O O9 0.900752 0.677687 0.295725
O O10 0.036048 0.801618 0.329496
O O11 0.705183 0.267962 0.843082
O O12 0.595407 0.496301 0.801288
O O13 0.789490 0.852475 0.864666
O O14 0.721254 0.839935 0.706646
O O15 0.686619 0.081698 0.742107
#
# Coordination Sequence:
#
# PCOD8144747 Si02
#       8
#     8   8   8   8   8   8   8   4
#     4  10  21  44  69 102 139 187 225 287 349 422
#     4  11  25  45  70 103 135 184 238 288 353 411
#     4  12  28  46  70 105 142 181 238 298 340 422
#     4  11  26  46  74  98 137 190 231 287 353 428
#     4  11  27  44  71 108 137 187 229 295 349 417
#     4  10  24  43  70 100 146 184 229 285 362 410
#     4  11  24  44  74 103 143 177 237 284 351 419
#     4  12  30  46  72  98 142 188 234 282 354 422
#
# _framework density 22.233329000000001
#
# number of rings (size 3 to 8) (size 9 to 14) (size 15 to 20)
#    0.000    1.067    1.333    3.200   13.067    3.200 
#    0.000    0.000    0.000    0.000    0.000    0.000 
#    0.000    0.000    0.000    0.000    0.000    0.000 
#
# Total GULP energy -372184.344860 kJ/mol
# GULP energy per Si atom -12406.144829 kJ/mol
# Density = 2.218273 g / cm^3
# Si number density = 22.233329 Si / 1000 Ang^3
#
#
#
# Elastic Constant Matrix: (Units=GPa)
#
#
# Indices 1 2 3 4 5 6 
#
# 1 100.6343 49.5777 35.2227 0.0000 -4.8979 0.0000
# 2 49.5777 104.4576 31.0284 0.0000 -7.3637 0.0000
# 3 35.2227 31.0284 91.4399 0.0000 1.5580 0.0000
# 4 0.0000 0.0000 0.0000 29.6670 0.0000 2.2404
# 5 -4.8979 -7.3637 1.5580 0.0000 38.8555 0.0000
# 6 0.0000 0.0000 0.0000 2.2404 0.0000 29.8400
#
#
#
# Elastic Compliance Matrix: (Units=1/GPa)
#
#
# Indices 1 2 3 4 5 6 
#
# 1 0.013918 -0.005503 -0.003508 0.000000 0.000852 0.000000
# 2 -0.005503 0.013008 -0.002326 0.000000 0.001865 0.000000
# 3 -0.003508 -0.002326 0.013101 0.000000 -0.001408 0.000000
# 4 0.000000 0.000000 0.000000 0.033900 0.000000 -0.002545
# 5 0.000852 0.001865 -0.001408 0.000000 0.026254 0.000000
# 6 0.000000 0.000000 0.000000 -0.002545 0.000000 0.033703
#
#
# Mechanical properties :
#
#
# Convention : Reuss Voigt Hill
#
# Bulk Modulus (GPa) = 57.63255 58.68773 58.16014
# Shear Modulus (GPa) = 30.79944 31.71936 31.25940
#
# Velocity S-wave (km/s) = 3.72598 3.78121 3.75369
# Velocity P-wave (km/s) = 6.66997 6.74663 6.70841
#
# Compressibility (1/GPa) = 0.01735130
#
# Stress axis : x y z
#
# Youngs Moduli (GPa) = 71.85157 76.87810 76.33212
#
# Poissons Ratio (x) = 0.42309 0.26778
# Poissons Ratio (y) = 0.39543 0.17753
# Poissons Ratio (z) = 0.25206 0.17880
#
# Static dielectric constant tensor:
#      x y z
#    x 4.140440 0.000000 0.000690 
#    y 0.000000 3.907040 0.000000 
#    z 0.000690 0.000000 3.945740 
# 
# 
# High freq. dielectric constant tensor:
#      x y z
#    x 1.883660 0.000000 0.001710 
#    y 0.000000 1.871790 0.000000 
#    z 0.001710 0.000000 1.881800 
# 
# From -- ./inp_files/279702.got.cif
#   From: 2010.06.25/outbox.cif.g09.slc.cpg/sg15_140_cif.got.tgz:279702.got - 2010.06.28 07:06:18.
