data_PCOD8144622
_publ_section_title
;
Structure prediction by ZEFSAII (Michael W. Deem and Ramdas Pophale) SiO2 
 PCOD8144622
Probable space group: C 2/C
;
_chemical_formula_sum "Si O2"
_cell_formula_units_Z 56
_cell_length_a 7.882254
_cell_length_b 18.586794
_cell_length_c 16.682419
_cell_angle_alpha 90.000000
_cell_angle_beta 109.984708
_cell_angle_gamma 90.000000
_cell_volume 2296.899130
_symmetry_space_group_name_H-M "C 2/C"
_symmetry_group_IT_number 15
_symmetry_cell_setting 'monoclinic'
loop_
_space_group_symop_operation_xyz
x,y,z
-x,y,1/2-z
-x,-y,-z
x,-y,1/2+z
1/2+x,1/2+y,z
1/2-x,1/2+y,1/2-z
1/2-x,1/2-y,-z
1/2+x,1/2-y,1/2+z
loop_
_atom_site_type_symbol
_atom_site_label
_atom_site_fract_x
_atom_site_fract_y
_atom_site_fract_z
Si Si1 0.415608 0.805491 0.391338
Si Si2 0.289902 0.011929 0.474645
Si Si3 0.307823 0.081660 0.748832
Si Si4 0.203681 0.859944 0.070982
Si Si5 0.194278 0.064850 0.289088
Si Si6 0.704218 0.354283 0.504386
Si Si7 0.184535 0.318327 0.805666
O O1 0.342250 0.877082 0.337211
O O2 0.634329 0.807453 0.433887
O O3 0.314199 0.802046 0.461176
O O4 0.353230 0.736725 0.328976
O O5 0.235554 0.060195 0.541583
O O6 0.237812 0.058322 0.389130
O O7 0.500000 0.000000 0.500000
O O8 0.191535 0.935423 0.468124
O O9 0.500000 0.052827 0.750000
O O10 0.213077 0.133707 0.668940
O O11 0.185371 0.012958 0.745659
O O12 0.005254 0.828131 0.016698
O O13 0.321450 0.119285 0.262219
O O14 0.000000 0.100804 0.250000
O O15 0.812387 0.354112 0.605390
O O16 0.000000 0.276532 0.750000
#
# Coordination Sequence:
#
# PCOD8144622 Si02
#       7
#     8   8   8   8   8   8   8
#     4  11  26  48  71 104 144 194 242 296 364 436
#     4  12  21  42  74 108 148 185 241 301 363 430
#     4  10  21  43  70 103 137 186 237 295 358 429
#     4  11  24  41  74 105 144 186 245 302 349 434
#     4  12  24  42  70 103 144 186 237 302 362 430
#     4  12  24  47  74 108 143 196 243 294 370 431
#     4  12  29  48  70 103 149 190 244 300 371 437
#
# _framework density 24.380696
#
# number of rings (size 3 to 8) (size 9 to 14) (size 15 to 20)
#    0.000    0.571    2.857    5.571    2.000    2.286 
#    0.000    0.000    0.000    0.000    0.000    0.000 
#    0.000    0.000    0.000    0.000    0.000    0.000 
#
# Total GULP energy -347215.187230 kJ/mol
# GULP energy per Si atom -12400.542401 kJ/mol
# Density = 2.432520 g / cm^3
# Si number density = 24.380696 Si / 1000 Ang^3
#
#
#
# Elastic Constant Matrix: (Units=GPa)
#
#
# Indices 1 2 3 4 5 6 
#
# 1 147.1321 28.2669 55.2593 0.0000 18.8384 0.0000
# 2 28.2669 71.8770 17.1730 0.0000 1.0361 0.0000
# 3 55.2593 17.1730 126.7376 0.0000 14.9111 0.0000
# 4 0.0000 0.0000 0.0000 33.8465 0.0000 2.0098
# 5 18.8384 1.0361 14.9111 0.0000 41.9163 0.0000
# 6 0.0000 0.0000 0.0000 2.0098 0.0000 36.3219
#
#
#
# Elastic Compliance Matrix: (Units=1/GPa)
#
#
# Indices 1 2 3 4 5 6 
#
# 1 0.008861 -0.002687 -0.003171 0.000000 -0.002788 0.000000
# 2 -0.002687 0.015198 -0.001029 0.000000 0.001198 0.000000
# 3 -0.003171 -0.001029 0.009645 0.000000 -0.001980 0.000000
# 4 0.000000 0.000000 0.000000 0.029643 0.000000 -0.001640
# 5 -0.002788 0.001198 -0.001980 0.000000 0.025785 0.000000
# 6 0.000000 0.000000 0.000000 -0.001640 0.000000 0.027622
#
#
# Mechanical properties :
#
#
# Convention : Reuss Voigt Hill
#
# Bulk Modulus (GPa) = 50.17498 60.79390 55.48444
# Shear Modulus (GPa) = 36.45080 38.75344 37.60212
#
# Velocity S-wave (km/s) = 3.87081 3.99120 3.93146
# Velocity P-wave (km/s) = 6.37197 6.79918 6.58904
#
# Compressibility (1/GPa) = 0.01993025
#
# Stress axis : x y z
#
# Youngs Moduli (GPa) = 112.85624 65.79900 103.67533
#
# Poissons Ratio (x) = 0.17679 0.32880
# Poissons Ratio (y) = 0.30322 0.10666
# Poissons Ratio (z) = 0.35791 0.06769
#
# Static dielectric constant tensor:
#      x y z
#    x 4.475420 0.000000 -0.091960 
#    y 0.000000 4.274260 0.000000 
#    z -0.091960 0.000000 4.426050 
# 
# 
# High freq. dielectric constant tensor:
#      x y z
#    x 1.974380 0.000000 0.001040 
#    y 0.000000 1.960200 0.000000 
#    z 0.001040 0.000000 1.979430 
# 
# From -- ./inp_files/191018.got.cif
#   From: 2010.06.25/outbox.cif.g09.slc.cpg/sg15_96_cif.got.tgz:191018.got - 2010.06.28 07:06:18.
