data_PCOD8144607
_publ_section_title
;
Structure prediction by ZEFSAII (Michael W. Deem and Ramdas Pophale) SiO2 
 PCOD8144607
Probable space group: C 2/C
;
_chemical_formula_sum "Si O2"
_cell_formula_units_Z 44
_cell_length_a 25.342195
_cell_length_b 17.447909
_cell_length_c 7.415666
_cell_angle_alpha 90.000000
_cell_angle_beta 143.803586
_cell_angle_gamma 90.000000
_cell_volume 1936.414143
_symmetry_space_group_name_H-M "C 2/C"
_symmetry_group_IT_number 15
_symmetry_cell_setting 'monoclinic'
loop_
_space_group_symop_operation_xyz
x,y,z
-x,y,1/2-z
-x,-y,-z
x,-y,1/2+z
1/2+x,1/2+y,z
1/2-x,1/2+y,1/2-z
1/2-x,1/2-y,-z
1/2+x,1/2-y,1/2+z
loop_
_atom_site_type_symbol
_atom_site_label
_atom_site_fract_x
_atom_site_fract_y
_atom_site_fract_z
Si Si1 0.811626 0.422727 0.249870
Si Si2 0.742643 0.310926 0.776385
Si Si3 0.000000 0.375542 0.750000
Si Si4 0.118474 0.194267 0.453690
Si Si5 0.746985 0.582974 0.953919
Si Si6 0.941888 0.757303 0.341804
O O1 0.914872 0.429475 0.468227
O O2 0.814824 0.408190 0.473569
O O3 0.765979 0.351048 0.027750
O O4 0.750941 0.496327 0.035953
O O5 0.772893 0.362424 0.690370
O O6 0.636781 0.294168 0.494920
O O7 0.798452 0.232265 0.921784
O O8 0.973574 0.323642 0.848786
O O9 0.148843 0.109733 0.608809
O O10 0.095386 0.250649 0.558082
O O11 0.029903 0.187195 0.085511
#
# Coordination Sequence:
#
# PCOD8144607 Si02
#       6
#     8   8   4   8   8   8
#     4  12  25  42  66  95 138 177 217 267 339 399
#     4  11  22  45  69  93 131 174 221 281 324 387
#     4  12  24  40  64 108 130 170 224 274 334 398
#     4  10  21  43  69  95 131 169 227 278 323 389
#     4  11  24  44  64  96 131 182 214 263 334 392
#     4  10  22  38  68 102 125 166 225 280 327 375
#
# _framework density 22.722411999999998
#
# number of rings (size 3 to 8) (size 9 to 14) (size 15 to 20)
#    0.000    1.091    3.636    4.364    2.545    2.182 
#    0.000    0.909    4.000    0.000    0.000    0.000 
#    0.000    0.000    0.000    0.000    0.000    0.000 
#
# Total GULP energy -272654.300008 kJ/mol
# GULP energy per Si atom -12393.377273 kJ/mol
# Density = 2.267069 g / cm^3
# Si number density = 22.722412 Si / 1000 Ang^3
#
#
#
# Elastic Constant Matrix: (Units=GPa)
#
#
# Indices 1 2 3 4 5 6 
#
# 1 98.4114 49.0810 35.6443 0.0000 -0.5214 0.0000
# 2 49.0810 79.9823 38.8764 0.0000 8.0210 0.0000
# 3 35.6443 38.8764 134.1086 0.0000 20.0691 0.0000
# 4 0.0000 0.0000 0.0000 32.8328 0.0000 -1.8865
# 5 -0.5214 8.0210 20.0691 0.0000 35.4881 0.0000
# 6 0.0000 0.0000 0.0000 -1.8865 0.0000 31.6253
#
#
#
# Elastic Compliance Matrix: (Units=1/GPa)
#
#
# Indices 1 2 3 4 5 6 
#
# 1 0.015260 -0.008712 -0.002030 0.000000 0.003341 0.000000
# 2 -0.008712 0.019559 -0.002921 0.000000 -0.002897 0.000000
# 3 -0.002030 -0.002921 0.009557 0.000000 -0.004775 0.000000
# 4 0.000000 0.000000 0.000000 0.030562 0.000000 0.001823
# 5 0.003341 -0.002897 -0.004775 0.000000 0.031582 0.000000
# 6 0.000000 0.000000 0.000000 0.001823 0.000000 0.031729
#
#
# Mechanical properties :
#
#
# Convention : Reuss Voigt Hill
#
# Bulk Modulus (GPa) = 58.65257 62.18954 60.42106
# Shear Modulus (GPa) = 29.19538 32.58261 30.88900
#
# Velocity S-wave (km/s) = 3.58840 3.79085 3.69101
# Velocity P-wave (km/s) = 6.56030 6.82564 6.69428
#
# Compressibility (1/GPa) = 0.01704955
#
# Stress axis : x y z
#
# Youngs Moduli (GPa) = 65.53257 51.12657 104.62993
#
# Poissons Ratio (x) = 0.44543 0.21243
# Poissons Ratio (y) = 0.57094 0.30561
# Poissons Ratio (z) = 0.13305 0.14933
#
# Static dielectric constant tensor:
#      x y z
#    x 4.246020 0.000000 0.053240 
#    y 0.000000 3.872920 0.000000 
#    z 0.053240 0.000000 4.435270 
# 
# 
# High freq. dielectric constant tensor:
#      x y z
#    x 1.913750 0.000000 -0.005190 
#    y 0.000000 1.862940 0.000000 
#    z -0.005190 0.000000 1.902530 
# 
# From -- ./inp_files/70538.got.cif
#   From: 2010.06.25/outbox.cif.g09.slc.cpg/sg15_36_cif.got.tgz:70538.got - 2010.06.28 07:06:18.
