data_PCOD8144487
_publ_section_title
;
Structure prediction by ZEFSAII (Michael W. Deem and Ramdas Pophale) SiO2 
 PCOD8144487
Probable space group: C 2/C
;
_chemical_formula_sum "Si O2"
_cell_formula_units_Z 56
_cell_length_a 13.325965
_cell_length_b 14.059887
_cell_length_c 16.243126
_cell_angle_alpha 90.000000
_cell_angle_beta 117.789756
_cell_angle_gamma 90.000000
_cell_volume 2692.332147
_symmetry_space_group_name_H-M "C 2/C"
_symmetry_group_IT_number 15
_symmetry_cell_setting 'monoclinic'
loop_
_space_group_symop_operation_xyz
x,y,z
-x,y,1/2-z
-x,-y,-z
x,-y,1/2+z
1/2+x,1/2+y,z
1/2-x,1/2+y,1/2-z
1/2-x,1/2-y,-z
1/2+x,1/2-y,1/2+z
loop_
_atom_site_type_symbol
_atom_site_label
_atom_site_fract_x
_atom_site_fract_y
_atom_site_fract_z
Si Si1 0.013349 0.217141 0.007528
Si Si2 0.288854 0.350566 0.480678
Si Si3 0.158704 0.475784 0.981207
Si Si4 0.913485 0.775308 0.290072
Si Si5 0.561946 0.907755 0.100231
Si Si6 0.751562 0.578943 0.705676
Si Si7 0.248108 0.374725 0.858519
O O1 0.923638 0.143317 0.013195
O O2 0.981984 0.245702 0.901170
O O3 0.997473 0.310210 0.057165
O O4 0.139346 0.176575 0.064906
O O5 0.250000 0.250000 0.500000
O O6 0.251089 0.438974 0.523396
O O7 0.226748 0.365311 0.370511
O O8 0.178498 0.403740 0.913421
O O9 0.029326 0.509639 0.925289
O O10 0.160920 0.421664 0.068996
O O11 0.845321 0.873074 0.276036
O O12 0.826560 0.691118 0.230859
O O13 0.000000 0.793403 0.250000
O O14 0.624870 0.907415 0.210188
O O15 0.718082 0.468691 0.679650
#
# Coordination Sequence:
#
# PCOD8144487 Si02
#       7
#     8   8   8   8   8   8   8
#     4  11  24  44  70  92 135 177 219 272 336 389
#     4  10  21  43  64  94 128 176 216 269 323 385
#     4  10  24  38  69  95 132 173 220 270 333 389
#     4  11  25  42  68  99 135 174 219 273 332 399
#     4  11  22  42  64 101 127 172 222 276 321 394
#     4  10  25  41  67  96 138 168 227 273 324 396
#     4  11  25  45  65 100 133 175 220 274 332 396
#
# _framework density 20.799810999999998
#
# number of rings (size 3 to 8) (size 9 to 14) (size 15 to 20)
#    0.000    1.429    2.857    0.857    8.000    8.000 
#    0.000    0.000    0.000    0.000    0.000    0.000 
#    0.000    0.000    0.000    0.000    0.000    0.000 
#
# Total GULP energy -347098.072006 kJ/mol
# GULP energy per Si atom -12396.359714 kJ/mol
# Density = 2.075247 g / cm^3
# Si number density = 20.799811 Si / 1000 Ang^3
#
#
#
# Elastic Constant Matrix: (Units=GPa)
#
#
# Indices 1 2 3 4 5 6 
#
# 1 102.2673 43.6323 40.0861 0.0000 1.5899 0.0000
# 2 43.6323 102.8304 49.7219 0.0000 -1.9848 0.0000
# 3 40.0861 49.7219 128.4705 0.0000 17.7280 0.0000
# 4 0.0000 0.0000 0.0000 35.1744 0.0000 -4.7696
# 5 1.5899 -1.9848 17.7280 0.0000 20.5683 0.0000
# 6 0.0000 0.0000 0.0000 -4.7696 0.0000 42.2950
#
#
#
# Elastic Compliance Matrix: (Units=1/GPa)
#
#
# Indices 1 2 3 4 5 6 
#
# 1 0.012462 -0.004118 -0.002391 0.000000 0.000700 0.000000
# 2 -0.004118 0.013976 -0.004942 0.000000 0.005927 0.000000
# 3 -0.002391 -0.004942 0.011898 0.000000 -0.010547 0.000000
# 4 0.000000 0.000000 0.000000 0.028871 0.000000 0.003256
# 5 0.000700 0.005927 -0.010547 0.000000 0.058227 0.000000
# 6 0.000000 0.000000 0.000000 0.003256 0.000000 0.024011
#
#
# Mechanical properties :
#
#
# Convention : Reuss Voigt Hill
#
# Bulk Modulus (GPa) = 64.79435 66.71652 65.75543
# Shear Modulus (GPa) = 28.17035 32.94941 30.55988
#
# Velocity S-wave (km/s) = 3.68415 3.98442 3.83722
# Velocity P-wave (km/s) = 7.02256 7.30155 7.16341
#
# Compressibility (1/GPa) = 0.01543345
#
# Stress axis : x y z
#
# Youngs Moduli (GPa) = 80.24652 71.55089 84.04624
#
# Poissons Ratio (x) = 0.29464 0.20098
# Poissons Ratio (y) = 0.33044 0.41537
# Poissons Ratio (z) = 0.19189 0.35361
#
# Static dielectric constant tensor:
#      x y z
#    x 3.897550 0.000000 -0.087110 
#    y 0.000000 3.907840 0.000000 
#    z -0.087110 0.000000 3.869270 
# 
# 
# High freq. dielectric constant tensor:
#      x y z
#    x 1.821730 0.000000 -0.001940 
#    y 0.000000 1.818370 0.000000 
#    z -0.001940 0.000000 1.815120 
# 
# From -- ./inp_files/198430.got.cif
#   From: 2010.06.25/outbox.cif.g09.slc.cpg/sg15_100_cif.got.tgz:198430.got - 2010.06.28 07:06:18.
