data_PCOD8144207
_publ_section_title
;
Structure prediction by ZEFSAII (Michael W. Deem and Ramdas Pophale) SiO2 
 PCOD8144207
Probable space group: C 2/C
;
_chemical_formula_sum "Si O2"
_cell_formula_units_Z 60
_cell_length_a 8.253421
_cell_length_b 16.441284
_cell_length_c 22.642912
_cell_angle_alpha 90.000000
_cell_angle_beta 101.613018
_cell_angle_gamma 90.000000
_cell_volume 3009.674616
_symmetry_space_group_name_H-M "C 2/C"
_symmetry_group_IT_number 15
_symmetry_cell_setting 'monoclinic'
loop_
_space_group_symop_operation_xyz
x,y,z
-x,y,1/2-z
-x,-y,-z
x,-y,1/2+z
1/2+x,1/2+y,z
1/2-x,1/2+y,1/2-z
1/2-x,1/2-y,-z
1/2+x,1/2-y,1/2+z
loop_
_atom_site_type_symbol
_atom_site_label
_atom_site_fract_x
_atom_site_fract_y
_atom_site_fract_z
Si Si1 0.528048 0.336199 0.366431
Si Si2 0.880558 0.954134 0.447992
Si Si3 0.264255 0.611259 0.378674
Si Si4 0.000000 0.055168 0.750000
Si Si5 0.664512 0.235599 0.555899
Si Si6 0.310145 0.061822 0.251846
Si Si7 0.903511 0.663650 0.368875
Si Si8 0.332956 0.164599 0.494888
O O1 0.481500 0.386469 0.420769
O O2 0.518688 0.388730 0.307667
O O3 0.715449 0.306740 0.388090
O O4 0.404293 0.259388 0.353001
O O5 0.738461 0.911346 0.475100
O O6 0.805696 0.018432 0.396706
O O7 0.000000 0.000000 0.500000
O O8 0.390077 0.677426 0.417652
O O9 0.256232 0.617412 0.306953
O O10 0.087678 0.632003 0.393194
O O11 0.172386 0.006522 0.754654
O O12 0.750000 0.250000 0.500000
O O13 0.517211 0.173883 0.533148
O O14 0.500000 0.030181 0.250000
O O15 0.310500 0.117249 0.309861
O O16 0.813283 0.645799 0.423983
O O17 0.250000 0.250000 0.500000
#
# Coordination Sequence:
#
# PCOD8144207 Si02
#       8
#     8   8   8   4   8   8   8   8
#     4  11  24  44  67  99 129 174 223 275 328 407
#     4  12  25  40  64  96 138 168 215 276 329 393
#     4  10  21  42  65  91 132 172 213 279 329 394
#     4  12  26  44  74  96 136 178 224 280 348 386
#     4  11  21  42  65  95 132 173 219 267 336 407
#     4  10  24  45  69  95 133 177 231 278 330 405
#     4  10  23  42  69  91 129 176 222 264 338 393
#     4  12  23  40  67  97 134 174 218 277 333 405
#
# _framework density 19.935708000000002
#
# number of rings (size 3 to 8) (size 9 to 14) (size 15 to 20)
#    0.000    1.067    5.333    1.600    6.533    3.733 
#    0.000    0.000    1.467    0.000    0.000    0.000 
#    0.000    0.000    0.000    0.000    0.000    0.000 
#
# Total GULP energy -371919.039352 kJ/mol
# GULP energy per Si atom -12397.301312 kJ/mol
# Density = 1.989033 g / cm^3
# Si number density = 19.935708 Si / 1000 Ang^3
#
#
#
# Elastic Constant Matrix: (Units=GPa)
#
#
# Indices 1 2 3 4 5 6 
#
# 1 82.6859 45.7489 42.8478 0.0000 -2.8707 0.0000
# 2 45.7489 113.8990 52.4218 0.0000 6.6122 0.0000
# 3 42.8478 52.4218 141.2296 0.0000 -2.2725 0.0000
# 4 0.0000 0.0000 0.0000 53.0000 0.0000 -4.9846
# 5 -2.8707 6.6122 -2.2725 0.0000 25.7404 0.0000
# 6 0.0000 0.0000 0.0000 -4.9846 0.0000 48.8282
#
#
#
# Elastic Compliance Matrix: (Units=1/GPa)
#
#
# Indices 1 2 3 4 5 6 
#
# 1 0.016825 -0.005557 -0.002993 0.000000 0.003040 0.000000
# 2 -0.005557 0.012672 -0.003084 0.000000 -0.004147 0.000000
# 3 -0.002993 -0.003084 0.009154 0.000000 0.001267 0.000000
# 4 0.000000 0.000000 0.000000 0.019051 0.000000 0.001945
# 5 0.003040 -0.004147 0.001267 0.000000 0.040366 0.000000
# 6 0.000000 0.000000 0.000000 0.001945 0.000000 0.020678
#
#
# Mechanical properties :
#
#
# Convention : Reuss Voigt Hill
#
# Bulk Modulus (GPa) = 65.00965 68.87239 66.94102
# Shear Modulus (GPa) = 33.98072 38.63346 36.30709
#
# Velocity S-wave (km/s) = 4.13306 4.40694 4.27219
# Velocity P-wave (km/s) = 7.44692 7.77927 7.61491
#
# Compressibility (1/GPa) = 0.01538233
#
# Stress axis : x y z
#
# Youngs Moduli (GPa) = 59.43527 78.91369 109.24180
#
# Poissons Ratio (x) = 0.43851 0.32696
# Poissons Ratio (y) = 0.33028 0.33695
# Poissons Ratio (z) = 0.17789 0.24341
#
# Static dielectric constant tensor:
#      x y z
#    x 3.779540 0.000000 0.107540 
#    y 0.000000 6.743980 0.000000 
#    z 0.107540 0.000000 3.902340 
# 
# 
# High freq. dielectric constant tensor:
#      x y z
#    x 1.769050 0.000000 -0.001100 
#    y 0.000000 1.781930 0.000000 
#    z -0.001100 0.000000 1.797980 
# 
# From -- ./inp_files/264761.got.cif
#   From: 2010.06.25/outbox.cif.g09.slc.cpg/sg15_133_cif.got.tgz:264761.got - 2010.06.28 07:06:18.
