data_PCOD8144475
_publ_section_title
;
Structure prediction by ZEFSAII (Michael W. Deem and Ramdas Pophale) SiO2 
 PCOD8144475
Probable space group: C 2/C
;
_chemical_formula_sum "Si O2"
_cell_formula_units_Z 64
_cell_length_a 27.550994
_cell_length_b 9.095056
_cell_length_c 18.049817
_cell_angle_alpha 90.000000
_cell_angle_beta 136.205690
_cell_angle_gamma 90.000000
_cell_volume 3130.159107
_symmetry_space_group_name_H-M "C 2/C"
_symmetry_group_IT_number 15
_symmetry_cell_setting 'monoclinic'
loop_
_space_group_symop_operation_xyz
x,y,z
-x,y,1/2-z
-x,-y,-z
x,-y,1/2+z
1/2+x,1/2+y,z
1/2-x,1/2+y,1/2-z
1/2-x,1/2-y,-z
1/2+x,1/2-y,1/2+z
loop_
_atom_site_type_symbol
_atom_site_label
_atom_site_fract_x
_atom_site_fract_y
_atom_site_fract_z
Si Si1 0.674325 0.575369 0.320256
Si Si2 0.770292 0.093961 0.487762
Si Si3 0.082153 0.397205 0.046950
Si Si4 0.604811 0.361972 0.480500
Si Si5 0.703008 0.106433 0.795792
Si Si6 0.833531 0.919139 0.338103
Si Si7 0.957986 0.716737 0.499239
Si Si8 0.986311 0.067303 0.317457
O O1 0.725406 0.524577 0.442042
O O2 0.687226 0.747722 0.324742
O O3 0.694852 0.479757 0.271020
O O4 0.594227 0.542955 0.252563
O O5 0.750000 0.250000 0.500000
O O6 0.846754 0.106705 0.536169
O O7 0.716173 0.031084 0.366234
O O8 0.136930 0.432415 0.172349
O O9 0.055022 0.551628 0.986504
O O10 0.111961 0.310291 0.008842
O O11 0.020213 0.290267 0.008051
O O12 0.628830 0.445818 0.580695
O O13 0.526247 0.411918 0.372864
O O14 0.769372 0.139819 0.816553
O O15 0.888323 0.786314 0.385708
O O16 0.979723 0.809467 0.593860
O O17 0.000000 0.125153 0.250000
#
# Coordination Sequence:
#
# PCOD8144475 Si02
#       8
#     8   8   8   8   8   8   8   8
#     4  12  23  43  69  95 129 181 210 277 323 387
#     4  11  27  43  62  95 138 170 217 267 334 396
#     4  11  22  40  65  94 132 162 218 277 324 375
#     4  10  21  43  63  95 125 171 217 270 314 395
#     4  11  25  43  66  97 132 172 223 267 327 392
#     4  10  23  38  69  95 124 171 223 262 325 384
#     4  10  23  40  64  97 128 166 213 275 323 385
#     4  11  21  43  67  92 130 170 224 257 322 403
#
# _framework density 20.446244
#
# number of rings (size 3 to 8) (size 9 to 14) (size 15 to 20)
#    0.000    1.250    3.750    1.125    5.250    2.000 
#    2.250    0.625    0.000    0.000    0.000    0.000 
#    0.000    0.000    0.000    0.000    0.000    0.000 
#
# Total GULP energy -396870.690135 kJ/mol
# GULP energy per Si atom -12402.209067 kJ/mol
# Density = 2.039971 g / cm^3
# Si number density = 20.446244 Si / 1000 Ang^3
#
#
#
# Elastic Constant Matrix: (Units=GPa)
#
#
# Indices 1 2 3 4 5 6 
#
# 1 70.9349 28.3352 27.9868 0.0000 0.2922 0.0000
# 2 28.3352 91.3023 38.8975 0.0000 -4.7995 0.0000
# 3 27.9868 38.8975 75.0283 0.0000 -3.7125 0.0000
# 4 0.0000 0.0000 0.0000 27.9085 0.0000 2.1353
# 5 0.2922 -4.7995 -3.7125 0.0000 37.0131 0.0000
# 6 0.0000 0.0000 0.0000 2.1353 0.0000 30.3142
#
#
#
# Elastic Compliance Matrix: (Units=1/GPa)
#
#
# Indices 1 2 3 4 5 6 
#
# 1 0.017339 -0.003413 -0.004751 0.000000 -0.001056 0.000000
# 2 -0.003413 0.014774 -0.006321 0.000000 0.001309 0.000000
# 3 -0.004751 -0.006321 0.018431 0.000000 0.001066 0.000000
# 4 0.000000 0.000000 0.000000 0.036025 0.000000 -0.002538
# 5 -0.001056 0.001309 0.001066 0.000000 0.027302 0.000000
# 6 0.000000 0.000000 0.000000 -0.002538 0.000000 0.033167
#
#
# Mechanical properties :
#
#
# Convention : Reuss Voigt Hill
#
# Bulk Modulus (GPa) = 46.35315 47.52273 46.93794
# Shear Modulus (GPa) = 27.29268 28.51690 27.90479
#
# Velocity S-wave (km/s) = 3.65752 3.73865 3.69831
# Velocity P-wave (km/s) = 6.36841 6.47533 6.42209
#
# Compressibility (1/GPa) = 0.02157351
#
# Stress axis : x y z
#
# Youngs Moduli (GPa) = 57.67212 67.68803 54.25788
#
# Poissons Ratio (x) = 0.23100 0.25777
# Poissons Ratio (y) = 0.19682 0.34299
# Poissons Ratio (z) = 0.27399 0.42789
#
# Static dielectric constant tensor:
#      x y z
#    x 3.811870 0.000000 0.051050 
#    y 0.000000 3.669490 0.000000 
#    z 0.051050 0.000000 3.787110 
# 
# 
# High freq. dielectric constant tensor:
#      x y z
#    x 1.804390 0.000000 0.001810 
#    y 0.000000 1.800710 0.000000 
#    z 0.001810 0.000000 1.799490 
# 
# From -- ./inp_files/224644.got.cif
#   From: 2010.06.25/outbox.cif.g09.slc.cpg/sg15_113_cif.got.tgz:224644.got - 2010.06.28 07:06:18.
