data_PCOD8144600
_publ_section_title
;
Structure prediction by ZEFSAII (Michael W. Deem and Ramdas Pophale) SiO2 
 PCOD8144600
Probable space group: C 2/C
;
_chemical_formula_sum "Si O2"
_cell_formula_units_Z 40
_cell_length_a 12.809214
_cell_length_b 15.162633
_cell_length_c 9.579237
_cell_angle_alpha 90.000000
_cell_angle_beta 111.129679
_cell_angle_gamma 90.000000
_cell_volume 1735.406279
_symmetry_space_group_name_H-M "C 2/C"
_symmetry_group_IT_number 15
_symmetry_cell_setting 'monoclinic'
loop_
_space_group_symop_operation_xyz
x,y,z
-x,y,1/2-z
-x,-y,-z
x,-y,1/2+z
1/2+x,1/2+y,z
1/2-x,1/2+y,1/2-z
1/2-x,1/2-y,-z
1/2+x,1/2-y,1/2+z
loop_
_atom_site_type_symbol
_atom_site_label
_atom_site_fract_x
_atom_site_fract_y
_atom_site_fract_z
Si Si1 0.711154 0.678454 0.088155
Si Si2 0.181930 0.763548 0.106031
Si Si3 0.486203 0.590419 0.908332
Si Si4 0.975032 0.630335 0.585317
Si Si5 0.899087 0.554964 0.096023
O O1 0.728882 0.726718 0.242199
O O2 0.783706 0.589541 0.105298
O O3 0.750000 0.750000 0.000000
O O4 0.581458 0.656913 0.007244
O O5 0.133976 0.861836 0.118727
O O6 0.250000 0.750000 0.000000
O O7 0.074370 0.701233 0.044368
O O8 0.500000 0.571385 0.750000
O O9 0.500000 0.500000 0.000000
O O10 0.888507 0.550309 0.574468
O O11 0.000000 0.672169 0.750000
O O12 0.082525 0.594013 0.551823
O O13 0.000000 0.579533 0.250000
#
# Coordination Sequence:
#
# PCOD8144600 Si02
#       5
#     8   8   8   8   8
#     4  12  26  47  80  99 152 205 253 311 388 459
#     4  12  29  48  74 109 150 204 258 308 383 472
#     4  12  31  54  78 116 160 206 264 328 401 475
#     4  10  23  39  70 105 144 178 242 311 367 439
#     4  10  21  43  69 105 140 186 245 306 369 445
#
# _framework density 23.049358000000002
#
# number of rings (size 3 to 8) (size 9 to 14) (size 15 to 20)
#    0.000    0.800    4.000    1.200   11.200    0.000 
#    0.000    0.000    0.000    0.000    0.000    0.000 
#    0.000    0.000    0.000    0.000    0.000    0.000 
#
# Total GULP energy -247902.163353 kJ/mol
# GULP energy per Si atom -12395.108168 kJ/mol
# Density = 2.299690 g / cm^3
# Si number density = 23.049358 Si / 1000 Ang^3
#
#
#
# Elastic Constant Matrix: (Units=GPa)
#
#
# Indices 1 2 3 4 5 6 
#
# 1 89.5181 35.9146 28.4647 0.0000 -11.9328 0.0000
# 2 35.9146 104.1895 38.8743 0.0000 -6.4178 0.0000
# 3 28.4647 38.8743 168.1402 0.0000 -15.7424 0.0000
# 4 0.0000 0.0000 0.0000 36.9508 0.0000 -10.1167
# 5 -11.9328 -6.4178 -15.7424 0.0000 41.7395 0.0000
# 6 0.0000 0.0000 0.0000 -10.1167 0.0000 27.9547
#
#
#
# Elastic Compliance Matrix: (Units=1/GPa)
#
#
# Indices 1 2 3 4 5 6 
#
# 1 0.013532 -0.004087 -0.001081 0.000000 0.002833 0.000000
# 2 -0.004087 0.011759 -0.002039 0.000000 -0.000129 0.000000
# 3 -0.001081 -0.002039 0.006783 0.000000 0.001936 0.000000
# 4 0.000000 0.000000 0.000000 0.030039 0.000000 0.010871
# 5 0.002833 -0.000129 0.001936 0.000000 0.025478 0.000000
# 6 0.000000 0.000000 0.000000 0.010871 0.000000 0.039706
#
#
# Mechanical properties :
#
#
# Convention : Reuss Voigt Hill
#
# Bulk Modulus (GPa) = 56.62138 63.15055 59.88597
# Shear Modulus (GPa) = 33.87574 38.56864 36.22219
#
# Velocity S-wave (km/s) = 3.83783 4.09504 3.96852
# Velocity P-wave (km/s) = 6.65261 7.05809 6.85835
#
# Compressibility (1/GPa) = 0.01766117
#
# Stress axis : x y z
#
# Youngs Moduli (GPa) = 73.90025 85.03800 147.42617
#
# Poissons Ratio (x) = 0.34753 0.15933
# Poissons Ratio (y) = 0.30201 0.30061
# Poissons Ratio (z) = 0.07987 0.17340
#
# Static dielectric constant tensor:
#      x y z
#    x 3.333670 0.000000 0.081640 
#    y 0.000000 4.709890 0.000000 
#    z 0.081640 0.000000 3.987820 
# 
# 
# High freq. dielectric constant tensor:
#      x y z
#    x 1.898450 0.000000 -0.012030 
#    y 0.000000 1.915340 0.000000 
#    z -0.012030 0.000000 1.926960 
# 
# From -- ./inp_files/38045.got.cif
#   From: 2010.06.25/outbox.cif.g09.slc.cpg/sg15_20_cif.got.tgz:38045.got - 2010.06.28 07:06:18.
