data_PCOD8144333
_publ_section_title
;
Structure prediction by ZEFSAII (Michael W. Deem and Ramdas Pophale) SiO2 
 PCOD8144333
Probable space group: C 2/C
;
_chemical_formula_sum "Si O2"
_cell_formula_units_Z 56
_cell_length_a 23.096127
_cell_length_b 8.413119
_cell_length_c 14.499277
_cell_angle_alpha 90.000000
_cell_angle_beta 60.461886
_cell_angle_gamma 90.000000
_cell_volume 2451.182997
_symmetry_space_group_name_H-M "C 2/C"
_symmetry_group_IT_number 15
_symmetry_cell_setting 'monoclinic'
loop_
_space_group_symop_operation_xyz
x,y,z
-x,y,1/2-z
-x,-y,-z
x,-y,1/2+z
1/2+x,1/2+y,z
1/2-x,1/2+y,1/2-z
1/2-x,1/2-y,-z
1/2+x,1/2-y,1/2+z
loop_
_atom_site_type_symbol
_atom_site_label
_atom_site_fract_x
_atom_site_fract_y
_atom_site_fract_z
Si Si1 0.188050 0.481625 0.703452
Si Si2 0.280222 0.627215 0.760493
Si Si3 0.999290 0.116468 0.145055
Si Si4 0.044463 0.527417 0.848160
Si Si5 0.583057 0.130132 0.011971
Si Si6 0.775849 0.418074 0.012887
Si Si7 0.594874 0.486133 0.933431
O O1 0.209538 0.614811 0.761270
O O2 0.205283 0.309790 0.732575
O O3 0.110027 0.483428 0.738428
O O4 0.227656 0.523663 0.577138
O O5 0.332093 0.539714 0.653508
O O6 0.271555 0.530669 0.864521
O O7 0.000000 0.052349 0.250000
O O8 0.978880 0.298863 0.163103
O O9 0.949276 0.005206 0.125057
O O10 0.069665 0.102419 0.035390
O O11 0.985014 0.400676 0.875198
O O12 0.070707 0.518541 0.932898
O O13 0.647515 0.078520 0.016604
O O14 0.592744 0.311393 0.976608
O O15 0.750000 0.250000 0.000000
#
# Coordination Sequence:
#
# PCOD8144333 Si02
#       7
#     8   8   8   8   8   8   8
#     4  11  25  42  69  98 127 178 222 272 343 394
#     4  11  24  44  68  93 134 173 222 275 325 406
#     4  10  24  41  64  99 140 163 222 277 330 392
#     4  10  23  41  67  95 130 176 217 278 337 388
#     4  10  21  42  68  91 136 170 224 271 328 399
#     4  10  22  41  65  97 130 172 222 268 323 404
#     4  10  23  42  68  95 133 182 211 269 343 392
#
# _framework density 22.846109999999999
#
# number of rings (size 3 to 8) (size 9 to 14) (size 15 to 20)
#    0.000    1.714    1.429    1.714   12.000    3.429 
#    0.000    0.714    0.000    0.000    0.000    0.000 
#    0.000    0.000    0.000    0.000    0.000    0.000 
#
# Total GULP energy -346941.868360 kJ/mol
# GULP energy per Si atom -12390.781013 kJ/mol
# Density = 2.279411 g / cm^3
# Si number density = 22.846110 Si / 1000 Ang^3
#
#
#
# Elastic Constant Matrix: (Units=GPa)
#
#
# Indices 1 2 3 4 5 6 
#
# 1 88.3195 32.6253 43.8870 0.0000 -7.9882 0.0000
# 2 32.6253 70.6009 40.8129 -0.0001 -4.2911 -0.0002
# 3 43.8870 40.8129 164.3883 0.0000 -3.2552 0.0000
# 4 0.0000 -0.0001 0.0000 23.6422 0.0000 -3.2832
# 5 -7.9882 -4.2911 -3.2552 0.0000 46.1902 0.0000
# 6 0.0000 -0.0002 0.0000 -3.2832 0.0000 29.4390
#
#
#
# Elastic Compliance Matrix: (Units=1/GPa)
#
#
# Indices 1 2 3 4 5 6 
#
# 1 0.014696 -0.005173 -0.002602 0.000000 0.001878 0.000000
# 2 -0.005173 0.018431 -0.003183 0.000000 0.000593 0.000000
# 3 -0.002602 -0.003183 0.007564 0.000000 -0.000213 0.000000
# 4 0.000000 0.000000 0.000000 0.042963 0.000000 0.004791
# 5 0.001878 0.000593 -0.000213 0.000000 0.022014 0.000000
# 6 0.000000 0.000000 0.000000 0.004791 0.000000 0.034503
#
#
# Mechanical properties :
#
#
# Convention : Reuss Voigt Hill
#
# Bulk Modulus (GPa) = 53.26291 61.99546 57.62919
# Shear Modulus (GPa) = 29.70090 33.58651 31.64371
#
# Velocity S-wave (km/s) = 3.60952 3.83837 3.72570
# Velocity P-wave (km/s) = 6.38247 6.84391 6.61722
#
# Compressibility (1/GPa) = 0.01877479
#
# Stress axis : x y z
#
# Youngs Moduli (GPa) = 68.04466 54.25724 132.20760
#
# Poissons Ratio (x) = 0.28067 0.34400
# Poissons Ratio (y) = 0.35199 0.42082
# Poissons Ratio (z) = 0.17705 0.17270
#
# Static dielectric constant tensor:
#      x y z
#    x 4.358270 0.000000 -0.018240 
#    y 0.000000 3.528930 0.000000 
#    z -0.018240 0.000000 4.721840 
# 
# 
# High freq. dielectric constant tensor:
#      x y z
#    x 1.908240 0.000000 -0.002070 
#    y 0.000000 1.866900 0.000000 
#    z -0.002070 0.000000 1.921170 
# 
# From -- ./inp_files/172264.got.cif
#   From: 2010.06.25/outbox.cif.g09.slc.cpg/sg15_87_cif.got.tgz:172264.got - 2010.06.28 07:06:18.
