data_PCOD8144849
_publ_section_title
;
Structure prediction by ZEFSAII (Michael W. Deem and Ramdas Pophale) SiO2 
 PCOD8144849
Probable space group: C 2/C
;
_chemical_formula_sum "Si O2"
_cell_formula_units_Z 56
_cell_length_a 11.285375
_cell_length_b 9.305730
_cell_length_c 27.135962
_cell_angle_alpha 90.000000
_cell_angle_beta 119.737269
_cell_angle_gamma 90.000000
_cell_volume 2474.491652
_symmetry_space_group_name_H-M "C 2/C"
_symmetry_group_IT_number 15
_symmetry_cell_setting 'monoclinic'
loop_
_space_group_symop_operation_xyz
x,y,z
-x,y,1/2-z
-x,-y,-z
x,-y,1/2+z
1/2+x,1/2+y,z
1/2-x,1/2+y,1/2-z
1/2-x,1/2-y,-z
1/2+x,1/2-y,1/2+z
loop_
_atom_site_type_symbol
_atom_site_label
_atom_site_fract_x
_atom_site_fract_y
_atom_site_fract_z
Si Si1 0.378723 0.723378 0.189340
Si Si2 0.849074 0.064091 0.830172
Si Si3 0.835382 0.339948 0.657605
Si Si4 0.897550 0.557477 0.020264
Si Si5 0.129897 0.166836 0.927767
Si Si6 0.512425 0.924094 0.362307
Si Si7 0.694010 0.426345 0.291637
O O1 0.500000 0.775311 0.250000
O O2 0.236659 0.791058 0.178557
O O3 0.417524 0.777812 0.142805
O O4 0.361313 0.552209 0.184342
O O5 0.843592 0.027840 0.771221
O O6 0.003319 0.083798 0.878608
O O7 0.792496 0.930415 0.849284
O O8 0.792697 0.259496 0.598448
O O9 0.880306 0.221481 0.707559
O O10 0.961459 0.447097 0.671979
O O11 0.924561 0.724808 0.040652
O O12 0.916531 0.455706 0.071249
O O13 0.739384 0.550503 0.970204
O O14 0.000000 0.500000 0.000000
O O15 0.352641 0.902962 0.334491
#
# Coordination Sequence:
#
# PCOD8144849 Si02
#       7
#     8   8   8   8   8   8   8
#     4  11  23  42  62  99 139 175 218 271 331 408
#     4  11  24  42  66 100 138 181 222 273 338 401
#     4  10  24  41  65  95 132 179 221 273 338 397
#     4  10  21  45  73  95 129 179 226 284 336 391
#     4  10  23  43  68  98 130 169 231 283 333 394
#     4  10  23  45  66  94 136 174 218 276 336 389
#     4  12  24  40  66  99 135 177 223 266 331 408
#
# _framework density 22.630911000000001
#
# number of rings (size 3 to 8) (size 9 to 14) (size 15 to 20)
#    0.000    1.429    1.429    3.429    2.000    1.143 
#    0.000   12.857    0.000   18.000    0.000    0.000 
#    0.000    0.000    0.000    0.000    0.000    0.000 
#
# Total GULP energy -347232.597013 kJ/mol
# GULP energy per Si atom -12401.164179 kJ/mol
# Density = 2.257940 g / cm^3
# Si number density = 22.630911 Si / 1000 Ang^3
#
#
#
# Elastic Constant Matrix: (Units=GPa)
#
#
# Indices 1 2 3 4 5 6 
#
# 1 120.2233 63.2405 65.4713 0.0000 -4.8421 0.0000
# 2 63.2405 115.5863 40.0892 0.0000 -9.2820 0.0000
# 3 65.4713 40.0892 113.9050 0.0000 8.6534 0.0000
# 4 0.0000 0.0000 0.0000 32.6883 0.0000 -9.5220
# 5 -4.8421 -9.2820 8.6534 0.0000 42.4557 0.0000
# 6 0.0000 0.0000 0.0000 -9.5220 0.0000 33.5136
#
#
#
# Elastic Compliance Matrix: (Units=1/GPa)
#
#
# Indices 1 2 3 4 5 6 
#
# 1 0.015137 -0.005771 -0.006810 0.000000 0.001853 0.000000
# 2 -0.005771 0.012421 -0.001230 0.000000 0.002308 0.000000
# 3 -0.006810 -0.001230 0.013414 0.000000 -0.003780 0.000000
# 4 0.000000 0.000000 0.000000 0.033352 0.000000 0.009476
# 5 0.001853 0.002308 -0.003780 0.000000 0.025040 0.000000
# 6 0.000000 0.000000 0.000000 0.009476 0.000000 0.032531
#
#
# Mechanical properties :
#
#
# Convention : Reuss Voigt Hill
#
# Bulk Modulus (GPa) = 74.90935 76.36852 75.63893
# Shear Modulus (GPa) = 30.49400 33.79241 32.14321
#
# Velocity S-wave (km/s) = 3.67474 3.86838 3.77281
# Velocity P-wave (km/s) = 7.15383 7.33287 7.24390
#
# Compressibility (1/GPa) = 0.01334947
#
# Stress axis : x y z
#
# Youngs Moduli (GPa) = 66.06403 80.50939 74.55139
#
# Poissons Ratio (x) = 0.46462 0.50770
# Poissons Ratio (y) = 0.38126 0.09168
# Poissons Ratio (z) = 0.44990 0.09901
#
# Static dielectric constant tensor:
#      x y z
#    x 4.218980 0.000000 -0.159250 
#    y 0.000000 4.116160 0.000000 
#    z -0.159250 0.000000 4.097870 
# 
# 
# High freq. dielectric constant tensor:
#      x y z
#    x 1.902570 0.000000 -0.005410 
#    y 0.000000 1.892800 0.000000 
#    z -0.005410 0.000000 1.884070 
# 
# From -- ./inp_files/310394.got.cif
#   From: 2010.06.25/outbox.cif.g09.slc.cpg/sg15_156_cif.got.tgz:310394.got - 2010.06.28 07:06:18.
