data_PCOD8144388
_publ_section_title
;
Structure prediction by ZEFSAII (Michael W. Deem and Ramdas Pophale) SiO2 
 PCOD8144388
Probable space group: C 2/C
;
_chemical_formula_sum "Si O2"
_cell_formula_units_Z 56
_cell_length_a 9.682377
_cell_length_b 24.165254
_cell_length_c 11.944213
_cell_angle_alpha 90.000000
_cell_angle_beta 69.200185
_cell_angle_gamma 90.000000
_cell_volume 2612.534640
_symmetry_space_group_name_H-M "C 2/C"
_symmetry_group_IT_number 15
_symmetry_cell_setting 'monoclinic'
loop_
_space_group_symop_operation_xyz
x,y,z
-x,y,1/2-z
-x,-y,-z
x,-y,1/2+z
1/2+x,1/2+y,z
1/2-x,1/2+y,1/2-z
1/2-x,1/2-y,-z
1/2+x,1/2-y,1/2+z
loop_
_atom_site_type_symbol
_atom_site_label
_atom_site_fract_x
_atom_site_fract_y
_atom_site_fract_z
Si Si1 0.050694 0.685218 0.109464
Si Si2 0.329342 0.389924 0.530136
Si Si3 0.665537 0.456037 0.739447
Si Si4 0.530293 0.693797 0.869012
Si Si5 0.618567 0.100764 0.487576
Si Si6 0.817342 0.438102 0.129535
Si Si7 0.336699 0.843462 0.299264
O O1 0.211618 0.659386 0.055356
O O2 0.052822 0.749689 0.073789
O O3 0.000000 0.677768 0.250000
O O4 0.938920 0.654991 0.058989
O O5 0.332915 0.421049 0.647072
O O6 0.482296 0.358139 0.460449
O O7 0.291890 0.435478 0.446220
O O8 0.500000 0.470071 0.750000
O O9 0.742567 0.422372 0.618814
O O10 0.761155 0.512390 0.725896
O O11 0.500000 0.677561 0.750000
O O12 0.707242 0.702383 0.836773
O O13 0.487309 0.054886 0.537853
O O14 0.679087 0.116324 0.591120
O O15 0.813511 0.380143 0.195553
O O16 0.500000 0.815059 0.250000
#
# Coordination Sequence:
#
# PCOD8144388 Si02
#       7
#     8   8   8   8   8   8   8
#     4  10  21  42  69  97 129 174 222 268 329 399
#     4  11  23  43  67  96 138 168 224 277 323 401
#     4  12  26  40  63  97 134 175 219 279 336 381
#     4  11  22  40  72  99 132 177 220 273 329 392
#     4  10  22  45  63  90 137 170 219 273 331 394
#     4  10  24  41  66  92 125 184 224 266 325 395
#     4  10  22  43  64  95 135 171 226 271 320 395
#
# _framework density 21.435123000000001
#
# number of rings (size 3 to 8) (size 9 to 14) (size 15 to 20)
#    0.000    1.429    2.857    1.714    4.000    1.143 
#    7.714    0.714    0.000    0.000    0.000    0.000 
#    0.000    0.000    0.000    0.000    0.000    0.000 
#
# Total GULP energy -347143.153637 kJ/mol
# GULP energy per Si atom -12397.969773 kJ/mol
# Density = 2.138634 g / cm^3
# Si number density = 21.435123 Si / 1000 Ang^3
#
#
#
# Elastic Constant Matrix: (Units=GPa)
#
#
# Indices 1 2 3 4 5 6 
#
# 1 112.2220 30.9976 35.9242 0.0000 -9.1090 0.0000
# 2 30.9976 85.7236 40.2527 0.0000 -9.9735 0.0000
# 3 35.9242 40.2527 85.9251 0.0000 -8.0134 0.0000
# 4 0.0000 0.0000 0.0000 35.5466 0.0000 -6.7387
# 5 -9.1090 -9.9735 -8.0134 0.0000 26.9980 0.0000
# 6 0.0000 0.0000 0.0000 -6.7387 0.0000 37.4866
#
#
#
# Elastic Compliance Matrix: (Units=1/GPa)
#
#
# Indices 1 2 3 4 5 6 
#
# 1 0.010703 -0.002096 -0.003320 0.000000 0.001851 0.000000
# 2 -0.002096 0.015702 -0.006176 0.000000 0.003261 0.000000
# 3 -0.003320 -0.006176 0.016046 0.000000 0.001361 0.000000
# 4 0.000000 0.000000 0.000000 0.029125 0.000000 0.005236
# 5 0.001851 0.003261 0.001361 0.000000 0.039273 0.000000
# 6 0.000000 0.000000 0.000000 0.005236 0.000000 0.027617
#
#
# Mechanical properties :
#
#
# Convention : Reuss Voigt Hill
#
# Bulk Modulus (GPa) = 51.89914 55.35773 53.62843
# Shear Modulus (GPa) = 29.74898 31.78596 30.76747
#
# Velocity S-wave (km/s) = 3.72944 3.85501 3.79275
# Velocity P-wave (km/s) = 6.54292 6.75993 6.65231
#
# Compressibility (1/GPa) = 0.01926814
#
# Stress axis : x y z
#
# Youngs Moduli (GPa) = 93.43215 63.68426 62.31964
#
# Poissons Ratio (x) = 0.13346 0.20692
# Poissons Ratio (y) = 0.19580 0.38487
# Poissons Ratio (z) = 0.31023 0.39330
#
# Static dielectric constant tensor:
#      x y z
#    x 3.929870 0.000000 -0.163620 
#    y 0.000000 3.649650 0.000000 
#    z -0.163620 0.000000 4.046300 
# 
# 
# High freq. dielectric constant tensor:
#      x y z
#    x 1.845270 0.000000 -0.006550 
#    y 0.000000 1.821680 0.000000 
#    z -0.006550 0.000000 1.856400 
# 
# From -- ./inp_files/81292.got.cif
#   From: 2010.06.25/outbox.cif.g09.slc.cpg/sg15_41_cif.got.tgz:81292.got - 2010.06.28 07:06:18.
