data_PCOD8144805
_publ_section_title
;
Structure prediction by ZEFSAII (Michael W. Deem and Ramdas Pophale) SiO2 
 PCOD8144805
Probable space group: C 2/C
;
_chemical_formula_sum "Si O2"
_cell_formula_units_Z 56
_cell_length_a 8.558610
_cell_length_b 17.442064
_cell_length_c 17.195340
_cell_angle_alpha 90.000000
_cell_angle_beta 86.344673
_cell_angle_gamma 90.000000
_cell_volume 2561.695259
_symmetry_space_group_name_H-M "C 2/C"
_symmetry_group_IT_number 15
_symmetry_cell_setting 'monoclinic'
loop_
_space_group_symop_operation_xyz
x,y,z
-x,y,1/2-z
-x,-y,-z
x,-y,1/2+z
1/2+x,1/2+y,z
1/2-x,1/2+y,1/2-z
1/2-x,1/2-y,-z
1/2+x,1/2-y,1/2+z
loop_
_atom_site_type_symbol
_atom_site_label
_atom_site_fract_x
_atom_site_fract_y
_atom_site_fract_z
Si Si1 0.116583 0.188549 0.519903
Si Si2 0.895528 0.326247 0.330350
Si Si3 0.282346 0.050424 0.449602
Si Si4 0.644707 0.323486 0.587912
Si Si5 0.409204 0.107628 0.991119
Si Si6 0.524803 0.539689 0.337493
Si Si7 0.954121 0.134345 0.668225
O O1 0.250000 0.250000 0.500000
O O2 0.173852 0.101045 0.509218
O O3 0.986972 0.211919 0.462559
O O4 0.036265 0.193621 0.606791
O O5 0.852373 0.235962 0.339929
O O6 0.978184 0.361375 0.405915
O O7 0.732912 0.371342 0.330030
O O8 0.000000 0.340437 0.250000
O O9 0.457186 0.085693 0.450409
O O10 0.202110 0.054665 0.365852
O O11 0.291490 0.963369 0.478924
O O12 0.807872 0.325954 0.535650
O O13 0.602470 0.409886 0.613182
O O14 0.500000 0.565819 0.250000
O O15 0.479488 0.450960 0.348391
O O16 0.000000 0.167070 0.750000
#
# Coordination Sequence:
#
# PCOD8144805 Si02
#       7
#     8   8   8   8   8   8   8
#     4  11  23  40  68  97 130 175 225 274 336 405
#     4  12  26  43  66  95 136 177 220 276 343 395
#     4  10  22  39  67 100 131 169 227 274 334 397
#     4  11  23  42  69  94 132 174 222 279 335 399
#     4  11  22  42  67  99 132 171 226 282 332 391
#     4  10  21  45  66  96 132 177 220 269 338 407
#     4  11  25  43  67  94 133 176 225 270 337 408
#
# _framework density 21.860524000000002
#
# number of rings (size 3 to 8) (size 9 to 14) (size 15 to 20)
#    0.000    1.143    2.857    2.571    6.000    2.286 
#    2.571    0.714    0.000    0.857    0.000    0.000 
#    0.000    0.000    0.000    0.000    0.000    0.000 
#
# Total GULP energy -347002.252867 kJ/mol
# GULP energy per Si atom -12392.937602 kJ/mol
# Density = 2.181077 g / cm^3
# Si number density = 21.860524 Si / 1000 Ang^3
#
#
#
# Elastic Constant Matrix: (Units=GPa)
#
#
# Indices 1 2 3 4 5 6 
#
# 1 89.0356 12.5512 56.8597 0.0000 11.1646 0.0000
# 2 12.5512 86.8353 43.7545 0.0000 -9.0146 0.0000
# 3 56.8597 43.7545 150.5391 0.0000 -4.7833 0.0000
# 4 0.0000 0.0000 0.0000 21.3039 0.0000 3.3400
# 5 11.1646 -9.0146 -4.7833 0.0000 41.2075 0.0000
# 6 0.0000 0.0000 0.0000 3.3400 0.0000 35.3564
#
#
#
# Elastic Compliance Matrix: (Units=1/GPa)
#
#
# Indices 1 2 3 4 5 6 
#
# 1 0.015766 0.000340 -0.006210 0.000000 -0.004918 0.000000
# 2 0.000340 0.013762 -0.004050 0.000000 0.002448 0.000000
# 3 -0.006210 -0.004050 0.010229 0.000000 0.001984 0.000000
# 4 0.000000 0.000000 0.000000 0.047645 0.000000 -0.004501
# 5 -0.004918 0.002448 0.001984 0.000000 0.026366 0.000000
# 6 0.000000 0.000000 0.000000 -0.004501 0.000000 0.028709
#
#
# Mechanical properties :
#
#
# Convention : Reuss Voigt Hill
#
# Bulk Modulus (GPa) = 50.21267 61.41563 55.81415
# Shear Modulus (GPa) = 29.59342 33.78989 31.69165
#
# Velocity S-wave (km/s) = 3.68331 3.93581 3.81165
# Velocity P-wave (km/s) = 6.41159 6.98637 6.70514
#
# Compressibility (1/GPa) = 0.01991529
#
# Stress axis : x y z
#
# Youngs Moduli (GPa) = 63.42728 72.66345 97.76457
#
# Poissons Ratio (x) = -0.02468 0.60711
# Poissons Ratio (y) = -0.02155 0.39599
# Poissons Ratio (z) = 0.39388 0.29432
#
# Static dielectric constant tensor:
#      x y z
#    x 4.053910 0.000000 0.238940 
#    y 0.000000 4.007910 0.000000 
#    z 0.238940 0.000000 3.892670 
# 
# 
# High freq. dielectric constant tensor:
#      x y z
#    x 1.859570 0.000000 0.011140 
#    y 0.000000 1.873130 0.000000 
#    z 0.011140 0.000000 1.843490 
# 
# From -- ./inp_files/190919.got.cif
#   From: 2010.06.25/outbox.cif.g09.slc.cpg/sg15_96_cif.got.tgz:190919.got - 2010.06.28 07:06:18.
