data_PCOD8144998
_publ_section_title
;
Structure prediction by ZEFSAII (Michael W. Deem and Ramdas Pophale) SiO2 
 PCOD8144998
Probable space group: C 2/C
;
_chemical_formula_sum "Si O2"
_cell_formula_units_Z 48
_cell_length_a 9.704527
_cell_length_b 21.864255
_cell_length_c 11.682489
_cell_angle_alpha 90.000000
_cell_angle_beta 78.070827
_cell_angle_gamma 90.000000
_cell_volume 2425.283977
_symmetry_space_group_name_H-M "C 2/C"
_symmetry_group_IT_number 15
_symmetry_cell_setting 'monoclinic'
loop_
_space_group_symop_operation_xyz
x,y,z
-x,y,1/2-z
-x,-y,-z
x,-y,1/2+z
1/2+x,1/2+y,z
1/2-x,1/2+y,1/2-z
1/2-x,1/2-y,-z
1/2+x,1/2-y,1/2+z
loop_
_atom_site_type_symbol
_atom_site_label
_atom_site_fract_x
_atom_site_fract_y
_atom_site_fract_z
Si Si1 0.500000 0.671309 0.250000
Si Si2 0.732936 0.317945 0.052434
Si Si3 0.252759 0.254564 0.136211
Si Si4 0.846695 0.626233 0.739530
Si Si5 0.393985 0.536886 0.666537
Si Si6 0.421146 0.590427 0.059706
Si Si7 0.000000 0.775457 0.250000
O O1 0.637912 0.713156 0.219397
O O2 0.504863 0.628037 0.139854
O O3 0.860368 0.341972 0.110561
O O4 0.598368 0.319789 0.159537
O O5 0.750000 0.250000 0.000000
O O6 0.709123 0.366916 0.957010
O O7 0.216086 0.325115 0.161418
O O8 0.402431 0.237422 0.174814
O O9 0.250000 0.250000 0.000000
O O10 0.746649 0.566932 0.757855
O O11 0.000000 0.603780 0.750000
O O12 0.500000 0.522386 0.750000
O O13 0.466771 0.579586 0.559868
O O14 0.352787 0.472107 0.616802
#
# Coordination Sequence:
#
# PCOD8144998 Si02
#       7
#     4   8   8   8   8   8   4
#     4  12  22  40  61 102 133 154 216 274 326 390
#     4  11  22  39  64  92 133 168 205 262 326 386
#     4  11  23  38  61  93 135 169 209 269 330 391
#     4  11  23  40  61  93 127 169 214 262 323 390
#     4  11  22  43  67  91 122 168 225 264 313 384
#     4  11  22  39  70  94 121 168 216 273 313 375
#     4  10  22  36  59  90 129 168 206 248 318 398
#
# _framework density 19.791497
#
# number of rings (size 3 to 8) (size 9 to 14) (size 15 to 20)
#    0.000    1.000    3.333    6.000    3.500    0.000 
#    0.000    0.833    7.333    0.000    0.000    0.000 
#    0.000    0.000    0.000    0.000    0.000    0.000 
#
# Total GULP energy -297496.564771 kJ/mol
# GULP energy per Si atom -12395.690199 kJ/mol
# Density = 1.974645 g / cm^3
# Si number density = 19.791497 Si / 1000 Ang^3
#
#
#
# Elastic Constant Matrix: (Units=GPa)
#
#
# Indices 1 2 3 4 5 6 
#
# 1 119.2185 41.8943 40.1074 0.0000 27.1219 0.0000
# 2 41.8943 115.1820 36.4816 0.0000 11.1157 0.0000
# 3 40.1074 36.4816 103.3650 0.0000 26.9567 0.0000
# 4 0.0000 0.0000 0.0000 34.9708 0.0000 5.9193
# 5 27.1219 11.1157 26.9567 0.0000 35.2029 0.0000
# 6 0.0000 0.0000 0.0000 5.9193 0.0000 28.1730
#
#
#
# Elastic Compliance Matrix: (Units=1/GPa)
#
#
# Indices 1 2 3 4 5 6 
#
# 1 0.011523 -0.003020 -0.001673 0.000000 -0.006644 0.000000
# 2 -0.003020 0.010575 -0.002869 0.000000 0.001185 0.000000
# 3 -0.001673 -0.002869 0.013450 0.000000 -0.008104 0.000000
# 4 0.000000 0.000000 0.000000 0.029650 0.000000 -0.006230
# 5 -0.006644 0.001185 -0.008104 0.000000 0.039357 0.000000
# 6 0.000000 0.000000 0.000000 -0.006230 0.000000 0.036804
#
#
# Mechanical properties :
#
#
# Convention : Reuss Voigt Hill
#
# Bulk Modulus (GPa) = 48.96400 63.85911 56.41156
# Shear Modulus (GPa) = 30.62005 34.28816 32.45410
#
# Velocity S-wave (km/s) = 3.93763 4.16681 4.05384
# Velocity P-wave (km/s) = 6.74291 7.44887 7.10467
#
# Compressibility (1/GPa) = 0.02042317
#
# Stress axis : x y z
#
# Youngs Moduli (GPa) = 86.77927 94.56299 74.35067
#
# Poissons Ratio (x) = 0.28562 0.12436
# Poissons Ratio (y) = 0.26211 0.21334
# Poissons Ratio (z) = 0.14515 0.27134
#
# Static dielectric constant tensor:
#      x y z
#    x 3.743810 0.000000 0.267750 
#    y 0.000000 3.595340 0.000000 
#    z 0.267750 0.000000 3.850160 
# 
# 
# High freq. dielectric constant tensor:
#      x y z
#    x 1.759030 0.000000 0.024090 
#    y 0.000000 1.767220 0.000000 
#    z 0.024090 0.000000 1.784540 
# 
# From -- ./inp_files/79184.got.cif
#   From: 2010.06.25/outbox.cif.g09.slc.cpg/sg15_40_cif.got.tgz:79184.got - 2010.06.28 07:06:18.
