data_PCOD8144788
_publ_section_title
;
Structure prediction by ZEFSAII (Michael W. Deem and Ramdas Pophale) SiO2 
 PCOD8144788
Probable space group: C 2/C
;
_chemical_formula_sum "Si O2"
_cell_formula_units_Z 48
_cell_length_a 15.453047
_cell_length_b 14.171605
_cell_length_c 15.481840
_cell_angle_alpha 90.000000
_cell_angle_beta 144.923503
_cell_angle_gamma 90.000000
_cell_volume 1948.381328
_symmetry_space_group_name_H-M "C 2/C"
_symmetry_group_IT_number 15
_symmetry_cell_setting 'monoclinic'
loop_
_space_group_symop_operation_xyz
x,y,z
-x,y,1/2-z
-x,-y,-z
x,-y,1/2+z
1/2+x,1/2+y,z
1/2-x,1/2+y,1/2-z
1/2-x,1/2-y,-z
1/2+x,1/2-y,1/2+z
loop_
_atom_site_type_symbol
_atom_site_label
_atom_site_fract_x
_atom_site_fract_y
_atom_site_fract_z
Si Si1 0.191225 0.192770 0.077382
Si Si2 0.488477 0.137975 0.137976
Si Si3 0.084486 0.275534 0.396696
Si Si4 0.654994 0.046528 0.035181
Si Si5 0.129459 0.979945 0.425183
Si Si6 0.933692 0.104858 0.363066
O O1 0.354818 0.191080 0.258113
O O2 0.069195 0.153300 0.045946
O O3 0.147817 0.294322 0.003658
O O4 0.196593 0.122325 0.000520
O O5 0.500000 0.118272 0.250000
O O6 0.463701 0.041773 0.059848
O O7 0.250000 0.250000 0.500000
O O8 0.077786 0.350151 0.470903
O O9 0.000000 0.327988 0.250000
O O10 0.980528 0.184967 0.332657
O O11 0.777316 0.050255 0.212263
O O12 0.737745 0.039506 0.009592
O O13 0.000000 0.966455 0.250000
O O14 0.068619 0.027995 0.464412
#
# Coordination Sequence:
#
# PCOD8144788 Si02
#       6
#     8   8   8   8   8   8
#     4  12  28  45  70 109 141 191 233 299 370 410
#     4  12  27  49  74 104 140 193 249 295 346 437
#     4  12  22  42  69 103 139 185 237 285 354 429
#     4  11  24  45  72 104 138 188 245 292 349 425
#     4  10  21  44  73 101 139 186 243 290 347 431
#     4  11  25  44  69 108 146 183 228 303 367 419
#
# _framework density 24.635835
#
# number of rings (size 3 to 8) (size 9 to 14) (size 15 to 20)
#    0.000    0.667    5.000    2.500    7.000    0.667 
#    0.000    0.000    0.000    0.000    0.000    0.000 
#    0.000    0.000    0.000    0.000    0.000    0.000 
#
# Total GULP energy -297407.012632 kJ/mol
# GULP energy per Si atom -12391.958860 kJ/mol
# Density = 2.457976 g / cm^3
# Si number density = 24.635835 Si / 1000 Ang^3
#
#
#
# Elastic Constant Matrix: (Units=GPa)
#
#
# Indices 1 2 3 4 5 6 
#
# 1 29.3586 -10.3330 0.5205 0.0002 -1.7388 0.0002
# 2 -10.3330 132.4987 47.9806 0.0001 3.3706 0.0001
# 3 0.5205 47.9806 98.4487 -0.0002 16.6640 -0.0001
# 4 0.0002 0.0001 -0.0002 53.4027 0.0000 -4.1084
# 5 -1.7388 3.3706 16.6640 0.0000 30.0963 0.0002
# 6 0.0002 0.0001 -0.0001 -4.1084 0.0002 19.9685
#
#
#
# Elastic Compliance Matrix: (Units=1/GPa)
#
#
# Indices 1 2 3 4 5 6 
#
# 1 0.035542 0.003579 -0.002441 0.000000 0.003004 0.000000
# 2 0.003579 0.009595 -0.005019 0.000000 0.001911 0.000000
# 3 -0.002441 -0.005019 0.013843 0.000000 -0.007243 0.000000
# 4 0.000000 0.000000 0.000000 0.019027 0.000000 0.003915
# 5 0.003004 0.001911 -0.007243 0.000000 0.037197 0.000000
# 6 0.000000 0.000000 0.000000 0.003915 0.000000 0.050884
#
#
# Mechanical properties :
#
#
# Convention : Reuss Voigt Hill
#
# Bulk Modulus (GPa) = 19.52378 37.40468 28.46423
# Shear Modulus (GPa) = 26.18874 35.50271 30.84573
#
# Velocity S-wave (km/s) = 3.26396 3.80030 3.54230
# Velocity P-wave (km/s) = 4.70603 5.87132 5.32067
#
# Compressibility (1/GPa) = 0.05121960
#
# Stress axis : x y z
#
# Youngs Moduli (GPa) = 28.13533 104.21933 72.24128
#
# Poissons Ratio (x) = -0.37303 0.17632
# Poissons Ratio (y) = -0.10070 0.36256
# Poissons Ratio (z) = 0.06867 0.52305
#
# Static dielectric constant tensor:
#      x y z
#    x 4.340870 0.000000 0.298140 
#    y 0.000000 4.491350 0.000000 
#    z 0.298140 0.000000 4.631640 
# 
# 
# High freq. dielectric constant tensor:
#      x y z
#    x 1.971430 0.000000 0.008500 
#    y 0.000000 1.983990 0.000000 
#    z 0.008500 0.000000 1.977110 
# 
# From -- ./inp_files/211432.got.cif
#   From: 2010.06.25/outbox.cif.g09.slc.cpg/sg15_106_cif.got.tgz:211432.got - 2010.06.28 07:06:18.
