data_PCOD8144013
_publ_section_title
;
Structure prediction by ZEFSAII (Michael W. Deem and Ramdas Pophale) SiO2 
 PCOD8144013
Probable space group: C 2/C
;
_chemical_formula_sum "Si O2"
_cell_formula_units_Z 56
_cell_length_a 18.117076
_cell_length_b 28.134390
_cell_length_c 5.150625
_cell_angle_alpha 90.000000
_cell_angle_beta 92.448100
_cell_angle_gamma 90.000000
_cell_volume 2622.943825
_symmetry_space_group_name_H-M "C 2/C"
_symmetry_group_IT_number 15
_symmetry_cell_setting 'monoclinic'
loop_
_space_group_symop_operation_xyz
x,y,z
-x,y,1/2-z
-x,-y,-z
x,-y,1/2+z
1/2+x,1/2+y,z
1/2-x,1/2+y,1/2-z
1/2-x,1/2-y,-z
1/2+x,1/2-y,1/2+z
loop_
_atom_site_type_symbol
_atom_site_label
_atom_site_fract_x
_atom_site_fract_y
_atom_site_fract_z
Si Si1 0.351377 0.803298 0.001668
Si Si2 0.000000 0.665570 0.750000
Si Si3 0.725240 0.893915 0.604686
Si Si4 0.087298 0.028912 0.773305
Si Si5 0.000000 0.604496 0.250000
Si Si6 0.705361 0.279332 0.285644
Si Si7 0.880101 0.470433 0.789528
Si Si8 0.815861 0.118068 0.615107
O O1 0.425758 0.803351 0.185646
O O2 0.269601 0.797571 0.107405
O O3 0.341354 0.854808 0.858976
O O4 0.358386 0.756348 0.826192
O O5 0.023540 0.636366 0.498731
O O6 0.699206 0.947089 0.670409
O O7 0.750116 0.893888 0.307610
O O8 0.791731 0.885250 0.812536
O O9 0.117534 0.082240 0.815019
O O10 0.000000 0.033996 0.750000
O O11 0.115157 0.005093 0.510525
O O12 0.063056 0.571143 0.145916
O O13 0.750000 0.250000 0.500000
O O14 0.660124 0.326469 0.361779
O O15 0.891067 0.487182 0.495734
#
# Coordination Sequence:
#
# PCOD8144013 Si02
#       8
#     8   4   8   8   4   8   8   8
#     4  10  23  42  64  96 126 171 216 261 326 394
#     4  12  26  41  72  94 128 172 224 269 320 402
#     4  11  23  39  62  92 127 168 214 265 318 379
#     4  10  22  42  67  94 129 171 209 260 333 402
#     4  12  26  43  64  88 126 176 220 267 322 382
#     4  10  21  41  69  93 132 170 212 265 336 386
#     4  12  25  41  60  88 126 169 218 269 322 369
#     4  11  23  39  68  96 128 167 215 264 318 397
#
# _framework density 21.350057
#
# number of rings (size 3 to 8) (size 9 to 14) (size 15 to 20)
#    0.000    1.143    2.857    3.000    6.000    3.429 
#    0.000    1.429    1.571    0.000    0.000    0.000 
#    0.000    0.000    0.000    0.000    0.000    0.000 
#
# Total GULP energy -346939.361401 kJ/mol
# GULP energy per Si atom -12390.691479 kJ/mol
# Density = 2.130146 g / cm^3
# Si number density = 21.350057 Si / 1000 Ang^3
#
#
#
# Elastic Constant Matrix: (Units=GPa)
#
#
# Indices 1 2 3 4 5 6 
#
# 1 46.8907 34.6441 21.0613 0.0000 15.3302 0.0000
# 2 34.6441 145.2791 46.7200 0.0000 20.9822 0.0000
# 3 21.0613 46.7200 112.4653 0.0000 11.6931 0.0000
# 4 0.0000 0.0000 0.0000 35.8607 0.0000 8.0978
# 5 15.3302 20.9822 11.6931 0.0000 35.7404 0.0000
# 6 0.0000 0.0000 0.0000 8.0978 0.0000 28.9806
#
#
#
# Elastic Compliance Matrix: (Units=1/GPa)
#
#
# Indices 1 2 3 4 5 6 
#
# 1 0.028863 -0.004819 -0.002495 0.000000 -0.008735 0.000000
# 2 -0.004819 0.009255 -0.002683 0.000000 -0.002488 0.000000
# 3 -0.002495 -0.002683 0.010558 0.000000 -0.000809 0.000000
# 4 0.000000 0.000000 0.000000 0.029764 0.000000 -0.008317
# 5 -0.008735 -0.002488 -0.000809 0.000000 0.033452 0.000000
# 6 0.000000 0.000000 0.000000 -0.008317 0.000000 0.036830
#
#
# Mechanical properties :
#
#
# Convention : Reuss Voigt Hill
#
# Bulk Modulus (GPa) = 34.86684 56.60953 45.73818
# Shear Modulus (GPa) = 28.04649 33.59699 30.82174
#
# Velocity S-wave (km/s) = 3.62836 3.97120 3.80364
# Velocity P-wave (km/s) = 5.82407 6.89925 6.38434
#
# Compressibility (1/GPa) = 0.02868055
#
# Stress axis : x y z
#
# Youngs Moduli (GPa) = 34.64645 108.05219 94.71752
#
# Poissons Ratio (x) = 0.52069 0.23633
# Poissons Ratio (y) = 0.16696 0.25417
# Poissons Ratio (z) = 0.08645 0.28995
#
# Static dielectric constant tensor:
#      x y z
#    x 3.586120 0.000000 0.011430 
#    y 0.000000 4.199310 0.000000 
#    z 0.011430 0.000000 3.960420 
# 
# 
# High freq. dielectric constant tensor:
#      x y z
#    x 1.808550 0.000000 0.000380 
#    y 0.000000 1.856430 0.000000 
#    z 0.000380 0.000000 1.844330 
# 
# From -- ./inp_files/11522.got.cif
#   From: 2010.06.25/outbox.cif.g09.slc.cpg/sg15_6_cif.got.tgz:11522.got - 2010.06.28 07:06:18.
