data_PCOD8144278
_publ_section_title
;
Structure prediction by ZEFSAII (Michael W. Deem and Ramdas Pophale) SiO2 
 PCOD8144278
Probable space group: C 2/C
;
_chemical_formula_sum "Si O2"
_cell_formula_units_Z 60
_cell_length_a 13.301194
_cell_length_b 12.427791
_cell_length_c 19.387187
_cell_angle_alpha 90.000000
_cell_angle_beta 115.684490
_cell_angle_gamma 90.000000
_cell_volume 2888.137350
_symmetry_space_group_name_H-M "C 2/C"
_symmetry_group_IT_number 15
_symmetry_cell_setting 'monoclinic'
loop_
_space_group_symop_operation_xyz
x,y,z
-x,y,1/2-z
-x,-y,-z
x,-y,1/2+z
1/2+x,1/2+y,z
1/2-x,1/2+y,1/2-z
1/2-x,1/2-y,-z
1/2+x,1/2-y,1/2+z
loop_
_atom_site_type_symbol
_atom_site_label
_atom_site_fract_x
_atom_site_fract_y
_atom_site_fract_z
Si Si1 0.365886 0.912449 0.436323
Si Si2 0.843721 0.218451 0.339128
Si Si3 0.103576 0.239938 0.410945
Si Si4 0.732314 0.734625 0.664796
Si Si5 0.965680 0.605796 0.393715
Si Si6 0.740265 0.000827 0.853619
Si Si7 0.736888 0.069884 0.000099
Si Si8 0.000000 0.559857 0.250000
O O1 0.310545 0.806932 0.386560
O O2 0.435472 0.871146 0.523078
O O3 0.432790 0.980188 0.397419
O O4 0.271385 0.995092 0.435070
O O5 0.767553 0.239195 0.251728
O O6 0.973252 0.229729 0.359922
O O7 0.815209 0.098723 0.353750
O O8 0.164932 0.245792 0.355973
O O9 0.147088 0.135060 0.464916
O O10 0.132949 0.345368 0.465323
O O11 0.630726 0.811051 0.613851
O O12 0.695956 0.609633 0.649820
O O13 0.000492 0.625595 0.323296
O O14 0.730303 0.992294 0.932688
O O15 0.615562 0.006943 0.783283
#
# Coordination Sequence:
#
# PCOD8144278 Si02
#       8
#     8   8   8   8   8   8   8   4
#     4  11  23  40  69  99 126 174 221 268 316 395
#     4  12  26  41  64  98 135 172 216 268 336 390
#     4  10  22  40  67  96 129 169 223 271 323 380
#     4  11  24  42  67  96 130 169 219 279 322 388
#     4  11  22  42  71  98 127 169 223 272 324 378
#     4  11  26  41  65  98 131 168 220 268 333 385
#     4  10  21  42  66  98 128 171 220 274 317 383
#     4  12  22  44  66  94 130 168 222 270 320 392
#
# _framework density 20.774633999999999
#
# number of rings (size 3 to 8) (size 9 to 14) (size 15 to 20)
#    0.000    1.067    4.000    2.800    9.333    1.067 
#    0.000    0.000    2.933    0.000    0.000    0.000 
#    0.000    0.000    0.000    0.000    0.000    0.000 
#
# Total GULP energy -371876.808561 kJ/mol
# GULP energy per Si atom -12395.893619 kJ/mol
# Density = 2.072735 g / cm^3
# Si number density = 20.774634 Si / 1000 Ang^3
#
#
#
# Elastic Constant Matrix: (Units=GPa)
#
#
# Indices 1 2 3 4 5 6 
#
# 1 61.4171 48.2405 10.3554 0.0000 -10.7914 0.0000
# 2 48.2405 137.7808 44.2298 0.0000 -2.8676 0.0000
# 3 10.3554 44.2298 67.3390 0.0000 -17.2429 0.0000
# 4 0.0000 0.0000 0.0000 29.3792 0.0000 -5.7672
# 5 -10.7914 -2.8676 -17.2429 0.0000 23.4649 0.0000
# 6 0.0000 0.0000 0.0000 -5.7672 0.0000 41.8520
#
#
#
# Elastic Compliance Matrix: (Units=1/GPa)
#
#
# Indices 1 2 3 4 5 6 
#
# 1 0.027019 -0.011596 0.007736 0.000000 0.016694 0.000000
# 2 -0.011596 0.014503 -0.010660 0.000000 -0.011394 0.000000
# 3 0.007736 -0.010660 0.026163 0.000000 0.021480 0.000000
# 4 0.000000 0.000000 0.000000 0.034984 0.000000 0.004821
# 5 0.016694 -0.011394 0.021480 0.000000 0.064686 0.000000
# 6 0.000000 0.000000 0.000000 0.004821 0.000000 0.024558
#
#
# Mechanical properties :
#
#
# Convention : Reuss Voigt Hill
#
# Bulk Modulus (GPa) = 25.87685 52.46537 39.17111
# Shear Modulus (GPa) = 21.38259 29.85330 25.61795
#
# Velocity S-wave (km/s) = 3.21170 3.79490 3.51541
# Velocity P-wave (km/s) = 5.12214 6.67166 5.94758
#
# Compressibility (1/GPa) = 0.03864458
#
# Stress axis : x y z
#
# Youngs Moduli (GPa) = 37.01077 68.95149 38.22226
#
# Poissons Ratio (x) = 0.79957 -0.29569
# Poissons Ratio (y) = 0.42918 0.40746
# Poissons Ratio (z) = -0.28632 0.73504
#
# Static dielectric constant tensor:
#      x y z
#    x 3.676670 0.000000 -0.108500 
#    y 0.000000 3.829850 0.000000 
#    z -0.108500 0.000000 3.947750 
# 
# 
# High freq. dielectric constant tensor:
#      x y z
#    x 1.791000 0.000000 -0.014190 
#    y 0.000000 1.807030 0.000000 
#    z -0.014190 0.000000 1.829080 
# 
# From -- ./inp_files/243776.got.cif
#   From: 2010.06.25/outbox.cif.g09.slc.cpg/sg15_122_cif.got.tgz:243776.got - 2010.06.28 07:06:18.
