data_PCOD8144118
_publ_section_title
;
Structure prediction by ZEFSAII (Michael W. Deem and Ramdas Pophale) SiO2 
 PCOD8144118
Probable space group: C 2/C
;
_chemical_formula_sum "Si O2"
_cell_formula_units_Z 32
_cell_length_a 17.305234
_cell_length_b 7.684698
_cell_length_c 12.207527
_cell_angle_alpha 90.000000
_cell_angle_beta 82.064186
_cell_angle_gamma 90.000000
_cell_volume 1607.877094
_symmetry_space_group_name_H-M "C 2/C"
_symmetry_group_IT_number 15
_symmetry_cell_setting 'monoclinic'
loop_
_space_group_symop_operation_xyz
x,y,z
-x,y,1/2-z
-x,-y,-z
x,-y,1/2+z
1/2+x,1/2+y,z
1/2-x,1/2+y,1/2-z
1/2-x,1/2-y,-z
1/2+x,1/2-y,1/2+z
loop_
_atom_site_type_symbol
_atom_site_label
_atom_site_fract_x
_atom_site_fract_y
_atom_site_fract_z
Si Si1 0.414477 0.502430 0.968910
Si Si2 0.687730 0.710771 0.870572
Si Si3 0.854785 0.667152 0.898388
Si Si4 0.585918 0.188800 0.188424
O O1 0.405084 0.345900 0.881150
O O2 0.395678 0.685629 0.916774
O O3 0.500000 0.500000 0.000000
O O4 0.354101 0.468848 0.081216
O O5 0.779544 0.677085 0.833178
O O6 0.650915 0.781674 0.767108
O O7 0.675712 0.855280 0.969559
O O8 0.910171 0.508233 0.854904
O O9 0.500000 0.228504 0.250000
#
# Coordination Sequence:
#
# PCOD8144118 Si02
#       4
#     8   8   8   8
#     4  10  21  42  62  90 126 156 205 254 301 360
#     4   9  22  44  59  91 126 152 212 249 297 372
#     4   9  23  43  59  91 125 157 205 256 298 361
#     4  12  23  39  65  91 120 168 201 245 315 361
#
# _framework density 19.902018000000002
#
# number of rings (size 3 to 8) (size 9 to 14) (size 15 to 20)
#    1.500    0.500    2.500    0.000    3.500    6.000 
#    4.500    0.000    0.000    0.000    0.000    0.000 
#    0.000    0.000    0.000    0.000    0.000    0.000 
#
# Total GULP energy -198304.547462 kJ/mol
# GULP energy per Si atom -12394.034216 kJ/mol
# Density = 1.985672 g / cm^3
# Si number density = 19.902018 Si / 1000 Ang^3
#
#
#
# Elastic Constant Matrix: (Units=GPa)
#
#
# Indices 1 2 3 4 5 6 
#
# 1 128.9837 41.4261 24.2813 0.0000 29.0895 0.0000
# 2 41.4261 98.3239 10.6660 0.0000 -0.5573 0.0000
# 3 24.2813 10.6660 44.3728 0.0000 16.4259 0.0000
# 4 0.0000 0.0000 0.0000 29.4696 0.0000 -5.6080
# 5 29.0895 -0.5573 16.4259 0.0000 34.7321 0.0000
# 6 0.0000 0.0000 0.0000 -5.6080 0.0000 27.9233
#
#
#
# Elastic Compliance Matrix: (Units=1/GPa)
#
#
# Indices 1 2 3 4 5 6 
#
# 1 0.011655 -0.004752 -0.001932 0.000000 -0.008924 0.000000
# 2 -0.004752 0.012458 -0.002354 0.000000 0.005293 0.000000
# 3 -0.001932 -0.002354 0.028577 0.000000 -0.011935 0.000000
# 4 0.000000 0.000000 0.000000 0.035282 0.000000 0.007086
# 5 -0.008924 0.005293 -0.011935 0.000000 0.041995 0.000000
# 6 0.000000 0.000000 0.000000 0.007086 0.000000 0.037235
#
#
# Mechanical properties :
#
#
# Convention : Reuss Voigt Hill
#
# Bulk Modulus (GPa) = 28.88875 47.15858 38.02366
# Shear Modulus (GPa) = 25.40436 31.44548 28.42492
#
# Velocity S-wave (km/s) = 3.57665 3.97925 3.78331
# Velocity P-wave (km/s) = 5.62170 6.69772 6.18316
#
# Compressibility (1/GPa) = 0.03461555
#
# Stress axis : x y z
#
# Youngs Moduli (GPa) = 85.79663 80.27120 34.99281
#
# Poissons Ratio (x) = 0.38142 0.06761
# Poissons Ratio (y) = 0.40768 0.08236
# Poissons Ratio (z) = 0.16578 0.18892
#
# Static dielectric constant tensor:
#      x y z
#    x 3.597160 0.000000 0.215550 
#    y 0.000000 3.612230 0.000000 
#    z 0.215550 0.000000 3.493240 
# 
# 
# High freq. dielectric constant tensor:
#      x y z
#    x 1.786090 0.000000 0.020060 
#    y 0.000000 1.760530 0.000000 
#    z 0.020060 0.000000 1.757130 
# 
# From -- ./inp_files/102230.got.cif
#   From: 2010.06.25/outbox.cif.g09.slc.cpg/sg15_52_cif.got.tgz:102230.got - 2010.06.28 07:06:18.
