data_PCOD8144763
_publ_section_title
;
Structure prediction by ZEFSAII (Michael W. Deem and Ramdas Pophale) SiO2 
 PCOD8144763
Probable space group: C 2/C
;
_chemical_formula_sum "Si O2"
_cell_formula_units_Z 44
_cell_length_a 15.034211
_cell_length_b 11.386264
_cell_length_c 12.855078
_cell_angle_alpha 90.000000
_cell_angle_beta 57.243599
_cell_angle_gamma 90.000000
_cell_volume 1850.638257
_symmetry_space_group_name_H-M "C 2/C"
_symmetry_group_IT_number 15
_symmetry_cell_setting 'monoclinic'
loop_
_space_group_symop_operation_xyz
x,y,z
-x,y,1/2-z
-x,-y,-z
x,-y,1/2+z
1/2+x,1/2+y,z
1/2-x,1/2+y,1/2-z
1/2-x,1/2-y,-z
1/2+x,1/2-y,1/2+z
loop_
_atom_site_type_symbol
_atom_site_label
_atom_site_fract_x
_atom_site_fract_y
_atom_site_fract_z
Si Si1 0.066313 0.472081 0.560043
Si Si2 0.000000 0.957059 0.250000
Si Si3 0.476256 0.729358 0.599007
Si Si4 0.735289 0.303671 0.353592
Si Si5 0.215893 0.064804 0.066461
Si Si6 0.531061 0.797345 0.335601
O O1 0.194125 0.464760 0.469878
O O2 0.000000 0.500000 0.500000
O O3 0.020939 0.346770 0.627385
O O4 0.040362 0.586760 0.644657
O O5 0.975837 0.879518 0.368255
O O6 0.107254 0.031924 0.193747
O O7 0.349323 0.714903 0.685664
O O8 0.502385 0.726080 0.458275
O O9 0.738514 0.182353 0.412783
O O10 0.700658 0.410087 0.452714
O O11 0.846902 0.333040 0.229879
O O12 0.500000 0.721432 0.250000
#
# Coordination Sequence:
#
# PCOD8144763 Si02
#       6
#     8   4   8   8   8   8
#     4  10  21  44  70 102 137 192 248 285 355 433
#     4  12  32  46  64 114 168 182 224 310 396 444
#     4  11  27  47  67 108 147 195 238 293 380 435
#     4  11  23  43  76 103 135 190 254 302 348 428
#     4  11  24  47  71 104 143 191 246 301 361 430
#     4  11  21  43  77 109 136 185 256 307 335 432
#
# _framework density 23.775582
#
# number of rings (size 3 to 8) (size 9 to 14) (size 15 to 20)
#    0.000    1.091    5.455    1.091   10.182    1.455 
#    3.273    0.000    0.000    0.000    0.000    0.000 
#    0.000    0.000    0.000    0.000    0.000    0.000 
#
# Total GULP energy -272580.012779 kJ/mol
# GULP energy per Si atom -12390.000581 kJ/mol
# Density = 2.372147 g / cm^3
# Si number density = 23.775582 Si / 1000 Ang^3
#
#
#
# Elastic Constant Matrix: (Units=GPa)
#
#
# Indices 1 2 3 4 5 6 
#
# 1 129.4066 34.7843 40.3480 0.0000 -28.8400 0.0000
# 2 34.7843 65.3258 17.2798 0.0000 -4.5220 0.0000
# 3 40.3480 17.2798 100.8536 0.0000 -9.2470 0.0000
# 4 0.0000 0.0000 0.0000 24.0613 0.0000 -3.2055
# 5 -28.8400 -4.5220 -9.2470 0.0000 54.4887 0.0000
# 6 0.0000 0.0000 0.0000 -3.2055 0.0000 32.0680
#
#
#
# Elastic Compliance Matrix: (Units=1/GPa)
#
#
# Indices 1 2 3 4 5 6 
#
# 1 0.011087 -0.004722 -0.003174 0.000000 0.004938 0.000000
# 2 -0.004722 0.018087 -0.001322 0.000000 -0.001223 0.000000
# 3 -0.003174 -0.001322 0.011425 0.000000 0.000149 0.000000
# 4 0.000000 0.000000 0.000000 0.042121 0.000000 0.004210
# 5 0.004938 -0.001223 0.000149 0.000000 0.020890 0.000000
# 6 0.000000 0.000000 0.000000 0.004210 0.000000 0.031605
#
#
# Mechanical properties :
#
#
# Convention : Reuss Voigt Hill
#
# Bulk Modulus (GPa) = 45.11844 53.37893 49.24868
# Shear Modulus (GPa) = 31.04844 35.66853 33.35848
#
# Velocity S-wave (km/s) = 3.61764 3.87747 3.74980
# Velocity P-wave (km/s) = 6.03885 6.52275 6.28546
#
# Compressibility (1/GPa) = 0.02216389
#
# Stress axis : x y z
#
# Youngs Moduli (GPa) = 90.19710 55.28723 87.52564
#
# Poissons Ratio (x) = 0.26108 0.27778
# Poissons Ratio (y) = 0.42593 0.11570
# Poissons Ratio (z) = 0.28626 0.07309
#
# Static dielectric constant tensor:
#      x y z
#    x 0.000000 0.000000 0.000000 
#    y 0.000000 0.000000 0.000000 
#    z 0.000000 0.000000 0.000000 
# 
# 
# High freq. dielectric constant tensor:
#      x y z
#    x 1.955040 0.000000 -0.012230 
#    y 0.000000 1.925260 0.000000 
#    z -0.012230 0.000000 1.932500 
# 
# From -- ./inp_files/151721.got.cif
#   From: 2010.06.25/outbox.cif.g09.slc.cpg/sg15_76_cif.got.tgz:151721.got - 2010.06.28 07:06:18.
