data_PCOD8144868
_publ_section_title
;
Structure prediction by ZEFSAII (Michael W. Deem and Ramdas Pophale) SiO2 
 PCOD8144868
Probable space group: C 2/C
;
_chemical_formula_sum "Si O2"
_cell_formula_units_Z 60
_cell_length_a 17.221076
_cell_length_b 18.844493
_cell_length_c 16.441998
_cell_angle_alpha 90.000000
_cell_angle_beta 31.651176
_cell_angle_gamma 90.000000
_cell_volume 2799.940752
_symmetry_space_group_name_H-M "C 2/C"
_symmetry_group_IT_number 15
_symmetry_cell_setting 'monoclinic'
loop_
_space_group_symop_operation_xyz
x,y,z
-x,y,1/2-z
-x,-y,-z
x,-y,1/2+z
1/2+x,1/2+y,z
1/2-x,1/2+y,1/2-z
1/2-x,1/2-y,-z
1/2+x,1/2-y,1/2+z
loop_
_atom_site_type_symbol
_atom_site_label
_atom_site_fract_x
_atom_site_fract_y
_atom_site_fract_z
Si Si1 0.330801 0.586280 0.625738
Si Si2 0.235692 0.562151 0.156325
Si Si3 0.500000 0.913483 0.750000
Si Si4 0.281742 0.164078 0.181352
Si Si5 0.940523 0.921253 0.717319
Si Si6 0.268257 0.183908 0.544710
Si Si7 0.382621 0.200511 0.624652
Si Si8 0.965219 0.915935 0.175932
O O1 0.285579 0.504021 0.665783
O O2 0.430038 0.602361 0.459393
O O3 0.186881 0.634922 0.763120
O O4 0.433053 0.600995 0.611361
O O5 0.090601 0.539353 0.234092
O O6 0.199570 0.625754 0.248863
O O7 0.356044 0.587592 0.981172
O O8 0.610632 0.865918 0.601045
O O9 0.216708 0.112660 0.168973
O O10 0.165755 0.227593 0.289381
O O11 0.442619 0.194283 0.017182
O O12 0.000000 0.892220 0.750000
O O13 0.911606 0.005687 0.748904
O O14 0.250000 0.250000 0.500000
O O15 0.331095 0.206010 0.576872
O O16 0.111866 0.141904 0.696662
#
# Coordination Sequence:
#
# PCOD8144868 Si02
#       8
#     8   8   4   8   8   8   8   8
#     4  10  21  46  70 100 132 180 235 282 345 415
#     4  11  22  42  70  95 139 184 232 285 335 410
#     4  12  26  40  56 104 144 174 226 286 334 396
#     4  12  23  45  68  97 132 183 230 279 348 414
#     4  11  23  43  72 104 127 169 237 299 342 398
#     4  11  26  42  62 100 144 183 226 278 339 409
#     4  11  26  44  69  96 136 187 230 272 347 426
#     4  10  22  43  72  97 132 188 232 272 346 425
#
# _framework density 21.429026
#
# number of rings (size 3 to 8) (size 9 to 14) (size 15 to 20)
#    0.000    1.067    4.000    2.400    5.600    2.667 
#    0.000    2.667    0.000    0.000    0.000    0.000 
#    0.000    0.000    0.000    0.000    0.000    0.000 
#
# Total GULP energy -371948.104014 kJ/mol
# GULP energy per Si atom -12398.270134 kJ/mol
# Density = 2.138025 g / cm^3
# Si number density = 21.429026 Si / 1000 Ang^3
#
#
#
# Elastic Constant Matrix: (Units=GPa)
#
#
# Indices 1 2 3 4 5 6 
#
# 1 115.7710 25.6445 67.9230 -0.0005 -5.3386 -0.0043
# 2 25.6445 83.6591 58.3463 0.0048 -1.4668 -0.0064
# 3 67.9230 58.3463 119.7371 0.0066 -9.0228 0.0000
# 4 -0.0005 0.0048 0.0066 43.2378 -0.0023 0.7407
# 5 -5.3386 -1.4668 -9.0228 -0.0023 42.6212 0.0032
# 6 -0.0043 -0.0064 0.0000 0.7407 0.0032 6.5407
#
#
#
# Elastic Compliance Matrix: (Units=1/GPa)
#
#
# Indices 1 2 3 4 5 6 
#
# 1 0.013118 0.001773 -0.008309 0.000001 -0.000055 0.000010
# 2 0.001773 0.018414 -0.010075 -0.000001 -0.001277 0.000020
# 3 -0.008309 -0.010075 0.018160 -0.000001 0.002457 -0.000016
# 4 0.000001 -0.000001 -0.000001 0.023173 0.000001 -0.002624
# 5 -0.000055 -0.001277 0.002457 0.000001 0.023932 -0.000013
# 6 0.000010 0.000020 -0.000016 -0.002624 -0.000013 0.153186
#
#
# Mechanical properties :
#
#
# Convention : Reuss Voigt Hill
#
# Bulk Modulus (GPa) = 60.72004 69.22165 64.97084
# Shear Modulus (GPa) = 17.31938 29.63017 23.47477
#
# Velocity S-wave (km/s) = 2.84601 3.72252 3.31337
# Velocity P-wave (km/s) = 6.26072 7.13085 6.70991
#
# Compressibility (1/GPa) = 0.01646903
#
# Stress axis : x y z
#
# Youngs Moduli (GPa) = 76.23386 54.30671 55.06660
#
# Poissons Ratio (x) = -0.09630 0.45757
# Poissons Ratio (y) = -0.13518 0.55480
# Poissons Ratio (z) = 0.63346 0.54714
#
# Static dielectric constant tensor:
#      x y z
#    x 3.901500 -0.000010 -0.148750 
#    y -0.000010 3.896520 0.000060 
#    z -0.148750 0.000060 4.169870 
# 
# 
# High freq. dielectric constant tensor:
#      x y z
#    x 1.846800 0.000000 -0.004750 
#    y 0.000000 1.833470 0.000000 
#    z -0.004750 0.000000 1.849240 
# 
# From -- ./inp_files/211743.got.cif
#   From: 2010.06.25/outbox.cif.g09.slc.cpg/sg15_106_cif.got.tgz:211743.got - 2010.06.28 07:06:18.
