data_PCOD8144818
_publ_section_title
;
Structure prediction by ZEFSAII (Michael W. Deem and Ramdas Pophale) SiO2 
 PCOD8144818
Probable space group: C 2/C
;
_chemical_formula_sum "Si O2"
_cell_formula_units_Z 52
_cell_length_a 14.670286
_cell_length_b 8.041957
_cell_length_c 31.045343
_cell_angle_alpha 90.000000
_cell_angle_beta 38.890997
_cell_angle_gamma 90.000000
_cell_volume 2299.568224
_symmetry_space_group_name_H-M "C 2/C"
_symmetry_group_IT_number 15
_symmetry_cell_setting 'monoclinic'
loop_
_space_group_symop_operation_xyz
x,y,z
-x,y,1/2-z
-x,-y,-z
x,-y,1/2+z
1/2+x,1/2+y,z
1/2-x,1/2+y,1/2-z
1/2-x,1/2-y,-z
1/2+x,1/2-y,1/2+z
loop_
_atom_site_type_symbol
_atom_site_label
_atom_site_fract_x
_atom_site_fract_y
_atom_site_fract_z
Si Si1 0.500000 0.516685 0.250000
Si Si2 0.548699 0.460756 0.028623
Si Si3 0.348645 0.481406 0.675988
Si Si4 0.085556 0.573727 0.010117
Si Si5 0.603806 0.653475 0.632619
Si Si6 0.626147 0.982402 0.088582
Si Si7 0.898880 0.722040 0.720165
O O1 0.398405 0.394344 0.315819
O O2 0.591825 0.639408 0.246431
O O3 0.424927 0.547758 0.102504
O O4 0.546561 0.263258 0.035567
O O5 0.500000 0.500000 0.000000
O O6 0.702769 0.548583 0.981372
O O7 0.458657 0.586117 0.664663
O O8 0.194840 0.571538 0.726712
O O9 0.315070 0.304742 0.710566
O O10 0.051577 0.481661 0.068235
O O11 0.257109 0.560982 0.938589
O O12 0.000000 0.500000 0.000000
O O13 0.610673 0.848709 0.621642
O O14 0.555017 0.840264 0.144763
#
# Coordination Sequence:
#
# PCOD8144818 Si02
#       7
#     4   8   8   8   8   8   8
#     4  10  26  44  64 102 136 184 230 278 344 408
#     4  11  25  43  69 100 138 176 229 284 342 409
#     4  11  23  45  66  96 138 179 223 279 344 404
#     4  11  24  41  73 100 131 181 231 284 340 409
#     4  10  21  45  68  94 134 182 225 280 333 409
#     4  11  23  48  69 100 136 181 228 286 347 402
#     4  11  27  42  70  99 137 182 228 285 343 412
#
# _framework density 22.612943000000001
#
# number of rings (size 3 to 8) (size 9 to 14) (size 15 to 20)
#    0.000    1.231    3.077    1.846    6.462    3.692 
#    8.308    0.000    0.000    0.000    0.000    0.000 
#    0.000    0.000    0.000    0.000    0.000    0.000 
#
# Total GULP energy -322282.696733 kJ/mol
# GULP energy per Si atom -12395.488336 kJ/mol
# Density = 2.256148 g / cm^3
# Si number density = 22.612943 Si / 1000 Ang^3
#
#
#
# Elastic Constant Matrix: (Units=GPa)
#
#
# Indices 1 2 3 4 5 6 
#
# 1 96.5810 16.2349 39.7353 -0.0080 23.5641 -0.0020
# 2 16.2349 46.0032 32.0262 -0.0408 12.1404 -0.0353
# 3 39.7353 32.0262 137.7615 -0.0059 23.5245 -0.0092
# 4 -0.0080 -0.0408 -0.0059 37.6367 -0.0012 4.3424
# 5 23.5641 12.1404 23.5245 -0.0012 42.8787 -0.0042
# 6 -0.0020 -0.0353 -0.0092 4.3424 -0.0042 39.3630
#
#
#
# Elastic Compliance Matrix: (Units=1/GPa)
#
#
# Indices 1 2 3 4 5 6 
#
# 1 0.012916 -0.001421 -0.002484 0.000001 -0.005333 -0.000002
# 2 -0.001421 0.026885 -0.005157 0.000026 -0.004002 0.000020
# 3 -0.002484 -0.005157 0.009590 -0.000004 -0.002436 -0.000002
# 4 0.000001 0.000026 -0.000004 0.026912 -0.000005 -0.002969
# 5 -0.005333 -0.004002 -0.002436 -0.000005 0.028722 -0.000001
# 6 -0.000002 0.000020 -0.000002 -0.002969 -0.000001 0.025732
#
#
# Mechanical properties :
#
#
# Convention : Reuss Voigt Hill
#
# Bulk Modulus (GPa) = 31.98295 50.70430 41.34362
# Shear Modulus (GPa) = 31.38622 36.79899 34.09260
#
# Velocity S-wave (km/s) = 3.72960 4.03841 3.88707
# Velocity P-wave (km/s) = 5.72022 6.64954 6.20231
#
# Compressibility (1/GPa) = 0.03126666
#
# Stress axis : x y z
#
# Youngs Moduli (GPa) = 77.42252 37.19488 104.27124
#
# Poissons Ratio (x) = 0.05287 0.25906
# Poissons Ratio (y) = 0.11004 0.53771
# Poissons Ratio (z) = 0.19235 0.19181
#
# Static dielectric constant tensor:
#      x y z
#    x 4.133200 0.000050 0.263610 
#    y 0.000050 3.937240 -0.000030 
#    z 0.263610 -0.000030 4.215350 
# 
# 
# High freq. dielectric constant tensor:
#      x y z
#    x 1.884540 0.000000 0.014040 
#    y 0.000000 1.886220 0.000000 
#    z 0.014040 0.000000 1.907290 
# 
# From -- ./inp_files/313097.got.cif
#   From: 2010.06.25/outbox.cif.g09.slc.cpg/sg15_157_cif.got.tgz:313097.got - 2010.06.28 07:06:18.
