data_PCOD8144514
_publ_section_title
;
Structure prediction by ZEFSAII (Michael W. Deem and Ramdas Pophale) SiO2 
 PCOD8144514
Probable space group: C 2/C
;
_chemical_formula_sum "Si O2"
_cell_formula_units_Z 52
_cell_length_a 17.454957
_cell_length_b 5.172562
_cell_length_c 26.932754
_cell_angle_alpha 90.000000
_cell_angle_beta 104.446332
_cell_angle_gamma 90.000000
_cell_volume 2354.788170
_symmetry_space_group_name_H-M "C 2/C"
_symmetry_group_IT_number 15
_symmetry_cell_setting 'monoclinic'
loop_
_space_group_symop_operation_xyz
x,y,z
-x,y,1/2-z
-x,-y,-z
x,-y,1/2+z
1/2+x,1/2+y,z
1/2-x,1/2+y,1/2-z
1/2-x,1/2-y,-z
1/2+x,1/2-y,1/2+z
loop_
_atom_site_type_symbol
_atom_site_label
_atom_site_fract_x
_atom_site_fract_y
_atom_site_fract_z
Si Si1 0.034291 0.939853 0.337125
Si Si2 0.988665 0.765356 0.062013
Si Si3 0.582140 0.227393 0.550715
Si Si4 0.882793 0.783936 0.785854
Si Si5 0.676843 0.291264 0.828586
Si Si6 0.274207 0.270734 0.861133
Si Si7 0.500000 0.088656 0.250000
O O1 0.052173 0.785822 0.390794
O O2 0.057617 0.759105 0.294255
O O3 0.087805 0.200682 0.338309
O O4 0.940061 0.992482 0.316658
O O5 0.055160 0.541391 0.072130
O O6 0.922132 0.699495 0.009832
O O7 0.023803 0.047796 0.058402
O O8 0.670337 0.301421 0.581568
O O9 0.826747 0.859832 0.730678
O O10 0.826849 0.701909 0.821705
O O11 0.940669 0.561752 0.776011
O O12 0.720680 0.523955 0.863462
O O13 0.720896 0.023920 0.845797
#
# Coordination Sequence:
#
# PCOD8144514 Si02
#       7
#     8   8   8   8   8   8   4
#     4  12  24  41  68  98 130 180 225 280 330 397
#     4  10  22  40  72  98 127 168 234 279 337 384
#     4  10  21  43  66 101 128 169 226 290 324 404
#     4  12  24  42  64  93 130 180 226 264 325 399
#     4  12  26  42  59  99 137 176 212 273 336 402
#     4  12  26  42  66  92 137 176 217 267 343 399
#     4  12  22  40  70  94 138 164 236 280 320 390
#
# _framework density 22.082667000000001
#
# number of rings (size 3 to 8) (size 9 to 14) (size 15 to 20)
#    0.000    0.615    4.615    3.692    2.154    0.000 
#    0.000    1.538    0.000    0.000    0.000    0.000 
#    0.000    0.000    0.000    0.000    0.000    0.000 
#
# Total GULP energy -322336.357131 kJ/mol
# GULP energy per Si atom -12397.552197 kJ/mol
# Density = 2.203241 g / cm^3
# Si number density = 22.082667 Si / 1000 Ang^3
#
#
#
# Elastic Constant Matrix: (Units=GPa)
#
#
# Indices 1 2 3 4 5 6 
#
# 1 70.2047 33.8822 47.0921 0.0000 9.8711 0.0000
# 2 33.8822 109.7568 33.7688 0.0000 -2.6192 -0.0002
# 3 47.0921 33.7688 141.9656 0.0000 9.9282 0.0000
# 4 0.0000 0.0000 0.0000 20.8613 0.0000 1.2239
# 5 9.8711 -2.6192 9.9282 0.0000 35.0254 0.0001
# 6 0.0000 -0.0002 0.0000 1.2239 0.0001 30.2476
#
#
#
# Elastic Compliance Matrix: (Units=1/GPa)
#
#
# Indices 1 2 3 4 5 6 
#
# 1 0.020924 -0.004896 -0.005446 0.000000 -0.004719 0.000000
# 2 -0.004896 0.011047 -0.001181 0.000000 0.002541 0.000000
# 3 -0.005446 -0.001181 0.009213 0.000000 -0.001165 0.000000
# 4 0.000000 0.000000 0.000000 0.048050 0.000000 -0.001944
# 5 -0.004719 0.002541 -0.001165 0.000000 0.030401 0.000000
# 6 0.000000 0.000000 0.000000 -0.001944 0.000000 0.033139
#
#
# Mechanical properties :
#
#
# Convention : Reuss Voigt Hill
#
# Bulk Modulus (GPa) = 55.13771 61.26813 58.20292
# Shear Modulus (GPa) = 27.49288 31.03913 29.26600
#
# Velocity S-wave (km/s) = 3.53228 3.75318 3.64441
# Velocity P-wave (km/s) = 6.45438 6.82547 6.64251
#
# Compressibility (1/GPa) = 0.01813641
#
# Stress axis : x y z
#
# Youngs Moduli (GPa) = 47.79260 90.52586 108.54335
#
# Poissons Ratio (x) = 0.44324 0.59113
# Poissons Ratio (y) = 0.23400 0.12820
# Poissons Ratio (z) = 0.26028 0.10692
#
# Static dielectric constant tensor:
#      x y z
#    x 3.824140 0.000000 0.221710 
#    y 0.000000 3.995040 0.000000 
#    z 0.221710 0.000000 4.389190 
# 
# 
# High freq. dielectric constant tensor:
#      x y z
#    x 1.846560 0.000000 0.013370 
#    y 0.000000 1.878340 0.000000 
#    z 0.013370 0.000000 1.876940 
# 
# From -- ./inp_files/312421.got.cif
#   From: 2010.06.25/outbox.cif.g09.slc.cpg/sg15_157_cif.got.tgz:312421.got - 2010.06.28 07:06:18.
