data_PCOD8144156
_publ_section_title
;
Structure prediction by ZEFSAII (Michael W. Deem and Ramdas Pophale) SiO2 
 PCOD8144156
Probable space group: C 2/C
;
_chemical_formula_sum "Si O2"
_cell_formula_units_Z 56
_cell_length_a 9.404573
_cell_length_b 27.995213
_cell_length_c 17.555289
_cell_angle_alpha 90.000000
_cell_angle_beta 36.479524
_cell_angle_gamma 90.000000
_cell_volume 2747.948645
_symmetry_space_group_name_H-M "C 2/C"
_symmetry_group_IT_number 15
_symmetry_cell_setting 'monoclinic'
loop_
_space_group_symop_operation_xyz
x,y,z
-x,y,1/2-z
-x,-y,-z
x,-y,1/2+z
1/2+x,1/2+y,z
1/2-x,1/2+y,1/2-z
1/2-x,1/2-y,-z
1/2+x,1/2-y,1/2+z
loop_
_atom_site_type_symbol
_atom_site_label
_atom_site_fract_x
_atom_site_fract_y
_atom_site_fract_z
Si Si1 0.351378 0.527764 0.961301
Si Si2 0.000000 0.973396 0.750000
Si Si3 0.000000 0.811128 0.750000
Si Si4 0.009154 0.302151 0.552757
Si Si5 0.909428 0.593402 0.119376
Si Si6 0.251232 0.215587 0.393641
Si Si7 0.752199 0.438623 0.397420
Si Si8 0.530707 0.364592 0.885881
O O1 0.486371 0.506288 0.830139
O O2 0.550386 0.556603 0.920936
O O3 0.220251 0.487932 0.068635
O O4 0.153314 0.565949 0.025835
O O5 0.765684 0.940231 0.853675
O O6 0.767247 0.782159 0.818929
O O7 0.082976 0.843674 0.642651
O O8 0.116447 0.266558 0.443924
O O9 0.189897 0.300267 0.545951
O O10 0.977511 0.357907 0.544346
O O11 0.775557 0.606972 0.257012
O O12 0.500000 0.225675 0.250000
O O13 0.095887 0.175533 0.419310
O O14 0.671679 0.398037 0.491200
O O15 0.000000 0.424666 0.250000
#
# Coordination Sequence:
#
# PCOD8144156 Si02
#       8
#     8   4   4   8   8   8   8   8
#     4  11  25  40  67  95 131 181 224 270 326 395
#     4  12  23  44  64  98 136 174 222 280 330 393
#     4  10  21  42  64 104 122 170 222 264 338 401
#     4  10  23  39  66  96 126 163 220 273 324 399
#     4  11  21  41  68  93 127 175 224 265 335 398
#     4  11  21  43  67  94 126 170 217 269 330 403
#     4  11  25  42  60  99 135 172 223 274 327 394
#     4  11  23  42  73  93 133 180 219 274 342 401
#
# _framework density 20.378838999999999
#
# number of rings (size 3 to 8) (size 9 to 14) (size 15 to 20)
#    0.000    1.143    4.286    3.857    2.000    0.571 
#    2.571    1.429    0.000    0.000    0.000    0.000 
#    0.000    0.000    0.000    0.000    0.000    0.000 
#
# Total GULP energy -346949.719179 kJ/mol
# GULP energy per Si atom -12391.061399 kJ/mol
# Density = 2.033246 g / cm^3
# Si number density = 20.378839 Si / 1000 Ang^3
#
#
#
# Elastic Constant Matrix: (Units=GPa)
#
#
# Indices 1 2 3 4 5 6 
#
# 1 83.4425 22.8439 2.5687 0.0000 -5.4189 0.0000
# 2 22.8439 91.1563 37.1381 0.0000 -11.9585 0.0000
# 3 2.5687 37.1381 55.5631 0.0001 -14.0147 0.0001
# 4 0.0000 0.0000 0.0001 44.6338 0.0000 -1.9010
# 5 -5.4189 -11.9585 -14.0147 0.0000 31.1262 0.0000
# 6 0.0000 0.0000 0.0001 -1.9010 0.0000 24.7720
#
#
#
# Elastic Compliance Matrix: (Units=1/GPa)
#
#
# Indices 1 2 3 4 5 6 
#
# 1 0.013153 -0.004115 0.002619 0.000000 0.001888 0.000000
# 2 -0.004115 0.016419 -0.010574 0.000000 0.000830 0.000000
# 3 0.002619 -0.010574 0.027114 0.000000 0.008601 0.000000
# 4 0.000000 0.000000 0.000000 0.022478 0.000000 0.001725
# 5 0.001888 0.000830 0.008601 0.000000 0.036648 0.000000
# 6 0.000000 0.000000 0.000000 0.001725 0.000000 0.040500
#
#
# Mechanical properties :
#
#
# Convention : Reuss Voigt Hill
#
# Bulk Modulus (GPa) = 30.72817 39.47371 35.10094
# Shear Modulus (GPa) = 26.13676 31.28050 28.70863
#
# Velocity S-wave (km/s) = 3.58515 3.92209 3.75740
# Velocity P-wave (km/s) = 5.67881 6.31842 6.00714
#
# Compressibility (1/GPa) = 0.03254343
#
# Stress axis : x y z
#
# Youngs Moduli (GPa) = 76.02850 60.90666 36.88144
#
# Poissons Ratio (x) = 0.25066 -0.09659
# Poissons Ratio (y) = 0.31289 0.39000
# Poissons Ratio (z) = -0.19911 0.64405
#
# Static dielectric constant tensor:
#      x y z
#    x 0.930280 0.000000 -0.191590 
#    y 0.000000 3.800970 0.000000 
#    z -0.191590 0.000000 3.651950 
# 
# 
# High freq. dielectric constant tensor:
#      x y z
#    x 1.811310 0.000000 -0.010710 
#    y 0.000000 1.792350 0.000000 
#    z -0.010710 0.000000 1.781490 
# 
# From -- ./inp_files/193866.got.cif
#   From: 2010.06.25/outbox.cif.g09.slc.cpg/sg15_97_cif.got.tgz:193866.got - 2010.06.28 07:06:18.
