data_PCOD8144534
_publ_section_title
;
Structure prediction by ZEFSAII (Michael W. Deem and Ramdas Pophale) SiO2 
 PCOD8144534
Probable space group: C 2/C
;
_chemical_formula_sum "Si O2"
_cell_formula_units_Z 64
_cell_length_a 13.925314
_cell_length_b 23.088166
_cell_length_c 9.329699
_cell_angle_alpha 90.000000
_cell_angle_beta 94.628514
_cell_angle_gamma 90.000000
_cell_volume 2989.809026
_symmetry_space_group_name_H-M "C 2/C"
_symmetry_group_IT_number 15
_symmetry_cell_setting 'monoclinic'
loop_
_space_group_symop_operation_xyz
x,y,z
-x,y,1/2-z
-x,-y,-z
x,-y,1/2+z
1/2+x,1/2+y,z
1/2-x,1/2+y,1/2-z
1/2-x,1/2-y,-z
1/2+x,1/2-y,1/2+z
loop_
_atom_site_type_symbol
_atom_site_label
_atom_site_fract_x
_atom_site_fract_y
_atom_site_fract_z
Si Si1 0.941974 0.117736 0.110003
Si Si2 0.761802 0.804703 0.103512
Si Si3 0.384633 0.100109 0.603051
Si Si4 0.782498 0.191323 0.933916
Si Si5 0.906369 0.386718 0.429554
Si Si6 0.172869 0.994968 0.827748
Si Si7 0.427089 0.607026 0.629801
Si Si8 0.804745 0.482220 0.584913
O O1 0.882231 0.065362 0.172059
O O2 0.000000 0.147183 0.250000
O O3 0.878185 0.166795 0.022810
O O4 0.015965 0.089477 0.006488
O O5 0.795902 0.791508 0.269444
O O6 0.653011 0.827753 0.081172
O O7 0.839994 0.852095 0.062187
O O8 0.750000 0.750000 0.000000
O O9 0.298002 0.142602 0.556767
O O10 0.480056 0.126752 0.540390
O O11 0.392654 0.084821 0.772341
O O12 0.365113 0.037218 0.535266
O O13 0.750000 0.250000 0.000000
O O14 0.869107 0.426155 0.556647
O O15 0.269258 0.986184 0.744385
O O16 0.107845 0.051069 0.778740
O O17 0.204637 0.017182 0.987791
O O18 0.500000 0.639534 0.750000
#
# Coordination Sequence:
#
# PCOD8144534 Si02
#       8
#     8   8   8   8   8   8   8   8
#     4  12  26  42  67 105 140 178 224 275 340 412
#     4  11  25  46  70  94 131 179 227 282 337 398
#     4  10  21  43  66  95 130 172 218 273 336 397
#     4  11  25  46  69  95 134 175 225 287 335 391
#     4  10  22  41  68  96 127 173 220 270 338 399
#     4  12  23  39  69 100 140 181 218 271 339 409
#     4  12  23  45  69  97 139 182 222 275 343 406
#     4  12  20  39  68  95 136 175 213 272 339 395
#
# _framework density 21.406048999999999
#
# number of rings (size 3 to 8) (size 9 to 14) (size 15 to 20)
#    0.000    0.750    5.000    3.375    1.750    1.000 
#    2.250    0.000    0.000    0.000    0.000    0.000 
#    0.000    0.000    0.000    0.000    0.000    0.000 
#
# Total GULP energy -396567.730595 kJ/mol
# GULP energy per Si atom -12392.741581 kJ/mol
# Density = 2.135733 g / cm^3
# Si number density = 21.406049 Si / 1000 Ang^3
#
#
#
# Elastic Constant Matrix: (Units=GPa)
#
#
# Indices 1 2 3 4 5 6 
#
# 1 110.1896 31.9796 55.5237 0.0000 -10.8785 0.0000
# 2 31.9796 103.1138 52.2881 0.0000 -6.1533 0.0000
# 3 55.5237 52.2881 101.9810 0.0000 -0.9871 0.0000
# 4 0.0000 0.0000 0.0000 35.3557 0.0000 -3.2202
# 5 -10.8785 -6.1533 -0.9871 0.0000 35.7433 0.0000
# 6 0.0000 0.0000 0.0000 -3.2202 0.0000 18.8179
#
#
#
# Elastic Compliance Matrix: (Units=1/GPa)
#
#
# Indices 1 2 3 4 5 6 
#
# 1 0.013000 -0.000324 -0.006876 0.000000 0.003711 0.000000
# 2 -0.000324 0.013269 -0.006608 0.000000 0.002003 0.000000
# 3 -0.006876 -0.006608 0.016911 0.000000 -0.002763 0.000000
# 4 0.000000 0.000000 0.000000 0.028732 0.000000 0.004917
# 5 0.003711 0.002003 -0.002763 0.000000 0.029375 0.000000
# 6 0.000000 0.000000 0.000000 0.004917 0.000000 0.053982
#
#
# Mechanical properties :
#
#
# Convention : Reuss Voigt Hill
#
# Bulk Modulus (GPa) = 64.24733 66.09633 65.17183
# Shear Modulus (GPa) = 26.58552 29.68289 28.13421
#
# Velocity S-wave (km/s) = 3.52797 3.72783 3.62928
# Velocity P-wave (km/s) = 6.83186 7.03373 6.93353
#
# Compressibility (1/GPa) = 0.01556485
#
# Stress axis : x y z
#
# Youngs Moduli (GPa) = 76.92025 75.36617 59.13432
#
# Poissons Ratio (x) = 0.02439 0.40663
# Poissons Ratio (y) = 0.02489 0.39073
# Poissons Ratio (z) = 0.52893 0.49798
#
# Static dielectric constant tensor:
#      x y z
#    x 3.792560 0.000000 0.060640 
#    y 0.000000 3.617680 0.000000 
#    z 0.060640 0.000000 3.904660 
# 
# 
# High freq. dielectric constant tensor:
#      x y z
#    x 1.854960 0.000000 0.000000 
#    y 0.000000 1.819060 0.000000 
#    z 0.000000 0.000000 1.840520 
# 
# From -- ./inp_files/42628.got.cif
#   From: 2010.06.25/outbox.cif.g09.slc.cpg/sg15_22_cif.got.tgz:42628.got - 2010.06.28 07:06:18.
