data_PCOD8144405
_publ_section_title
;
Structure prediction by ZEFSAII (Michael W. Deem and Ramdas Pophale) SiO2 
 PCOD8144405
Probable space group: C 2/C
;
_chemical_formula_sum "Si O2"
_cell_formula_units_Z 48
_cell_length_a 26.731375
_cell_length_b 8.516964
_cell_length_c 14.852383
_cell_angle_alpha 90.000000
_cell_angle_beta 139.353417
_cell_angle_gamma 90.000000
_cell_volume 2202.643492
_symmetry_space_group_name_H-M "C 2/C"
_symmetry_group_IT_number 15
_symmetry_cell_setting 'monoclinic'
loop_
_space_group_symop_operation_xyz
x,y,z
-x,y,1/2-z
-x,-y,-z
x,-y,1/2+z
1/2+x,1/2+y,z
1/2-x,1/2+y,1/2-z
1/2-x,1/2-y,-z
1/2+x,1/2-y,1/2+z
loop_
_atom_site_type_symbol
_atom_site_label
_atom_site_fract_x
_atom_site_fract_y
_atom_site_fract_z
Si Si1 0.593393 0.347766 0.144762
Si Si2 0.667808 0.303109 0.928303
Si Si3 0.303025 0.833478 0.843956
Si Si4 0.849088 0.686329 0.913455
Si Si5 0.430109 0.299829 0.866358
Si Si6 0.085295 0.126980 0.834643
O O1 0.661254 0.242693 0.197236
O O2 0.611481 0.533321 0.168840
O O3 0.576957 0.293576 0.224996
O O4 0.520842 0.320463 0.979958
O O5 0.603886 0.231043 0.773321
O O6 0.648981 0.488772 0.913244
O O7 0.750000 0.250000 0.000000
O O8 0.658275 0.239426 0.015160
O O9 0.212780 0.806242 0.712235
O O10 0.312242 0.017270 0.867868
O O11 0.916167 0.682208 0.930407
O O12 0.881811 0.740997 0.053871
O O13 0.000000 0.068587 0.750000
#
# Coordination Sequence:
#
# PCOD8144405 Si02
#       6
#     8   8   8   8   8   8
#     4  10  23  43  71  99 132 179 232 277 351 410
#     4  11  24  42  69 102 137 180 230 281 338 411
#     4  12  27  43  68 101 135 185 227 292 344 411
#     4  12  25  45  69  96 141 176 235 284 346 412
#     4  10  21  42  70  96 132 177 224 284 337 420
#     4  11  24  46  75 103 138 185 228 281 347 420
#
# _framework density 21.791998
#
# number of rings (size 3 to 8) (size 9 to 14) (size 15 to 20)
#    0.000    1.000    3.333    3.000    7.000    2.667 
#    3.000    0.000    0.000    0.000    0.000    0.000 
#    0.000    0.000    0.000    0.000    0.000    0.000 
#
# Total GULP energy -297490.478759 kJ/mol
# GULP energy per Si atom -12395.436615 kJ/mol
# Density = 2.174240 g / cm^3
# Si number density = 21.791998 Si / 1000 Ang^3
#
#
#
# Elastic Constant Matrix: (Units=GPa)
#
#
# Indices 1 2 3 4 5 6 
#
# 1 103.4163 17.5465 31.7045 0.0000 -13.3964 0.0000
# 2 17.5465 70.7235 23.1162 0.0000 9.4860 0.0000
# 3 31.7045 23.1162 125.9884 0.0000 -20.0237 0.0000
# 4 0.0000 0.0000 0.0000 29.9233 0.0000 3.8072
# 5 -13.3964 9.4860 -20.0237 0.0000 42.9661 0.0000
# 6 0.0000 0.0000 0.0000 3.8072 0.0000 28.4707
#
#
#
# Elastic Compliance Matrix: (Units=1/GPa)
#
#
# Indices 1 2 3 4 5 6 
#
# 1 0.011074 -0.002583 -0.001807 0.000000 0.003181 0.000000
# 2 -0.002583 0.016698 -0.003378 0.000000 -0.006066 0.000000
# 3 -0.001807 -0.003378 0.009764 0.000000 0.004733 0.000000
# 4 0.000000 0.000000 0.000000 0.033997 0.000000 -0.004546
# 5 0.003181 -0.006066 0.004733 0.000000 0.027811 0.000000
# 6 0.000000 0.000000 0.000000 -0.004546 0.000000 0.035732
#
#
# Mechanical properties :
#
#
# Convention : Reuss Voigt Hill
#
# Bulk Modulus (GPa) = 45.45582 49.42919 47.44251
# Shear Modulus (GPa) = 31.65639 35.45609 33.55624
#
# Velocity S-wave (km/s) = 3.81551 4.03801 3.92834
# Velocity P-wave (km/s) = 6.34942 6.66875 6.51104
#
# Compressibility (1/GPa) = 0.02199938
#
# Stress axis : x y z
#
# Youngs Moduli (GPa) = 90.30100 59.88652 102.41777
#
# Poissons Ratio (x) = 0.15471 0.18509
# Poissons Ratio (y) = 0.23329 0.34595
# Poissons Ratio (z) = 0.16319 0.20228
#
# Static dielectric constant tensor:
#      x y z
#    x 3.944400 0.000000 -0.198110 
#    y 0.000000 3.637430 0.000000 
#    z -0.198110 0.000000 4.233110 
# 
# 
# High freq. dielectric constant tensor:
#      x y z
#    x 1.863570 0.000000 -0.010050 
#    y 0.000000 1.829490 0.000000 
#    z -0.010050 0.000000 1.875560 
# 
# From -- ./inp_files/176972.got.cif
#   From: 2010.06.25/outbox.cif.g09.slc.cpg/sg15_89_cif.got.tgz:176972.got - 2010.06.28 07:06:18.
