data_PCOD8144234
_publ_section_title
;
Structure prediction by ZEFSAII (Michael W. Deem and Ramdas Pophale) SiO2 
 PCOD8144234
Probable space group: C 2/C
;
_chemical_formula_sum "Si O2"
_cell_formula_units_Z 56
_cell_length_a 21.477168
_cell_length_b 14.463760
_cell_length_c 10.077245
_cell_angle_alpha 90.000000
_cell_angle_beta 47.973494
_cell_angle_gamma 90.000000
_cell_volume 2325.372384
_symmetry_space_group_name_H-M "C 2/C"
_symmetry_group_IT_number 15
_symmetry_cell_setting 'monoclinic'
loop_
_space_group_symop_operation_xyz
x,y,z
-x,y,1/2-z
-x,-y,-z
x,-y,1/2+z
1/2+x,1/2+y,z
1/2-x,1/2+y,1/2-z
1/2-x,1/2-y,-z
1/2+x,1/2-y,1/2+z
loop_
_atom_site_type_symbol
_atom_site_label
_atom_site_fract_x
_atom_site_fract_y
_atom_site_fract_z
Si Si1 0.216335 0.212708 0.685681
Si Si2 0.625222 0.853617 0.983735
Si Si3 0.440878 0.661034 0.954390
Si Si4 0.659938 0.511894 0.519015
Si Si5 0.415249 0.568890 0.620536
Si Si6 0.677957 0.951342 0.336564
Si Si7 0.055243 0.668513 0.866432
O O1 0.250000 0.250000 0.500000
O O2 0.202467 0.294249 0.813471
O O3 0.124410 0.169732 0.793418
O O4 0.280910 0.132313 0.639311
O O5 0.653568 0.960417 0.961189
O O6 0.544027 0.846616 0.003582
O O7 0.600154 0.813618 0.162159
O O8 0.500000 0.693644 0.750000
O O9 0.486404 0.578591 0.977988
O O10 0.356993 0.617150 0.010067
O O11 0.418743 0.744953 0.080029
O O12 0.633365 0.498178 0.710254
O O13 0.600326 0.448323 0.512402
O O14 0.756586 0.485710 0.368750
O O15 0.593719 0.920928 0.382710
#
# Coordination Sequence:
#
# PCOD8144234 Si02
#       7
#     8   8   8   8   8   8   8
#     4  11  25  45  74 104 144 189 238 298 355 426
#     4  11  26  49  70 104 146 184 241 293 358 432
#     4  10  22  43  70 100 137 187 244 293 358 429
#     4  10  23  40  67 105 139 182 239 300 362 425
#     4  10  21  42  66 101 140 188 237 299 359 429
#     4  11  27  44  73 104 140 190 232 299 363 417
#     4  11  26  47  70 102 141 190 237 291 355 435
#
# _framework density 24.082165
#
# number of rings (size 3 to 8) (size 9 to 14) (size 15 to 20)
#    0.000    1.429    1.429    1.714   12.000    2.857 
#    2.571    0.000    0.000    0.000    0.000    0.000 
#    0.000    0.000    0.000    0.000    0.000    0.000 
#
# Total GULP energy -347135.281808 kJ/mol
# GULP energy per Si atom -12397.688636 kJ/mol
# Density = 2.402735 g / cm^3
# Si number density = 24.082165 Si / 1000 Ang^3
#
#
#
# Elastic Constant Matrix: (Units=GPa)
#
#
# Indices 1 2 3 4 5 6 
#
# 1 62.7787 31.7850 14.9988 0.0000 2.1735 0.0000
# 2 31.7850 125.8522 55.1784 0.0000 9.2968 0.0000
# 3 14.9988 55.1784 101.9352 0.0000 14.8057 0.0000
# 4 0.0000 0.0000 0.0000 35.9789 0.0000 -9.6640
# 5 2.1735 9.2968 14.8057 0.0000 38.3391 0.0000
# 6 0.0000 0.0000 0.0000 -9.6640 0.0000 43.1834
#
#
#
# Elastic Compliance Matrix: (Units=1/GPa)
#
#
# Indices 1 2 3 4 5 6 
#
# 1 0.018270 -0.004507 -0.000272 0.000000 0.000162 0.000000
# 2 -0.004507 0.011535 -0.005521 0.000000 -0.000409 0.000000
# 3 -0.000272 -0.005521 0.013394 0.000000 -0.003818 0.000000
# 4 0.000000 0.000000 0.000000 0.029572 0.000000 0.006618
# 5 0.000162 -0.000409 -0.003818 0.000000 0.027648 0.000000
# 6 0.000000 0.000000 0.000000 0.006618 0.000000 0.024638
#
#
# Mechanical properties :
#
#
# Convention : Reuss Voigt Hill
#
# Bulk Modulus (GPa) = 44.25220 54.94339 49.59779
# Shear Modulus (GPa) = 32.63922 36.07389 34.35655
#
# Velocity S-wave (km/s) = 3.68547 3.87454 3.78118
# Velocity P-wave (km/s) = 6.04365 6.54832 6.30104
#
# Compressibility (1/GPa) = 0.02259775
#
# Stress axis : x y z
#
# Youngs Moduli (GPa) = 54.73370 86.69160 74.66279
#
# Poissons Ratio (x) = 0.39071 0.02032
# Poissons Ratio (y) = 0.24668 0.41225
# Poissons Ratio (z) = 0.01490 0.47866
#
# Static dielectric constant tensor:
#      x y z
#    x 4.458250 0.000000 -0.109690 
#    y 0.000000 4.522060 0.000000 
#    z -0.109690 0.000000 4.269210 
# 
# 
# High freq. dielectric constant tensor:
#      x y z
#    x 1.963070 0.000000 -0.001650 
#    y 0.000000 1.958350 0.000000 
#    z -0.001650 0.000000 1.953970 
# 
# From -- ./inp_files/123302.got.cif
#   From: 2010.06.25/outbox.cif.g09.slc.cpg/sg15_62_cif.got.tgz:123302.got - 2010.06.28 07:06:18.
