data_PCOD8144562
_publ_section_title
;
Structure prediction by ZEFSAII (Michael W. Deem and Ramdas Pophale) SiO2 
 PCOD8144562
Probable space group: C 2/C
;
_chemical_formula_sum "Si O2"
_cell_formula_units_Z 48
_cell_length_a 16.811094
_cell_length_b 9.038293
_cell_length_c 29.193138
_cell_angle_alpha 90.000000
_cell_angle_beta 30.894540
_cell_angle_gamma 90.000000
_cell_volume 2277.557498
_symmetry_space_group_name_H-M "C 2/C"
_symmetry_group_IT_number 15
_symmetry_cell_setting 'monoclinic'
loop_
_space_group_symop_operation_xyz
x,y,z
-x,y,1/2-z
-x,-y,-z
x,-y,1/2+z
1/2+x,1/2+y,z
1/2-x,1/2+y,1/2-z
1/2-x,1/2-y,-z
1/2+x,1/2-y,1/2+z
loop_
_atom_site_type_symbol
_atom_site_label
_atom_site_fract_x
_atom_site_fract_y
_atom_site_fract_z
Si Si1 0.680380 0.024369 0.414230
Si Si2 0.410255 0.544825 0.998916
Si Si3 0.439391 0.717457 0.653591
Si Si4 0.662234 0.975274 0.323394
Si Si5 0.634213 0.767595 0.015515
Si Si6 0.367940 0.245655 0.353007
O O1 0.719184 0.164867 0.427925
O O2 0.500000 0.000000 0.500000
O O3 0.735105 0.041422 0.334647
O O4 0.754611 0.877254 0.396734
O O5 0.489220 0.678300 0.931321
O O6 0.419965 0.398905 0.964030
O O7 0.500000 0.500000 0.000000
O O8 0.233352 0.594838 0.096222
O O9 0.295078 0.611163 0.731844
O O10 0.566280 0.704849 0.630569
O O11 0.385765 0.886351 0.683362
O O12 0.513317 0.869818 0.401585
O O13 0.750000 0.750000 0.000000
O O14 0.500000 0.222615 0.250000
#
# Coordination Sequence:
#
# PCOD8144562 Si02
#       6
#     8   8   8   8   8   8
#     4  10  21  43  67  93 133 180 223 269 338 407
#     4  12  25  43  70 102 136 180 223 286 344 403
#     4  12  25  43  69  99 139 181 234 280 346 406
#     4  11  23  42  65  98 134 185 229 286 336 412
#     4  11  22  41  67  99 137 176 229 279 344 403
#     4  12  25  45  70 102 138 182 232 280 342 414
#
# _framework density 21.075209000000001
#
# number of rings (size 3 to 8) (size 9 to 14) (size 15 to 20)
#    0.000    0.667    1.667    8.500    2.333    0.000 
#    0.000    0.833    0.000    0.000    0.000    0.000 
#    0.000    0.000    0.000    0.000    0.000    0.000 
#
# Total GULP energy -297550.341421 kJ/mol
# GULP energy per Si atom -12397.930893 kJ/mol
# Density = 2.102724 g / cm^3
# Si number density = 21.075209 Si / 1000 Ang^3
#
#
#
# Elastic Constant Matrix: (Units=GPa)
#
#
# Indices 1 2 3 4 5 6 
#
# 1 149.5849 27.9668 53.7554 0.0004 -4.7693 0.0065
# 2 27.9668 106.7418 58.0139 0.0003 -13.8644 0.0054
# 3 53.7554 58.0139 114.4427 0.0004 -10.2776 -0.0029
# 4 0.0004 0.0003 0.0004 43.8649 -0.0002 -0.4227
# 5 -4.7693 -13.8644 -10.2776 -0.0002 22.2592 -0.0030
# 6 0.0065 0.0054 -0.0029 -0.4227 -0.0030 41.4432
#
#
#
# Elastic Compliance Matrix: (Units=1/GPa)
#
#
# Indices 1 2 3 4 5 6 
#
# 1 0.008043 -0.000081 -0.003742 0.000000 -0.000055 -0.000002
# 2 -0.000081 0.013547 -0.006336 0.000000 0.005495 -0.000002
# 3 -0.003742 -0.006336 0.013856 0.000000 0.001649 0.000003
# 4 0.000000 0.000000 0.000000 0.022800 0.000000 0.000233
# 5 -0.000055 0.005495 0.001649 0.000000 0.049098 0.000003
# 6 -0.000002 -0.000002 0.000003 0.000233 0.000003 0.024132
#
#
# Mechanical properties :
#
#
# Convention : Reuss Voigt Hill
#
# Bulk Modulus (GPa) = 66.10019 72.24907 69.17463
# Shear Modulus (GPa) = 31.88072 36.91569 34.39820
#
# Velocity S-wave (km/s) = 3.89358 4.18977 4.04439
# Velocity P-wave (km/s) = 7.18647 7.60010 7.39618
#
# Compressibility (1/GPa) = 0.01512855
#
# Stress axis : x y z
#
# Youngs Moduli (GPa) = 124.32764 73.81824 72.17292
#
# Poissons Ratio (x) = 0.00596 0.27007
# Poissons Ratio (y) = 0.01003 0.45728
# Poissons Ratio (z) = 0.46524 0.46770
#
# Static dielectric constant tensor:
#      x y z
#    x 4.162390 -0.000030 0.243010 
#    y -0.000030 4.219120 0.000000 
#    z 0.243010 0.000000 4.027400 
# 
# 
# High freq. dielectric constant tensor:
#      x y z
#    x 1.846170 0.000000 0.002950 
#    y 0.000000 1.836680 0.000000 
#    z 0.002950 0.000000 1.820960 
# 
# From -- ./inp_files/224537.got.cif
#   From: 2010.06.25/outbox.cif.g09.slc.cpg/sg15_113_cif.got.tgz:224537.got - 2010.06.28 07:06:18.
