data_PCOD8144235
_publ_section_title
;
Structure prediction by ZEFSAII (Michael W. Deem and Ramdas Pophale) SiO2 
 PCOD8144235
Probable space group: C 2/C
;
_chemical_formula_sum "Si O2"
_cell_formula_units_Z 40
_cell_length_a 23.640089
_cell_length_b 10.213991
_cell_length_c 7.402968
_cell_angle_alpha 90.000000
_cell_angle_beta 97.826455
_cell_angle_gamma 90.000000
_cell_volume 1770.867505
_symmetry_space_group_name_H-M "C 2/C"
_symmetry_group_IT_number 15
_symmetry_cell_setting 'monoclinic'
loop_
_space_group_symop_operation_xyz
x,y,z
-x,y,1/2-z
-x,-y,-z
x,-y,1/2+z
1/2+x,1/2+y,z
1/2-x,1/2+y,1/2-z
1/2-x,1/2-y,-z
1/2+x,1/2-y,1/2+z
loop_
_atom_site_type_symbol
_atom_site_label
_atom_site_fract_x
_atom_site_fract_y
_atom_site_fract_z
Si Si1 0.452224 0.825257 0.482590
Si Si2 0.930110 0.605453 0.580719
Si Si3 0.648923 0.330901 0.461144
Si Si4 0.816750 0.320861 0.852913
Si Si5 0.304268 0.397384 0.640759
O O1 0.449326 0.954896 0.604718
O O2 0.419331 0.703647 0.564154
O O3 0.519949 0.800984 0.482533
O O4 0.419235 0.846495 0.278624
O O5 0.874041 0.393377 0.934882
O O6 0.680368 0.219769 0.356052
O O7 0.673248 0.323294 0.673088
O O8 0.659848 0.470959 0.373880
O O9 0.763715 0.420222 0.859047
O O10 0.811330 0.189324 0.966868
#
# Coordination Sequence:
#
# PCOD8144235 Si02
#       5
#     8   8   8   8   8
#     4  10  22  39  70  98 135 169 217 286 324 398
#     4  10  21  42  66 103 130 168 225 271 340 387
#     4  12  23  45  69  95 137 176 223 275 333 398
#     4  11  24  42  68  91 135 174 218 278 323 397
#     4  11  25  42  63  98 131 175 224 268 329 397
#
# _framework density 22.587797999999999
#
# number of rings (size 3 to 8) (size 9 to 14) (size 15 to 20)
#    0.000    1.200    4.000    1.800    0.000    7.200 
#    0.000    1.000    4.400    0.000    0.000    0.000 
#    0.000    0.000    0.000    0.000    0.000    0.000 
#
# Total GULP energy -247927.267602 kJ/mol
# GULP energy per Si atom -12396.363380 kJ/mol
# Density = 2.253639 g / cm^3
# Si number density = 22.587798 Si / 1000 Ang^3
#
#
#
# Elastic Constant Matrix: (Units=GPa)
#
#
# Indices 1 2 3 4 5 6 
#
# 1 148.1214 53.4917 40.9135 0.0000 -2.3858 0.0000
# 2 53.4917 72.4901 20.0682 0.0000 -12.4267 0.0000
# 3 40.9135 20.0682 91.4086 0.0000 -7.9022 0.0000
# 4 0.0000 0.0000 0.0000 31.6311 0.0000 -9.9757
# 5 -2.3858 -12.4267 -7.9022 0.0000 34.2896 0.0000
# 6 0.0000 0.0000 0.0000 -9.9757 0.0000 44.2065
#
#
#
# Elastic Compliance Matrix: (Units=1/GPa)
#
#
# Indices 1 2 3 4 5 6 
#
# 1 0.010138 -0.007034 -0.003217 0.000000 -0.002585 0.000000
# 2 -0.007034 0.020340 -0.000737 0.000000 0.006712 0.000000
# 3 -0.003217 -0.000737 0.012753 0.000000 0.002448 0.000000
# 4 0.000000 0.000000 0.000000 0.034037 0.000000 0.007681
# 5 -0.002585 0.006712 0.002448 0.000000 0.031980 0.000000
# 6 0.000000 0.000000 0.000000 0.007681 0.000000 0.024354
#
#
# Mechanical properties :
#
#
# Convention : Reuss Voigt Hill
#
# Bulk Modulus (GPa) = 47.04584 60.10743 53.57663
# Shear Modulus (GPa) = 30.73825 35.19524 32.96674
#
# Velocity S-wave (km/s) = 3.69295 3.95163 3.82448
# Velocity P-wave (km/s) = 6.24956 6.89121 6.57822
#
# Compressibility (1/GPa) = 0.02125587
#
# Stress axis : x y z
#
# Youngs Moduli (GPa) = 98.63569 49.16419 78.41134
#
# Poissons Ratio (x) = 0.34581 0.25225
# Poissons Ratio (y) = 0.69378 0.05779
# Poissons Ratio (z) = 0.31732 0.03624
#
# Static dielectric constant tensor:
#      x y z
#    x 4.333270 0.000000 -0.246580 
#    y 0.000000 3.643520 0.000000 
#    z -0.246580 0.000000 4.234570 
# 
# 
# High freq. dielectric constant tensor:
#      x y z
#    x 1.898560 0.000000 -0.014320 
#    y 0.000000 1.850470 0.000000 
#    z -0.014320 0.000000 1.911940 
# 
# From -- ./inp_files/46203.got.cif
#   From: 2010.06.25/outbox.cif.g09.slc.cpg/sg15_24_cif.got.tgz:46203.got - 2010.06.28 07:06:18.
