data_PCOD8144737
_publ_section_title
;
Structure prediction by ZEFSAII (Michael W. Deem and Ramdas Pophale) SiO2 
 PCOD8144737
Probable space group: C 2/C
;
_chemical_formula_sum "Si O2"
_cell_formula_units_Z 56
_cell_length_a 31.386078
_cell_length_b 7.945464
_cell_length_c 13.983034
_cell_angle_alpha 90.000000
_cell_angle_beta 135.894665
_cell_angle_gamma 90.000000
_cell_volume 2426.913378
_symmetry_space_group_name_H-M "C 2/C"
_symmetry_group_IT_number 15
_symmetry_cell_setting 'monoclinic'
loop_
_space_group_symop_operation_xyz
x,y,z
-x,y,1/2-z
-x,-y,-z
x,-y,1/2+z
1/2+x,1/2+y,z
1/2-x,1/2+y,1/2-z
1/2-x,1/2-y,-z
1/2+x,1/2-y,1/2+z
loop_
_atom_site_type_symbol
_atom_site_label
_atom_site_fract_x
_atom_site_fract_y
_atom_site_fract_z
Si Si1 0.089509 0.844822 0.089087
Si Si2 0.968178 0.681385 0.947173
Si Si3 0.336212 0.076795 0.380866
Si Si4 0.140098 0.132648 0.301228
Si Si5 0.133450 0.964809 0.485486
Si Si6 0.720644 0.732931 0.266666
Si Si7 0.564825 0.847767 0.893422
O O1 0.130626 0.673409 0.153862
O O2 0.019241 0.813893 0.000382
O O3 0.113502 0.969026 0.207296
O O4 0.092406 0.916867 0.986379
O O5 0.940207 0.719269 0.006037
O O6 0.910281 0.714371 0.782942
O O7 0.000000 0.500000 0.000000
O O8 0.294696 0.927464 0.273245
O O9 0.388510 0.004454 0.536312
O O10 0.293594 0.206317 0.371859
O O11 0.201603 0.184038 0.343754
O O12 0.157994 0.077642 0.437138
O O13 0.188469 0.883040 0.634618
O O14 0.090833 0.811672 0.376134
O O15 0.500000 0.911898 0.750000
#
# Coordination Sequence:
#
# PCOD8144737 Si02
#       7
#     8   8   8   8   8   8   8
#     4  11  22  39  65  97 130 181 222 279 336 403
#     4  12  22  41  63  93 140 179 219 273 339 398
#     4  11  22  45  71  95 136 183 221 284 348 391
#     4  11  22  41  67  99 132 176 227 279 341 400
#     4  10  23  40  66 102 128 178 226 278 341 400
#     4  10  21  44  68  94 137 174 228 282 333 408
#     4  11  23  42  65  99 141 176 221 278 344 404
#
# _framework density 23.074576
#
# number of rings (size 3 to 8) (size 9 to 14) (size 15 to 20)
#    0.000    1.143    5.714    3.000    2.000    1.143 
#    0.000   13.571    0.000    0.000    0.000    0.000 
#    0.000    0.000    0.000    0.000    0.000    0.000 
#
# Total GULP energy -347136.068778 kJ/mol
# GULP energy per Si atom -12397.716742 kJ/mol
# Density = 2.302206 g / cm^3
# Si number density = 23.074576 Si / 1000 Ang^3
#
#
#
# Elastic Constant Matrix: (Units=GPa)
#
#
# Indices 1 2 3 4 5 6 
#
# 1 90.0775 19.3170 24.5960 0.0000 11.5586 0.0000
# 2 19.3170 92.8722 28.0294 0.0000 0.5622 0.0000
# 3 24.5960 28.0294 67.4288 0.0000 4.8936 0.0000
# 4 0.0000 0.0000 0.0000 26.8381 0.0000 11.8813
# 5 11.5586 0.5622 4.8936 0.0000 42.6895 0.0000
# 6 0.0000 0.0000 0.0000 11.8813 0.0000 39.1581
#
#
#
# Elastic Compliance Matrix: (Units=1/GPa)
#
#
# Indices 1 2 3 4 5 6 
#
# 1 0.012861 -0.001495 -0.003851 0.000000 -0.003021 0.000000
# 2 -0.001495 0.012494 -0.004705 0.000000 0.000779 0.000000
# 3 -0.003851 -0.004705 0.018263 0.000000 -0.000989 0.000000
# 4 0.000000 0.000000 0.000000 0.043042 0.000000 -0.013060
# 5 -0.003021 0.000779 -0.000989 0.000000 0.024346 0.000000
# 6 0.000000 0.000000 0.000000 -0.013060 0.000000 0.029500
#
#
# Mechanical properties :
#
#
# Convention : Reuss Voigt Hill
#
# Bulk Modulus (GPa) = 42.52256 43.80704 43.16480
# Shear Modulus (GPa) = 29.68326 33.63288 31.65807
#
# Velocity S-wave (km/s) = 3.59054 3.82196 3.70806
# Velocity P-wave (km/s) = 5.97140 6.20505 6.08935
#
# Compressibility (1/GPa) = 0.02351693
#
# Stress axis : x y z
#
# Youngs Moduli (GPa) = 77.75312 80.04110 54.75660
#
# Poissons Ratio (x) = 0.11963 0.21086
# Poissons Ratio (y) = 0.11621 0.25762
# Poissons Ratio (z) = 0.29942 0.37658
#
# Static dielectric constant tensor:
#      x y z
#    x 4.440670 0.000000 0.217410 
#    y 0.000000 4.353230 0.000000 
#    z 0.217410 0.000000 3.819930 
# 
# 
# High freq. dielectric constant tensor:
#      x y z
#    x 1.921000 0.000000 0.019360 
#    y 0.000000 1.931180 0.000000 
#    z 0.019360 0.000000 1.882160 
# 
# From -- ./inp_files/180853.got.cif
#   From: 2010.06.25/outbox.cif.g09.slc.cpg/sg15_91_cif.got.tgz:180853.got - 2010.06.28 07:06:18.
