data_PCOD8144532
_publ_section_title
;
Structure prediction by ZEFSAII (Michael W. Deem and Ramdas Pophale) SiO2 
 PCOD8144532
Probable space group: C 2/C
;
_chemical_formula_sum "Si O2"
_cell_formula_units_Z 48
_cell_length_a 15.806414
_cell_length_b 27.486120
_cell_length_c 9.691719
_cell_angle_alpha 90.000000
_cell_angle_beta 33.841113
_cell_angle_gamma 90.000000
_cell_volume 2344.867945
_symmetry_space_group_name_H-M "C 2/C"
_symmetry_group_IT_number 15
_symmetry_cell_setting 'monoclinic'
loop_
_space_group_symop_operation_xyz
x,y,z
-x,y,1/2-z
-x,-y,-z
x,-y,1/2+z
1/2+x,1/2+y,z
1/2-x,1/2+y,1/2-z
1/2-x,1/2-y,-z
1/2+x,1/2-y,1/2+z
loop_
_atom_site_type_symbol
_atom_site_label
_atom_site_fract_x
_atom_site_fract_y
_atom_site_fract_z
Si Si1 0.140593 0.611298 0.659354
Si Si2 0.380654 0.464374 0.793450
Si Si3 0.421080 0.426835 0.214828
Si Si4 0.855291 0.634896 0.535623
Si Si5 0.682788 0.210252 0.492242
Si Si6 0.337459 0.752371 0.019857
O O1 0.225136 0.560711 0.540738
O O2 0.098728 0.617453 0.875305
O O3 0.237907 0.657549 0.472105
O O4 0.000000 0.605657 0.750000
O O5 0.500000 0.453364 0.750000
O O6 0.439863 0.439076 0.574486
O O7 0.337757 0.521256 0.845028
O O8 0.500000 0.407779 0.250000
O O9 0.300095 0.388158 0.317066
O O10 0.839121 0.692756 0.572514
O O11 0.000000 0.619749 0.250000
O O12 0.750000 0.250000 0.500000
O O13 0.500000 0.213430 0.750000
O O14 0.752409 0.217789 0.245559
O O15 0.500000 0.732167 0.750000
O O16 0.250000 0.750000 0.000000
#
# Coordination Sequence:
#
# PCOD8144532 Si02
#       6
#     8   8   8   8   8   8
#     4  11  25  42  67  93 129 172 218 265 317 387
#     4  10  21  43  66  95 129 163 216 269 321 377
#     4  10  23  41  67  96 129 166 209 271 324 384
#     4  11  25  44  64  94 133 171 212 267 326 387
#     4  11  23  41  65  94 125 169 220 266 315 377
#     4  11  25  43  64  93 134 169 212 270 327 384
#
# _framework density 20.470234999999999
#
# number of rings (size 3 to 8) (size 9 to 14) (size 15 to 20)
#    0.000    1.333    3.333    1.000    9.333    4.667 
#    0.000    1.667    0.000    0.000    0.000    0.000 
#    0.000    0.000    0.000    0.000    0.000    0.000 
#
# Total GULP energy -297452.964769 kJ/mol
# GULP energy per Si atom -12393.873532 kJ/mol
# Density = 2.042364 g / cm^3
# Si number density = 20.470235 Si / 1000 Ang^3
#
#
#
# Elastic Constant Matrix: (Units=GPa)
#
#
# Indices 1 2 3 4 5 6 
#
# 1 112.4992 1.3968 45.8540 0.0000 21.3703 0.0000
# 2 1.3968 61.1775 38.3468 0.0000 0.2788 0.0000
# 3 45.8540 38.3468 124.1654 0.0001 17.9912 0.0000
# 4 0.0000 0.0000 0.0001 32.7803 0.0000 -6.8920
# 5 21.3703 0.2788 17.9912 0.0000 40.5393 0.0000
# 6 0.0000 0.0000 0.0000 -6.8920 0.0000 35.9538
#
#
#
# Elastic Compliance Matrix: (Units=1/GPa)
#
#
# Indices 1 2 3 4 5 6 
#
# 1 0.011430 0.002520 -0.004407 0.000000 -0.004087 0.000000
# 2 0.002520 0.021132 -0.007741 0.000000 0.001962 0.000000
# 3 -0.004407 -0.007741 0.012534 0.000000 -0.003186 0.000000
# 4 0.000000 0.000000 0.000000 0.031787 0.000000 0.006093
# 5 -0.004087 0.001962 -0.003186 0.000000 0.028222 0.000000
# 6 0.000000 0.000000 0.000000 0.006093 0.000000 0.028982
#
#
# Mechanical properties :
#
#
# Convention : Reuss Voigt Hill
#
# Bulk Modulus (GPa) = 38.70085 52.11527 45.40806
# Shear Modulus (GPa) = 30.87248 36.00430 33.43839
#
# Velocity S-wave (km/s) = 3.88772 4.19843 4.04606
# Velocity P-wave (km/s) = 6.25296 7.00119 6.63763
#
# Compressibility (1/GPa) = 0.02583923
#
# Stress axis : x y z
#
# Youngs Moduli (GPa) = 87.48572 47.32239 79.78430
#
# Poissons Ratio (x) = -0.11926 0.35164
# Poissons Ratio (y) = -0.22049 0.61762
# Poissons Ratio (z) = 0.38558 0.36633
#
# Static dielectric constant tensor:
#      x y z
#    x 3.765060 0.000000 0.404050 
#    y 0.000000 3.906610 0.000000 
#    z 0.404050 0.000000 3.299060 
# 
# 
# High freq. dielectric constant tensor:
#      x y z
#    x 1.816420 0.000000 0.016210 
#    y 0.000000 1.803910 0.000000 
#    z 0.016210 0.000000 1.801740 
# 
# From -- ./inp_files/43781.got.cif
#   From: 2010.06.25/outbox.cif.g09.slc.cpg/sg15_22_cif.got.tgz:43781.got - 2010.06.28 07:06:18.
