data_PCOD8144339
_publ_section_title
;
Structure prediction by ZEFSAII (Michael W. Deem and Ramdas Pophale) SiO2 
 PCOD8144339
Probable space group: C 2/C
;
_chemical_formula_sum "Si O2"
_cell_formula_units_Z 40
_cell_length_a 12.091329
_cell_length_b 29.186814
_cell_length_c 8.687521
_cell_angle_alpha 90.000000
_cell_angle_beta 36.059133
_cell_angle_gamma 90.000000
_cell_volume 1804.643971
_symmetry_space_group_name_H-M "C 2/C"
_symmetry_group_IT_number 15
_symmetry_cell_setting 'monoclinic'
loop_
_space_group_symop_operation_xyz
x,y,z
-x,y,1/2-z
-x,-y,-z
x,-y,1/2+z
1/2+x,1/2+y,z
1/2-x,1/2+y,1/2-z
1/2-x,1/2-y,-z
1/2+x,1/2-y,1/2+z
loop_
_atom_site_type_symbol
_atom_site_label
_atom_site_fract_x
_atom_site_fract_y
_atom_site_fract_z
Si Si1 0.281120 0.807732 0.820968
Si Si2 0.363235 0.983042 0.021888
Si Si3 0.405133 0.154637 0.708794
Si Si4 0.792647 0.061416 0.527087
Si Si5 0.374895 0.704884 0.676175
O O1 0.430835 0.846727 0.605661
O O2 0.381767 0.759687 0.666654
O O3 0.244778 0.812054 0.042698
O O4 0.087449 0.813552 0.944946
O O5 0.205731 0.954680 0.293287
O O6 0.500000 0.954546 0.750000
O O7 0.500000 0.000000 0.000000
O O8 0.269557 0.023451 0.027278
O O9 0.500000 0.179104 0.750000
O O10 0.348538 0.103742 0.822019
O O11 0.222798 0.183622 0.863696
O O12 0.000000 0.077656 0.250000
#
# Coordination Sequence:
#
# PCOD8144339 Si02
#       5
#     8   8   8   8   8
#     4  10  21  42  69  91 128 180 235 278 323 389
#     4   9  19  41  69  94 123 169 215 263 339 400
#     4  12  26  39  62  99 143 171 215 280 342 395
#     4  11  24  43  69  99 134 174 223 276 333 406
#     4  10  21  42  68  94 126 181 235 277 325 391
#
# _framework density 22.165036000000001
#
# number of rings (size 3 to 8) (size 9 to 14) (size 15 to 20)
#    0.000    1.600    2.000    3.000    2.800    2.400 
#    0.000    0.000    4.400    0.000    0.000    0.000 
#    0.000    0.000    0.000    0.000    0.000    0.000 
#
# Total GULP energy -247854.544197 kJ/mol
# GULP energy per Si atom -12392.727210 kJ/mol
# Density = 2.211459 g / cm^3
# Si number density = 22.165036 Si / 1000 Ang^3
#
#
#
# Elastic Constant Matrix: (Units=GPa)
#
#
# Indices 1 2 3 4 5 6 
#
# 1 126.2623 36.1861 30.1862 0.0000 4.9642 0.0000
# 2 36.1861 49.3979 49.4621 0.0000 -10.9045 0.0000
# 3 30.1862 49.4621 150.8739 0.0000 0.8303 0.0000
# 4 0.0000 0.0000 0.0000 35.1103 0.0000 3.5899
# 5 4.9642 -10.9045 0.8303 0.0000 27.4617 0.0000
# 6 0.0000 0.0000 0.0000 3.5899 0.0000 26.0632
#
#
#
# Elastic Compliance Matrix: (Units=1/GPa)
#
#
# Indices 1 2 3 4 5 6 
#
# 1 0.010926 -0.010777 0.001382 0.000000 -0.006296 0.000000
# 2 -0.010777 0.045555 -0.012891 0.000000 0.020427 0.000000
# 3 0.001382 -0.012891 0.010609 0.000000 -0.005689 0.000000
# 4 0.000000 0.000000 0.000000 0.028889 0.000000 -0.003979
# 5 -0.006296 0.020427 -0.005689 0.000000 0.045836 0.000000
# 6 0.000000 0.000000 0.000000 -0.003979 0.000000 0.038916
#
#
# Mechanical properties :
#
#
# Convention : Reuss Voigt Hill
#
# Bulk Modulus (GPa) = 44.40940 62.02254 53.21597
# Shear Modulus (GPa) = 21.47680 31.77370 26.62525
#
# Velocity S-wave (km/s) = 3.11617 3.79027 3.46963
# Velocity P-wave (km/s) = 5.74688 6.87007 6.33342
#
# Compressibility (1/GPa) = 0.02251776
#
# Stress axis : x y z
#
# Youngs Moduli (GPa) = 91.52568 21.95126 94.25931
#
# Poissons Ratio (x) = 0.23657 -0.13025
# Poissons Ratio (y) = 0.98639 1.21509
# Poissons Ratio (z) = -0.12647 0.28297
#
# Static dielectric constant tensor:
#      x y z
#    x 4.221100 0.000000 0.306920 
#    y 0.000000 3.805670 0.000000 
#    z 0.306920 0.000000 4.782420 
# 
# 
# High freq. dielectric constant tensor:
#      x y z
#    x 1.885150 0.000000 -0.002040 
#    y 0.000000 1.830730 0.000000 
#    z -0.002040 0.000000 1.891570 
# 
# From -- ./inp_files/34974.got.cif
#   From: 2010.06.25/outbox.cif.g09.slc.cpg/sg15_18_cif.got.tgz:34974.got - 2010.06.28 07:06:18.
