data_PCOD8144617
_publ_section_title
;
Structure prediction by ZEFSAII (Michael W. Deem and Ramdas Pophale) SiO2 
 PCOD8144617
Probable space group: C 2/C
;
_chemical_formula_sum "Si O2"
_cell_formula_units_Z 48
_cell_length_a 28.968234
_cell_length_b 13.565705
_cell_length_c 9.653638
_cell_angle_alpha 90.000000
_cell_angle_beta 146.073152
_cell_angle_gamma 90.000000
_cell_volume 2117.355891
_symmetry_space_group_name_H-M "C 2/C"
_symmetry_group_IT_number 15
_symmetry_cell_setting 'monoclinic'
loop_
_space_group_symop_operation_xyz
x,y,z
-x,y,1/2-z
-x,-y,-z
x,-y,1/2+z
1/2+x,1/2+y,z
1/2-x,1/2+y,1/2-z
1/2-x,1/2-y,-z
1/2+x,1/2-y,1/2+z
loop_
_atom_site_type_symbol
_atom_site_label
_atom_site_fract_x
_atom_site_fract_y
_atom_site_fract_z
Si Si1 0.595583 0.571422 0.457482
Si Si2 0.092433 0.418596 0.540576
Si Si3 0.824165 0.135889 0.337539
Si Si4 0.430755 0.290828 0.855511
Si Si5 0.356706 0.911969 0.125831
Si Si6 0.615330 0.712232 0.747062
O O1 0.500000 0.549464 0.250000
O O2 0.642952 0.471818 0.542991
O O3 0.609644 0.639618 0.359872
O O4 0.635762 0.626776 0.688068
O O5 0.151038 0.443777 0.554991
O O6 0.104960 0.502373 0.685673
O O7 0.118107 0.316193 0.676142
O O8 0.000000 0.415616 0.250000
O O9 0.886308 0.189492 0.388911
O O10 0.818529 0.202610 0.463506
O O11 0.732943 0.124844 0.044624
O O12 0.421442 0.177128 0.791871
O O13 0.528166 0.310319 0.105164
#
# Coordination Sequence:
#
# PCOD8144617 Si02
#       6
#     8   8   8   8   8   8
#     4  10  21  43  69  97 138 186 239 283 342 419
#     4  12  26  51  74 103 134 189 245 292 344 412
#     4  12  27  40  68 109 144 181 221 289 359 425
#     4  11  23  46  67 101 140 181 242 284 343 416
#     4  12  29  45  72 105 142 183 233 298 355 406
#     4  11  23  45  75  98 137 190 233 290 344 417
#
# _framework density 22.669785000000001
#
# number of rings (size 3 to 8) (size 9 to 14) (size 15 to 20)
#    0.000    0.667    3.333    4.000    7.000    4.667 
#    0.000    0.000    0.000    0.000    0.000    0.000 
#    0.000    0.000    0.000    0.000    0.000    0.000 
#
# Total GULP energy -297677.620395 kJ/mol
# GULP energy per Si atom -12403.234183 kJ/mol
# Density = 2.261819 g / cm^3
# Si number density = 22.669785 Si / 1000 Ang^3
#
#
#
# Elastic Constant Matrix: (Units=GPa)
#
#
# Indices 1 2 3 4 5 6 
#
# 1 79.6738 32.0379 25.0828 0.0000 -26.5504 0.0000
# 2 32.0379 117.8259 47.4894 0.0000 -17.6898 0.0000
# 3 25.0828 47.4894 79.8230 0.0000 -23.0880 0.0000
# 4 0.0000 0.0000 0.0000 36.6026 0.0000 -15.5381
# 5 -26.5504 -17.6898 -23.0880 0.0000 33.1712 0.0000
# 6 0.0000 0.0000 0.0000 -15.5381 0.0000 29.4374
#
#
#
# Elastic Compliance Matrix: (Units=1/GPa)
#
#
# Indices 1 2 3 4 5 6 
#
# 1 0.018031 -0.002885 -0.000276 0.000000 0.012701 0.000000
# 2 -0.002885 0.011700 -0.006157 0.000000 -0.000355 0.000000
# 3 -0.000276 -0.006157 0.019111 0.000000 0.009798 0.000000
# 4 0.000000 0.000000 0.000000 0.035210 0.000000 0.018585
# 5 0.012701 -0.000355 0.009798 0.000000 0.046943 0.000000
# 6 0.000000 0.000000 0.000000 0.018585 0.000000 0.043780
#
#
# Mechanical properties :
#
#
# Convention : Reuss Voigt Hill
#
# Bulk Modulus (GPa) = 33.10482 54.06032 43.58257
# Shear Modulus (GPa) = 24.57270 31.35643 27.96456
#
# Velocity S-wave (km/s) = 3.29590 3.72315 3.51602
# Velocity P-wave (km/s) = 5.39617 6.51008 5.97912
#
# Compressibility (1/GPa) = 0.03020708
#
# Stress axis : x y z
#
# Youngs Moduli (GPa) = 55.46137 85.47301 52.32559
#
# Poissons Ratio (x) = 0.24655 0.01444
# Poissons Ratio (y) = 0.15998 0.32215
# Poissons Ratio (z) = 0.01530 0.52623
#
# Static dielectric constant tensor:
#      x y z
#    x 4.238620 0.000000 -0.141400 
#    y 0.000000 4.075640 0.000000 
#    z -0.141400 0.000000 4.012400 
# 
# 
# High freq. dielectric constant tensor:
#      x y z
#    x 1.907160 0.000000 -0.011060 
#    y 0.000000 1.899830 0.000000 
#    z -0.011060 0.000000 1.888340 
# 
# From -- ./inp_files/66507.got.cif
#   From: 2010.06.25/outbox.cif.g09.slc.cpg/sg15_34_cif.got.tgz:66507.got - 2010.06.28 07:06:18.
