data_PCOD8144878
_publ_section_title
;
Structure prediction by ZEFSAII (Michael W. Deem and Ramdas Pophale) SiO2 
 PCOD8144878
Probable space group: C 2/C
;
_chemical_formula_sum "Si O2"
_cell_formula_units_Z 48
_cell_length_a 23.701056
_cell_length_b 17.344099
_cell_length_c 5.511695
_cell_angle_alpha 90.000000
_cell_angle_beta 66.975061
_cell_angle_gamma 90.000000
_cell_volume 2085.212939
_symmetry_space_group_name_H-M "C 2/C"
_symmetry_group_IT_number 15
_symmetry_cell_setting 'monoclinic'
loop_
_space_group_symop_operation_xyz
x,y,z
-x,y,1/2-z
-x,-y,-z
x,-y,1/2+z
1/2+x,1/2+y,z
1/2-x,1/2+y,1/2-z
1/2-x,1/2-y,-z
1/2+x,1/2-y,1/2+z
loop_
_atom_site_type_symbol
_atom_site_label
_atom_site_fract_x
_atom_site_fract_y
_atom_site_fract_z
Si Si1 0.800947 0.697379 0.032812
Si Si2 0.242163 0.466591 0.837723
Si Si3 0.886414 0.798891 0.192149
Si Si4 0.917132 0.677208 0.520171
Si Si5 0.500000 0.753393 0.250000
Si Si6 0.500000 0.951172 0.750000
Si Si7 0.122145 0.974982 0.317004
O O1 0.767214 0.623519 0.199574
O O2 0.853661 0.664802 0.767650
O O3 0.750000 0.750000 0.000000
O O4 0.829642 0.748085 0.197724
O O5 0.213084 0.491079 0.148386
O O6 0.314349 0.482012 0.732882
O O7 0.910578 0.757828 0.391029
O O8 0.865322 0.885960 0.267308
O O9 0.942818 0.801192 0.909936
O O10 0.977788 0.688544 0.580270
O O11 0.936759 0.600320 0.340308
O O12 0.500000 0.000000 0.500000
O O13 0.087515 0.987420 0.638132
#
# Coordination Sequence:
#
# PCOD8144878 Si02
#       7
#     8   8   8   8   4   4   8
#     4  11  26  42  70 108 147 197 250 298 363 447
#     4  10  23  42  63  92 146 188 234 286 358 417
#     4  11  24  43  78 100 141 191 246 298 359 438
#     4  11  25  45  74 107 140 194 248 303 371 439
#     4  10  21  46  74 103 142 176 248 302 361 422
#     4  12  27  48  78 107 152 192 246 316 385 438
#     4  10  23  43  68  99 142 189 232 290 363 420
#
# _framework density 23.019234000000001
#
# number of rings (size 3 to 8) (size 9 to 14) (size 15 to 20)
#    0.000    1.333    1.667    2.500   14.000    2.000 
#    0.000    0.833    0.000    0.000    0.000    0.000 
#    0.000    0.000    0.000    0.000    0.000    0.000 
#
# Total GULP energy -297383.408037 kJ/mol
# GULP energy per Si atom -12390.975335 kJ/mol
# Density = 2.296684 g / cm^3
# Si number density = 23.019234 Si / 1000 Ang^3
#
#
#
# Elastic Constant Matrix: (Units=GPa)
#
#
# Indices 1 2 3 4 5 6 
#
# 1 100.2422 39.7531 30.8325 0.0000 11.2361 0.0000
# 2 39.7531 132.1336 34.3139 0.0000 13.7985 0.0000
# 3 30.8325 34.3139 108.2015 0.0000 43.8461 0.0000
# 4 0.0000 0.0000 0.0000 34.0916 0.0000 11.5121
# 5 11.2361 13.7985 43.8461 0.0000 42.6108 0.0000
# 6 0.0000 0.0000 0.0000 11.5121 0.0000 19.9189
#
#
#
# Elastic Compliance Matrix: (Units=1/GPa)
#
#
# Indices 1 2 3 4 5 6 
#
# 1 0.011907 -0.002943 -0.002699 0.000000 0.000590 0.000000
# 2 -0.002943 0.008975 -0.001963 0.000000 -0.000111 0.000000
# 3 -0.002699 -0.001963 0.017302 0.000000 -0.016456 0.000000
# 4 0.000000 0.000000 0.000000 0.036445 0.000000 -0.021063
# 5 0.000590 -0.000111 -0.016456 0.000000 0.040282 0.000000
# 6 0.000000 0.000000 0.000000 -0.021063 0.000000 0.062377
#
#
# Mechanical properties :
#
#
# Convention : Reuss Voigt Hill
#
# Bulk Modulus (GPa) = 43.52633 61.15291 52.33962
# Shear Modulus (GPa) = 24.98057 35.03612 30.00835
#
# Velocity S-wave (km/s) = 3.29782 3.90556 3.61449
# Velocity P-wave (km/s) = 5.78364 6.85285 6.34082
#
# Compressibility (1/GPa) = 0.02297460
#
# Stress axis : x y z
#
# Youngs Moduli (GPa) = 83.98498 111.42345 57.79648
#
# Poissons Ratio (x) = 0.32792 0.15598
# Poissons Ratio (y) = 0.24717 0.11344
# Poissons Ratio (z) = 0.22666 0.21869
#
# Static dielectric constant tensor:
#      x y z
#    x 4.006250 0.000000 0.196370 
#    y 0.000000 3.862080 0.000000 
#    z 0.196370 0.000000 4.762630 
# 
# 
# High freq. dielectric constant tensor:
#      x y z
#    x 1.891950 0.000000 0.009750 
#    y 0.000000 1.912120 0.000000 
#    z 0.009750 0.000000 1.923530 
# 
# From -- ./inp_files/15437.got.cif
#   From: 2010.06.25/outbox.cif.g09.slc.cpg/sg15_8_cif.got.tgz:15437.got - 2010.06.28 07:06:18.
