data_PCOD8144095
_publ_section_title
;
Structure prediction by ZEFSAII (Michael W. Deem and Ramdas Pophale) SiO2 
 PCOD8144095
Probable space group: C 2/C
;
_chemical_formula_sum "Si O2"
_cell_formula_units_Z 52
_cell_length_a 14.265686
_cell_length_b 11.984494
_cell_length_c 15.548583
_cell_angle_alpha 90.000000
_cell_angle_beta 74.296411
_cell_angle_gamma 90.000000
_cell_volume 2559.073620
_symmetry_space_group_name_H-M "C 2/C"
_symmetry_group_IT_number 15
_symmetry_cell_setting 'monoclinic'
loop_
_space_group_symop_operation_xyz
x,y,z
-x,y,1/2-z
-x,-y,-z
x,-y,1/2+z
1/2+x,1/2+y,z
1/2-x,1/2+y,1/2-z
1/2-x,1/2-y,-z
1/2+x,1/2-y,1/2+z
loop_
_atom_site_type_symbol
_atom_site_label
_atom_site_fract_x
_atom_site_fract_y
_atom_site_fract_z
Si Si1 0.000000 0.234428 0.750000
Si Si2 0.354016 0.383774 0.402399
Si Si3 0.334219 0.122112 0.669819
Si Si4 0.400511 0.128610 0.139643
Si Si5 0.370379 0.627980 0.466972
Si Si6 0.729063 0.782538 0.131654
Si Si7 0.047878 0.751881 0.987597
O O1 0.049768 0.151847 0.671521
O O2 0.080357 0.313475 0.773624
O O3 0.257738 0.370129 0.370305
O O4 0.368577 0.511766 0.420185
O O5 0.358142 0.303675 0.485568
O O6 0.307281 0.158714 0.772752
O O7 0.414888 0.205088 0.612254
O O8 0.383644 0.001432 0.658740
O O9 0.301703 0.179281 0.127359
O O10 0.493171 0.152901 0.054382
O O11 0.359242 0.729321 0.400848
O O12 0.283999 0.625894 0.559480
O O13 0.473173 0.647030 0.488560
#
# Coordination Sequence:
#
# PCOD8144095 Si02
#       7
#     4   8   8   8   8   8   8
#     4  10  22  40  62  90 126 160 204 256 310 368
#     4  11  22  41  66  92 126 163 206 258 314 363
#     4  12  23  40  67  96 120 165 214 255 301 377
#     4  10  21  42  60  90 129 165 193 259 322 357
#     4  10  22  44  62  88 128 171 197 260 316 361
#     4  10  22  40  65  90 126 163 212 252 310 372
#     4  10  24  40  63  94 130 158 210 256 312 371
#
# _framework density 20.319852999999998
#
# number of rings (size 3 to 8) (size 9 to 14) (size 15 to 20)
#    0.000    1.538    3.077    1.385    0.000    4.308 
#    5.538    0.000    0.000    0.000    0.000    0.000 
#    0.000    0.000    0.000    0.000    0.000    0.000 
#
# Total GULP energy -322374.456600 kJ/mol
# GULP energy per Si atom -12399.017562 kJ/mol
# Density = 2.027360 g / cm^3
# Si number density = 20.319853 Si / 1000 Ang^3
#
#
#
# Elastic Constant Matrix: (Units=GPa)
#
#
# Indices 1 2 3 4 5 6 
#
# 1 70.7886 36.7731 49.7765 0.0000 2.3669 0.0000
# 2 36.7731 88.9282 48.8269 0.0000 -4.3316 0.0000
# 3 49.7765 48.8269 105.0149 0.0000 17.8860 0.0000
# 4 0.0000 0.0000 0.0000 26.1591 0.0000 5.4790
# 5 2.3669 -4.3316 17.8860 0.0000 19.6876 0.0000
# 6 0.0000 0.0000 0.0000 5.4790 0.0000 22.8142
#
#
#
# Elastic Compliance Matrix: (Units=1/GPa)
#
#
# Indices 1 2 3 4 5 6 
#
# 1 0.022975 -0.003646 -0.010160 0.000000 0.005666 0.000000
# 2 -0.003646 0.018242 -0.008887 0.000000 0.012526 0.000000
# 3 -0.010160 -0.008887 0.021999 0.000000 -0.020720 0.000000
# 4 0.000000 0.000000 0.000000 0.040252 0.000000 -0.009667
# 5 0.005666 0.012526 -0.020720 0.000000 0.071692 0.000000
# 6 0.000000 0.000000 0.000000 -0.009667 0.000000 0.046154
#
#
# Mechanical properties :
#
#
# Convention : Reuss Voigt Hill
#
# Bulk Modulus (GPa) = 56.08251 59.49830 57.79041
# Shear Modulus (GPa) = 18.33888 22.35585 20.34736
#
# Velocity S-wave (km/s) = 3.00744 3.32052 3.16785
# Velocity P-wave (km/s) = 6.30233 6.63668 6.47167
#
# Compressibility (1/GPa) = 0.01783087
#
# Stress axis : x y z
#
# Youngs Moduli (GPa) = 43.52479 54.81751 45.45644
#
# Poissons Ratio (x) = 0.19988 0.46183
# Poissons Ratio (y) = 0.15871 0.40396
# Poissons Ratio (z) = 0.44220 0.48715
#
# Static dielectric constant tensor:
#      x y z
#    x 3.807740 0.000000 0.197610 
#    y 0.000000 3.503720 0.000000 
#    z 0.197610 0.000000 3.819070 
# 
# 
# High freq. dielectric constant tensor:
#      x y z
#    x 1.802650 0.000000 0.013580 
#    y 0.000000 1.787830 0.000000 
#    z 0.013580 0.000000 1.798050 
# 
# From -- ./inp_files/152545.got.cif
#   From: 2010.06.25/outbox.cif.g09.slc.cpg/sg15_77_cif.got.tgz:152545.got - 2010.06.28 07:06:18.
