data_PCOD8144586
_publ_section_title
;
Structure prediction by ZEFSAII (Michael W. Deem and Ramdas Pophale) SiO2 
 PCOD8144586
Probable space group: C 2/C
;
_chemical_formula_sum "Si O2"
_cell_formula_units_Z 60
_cell_length_a 12.033912
_cell_length_b 19.658967
_cell_length_c 19.261213
_cell_angle_alpha 90.000000
_cell_angle_beta 36.262403
_cell_angle_gamma 90.000000
_cell_volume 2695.220572
_symmetry_space_group_name_H-M "C 2/C"
_symmetry_group_IT_number 15
_symmetry_cell_setting 'monoclinic'
loop_
_space_group_symop_operation_xyz
x,y,z
-x,y,1/2-z
-x,-y,-z
x,-y,1/2+z
1/2+x,1/2+y,z
1/2-x,1/2+y,1/2-z
1/2-x,1/2-y,-z
1/2+x,1/2-y,1/2+z
loop_
_atom_site_type_symbol
_atom_site_label
_atom_site_fract_x
_atom_site_fract_y
_atom_site_fract_z
Si Si1 0.500000 0.326516 0.750000
Si Si2 0.069153 0.621943 0.926384
Si Si3 0.298772 0.576706 0.458311
Si Si4 0.788579 0.558372 0.842919
Si Si5 0.576014 0.085062 0.281691
Si Si6 0.729859 0.434639 0.056137
Si Si7 0.900341 0.155212 0.671752
Si Si8 0.347698 0.799980 0.652568
O O1 0.582849 0.367842 0.642941
O O2 0.655049 0.280316 0.709672
O O3 0.185026 0.564803 0.909366
O O4 0.220128 0.667411 0.810590
O O5 0.922174 0.587131 0.948404
O O6 0.982703 0.669236 0.027885
O O7 0.323815 0.571137 0.528550
O O8 0.380106 0.505435 0.389852
O O9 0.798548 0.480850 0.805900
O O10 0.663994 0.603561 0.855052
O O11 0.000000 0.585004 0.750000
O O12 0.500000 0.120947 0.250000
O O13 0.395027 0.060428 0.415790
O O14 0.687769 0.143060 0.269040
O O15 0.586630 0.372671 0.115548
O O16 0.951154 0.231398 0.622989
#
# Coordination Sequence:
#
# PCOD8144586 Si02
#       8
#     4   8   8   8   8   8   8   8
#     4  10  26  42  68  98 132 178 230 274 320 406
#     4  10  23  44  64  91 139 179 214 274 345 385
#     4  11  22  43  69 100 133 175 221 280 333 393
#     4  11  22  43  68  97 131 176 215 271 344 386
#     4  10  21  43  68  91 135 174 209 273 345 387
#     4  11  23  38  64 102 128 169 227 273 322 395
#     4  12  26  40  69 100 133 175 229 274 321 403
#     4  10  26  45  65  94 136 185 217 271 338 398
#
# _framework density 22.26163
#
# number of rings (size 3 to 8) (size 9 to 14) (size 15 to 20)
#    0.000    1.333    4.000    0.800    4.667    8.000 
#    0.000    2.667    0.000    0.000    0.000    0.000 
#    0.000    0.000    0.000    0.000    0.000    0.000 
#
# Total GULP energy -371653.367541 kJ/mol
# GULP energy per Si atom -12388.445585 kJ/mol
# Density = 2.221096 g / cm^3
# Si number density = 22.261630 Si / 1000 Ang^3
#
#
#
# Elastic Constant Matrix: (Units=GPa)
#
#
# Indices 1 2 3 4 5 6 
#
# 1 87.5934 23.4995 22.5611 -0.0106 13.0731 -0.0011
# 2 23.4995 91.5341 15.3897 -0.0001 7.2667 -0.0021
# 3 22.5611 15.3897 69.0351 0.1388 16.9362 -0.1644
# 4 -0.0106 -0.0001 0.1388 8.9945 -0.0367 -2.5965
# 5 13.0731 7.2667 16.9362 -0.0367 28.1584 0.0238
# 6 -0.0011 -0.0021 -0.1644 -2.5965 0.0238 15.7663
#
#
#
# Elastic Compliance Matrix: (Units=1/GPa)
#
#
# Indices 1 2 3 4 5 6 
#
# 1 0.013440 -0.002666 -0.002858 0.000039 -0.003833 -0.000017
# 2 -0.002666 0.011945 -0.001571 0.000014 -0.000900 -0.000011
# 3 -0.002858 -0.001571 0.018002 -0.000273 -0.009096 0.000156
# 4 0.000039 0.000014 -0.000273 0.116734 0.000278 0.019221
# 5 -0.003833 -0.000900 -0.009096 0.000278 0.042996 -0.000114
# 6 -0.000017 -0.000011 0.000156 0.019221 -0.000114 0.066594
#
#
# Mechanical properties :
#
#
# Convention : Reuss Voigt Hill
#
# Bulk Modulus (GPa) = 34.24913 41.22924 37.73918
# Shear Modulus (GPa) = 17.02814 23.03130 20.02972
#
# Velocity S-wave (km/s) = 2.76870 3.21997 3.00282
# Velocity P-wave (km/s) = 5.06351 5.69076 5.38628
#
# Compressibility (1/GPa) = 0.02919783
#
# Stress axis : x y z
#
# Youngs Moduli (GPa) = 74.40689 83.71838 55.54984
#
# Poissons Ratio (x) = 0.22316 0.15875
# Poissons Ratio (y) = 0.19834 0.08726
# Poissons Ratio (z) = 0.21264 0.13151
#
# Static dielectric constant tensor:
#      x y z
#    x 4.385000 -0.000070 0.167380 
#    y -0.000070 3.714680 0.000120 
#    z 0.167380 0.000120 4.148370 
# 
# 
# High freq. dielectric constant tensor:
#      x y z
#    x 1.891400 -0.000010 0.013530 
#    y -0.000010 1.855890 0.000010 
#    z 0.013530 0.000010 1.880980 
# 
# From -- ./inp_files/200503.got.cif
#   From: 2010.06.25/outbox.cif.g09.slc.cpg/sg15_101_cif.got.tgz:200503.got - 2010.06.28 07:06:18.
