data_PCOD8144006
_publ_section_title
;
Structure prediction by ZEFSAII (Michael W. Deem and Ramdas Pophale) SiO2 
 PCOD8144006
Probable space group: C 2/C
;
_chemical_formula_sum "Si O2"
_cell_formula_units_Z 44
_cell_length_a 32.447281
_cell_length_b 5.326125
_cell_length_c 11.781023
_cell_angle_alpha 90.000000
_cell_angle_beta 99.980839
_cell_angle_gamma 90.000000
_cell_volume 2005.163136
_symmetry_space_group_name_H-M "C 2/C"
_symmetry_group_IT_number 15
_symmetry_cell_setting 'monoclinic'
loop_
_space_group_symop_operation_xyz
x,y,z
-x,y,1/2-z
-x,-y,-z
x,-y,1/2+z
1/2+x,1/2+y,z
1/2-x,1/2+y,1/2-z
1/2-x,1/2-y,-z
1/2+x,1/2-y,1/2+z
loop_
_atom_site_type_symbol
_atom_site_label
_atom_site_fract_x
_atom_site_fract_y
_atom_site_fract_z
Si Si1 0.394997 0.325042 0.311968
Si Si2 0.000000 0.266688 0.250000
Si Si3 0.435231 0.154526 0.904823
Si Si4 0.227910 0.274941 0.107673
Si Si5 0.039111 0.194406 0.842416
Si Si6 0.302540 0.720490 0.819712
O O1 0.408946 0.588626 0.374626
O O2 0.416492 0.288373 0.199606
O O3 0.345384 0.303638 0.269131
O O4 0.406382 0.092275 0.399878
O O5 0.033834 0.403529 0.185247
O O6 0.026195 0.095019 0.351697
O O7 0.459444 0.169056 0.036576
O O8 0.263535 0.277901 0.218523
O O9 0.199615 0.527186 0.104058
O O10 0.198880 0.028923 0.103846
O O11 0.250000 0.250000 0.000000
O O12 0.000000 0.323006 0.750000
#
# Coordination Sequence:
#
# PCOD8144006 Si02
#       6
#     8   4   8   8   8   8
#     4  11  25  39  61  94 128 161 209 262 318 360
#     4   8  20  38  64  86 116 162 218 260 308 362
#     4  11  23  42  62  89 124 168 212 264 312 368
#     4  10  21  41  69  89 124 166 203 246 313 374
#     4   9  22  43  62  90 121 172 215 258 311 368
#     4  10  22  40  61  97 126 157 207 256 300 384
#
# _framework density 21.943349999999999
#
# number of rings (size 3 to 8) (size 9 to 14) (size 15 to 20)
#    0.545    1.455    0.000    2.182    1.273    6.545 
#    0.000    0.000    0.000    0.000    0.000    0.000 
#    0.000    0.000    0.000    0.000    0.000    0.000 
#
# Total GULP energy -272544.656735 kJ/mol
# GULP energy per Si atom -12388.393488 kJ/mol
# Density = 2.189341 g / cm^3
# Si number density = 21.943350 Si / 1000 Ang^3
#
#
#
# Elastic Constant Matrix: (Units=GPa)
#
#
# Indices 1 2 3 4 5 6 
#
# 1 108.0983 44.0817 10.0617 0.0000 -34.2172 0.0000
# 2 44.0817 181.2035 21.7947 0.0000 -12.8540 0.0000
# 3 10.0617 21.7947 47.2859 0.0000 -15.6027 0.0000
# 4 0.0000 0.0000 0.0000 0.5916 0.0000 -27.1990
# 5 -34.2172 -12.8540 -15.6027 0.0000 32.6196 0.0000
# 6 0.0000 0.0000 0.0000 -27.1990 0.0000 9.7662
#
#
#
# Elastic Compliance Matrix: (Units=1/GPa)
#
#
# Indices 1 2 3 4 5 6 
#
# 1 0.015439 -0.003004 0.003625 0.000000 0.016745 0.000000
# 2 -0.003004 0.006467 -0.003017 0.000000 -0.002046 0.000000
# 3 0.003625 -0.003017 0.026870 0.000000 0.015466 0.000000
# 4 0.000000 0.000000 0.000000 -0.013305 0.000000 -0.037056
# 5 0.016745 -0.002046 0.015466 0.000000 0.054813 0.000000
# 6 0.000000 0.000000 0.000000 -0.037056 0.000000 -0.000806
#
#
# Mechanical properties :
#
#
# Convention : Reuss Voigt Hill
#
# Bulk Modulus (GPa) = 22.73512 54.27378 38.50445
# Shear Modulus (GPa) = 45.90031 25.97214 35.93622
#
# Velocity S-wave (km/s) = 4.57854 3.44408 4.05122
# Velocity P-wave (km/s) = 6.19145 6.37204 6.28239
#
# Compressibility (1/GPa) = 0.04398482
#
# Stress axis : x y z
#
# Youngs Moduli (GPa) = 64.77138 154.62730 37.21568
#
# Poissons Ratio (x) = 0.46450 -0.13490
# Poissons Ratio (y) = 0.19457 0.11226
# Poissons Ratio (z) = -0.23478 0.46644
#
# Static dielectric constant tensor:
#      x y z
#    x 3.812510 0.000000 -0.159910 
#    y 0.000000 4.694030 0.000000 
#    z -0.159910 0.000000 3.795750 
# 
# 
# High freq. dielectric constant tensor:
#      x y z
#    x 1.855120 0.000000 -0.020870 
#    y 0.000000 1.902250 0.000000 
#    z -0.020870 0.000000 1.840240 
# 
# From -- ./inp_files/125002.got.cif
#   From: 2010.06.25/outbox.cif.g09.slc.cpg/sg15_63_cif.got.tgz:125002.got - 2010.06.28 07:06:18.
