data_PCOD8144463
_publ_section_title
;
Structure prediction by ZEFSAII (Michael W. Deem and Ramdas Pophale) SiO2 
 PCOD8144463
Probable space group: C 2/C
;
_chemical_formula_sum "Si O2"
_cell_formula_units_Z 44
_cell_length_a 12.234571
_cell_length_b 8.793764
_cell_length_c 22.969587
_cell_angle_alpha 90.000000
_cell_angle_beta 39.407749
_cell_angle_gamma 90.000000
_cell_volume 1568.836236
_symmetry_space_group_name_H-M "C 2/C"
_symmetry_group_IT_number 15
_symmetry_cell_setting 'monoclinic'
loop_
_space_group_symop_operation_xyz
x,y,z
-x,y,1/2-z
-x,-y,-z
x,-y,1/2+z
1/2+x,1/2+y,z
1/2-x,1/2+y,1/2-z
1/2-x,1/2-y,-z
1/2+x,1/2-y,1/2+z
loop_
_atom_site_type_symbol
_atom_site_label
_atom_site_fract_x
_atom_site_fract_y
_atom_site_fract_z
Si Si1 0.137539 0.221525 0.961075
Si Si2 0.505357 0.213235 0.864622
Si Si3 0.084873 0.872217 0.113098
Si Si4 0.043945 0.414970 0.550377
Si Si5 0.732778 0.440908 0.311753
Si Si6 0.000000 0.327571 0.750000
O O1 0.334899 0.242419 0.898293
O O2 0.141473 0.088830 0.911806
O O3 0.065151 0.383113 0.964589
O O4 0.010997 0.184172 0.068909
O O5 0.671831 0.214960 0.752638
O O6 0.535966 0.039085 0.874388
O O7 0.054370 0.752854 0.073789
O O8 0.917569 0.985853 0.174395
O O9 0.104773 0.782666 0.164938
O O10 0.257327 0.970976 0.037941
O O11 0.868188 0.575524 0.265383
#
# Coordination Sequence:
#
# PCOD8144463 Si02
#       6
#     8   8   8   8   8   4
#     4  10  22  38  67  96 133 180 229 280 341 412
#     4  11  21  41  67  97 137 188 223 287 349 404
#     4  10  24  39  66  97 131 178 231 284 341 414
#     4  10  21  43  62  96 134 175 229 287 343 404
#     4  11  22  44  66  99 134 183 233 275 348 412
#     4  12  22  46  70  92 142 182 220 296 336 400
#
# _framework density 28.046268000000001
#
# number of rings (size 3 to 8) (size 9 to 14) (size 15 to 20)
#    0.000    1.455    3.636    0.545    2.545    1.455 
#    3.273    7.273    0.000    0.000    0.000    0.000 
#    0.000    0.000    0.000    0.000    0.000    0.000 
#
# Total GULP energy -272546.591567 kJ/mol
# GULP energy per Si atom -12388.481435 kJ/mol
# Density = 2.798243 g / cm^3
# Si number density = 28.046268 Si / 1000 Ang^3
#
#
#
# Elastic Constant Matrix: (Units=GPa)
#
#
# Indices 1 2 3 4 5 6 
#
# 1 160.0533 11.0932 18.7797 0.0000 -2.9936 0.0000
# 2 11.0932 37.4852 -11.8933 -0.0001 9.5950 0.0000
# 3 18.7797 -11.8933 106.1087 0.0000 22.5457 0.0000
# 4 0.0000 -0.0001 0.0000 15.8369 0.0000 16.5360
# 5 -2.9936 9.5950 22.5457 0.0000 37.8126 0.0000
# 6 0.0000 0.0000 0.0000 16.5360 0.0000 45.7739
#
#
#
# Elastic Compliance Matrix: (Units=1/GPa)
#
#
# Indices 1 2 3 4 5 6 
#
# 1 0.006784 -0.003373 -0.002147 0.000000 0.002673 0.000000
# 2 -0.003373 0.033220 0.007063 0.000000 -0.012908 0.000000
# 3 -0.002147 0.007063 0.012610 0.000000 -0.009481 0.000000
# 4 0.000000 0.000000 0.000000 0.101387 0.000000 -0.036627
# 5 0.002673 -0.012908 -0.009481 0.000000 0.035586 0.000000
# 6 0.000000 0.000000 0.000000 -0.036627 0.000000 0.035078
#
#
# Mechanical properties :
#
#
# Convention : Reuss Voigt Hill
#
# Bulk Modulus (GPa) = 17.95260 37.73403 27.84332
# Shear Modulus (GPa) = 20.82072 38.92919 29.87495
#
# Velocity S-wave (km/s) = 2.72760 3.72968 3.26728
# Velocity P-wave (km/s) = 4.04162 5.65957 4.91759
#
# Compressibility (1/GPa) = 0.05570223
#
# Stress axis : x y z
#
# Youngs Moduli (GPa) = 147.41602 30.10205 79.29955
#
# Poissons Ratio (x) = 0.10152 0.17022
# Poissons Ratio (y) = 0.49718 -0.56010
# Poissons Ratio (z) = 0.31643 -0.21262
#
# Static dielectric constant tensor:
#      x y z
#    x 5.677110 0.000000 0.063900 
#    y 0.000000 4.896420 0.000000 
#    z 0.063900 0.000000 5.535760 
# 
# 
# High freq. dielectric constant tensor:
#      x y z
#    x 2.154860 0.000000 0.004220 
#    y 0.000000 2.133030 0.000000 
#    z 0.004220 0.000000 2.138010 
# 
# From -- ./inp_files/268357.got.cif
#   From: 2010.06.25/outbox.cif.g09.slc.cpg/sg15_135_cif.got.tgz:268357.got - 2010.06.28 07:06:18.
