data_PCOD8144125
_publ_section_title
;
Structure prediction by ZEFSAII (Michael W. Deem and Ramdas Pophale) SiO2 
 PCOD8144125
Probable space group: C 2/C
;
_chemical_formula_sum "Si O2"
_cell_formula_units_Z 32
_cell_length_a 5.065308
_cell_length_b 14.139731
_cell_length_c 19.241210
_cell_angle_alpha 90.000000
_cell_angle_beta 94.621554
_cell_angle_gamma 90.000000
_cell_volume 1373.615035
_symmetry_space_group_name_H-M "C 2/C"
_symmetry_group_IT_number 15
_symmetry_cell_setting 'monoclinic'
loop_
_space_group_symop_operation_xyz
x,y,z
-x,y,1/2-z
-x,-y,-z
x,-y,1/2+z
1/2+x,1/2+y,z
1/2-x,1/2+y,1/2-z
1/2-x,1/2-y,-z
1/2+x,1/2-y,1/2+z
loop_
_atom_site_type_symbol
_atom_site_label
_atom_site_fract_x
_atom_site_fract_y
_atom_site_fract_z
Si Si1 0.487957 0.478041 0.892820
Si Si2 0.733771 0.115450 0.984441
Si Si3 0.227752 0.176903 0.203816
Si Si4 0.198159 0.169793 0.912022
O O1 0.267515 0.514013 0.944452
O O2 0.349435 0.427099 0.825227
O O3 0.648374 0.570842 0.869195
O O4 0.691786 0.404055 0.933666
O O5 0.441953 0.156798 0.970127
O O6 0.941183 0.191389 0.955030
O O7 0.500000 0.168046 0.250000
O O8 0.252635 0.247323 0.140308
O O9 0.000000 0.215775 0.250000
#
# Coordination Sequence:
#
# PCOD8144125 Si02
#       4
#     8   8   8   8
#     4   9  23  41  68  95 126 163 215 272 331 380
#     4   9  20  40  70  97 122 157 216 271 346 378
#     4  12  28  43  60  94 134 178 226 253 310 405
#     4  10  21  42  62  95 127 164 206 277 322 384
#
# _framework density 23.296192999999999
#
# number of rings (size 3 to 8) (size 9 to 14) (size 15 to 20)
#    1.500    0.500    0.000    2.250    3.500    3.000 
#    0.000    0.000    0.000    0.000    0.000    0.000 
#    0.000    0.000    0.000    0.000    0.000    0.000 
#
# Total GULP energy -198320.624373 kJ/mol
# GULP energy per Si atom -12395.039023 kJ/mol
# Density = 2.324317 g / cm^3
# Si number density = 23.296193 Si / 1000 Ang^3
#
#
#
# Elastic Constant Matrix: (Units=GPa)
#
#
# Indices 1 2 3 4 5 6 
#
# 1 97.6026 -13.1203 1.6574 0.0000 30.3808 0.0000
# 2 -13.1203 67.7956 5.1312 0.0000 14.7549 0.0000
# 3 1.6574 5.1312 49.4574 0.0000 27.0362 0.0000
# 4 0.0000 0.0000 0.0000 58.2572 0.0000 -6.3989
# 5 30.3808 14.7549 27.0362 0.0000 44.5785 0.0000
# 6 0.0000 0.0000 0.0000 -6.3989 0.0000 4.9244
#
#
#
# Elastic Compliance Matrix: (Units=1/GPa)
#
#
# Indices 1 2 3 4 5 6 
#
# 1 0.017153 0.006895 0.009496 0.000000 -0.019732 0.000000
# 2 0.006895 0.018779 0.005666 0.000000 -0.014351 0.000000
# 3 0.009496 0.005666 0.035718 0.000000 -0.030010 0.000000
# 4 0.000000 0.000000 0.000000 0.020023 0.000000 0.026019
# 5 -0.019732 -0.014351 -0.030010 0.000000 0.058830 0.000000
# 6 0.000000 0.000000 0.000000 0.026019 0.000000 0.236880
#
#
# Mechanical properties :
#
#
# Convention : Reuss Voigt Hill
#
# Bulk Modulus (GPa) = 8.63822 22.46581 15.55202
# Shear Modulus (GPa) = 13.09388 36.29784 24.69586
#
# Velocity S-wave (km/s) = 2.37335 3.95156 3.25942
# Velocity P-wave (km/s) = 3.35059 5.52126 4.56677
#
# Compressibility (1/GPa) = 0.11576454
#
# Stress axis : x y z
#
# Youngs Moduli (GPa) = 58.29844 53.25061 27.99684
#
# Poissons Ratio (x) = -0.36717 -0.26586
# Poissons Ratio (y) = -0.40198 -0.15862
# Poissons Ratio (z) = -0.55361 -0.30170
#
# Static dielectric constant tensor:
#      x y z
#    x 4.149130 0.000000 0.098780 
#    y 0.000000 4.226790 0.000000 
#    z 0.098780 0.000000 3.831830 
# 
# 
# High freq. dielectric constant tensor:
#      x y z
#    x 1.922630 0.000000 0.015790 
#    y 0.000000 1.926290 0.000000 
#    z 0.015790 0.000000 1.898000 
# 
# From -- ./inp_files/183897.got.cif
#   From: 2010.06.25/outbox.cif.g09.slc.cpg/sg15_92_cif.got.tgz:183897.got - 2010.06.28 07:06:18.
