data_PCOD8144913
_publ_section_title
;
Structure prediction by ZEFSAII (Michael W. Deem and Ramdas Pophale) SiO2 
 PCOD8144913
Probable space group: C 2/C
;
_chemical_formula_sum "Si O2"
_cell_formula_units_Z 56
_cell_length_a 32.313825
_cell_length_b 12.982448
_cell_length_c 9.385431
_cell_angle_alpha 90.000000
_cell_angle_beta 126.617364
_cell_angle_gamma 90.000000
_cell_volume 3160.226574
_symmetry_space_group_name_H-M "C 2/C"
_symmetry_group_IT_number 15
_symmetry_cell_setting 'monoclinic'
loop_
_space_group_symop_operation_xyz
x,y,z
-x,y,1/2-z
-x,-y,-z
x,-y,1/2+z
1/2+x,1/2+y,z
1/2-x,1/2+y,1/2-z
1/2-x,1/2-y,-z
1/2+x,1/2-y,1/2+z
loop_
_atom_site_type_symbol
_atom_site_label
_atom_site_fract_x
_atom_site_fract_y
_atom_site_fract_z
Si Si1 0.606046 0.885133 0.241441
Si Si2 0.782879 0.906418 0.743097
Si Si3 0.386725 0.874716 0.763769
Si Si4 0.503881 0.106423 0.926322
Si Si5 0.168119 0.303440 0.121029
Si Si6 0.720635 0.608965 0.604470
Si Si7 0.176483 0.682203 0.114593
O O1 0.548285 0.837012 0.126762
O O2 0.642230 0.814006 0.220748
O O3 0.628223 0.875876 0.445414
O O4 0.610472 0.003419 0.200549
O O5 0.821217 0.817741 0.877350
O O6 0.780998 0.911912 0.567842
O O7 0.726745 0.885435 0.691514
O O8 0.801354 0.013027 0.850738
O O9 0.373510 0.847733 0.574597
O O10 0.340077 0.819545 0.753823
O O11 0.444087 0.831827 0.922135
O O12 0.500000 0.087261 0.750000
O O13 0.500000 0.000000 0.000000
O O14 0.221368 0.366689 0.226019
O O15 0.683618 0.703034 0.569686
#
# Coordination Sequence:
#
# PCOD8144913 Si02
#       7
#     8   8   8   8   8   8   8
#     4  11  19  37  56  77 115 150 177 221 274 320
#     4  11  23  38  56  81 111 144 184 226 268 320
#     4  11  23  33  56  85 110 146 184 222 267 330
#     4  10  22  34  51  80 112 144 184 223 271 326
#     4  11  23  37  55  82 112 146 186 219 270 328
#     4  11  23  38  56  80 112 145 182 229 267 318
#     4  11  21  37  56  79 112 148 183 217 274 321
#
# _framework density 17.720248999999999
#
# number of rings (size 3 to 8) (size 9 to 14) (size 15 to 20)
#    0.000    1.143    4.286    3.429   10.000    1.143 
#    0.000    0.000    0.000    0.000    0.000    6.000 
#    0.000    0.000    0.000    0.000    0.000    0.000 
#
# Total GULP energy -347102.263307 kJ/mol
# GULP energy per Si atom -12396.509404 kJ/mol
# Density = 1.767992 g / cm^3
# Si number density = 17.720249 Si / 1000 Ang^3
#
#
#
# Elastic Constant Matrix: (Units=GPa)
#
#
# Indices 1 2 3 4 5 6 
#
# 1 72.8212 39.7139 22.1358 0.0000 10.3551 0.0000
# 2 39.7139 69.9746 18.4816 0.0000 0.0642 0.0000
# 3 22.1358 18.4816 86.2141 0.0000 6.8850 0.0000
# 4 0.0000 0.0000 0.0000 24.0476 0.0000 -5.5263
# 5 10.3551 0.0642 6.8850 0.0000 28.9147 0.0000
# 6 0.0000 0.0000 0.0000 -5.5263 0.0000 21.1624
#
#
#
# Elastic Compliance Matrix: (Units=1/GPa)
#
#
# Indices 1 2 3 4 5 6 
#
# 1 0.021960 -0.011787 -0.002534 0.000000 -0.007235 0.000000
# 2 -0.011787 0.021492 -0.001951 0.000000 0.004638 0.000000
# 3 -0.002534 -0.001951 0.012839 0.000000 -0.002146 0.000000
# 4 0.000000 0.000000 0.000000 0.044239 0.000000 0.011552
# 5 -0.007235 0.004638 -0.002146 0.000000 0.037676 0.000000
# 6 0.000000 0.000000 0.000000 0.011552 0.000000 0.050270
#
#
# Mechanical properties :
#
#
# Convention : Reuss Voigt Hill
#
# Bulk Modulus (GPa) = 42.11156 43.29695 42.70425
# Shear Modulus (GPa) = 21.84021 24.73684 23.28853
#
# Velocity S-wave (km/s) = 3.51451 3.74031 3.62917
# Velocity P-wave (km/s) = 6.34707 6.56810 6.45853
#
# Compressibility (1/GPa) = 0.02374645
#
# Stress axis : x y z
#
# Youngs Moduli (GPa) = 45.53832 46.52931 77.88677
#
# Poissons Ratio (x) = 0.54845 0.19733
# Poissons Ratio (y) = 0.53677 0.15197
# Poissons Ratio (z) = 0.11538 0.09079
#
# Static dielectric constant tensor:
#      x y z
#    x 3.523140 0.000000 0.123130 
#    y 0.000000 3.065220 0.000000 
#    z 0.123130 0.000000 3.366870 
# 
# 
# High freq. dielectric constant tensor:
#      x y z
#    x 1.692270 0.000000 -0.010600 
#    y 0.000000 1.652700 0.000000 
#    z -0.010600 0.000000 1.694350 
# 
# From -- ./inp_files/69289.got.cif
#   From: 2010.06.25/outbox.cif.g09.slc.cpg/sg15_35_cif.got.tgz:69289.got - 2010.06.28 07:06:18.
