data_PCOD8144543
_publ_section_title
;
Structure prediction by ZEFSAII (Michael W. Deem and Ramdas Pophale) SiO2 
 PCOD8144543
Probable space group: C 2/C
;
_chemical_formula_sum "Si O2"
_cell_formula_units_Z 52
_cell_length_a 14.752006
_cell_length_b 11.964368
_cell_length_c 14.480328
_cell_angle_alpha 90.000000
_cell_angle_beta 75.916719
_cell_angle_gamma 90.000000
_cell_volume 2478.936961
_symmetry_space_group_name_H-M "C 2/C"
_symmetry_group_IT_number 15
_symmetry_cell_setting 'monoclinic'
loop_
_space_group_symop_operation_xyz
x,y,z
-x,y,1/2-z
-x,-y,-z
x,-y,1/2+z
1/2+x,1/2+y,z
1/2-x,1/2+y,1/2-z
1/2-x,1/2-y,-z
1/2+x,1/2-y,1/2+z
loop_
_atom_site_type_symbol
_atom_site_label
_atom_site_fract_x
_atom_site_fract_y
_atom_site_fract_z
Si Si1 0.726581 0.891150 0.457408
Si Si2 0.942113 0.813597 0.672222
Si Si3 0.393998 0.743817 0.895750
Si Si4 0.000000 0.590572 0.250000
Si Si5 0.864346 0.435102 0.195134
Si Si6 0.201807 0.003671 0.371434
Si Si7 0.038244 0.122620 0.973170
O O1 0.650964 0.795370 0.499990
O O2 0.814717 0.840547 0.378004
O O3 0.676170 0.969921 0.395258
O O4 0.760009 0.947869 0.542273
O O5 0.891141 0.694961 0.697200
O O6 0.000000 0.846408 0.750000
O O7 0.019813 0.806361 0.570885
O O8 0.863358 0.907196 0.667281
O O9 0.417088 0.835712 0.813456
O O10 0.487802 0.679001 0.898463
O O11 0.044166 0.511708 0.317209
O O12 0.789558 0.464941 0.291338
O O13 0.145473 0.891399 0.415213
O O14 0.000000 0.000000 0.000000
#
# Coordination Sequence:
#
# PCOD8144543 Si02
#       7
#     8   8   8   4   8   8   8
#     4  11  22  45  69  95 136 181 217 283 336 390
#     4  11  23  44  68  94 140 181 218 283 339 398
#     4  11  22  43  71  94 138 177 226 278 331 412
#     4  12  28  44  64 106 132 182 236 266 344 426
#     4  12  26  44  69  98 140 181 223 280 344 401
#     4  11  25  44  70 106 134 171 240 275 336 411
#     4  10  21  43  67 100 131 174 222 277 338 399
#
# _framework density 20.976735000000001
#
# number of rings (size 3 to 8) (size 9 to 14) (size 15 to 20)
#    0.000    0.923    6.923    0.923    4.308    0.615 
#    4.154    0.769    0.000    0.000    0.000    0.000 
#    0.000    0.000    0.000    0.000    0.000    0.000 
#
# Total GULP energy -322270.718508 kJ/mol
# GULP energy per Si atom -12395.027635 kJ/mol
# Density = 2.092899 g / cm^3
# Si number density = 20.976735 Si / 1000 Ang^3
#
#
#
# Elastic Constant Matrix: (Units=GPa)
#
#
# Indices 1 2 3 4 5 6 
#
# 1 114.4407 48.4233 52.5286 0.0000 29.9191 0.0000
# 2 48.4233 90.0653 40.8291 0.0000 8.9174 0.0000
# 3 52.5286 40.8291 78.2146 0.0000 15.3151 0.0000
# 4 0.0000 0.0000 0.0000 25.0974 0.0000 -5.6951
# 5 29.9191 8.9174 15.3151 0.0000 44.3317 0.0000
# 6 0.0000 0.0000 0.0000 -5.6951 0.0000 32.8938
#
#
#
# Elastic Compliance Matrix: (Units=1/GPa)
#
#
# Indices 1 2 3 4 5 6 
#
# 1 0.015703 -0.004698 -0.006653 0.000000 -0.007354 0.000000
# 2 -0.004698 0.015955 -0.005541 0.000000 0.001876 0.000000
# 3 -0.006653 -0.005541 0.020431 0.000000 -0.001453 0.000000
# 4 0.000000 0.000000 0.000000 0.041474 0.000000 0.007181
# 5 -0.007354 0.001876 -0.001453 0.000000 0.027645 0.000000
# 6 0.000000 0.000000 0.000000 0.007181 0.000000 0.031644
#
#
# Mechanical properties :
#
#
# Convention : Reuss Voigt Hill
#
# Bulk Modulus (GPa) = 54.63345 62.92030 58.77687
# Shear Modulus (GPa) = 25.94202 29.86055 27.90129
#
# Velocity S-wave (km/s) = 3.52050 3.77703 3.65102
# Velocity P-wave (km/s) = 6.52890 7.00583 6.77157
#
# Compressibility (1/GPa) = 0.01830380
#
# Stress axis : x y z
#
# Youngs Moduli (GPa) = 63.68365 62.67584 48.94632
#
# Poissons Ratio (x) = 0.29447 0.32565
# Poissons Ratio (y) = 0.29920 0.27120
# Poissons Ratio (z) = 0.42371 0.34727
#
# Static dielectric constant tensor:
#      x y z
#    x 4.189420 0.000000 -0.198690 
#    y 0.000000 3.910990 0.000000 
#    z -0.198690 0.000000 3.934090 
# 
# 
# High freq. dielectric constant tensor:
#      x y z
#    x 1.834060 0.000000 -0.000980 
#    y 0.000000 1.809570 0.000000 
#    z -0.000980 0.000000 1.821520 
# 
# From -- ./inp_files/152568.got.cif
#   From: 2010.06.25/outbox.cif.g09.slc.cpg/sg15_77_cif.got.tgz:152568.got - 2010.06.28 07:06:18.
