data_PCOD8144587
_publ_section_title
;
Structure prediction by ZEFSAII (Michael W. Deem and Ramdas Pophale) SiO2 
 PCOD8144587
Probable space group: C 2/C
;
_chemical_formula_sum "Si O2"
_cell_formula_units_Z 52
_cell_length_a 14.011598
_cell_length_b 14.682207
_cell_length_c 13.845563
_cell_angle_alpha 90.000000
_cell_angle_beta 60.267592
_cell_angle_gamma 90.000000
_cell_volume 2473.346747
_symmetry_space_group_name_H-M "C 2/C"
_symmetry_group_IT_number 15
_symmetry_cell_setting 'monoclinic'
loop_
_space_group_symop_operation_xyz
x,y,z
-x,y,1/2-z
-x,-y,-z
x,-y,1/2+z
1/2+x,1/2+y,z
1/2-x,1/2+y,1/2-z
1/2-x,1/2-y,-z
1/2+x,1/2-y,1/2+z
loop_
_atom_site_type_symbol
_atom_site_label
_atom_site_fract_x
_atom_site_fract_y
_atom_site_fract_z
Si Si1 0.130489 0.713803 0.168526
Si Si2 0.096623 0.469799 0.380902
Si Si3 0.111665 0.927247 0.643840
Si Si4 0.299908 0.156672 0.169168
Si Si5 0.744743 0.390921 0.052102
Si Si6 0.500000 0.870320 0.250000
Si Si7 0.375549 0.253387 0.956385
O O1 0.200956 0.715142 0.232410
O O2 0.153510 0.812141 0.109077
O O3 0.000000 0.700053 0.250000
O O4 0.177023 0.632199 0.078096
O O5 0.160874 0.558638 0.318098
O O6 0.176718 0.398150 0.394017
O O7 0.062878 0.431388 0.295110
O O8 0.000000 0.500000 0.500000
O O9 0.179932 0.860384 0.682153
O O10 0.080799 0.858541 0.570199
O O11 0.000000 0.962934 0.750000
O O12 0.182320 0.012220 0.568684
O O13 0.390551 0.206001 0.053501
O O14 0.579690 0.806791 0.151585
O O15 0.250000 0.250000 0.000000
#
# Coordination Sequence:
#
# PCOD8144587 Si02
#       7
#     8   8   8   8   8   4   8
#     4  11  24  45  69  91 136 181 217 278 340 396
#     4  11  23  39  63  98 133 166 227 273 327 398
#     4  10  21  43  68  93 134 172 219 281 330 400
#     4  10  23  40  63  98 131 168 223 278 331 395
#     4  10  25  44  65  96 133 176 229 274 327 413
#     4  12  24  38  70  96 126 184 210 274 348 374
#     4  10  22  39  61  96 128 165 216 270 330 389
#
# _framework density 21.024144
#
# number of rings (size 3 to 8) (size 9 to 14) (size 15 to 20)
#    0.000    1.538    2.308    1.385    7.538    0.000 
#    5.538    0.769    0.000    0.000    0.000    0.000 
#    0.000    0.000    0.000    0.000    0.000    0.000 
#
# Total GULP energy -322179.727289 kJ/mol
# GULP energy per Si atom -12391.527973 kJ/mol
# Density = 2.097629 g / cm^3
# Si number density = 21.024144 Si / 1000 Ang^3
#
#
#
# Elastic Constant Matrix: (Units=GPa)
#
#
# Indices 1 2 3 4 5 6 
#
# 1 77.1685 43.9847 51.5246 0.0000 -0.1200 0.0000
# 2 43.9847 125.8464 63.6467 0.0000 6.3025 0.0000
# 3 51.5246 63.6467 138.0993 0.0000 4.2193 0.0000
# 4 0.0000 0.0000 0.0000 36.1615 0.0000 -24.5120
# 5 -0.1200 6.3025 4.2193 0.0000 41.7440 0.0000
# 6 0.0000 0.0000 0.0000 -24.5120 0.0000 45.4904
#
#
#
# Elastic Compliance Matrix: (Units=1/GPa)
#
#
# Indices 1 2 3 4 5 6 
#
# 1 0.018679 -0.003970 -0.005175 0.000000 0.001176 0.000000
# 2 -0.003970 0.011254 -0.003665 0.000000 -0.001340 0.000000
# 3 -0.005175 -0.003665 0.010878 0.000000 -0.000561 0.000000
# 4 0.000000 0.000000 0.000000 0.043567 0.000000 0.023475
# 5 0.001176 -0.001340 -0.000561 0.000000 0.024218 0.000000
# 6 0.000000 0.000000 0.000000 0.023475 0.000000 0.034632
#
#
# Mechanical properties :
#
#
# Convention : Reuss Voigt Hill
#
# Bulk Modulus (GPa) = 65.82701 73.26960 69.54830
# Shear Modulus (GPa) = 28.75025 36.80972 32.77999
#
# Velocity S-wave (km/s) = 3.70197 4.18883 3.95290
# Velocity P-wave (km/s) = 7.04634 7.63682 7.34751
#
# Compressibility (1/GPa) = 0.01519133
#
# Stress axis : x y z
#
# Youngs Moduli (GPa) = 53.53672 88.85515 91.92713
#
# Poissons Ratio (x) = 0.35275 0.47575
# Poissons Ratio (y) = 0.21254 0.33689
# Poissons Ratio (z) = 0.27707 0.32563
#
# Static dielectric constant tensor:
#      x y z
#    x 3.940710 0.000000 0.274550 
#    y 0.000000 4.547630 0.000000 
#    z 0.274550 0.000000 4.213450 
# 
# 
# High freq. dielectric constant tensor:
#      x y z
#    x 1.809770 0.000000 -0.006160 
#    y 0.000000 1.838660 0.000000 
#    z -0.006160 0.000000 1.828300 
# 
# From -- ./inp_files/153855.got.cif
#   From: 2010.06.25/outbox.cif.g09.slc.cpg/sg15_77_cif.got.tgz:153855.got - 2010.06.28 07:06:18.
