data_PCOD8144862
_publ_section_title
;
Structure prediction by ZEFSAII (Michael W. Deem and Ramdas Pophale) SiO2 
 PCOD8144862
Probable space group: C 2/C
;
_chemical_formula_sum "Si O2"
_cell_formula_units_Z 40
_cell_length_a 10.807037
_cell_length_b 11.881375
_cell_length_c 24.193317
_cell_angle_alpha 90.000000
_cell_angle_beta 29.054707
_cell_angle_gamma 90.000000
_cell_volume 1508.645610
_symmetry_space_group_name_H-M "C 2/C"
_symmetry_group_IT_number 15
_symmetry_cell_setting 'monoclinic'
loop_
_space_group_symop_operation_xyz
x,y,z
-x,y,1/2-z
-x,-y,-z
x,-y,1/2+z
1/2+x,1/2+y,z
1/2-x,1/2+y,1/2-z
1/2-x,1/2-y,-z
1/2+x,1/2-y,1/2+z
loop_
_atom_site_type_symbol
_atom_site_label
_atom_site_fract_x
_atom_site_fract_y
_atom_site_fract_z
Si Si1 0.796500 0.021277 0.191928
Si Si2 0.901058 0.203803 0.591865
Si Si3 0.723460 0.572210 0.691057
Si Si4 0.733329 0.837257 0.957006
Si Si5 0.530075 0.215372 0.159652
O O1 0.625017 0.126711 0.241300
O O2 0.075235 0.061256 0.103761
O O3 0.647248 0.979597 0.305282
O O4 0.801426 0.923126 0.143890
O O5 0.172544 0.186704 0.456066
O O6 0.923979 0.279988 0.637782
O O7 0.715779 0.268224 0.620353
O O8 0.500000 0.493606 0.750000
O O9 0.527173 0.667984 0.789292
O O10 0.950535 0.609883 0.562116
O O11 0.750000 0.750000 0.000000
#
# Coordination Sequence:
#
# PCOD8144862 Si02
#       5
#     8   8   8   8   8
#     4  11  25  43  74 107 138 190 242 295 369 428
#     4  10  24  44  72 104 143 188 240 296 361 438
#     4  11  23  43  69  98 137 186 232 290 363 427
#     4  12  25  45  69 106 146 185 243 303 354 437
#     4  10  21  46  67 101 142 182 232 299 360 424
#
# _framework density 26.513846000000001
#
# number of rings (size 3 to 8) (size 9 to 14) (size 15 to 20)
#    0.000    1.200    4.000    1.200    2.800    1.600 
#    0.000    2.000    0.000    0.000    0.000    0.000 
#    0.000    0.000    0.000    0.000    0.000    0.000 
#
# Total GULP energy -247823.296281 kJ/mol
# GULP energy per Si atom -12391.164814 kJ/mol
# Density = 2.645350 g / cm^3
# Si number density = 26.513846 Si / 1000 Ang^3
#
#
#
# Elastic Constant Matrix: (Units=GPa)
#
#
# Indices 1 2 3 4 5 6 
#
# 1 108.5635 10.7168 5.5541 -0.0047 13.6641 0.0019
# 2 10.7168 88.3164 23.1474 0.0145 2.0418 -0.0031
# 3 5.5541 23.1474 84.5939 0.0198 -2.5272 0.0019
# 4 -0.0047 0.0145 0.0198 33.8584 -0.0047 -3.7466
# 5 13.6641 2.0418 -2.5272 -0.0047 41.0056 -0.0037
# 6 0.0019 -0.0031 0.0019 -3.7466 -0.0037 34.6538
#
#
#
# Elastic Compliance Matrix: (Units=1/GPa)
#
#
# Indices 1 2 3 4 5 6 
#
# 1 0.009738 -0.000985 -0.000466 0.000002 -0.003225 -0.000001
# 2 -0.000985 0.012325 -0.003322 -0.000003 -0.000490 0.000001
# 3 -0.000466 -0.003322 0.012794 -0.000006 0.001109 -0.000002
# 4 0.000002 -0.000003 -0.000006 0.029892 0.000003 0.003232
# 5 -0.003225 -0.000490 0.001109 0.000003 0.025554 0.000003
# 6 -0.000001 0.000001 -0.000002 0.003232 0.000003 0.029206
#
#
# Mechanical properties :
#
#
# Convention : Reuss Voigt Hill
#
# Bulk Modulus (GPa) = 39.51046 40.03450 39.77248
# Shear Modulus (GPa) = 36.36544 38.04059 37.20302
#
# Velocity S-wave (km/s) = 3.70748 3.79191 3.74993
# Velocity P-wave (km/s) = 5.76727 5.85694 5.81228
#
# Compressibility (1/GPa) = 0.02530976
#
# Stress axis : x y z
#
# Youngs Moduli (GPa) = 102.68902 81.13885 78.16145
#
# Poissons Ratio (x) = 0.07992 0.03644
# Poissons Ratio (y) = 0.10114 0.25968
# Poissons Ratio (z) = 0.04787 0.26957
#
# Static dielectric constant tensor:
#      x y z
#    x 6.830970 0.000000 0.627260 
#    y 0.000000 4.840150 0.000080 
#    z 0.627260 0.000080 5.016930 
# 
# 
# High freq. dielectric constant tensor:
#      x y z
#    x 2.080340 0.000000 0.007750 
#    y 0.000000 2.058000 0.000000 
#    z 0.007750 0.000000 2.063800 
# 
# From -- ./inp_files/292365.got.cif
#   From: 2010.06.25/outbox.cif.g09.slc.cpg/sg15_147_cif.got.tgz:292365.got - 2010.06.28 07:06:18.
