data_PCOD8144385
_publ_section_title
;
Structure prediction by ZEFSAII (Michael W. Deem and Ramdas Pophale) SiO2 
 PCOD8144385
Probable space group: C 2/C
;
_chemical_formula_sum "Si O2"
_cell_formula_units_Z 56
_cell_length_a 28.280572
_cell_length_b 12.392060
_cell_length_c 14.281588
_cell_angle_alpha 90.000000
_cell_angle_beta 29.822281
_cell_angle_gamma 90.000000
_cell_volume 2489.067029
_symmetry_space_group_name_H-M "C 2/C"
_symmetry_group_IT_number 15
_symmetry_cell_setting 'monoclinic'
loop_
_space_group_symop_operation_xyz
x,y,z
-x,y,1/2-z
-x,-y,-z
x,-y,1/2+z
1/2+x,1/2+y,z
1/2-x,1/2+y,1/2-z
1/2-x,1/2-y,-z
1/2+x,1/2-y,1/2+z
loop_
_atom_site_type_symbol
_atom_site_label
_atom_site_fract_x
_atom_site_fract_y
_atom_site_fract_z
Si Si1 0.491510 0.275183 0.163067
Si Si2 0.964075 0.351787 0.097433
Si Si3 0.217891 0.198572 0.460465
Si Si4 0.544534 0.500073 0.025574
Si Si5 0.076906 0.181893 0.183734
Si Si6 0.356960 0.018023 0.173128
Si Si7 0.273925 0.621437 0.719122
O O1 0.500000 0.216666 0.250000
O O2 0.390118 0.332435 0.337262
O O3 0.562511 0.377310 0.029862
O O4 0.500092 0.188677 0.065804
O O5 0.913633 0.254845 0.239691
O O6 0.885103 0.441665 0.212137
O O7 0.052720 0.403345 0.003196
O O8 0.250000 0.250000 0.500000
O O9 0.268207 0.085836 0.359178
O O10 0.234276 0.278147 0.345049
O O11 0.468083 0.564748 0.218543
O O12 0.500000 0.500000 0.000000
O O13 0.647943 0.557630 0.853162
O O14 0.000000 0.243088 0.250000
O O15 0.178261 0.166883 0.958841
O O16 0.319096 0.950245 0.148202
#
# Coordination Sequence:
#
# PCOD8144385 Si02
#       7
#     8   8   8   8   8   8   8
#     4  12  23  41  69 101 133 178 233 281 334 410
#     4  11  24  45  67  96 138 184 219 278 337 416
#     4  12  24  46  67  97 140 176 220 282 346 402
#     4  11  20  39  71  99 136 177 230 285 347 401
#     4  10  21  42  69  96 134 176 229 277 346 405
#     4  11  24  46  66  98 140 170 229 271 340 406
#     4  11  25  43  68 102 131 178 226 286 331 405
#
# _framework density 22.498389
#
# number of rings (size 3 to 8) (size 9 to 14) (size 15 to 20)
#    0.000    0.857    2.857    6.429    0.000    0.571 
#    5.143    4.286    0.000    0.000    0.000    0.000 
#    0.000    0.000    0.000    0.000    0.000    0.000 
#
# Total GULP energy -347087.438422 kJ/mol
# GULP energy per Si atom -12395.979944 kJ/mol
# Density = 2.244718 g / cm^3
# Si number density = 22.498389 Si / 1000 Ang^3
#
#
#
# Elastic Constant Matrix: (Units=GPa)
#
#
# Indices 1 2 3 4 5 6 
#
# 1 116.5788 33.8710 32.6315 0.0000 10.1692 0.0000
# 2 33.8710 108.0123 33.6471 0.0000 7.4793 0.0000
# 3 32.6315 33.6471 65.9805 0.0000 7.6843 0.0000
# 4 0.0000 0.0000 0.0000 17.8695 0.0000 -8.9192
# 5 10.1692 7.4793 7.6843 0.0000 39.4152 0.0000
# 6 0.0000 0.0000 0.0000 -8.9192 0.0000 43.0175
#
#
#
# Elastic Compliance Matrix: (Units=1/GPa)
#
#
# Indices 1 2 3 4 5 6 
#
# 1 0.010381 -0.001908 -0.003982 0.000000 -0.001540 0.000000
# 2 -0.001908 0.011398 -0.004782 0.000000 -0.000738 0.000000
# 3 -0.003982 -0.004782 0.019788 0.000000 -0.001923 0.000000
# 4 0.000000 0.000000 0.000000 0.062421 0.000000 0.012942
# 5 -0.001540 -0.000738 -0.001923 0.000000 0.026283 0.000000
# 6 0.000000 0.000000 0.000000 0.012942 0.000000 0.025930
#
#
# Mechanical properties :
#
#
# Convention : Reuss Voigt Hill
#
# Bulk Modulus (GPa) = 49.45173 54.54120 51.99647
# Shear Modulus (GPa) = 27.13165 32.75523 29.94344
#
# Velocity S-wave (km/s) = 3.47643 3.81975 3.65213
# Velocity P-wave (km/s) = 6.17591 6.61430 6.39886
#
# Compressibility (1/GPa) = 0.02022174
#
# Stress axis : x y z
#
# Youngs Moduli (GPa) = 96.32812 87.73808 50.53582
#
# Poissons Ratio (x) = 0.16744 0.20121
# Poissons Ratio (y) = 0.18384 0.24169
# Poissons Ratio (z) = 0.38354 0.41960
#
# Static dielectric constant tensor:
#      x y z
#    x 1.690900 0.000000 1.413040 
#    y 0.000000 3.487370 0.000000 
#    z 1.413040 0.000000 3.268660 
# 
# 
# High freq. dielectric constant tensor:
#      x y z
#    x 1.899320 0.000000 -0.005540 
#    y 0.000000 1.891450 0.000000 
#    z -0.005540 0.000000 1.871950 
# 
# From -- ./inp_files/181922.got.cif
#   From: 2010.06.25/outbox.cif.g09.slc.cpg/sg15_91_cif.got.tgz:181922.got - 2010.06.28 07:06:18.
