data_PCOD8144752
_publ_section_title
;
Structure prediction by ZEFSAII (Michael W. Deem and Ramdas Pophale) SiO2 
 PCOD8144752
Probable space group: C 2/C
;
_chemical_formula_sum "Si O2"
_cell_formula_units_Z 40
_cell_length_a 8.546411
_cell_length_b 23.786888
_cell_length_c 16.739451
_cell_angle_alpha 90.000000
_cell_angle_beta 32.641332
_cell_angle_gamma 90.000000
_cell_volume 1835.507406
_symmetry_space_group_name_H-M "C 2/C"
_symmetry_group_IT_number 15
_symmetry_cell_setting 'monoclinic'
loop_
_space_group_symop_operation_xyz
x,y,z
-x,y,1/2-z
-x,-y,-z
x,-y,1/2+z
1/2+x,1/2+y,z
1/2-x,1/2+y,1/2-z
1/2-x,1/2-y,-z
1/2+x,1/2-y,1/2+z
loop_
_atom_site_type_symbol
_atom_site_label
_atom_site_fract_x
_atom_site_fract_y
_atom_site_fract_z
Si Si1 0.294490 0.590856 0.024757
Si Si2 0.648760 0.394253 0.817502
Si Si3 0.187094 0.776263 0.851900
Si Si4 0.315377 0.495509 0.898928
Si Si5 0.196531 0.804601 0.342816
O O1 0.327697 0.581325 0.103929
O O2 0.963349 0.603079 0.140243
O O3 0.382396 0.531830 0.948286
O O4 0.501292 0.641455 0.906114
O O5 0.547108 0.329058 0.864427
O O6 0.410953 0.430691 0.872546
O O7 0.500000 0.796577 0.750000
O O8 0.230497 0.724911 0.772987
O O9 0.976763 0.763918 0.019073
O O10 0.500000 0.523557 0.750000
O O11 0.000000 0.500000 0.000000
O O12 0.500000 0.824390 0.250000
#
# Coordination Sequence:
#
# PCOD8144752 Si02
#       5
#     8   8   8   8   8
#     4  10  22  44  67  93 131 179 222 268 331 411
#     4  10  21  44  69  93 131 182 220 263 339 410
#     4  11  22  43  71  97 135 182 227 274 338 403
#     4  12  25  42  66 101 135 167 221 284 338 388
#     4  11  24  43  66 103 136 176 230 280 335 400
#
# _framework density 21.792338999999998
#
# number of rings (size 3 to 8) (size 9 to 14) (size 15 to 20)
#    0.000    1.200    6.000    1.800    0.000    4.800 
#    3.600    0.000    0.000    0.000    0.000    0.000 
#    0.000    0.000    0.000    0.000    0.000    0.000 
#
# Total GULP energy -247894.682167 kJ/mol
# GULP energy per Si atom -12394.734108 kJ/mol
# Density = 2.174274 g / cm^3
# Si number density = 21.792339 Si / 1000 Ang^3
#
#
#
# Elastic Constant Matrix: (Units=GPa)
#
#
# Indices 1 2 3 4 5 6 
#
# 1 84.6636 50.7607 40.4200 0.0009 -19.9272 -0.0017
# 2 50.7607 107.7905 32.0084 0.0013 -8.4178 -0.0012
# 3 40.4200 32.0084 112.8195 -0.0046 -11.3903 0.0055
# 4 0.0009 0.0013 -0.0046 35.3181 0.0000 2.1029
# 5 -19.9272 -8.4178 -11.3903 0.0000 40.7059 0.0007
# 6 -0.0017 -0.0012 0.0055 2.1029 0.0007 30.8801
#
#
#
# Elastic Compliance Matrix: (Units=1/GPa)
#
#
# Indices 1 2 3 4 5 6 
#
# 1 0.020118 -0.007638 -0.004328 -0.000001 0.007058 0.000001
# 2 -0.007638 0.013101 -0.001116 0.000000 -0.001342 0.000000
# 3 -0.004328 -0.001116 0.010799 0.000002 0.000672 -0.000002
# 4 -0.000001 0.000000 0.000002 0.028429 0.000000 -0.001936
# 5 0.007058 -0.001342 0.000672 0.000000 0.027932 0.000000
# 6 0.000001 0.000000 -0.000002 -0.001936 0.000000 0.032515
#
#
# Mechanical properties :
#
#
# Convention : Reuss Voigt Hill
#
# Bulk Modulus (GPa) = 56.00999 61.29467 58.65233
# Shear Modulus (GPa) = 30.30124 33.51979 31.91051
#
# Velocity S-wave (km/s) = 3.73292 3.92617 3.83077
# Velocity P-wave (km/s) = 6.65861 6.98147 6.82195
#
# Compressibility (1/GPa) = 0.01785396
#
# Stress axis : x y z
#
# Youngs Moduli (GPa) = 49.70583 76.33270 92.60208
#
# Poissons Ratio (x) = 0.58300 0.40081
# Poissons Ratio (y) = 0.37964 0.10334
# Poissons Ratio (z) = 0.21514 0.08518
#
# Static dielectric constant tensor:
#      x y z
#    x 3.812250 -0.000010 0.077670 
#    y -0.000010 3.712640 0.000020 
#    z 0.077670 0.000020 4.243270 
# 
# 
# High freq. dielectric constant tensor:
#      x y z
#    x 1.849870 0.000000 0.002780 
#    y 0.000000 1.840260 0.000000 
#    z 0.002780 0.000000 1.873140 
# 
# From -- ./inp_files/23485.got.cif
#   From: 2010.06.25/outbox.cif.g09.slc.cpg/sg15_12_cif.got.tgz:23485.got - 2010.06.28 07:06:18.
