data_PCOD8144765
_publ_section_title
;
Structure prediction by ZEFSAII (Michael W. Deem and Ramdas Pophale) SiO2 
 PCOD8144765
Probable space group: C 2/C
;
_chemical_formula_sum "Si O2"
_cell_formula_units_Z 56
_cell_length_a 24.031308
_cell_length_b 14.361347
_cell_length_c 9.282218
_cell_angle_alpha 90.000000
_cell_angle_beta 119.236291
_cell_angle_gamma 90.000000
_cell_volume 2795.412964
_symmetry_space_group_name_H-M "C 2/C"
_symmetry_group_IT_number 15
_symmetry_cell_setting 'monoclinic'
loop_
_space_group_symop_operation_xyz
x,y,z
-x,y,1/2-z
-x,-y,-z
x,-y,1/2+z
1/2+x,1/2+y,z
1/2-x,1/2+y,1/2-z
1/2-x,1/2-y,-z
1/2+x,1/2-y,1/2+z
loop_
_atom_site_type_symbol
_atom_site_label
_atom_site_fract_x
_atom_site_fract_y
_atom_site_fract_z
Si Si1 0.491392 0.811331 0.943692
Si Si2 0.000000 0.151586 0.750000
Si Si3 0.000000 0.611976 0.750000
Si Si4 0.134606 0.105178 0.984385
Si Si5 0.286404 0.072387 0.680329
Si Si6 0.102485 0.536687 0.295266
Si Si7 0.796309 0.987355 0.674819
Si Si8 0.363175 0.186803 0.954958
O O1 0.469505 0.715232 0.840696
O O2 0.450785 0.899035 0.842443
O O3 0.487864 0.812479 0.110006
O O4 0.563578 0.825602 0.990057
O O5 0.941831 0.088140 0.620812
O O6 0.936241 0.549351 0.683385
O O7 0.168487 0.053435 0.895638
O O8 0.154266 0.074964 0.171159
O O9 0.151125 0.214503 0.989327
O O10 0.251621 0.076828 0.480701
O O11 0.316132 0.173698 0.757807
O O12 0.346839 0.002068 0.756104
O O13 0.238985 0.046730 0.748957
O O14 0.148704 0.598279 0.455842
#
# Coordination Sequence:
#
# PCOD8144765 Si02
#       8
#     8   4   4   8   8   8   8   8
#     4  11  20  34  54  95 132 156 201 244 295 367
#     4  10  21  44  70  89 112 154 200 259 320 372
#     4  12  21  28  54  91 138 170 186 239 304 356
#     4  10  23  45  69  87 116 150 203 267 319 358
#     4  11  22  37  60  90 130 169 207 233 288 367
#     4  12  19  33  58  91 131 177 194 231 294 372
#     4  10  24  44  60  88 120 160 213 262 290 353
#     4  11  20  37  63  92 124 166 204 243 299 364
#
# _framework density 20.032817999999999
#
# number of rings (size 3 to 8) (size 9 to 14) (size 15 to 20)
#    0.000    1.143    7.143    1.286    0.000    1.714 
#    0.000    5.714    0.000    0.000    0.000    0.000 
#    0.000    0.000    0.000    0.000    0.000    0.000 
#
# Total GULP energy -346896.411502 kJ/mol
# GULP energy per Si atom -12389.157554 kJ/mol
# Density = 1.998722 g / cm^3
# Si number density = 20.032818 Si / 1000 Ang^3
#
#
#
# Elastic Constant Matrix: (Units=GPa)
#
#
# Indices 1 2 3 4 5 6 
#
# 1 80.3584 39.5617 38.3820 0.0000 0.5443 0.0000
# 2 39.5617 57.8667 45.6087 0.0000 3.1379 0.0000
# 3 38.3820 45.6087 134.6585 0.0000 1.0747 0.0000
# 4 0.0000 0.0000 0.0000 32.3018 0.0000 6.7281
# 5 0.5443 3.1379 1.0747 0.0000 39.5438 0.0000
# 6 0.0000 0.0000 0.0000 6.7281 0.0000 9.9233
#
#
#
# Elastic Compliance Matrix: (Units=1/GPa)
#
#
# Indices 1 2 3 4 5 6 
#
# 1 0.018965 -0.011923 -0.001373 0.000000 0.000722 0.000000
# 2 -0.011923 0.031178 -0.007145 0.000000 -0.002116 0.000000
# 3 -0.001373 -0.007145 0.010235 0.000000 0.000308 0.000000
# 4 0.000000 0.000000 0.000000 0.036049 0.000000 -0.024442
# 5 0.000722 -0.002116 0.000308 0.000000 0.025438 0.000000
# 6 0.000000 0.000000 0.000000 -0.024442 0.000000 0.117345
#
#
# Mechanical properties :
#
#
# Convention : Reuss Voigt Hill
#
# Bulk Modulus (GPa) = 51.28991 57.77649 54.53320
# Shear Modulus (GPa) = 17.44647 26.30917 21.87782
#
# Velocity S-wave (km/s) = 2.95429 3.62788 3.30828
# Velocity P-wave (km/s) = 6.10702 6.81559 6.47101
#
# Compressibility (1/GPa) = 0.01949701
#
# Stress axis : x y z
#
# Youngs Moduli (GPa) = 52.72894 32.07363 97.70306
#
# Poissons Ratio (x) = 0.38240 0.13417
# Poissons Ratio (y) = 0.62866 0.69807
# Poissons Ratio (z) = 0.07241 0.22916
#
# Static dielectric constant tensor:
#      x y z
#    x 3.622970 0.000000 0.074360 
#    y 0.000000 3.535110 0.000000 
#    z 0.074360 0.000000 4.268520 
# 
# 
# High freq. dielectric constant tensor:
#      x y z
#    x 1.775200 0.000000 0.010960 
#    y 0.000000 1.748420 0.000000 
#    z 0.010960 0.000000 1.803670 
# 
# From -- ./inp_files/62033.got.cif
#   From: 2010.06.25/outbox.cif.g09.slc.cpg/sg15_32_cif.got.tgz:62033.got - 2010.06.28 07:06:18.
