data_PCOD8144047
_publ_section_title
;
Structure prediction by ZEFSAII (Michael W. Deem and Ramdas Pophale) SiO2 
 PCOD8144047
Probable space group: C 2/C
;
_chemical_formula_sum "Si O2"
_cell_formula_units_Z 48
_cell_length_a 15.928460
_cell_length_b 11.030108
_cell_length_c 27.075304
_cell_angle_alpha 90.000000
_cell_angle_beta 151.593557
_cell_angle_gamma 90.000000
_cell_volume 2262.982303
_symmetry_space_group_name_H-M "C 2/C"
_symmetry_group_IT_number 15
_symmetry_cell_setting 'monoclinic'
loop_
_space_group_symop_operation_xyz
x,y,z
-x,y,1/2-z
-x,-y,-z
x,-y,1/2+z
1/2+x,1/2+y,z
1/2-x,1/2+y,1/2-z
1/2-x,1/2-y,-z
1/2+x,1/2-y,1/2+z
loop_
_atom_site_type_symbol
_atom_site_label
_atom_site_fract_x
_atom_site_fract_y
_atom_site_fract_z
Si Si1 0.352134 0.401645 0.505929
Si Si2 0.828703 0.882124 0.691814
Si Si3 0.498049 0.203807 0.845133
Si Si4 0.744323 0.620818 0.792623
Si Si5 0.004624 0.259437 0.005810
Si Si6 0.414142 0.319369 0.061180
O O1 0.423047 0.323423 0.588305
O O2 0.144769 0.374315 0.392836
O O3 0.453678 0.364832 0.508000
O O4 0.373343 0.541727 0.528543
O O5 0.653899 0.858742 0.567912
O O6 0.000000 0.924610 0.750000
O O7 0.861263 0.751507 0.733669
O O8 0.797046 0.982418 0.716920
O O9 0.400029 0.117269 0.832969
O O10 0.813170 0.689258 0.877247
O O11 0.574312 0.690416 0.683068
O O12 0.033150 0.243703 0.962608
O O13 0.250000 0.250000 0.000000
#
# Coordination Sequence:
#
# PCOD8144047 Si02
#       6
#     8   8   8   8   8   8
#     4  10  22  44  66  97 134 174 224 283 332 412
#     4  12  23  42  71 102 136 177 232 286 343 409
#     4  10  21  41  70  97 128 177 225 274 345 402
#     4  11  26  42  69  99 142 174 225 289 337 408
#     4  11  25  45  67 103 134 182 230 279 350 412
#     4  12  27  44  69  98 141 184 229 282 351 405
#
# _framework density 21.210947999999998
#
# number of rings (size 3 to 8) (size 9 to 14) (size 15 to 20)
#    0.000    1.000    5.000    1.000    4.667    0.000 
#    0.000    1.667    0.000    0.000    0.000    0.000 
#    0.000    0.000    0.000    0.000    0.000    0.000 
#
# Total GULP energy -297640.223541 kJ/mol
# GULP energy per Si atom -12401.675981 kJ/mol
# Density = 2.116267 g / cm^3
# Si number density = 21.210948 Si / 1000 Ang^3
#
#
#
# Elastic Constant Matrix: (Units=GPa)
#
#
# Indices 1 2 3 4 5 6 
#
# 1 101.7338 47.9214 50.0084 0.0000 7.0265 0.0000
# 2 47.9214 82.8998 50.7749 0.0001 11.7903 0.0001
# 3 50.0084 50.7749 160.1891 0.0007 -2.5426 0.0002
# 4 0.0000 0.0001 0.0007 28.8917 0.0000 -1.0300
# 5 7.0265 11.7903 -2.5426 0.0000 32.4008 0.0000
# 6 0.0000 0.0001 0.0002 -1.0300 0.0000 33.7713
#
#
#
# Elastic Compliance Matrix: (Units=1/GPa)
#
#
# Indices 1 2 3 4 5 6 
#
# 1 0.014160 -0.006640 -0.002329 0.000000 -0.000837 0.000000
# 2 -0.006640 0.019268 -0.004128 0.000000 -0.005895 0.000000
# 3 -0.002329 -0.004128 0.008320 0.000000 0.002660 0.000000
# 4 0.000000 0.000000 0.000000 0.034650 0.000000 0.001057
# 5 -0.000837 -0.005895 0.002660 0.000000 0.033399 0.000000
# 6 0.000000 0.000000 0.000000 0.001057 0.000000 0.029643
#
#
# Mechanical properties :
#
#
# Convention : Reuss Voigt Hill
#
# Bulk Modulus (GPa) = 64.29094 71.35912 67.82503
# Shear Modulus (GPa) = 29.27080 32.08730 30.67905
#
# Velocity S-wave (km/s) = 3.71885 3.89365 3.80725
# Velocity P-wave (km/s) = 6.98683 7.34368 7.16748
#
# Compressibility (1/GPa) = 0.01555429
#
# Stress axis : x y z
#
# Youngs Moduli (GPa) = 70.62158 51.90025 120.18566
#
# Poissons Ratio (x) = 0.34460 0.27994
# Poissons Ratio (y) = 0.46890 0.49613
# Poissons Ratio (z) = 0.16450 0.21425
#
# Static dielectric constant tensor:
#      x y z
#    x 3.833750 0.000000 0.061820 
#    y 0.000000 3.615960 0.000000 
#    z 0.061820 0.000000 4.167410 
# 
# 
# High freq. dielectric constant tensor:
#      x y z
#    x 1.834620 0.000000 0.001740 
#    y 0.000000 1.814270 0.000000 
#    z 0.001740 0.000000 1.849190 
# 
# From -- ./inp_files/152472.got.cif
#   From: 2010.06.25/outbox.cif.g09.slc.cpg/sg15_77_cif.got.tgz:152472.got - 2010.06.28 07:06:18.
