data_PCOD8144500
_publ_section_title
;
Structure prediction by ZEFSAII (Michael W. Deem and Ramdas Pophale) SiO2 
 PCOD8144500
Probable space group: C 2/C
;
_chemical_formula_sum "Si O2"
_cell_formula_units_Z 48
_cell_length_a 14.164799
_cell_length_b 11.023520
_cell_length_c 15.323026
_cell_angle_alpha 90.000000
_cell_angle_beta 107.819453
_cell_angle_gamma 90.000000
_cell_volume 2277.843342
_symmetry_space_group_name_H-M "C 2/C"
_symmetry_group_IT_number 15
_symmetry_cell_setting 'monoclinic'
loop_
_space_group_symop_operation_xyz
x,y,z
-x,y,1/2-z
-x,-y,-z
x,-y,1/2+z
1/2+x,1/2+y,z
1/2-x,1/2+y,1/2-z
1/2-x,1/2-y,-z
1/2+x,1/2-y,1/2+z
loop_
_atom_site_type_symbol
_atom_site_label
_atom_site_fract_x
_atom_site_fract_y
_atom_site_fract_z
Si Si1 0.900000 0.349824 0.359595
Si Si2 0.406363 0.805119 0.976959
Si Si3 0.747718 0.498625 0.415593
Si Si4 0.418263 0.893725 0.793490
Si Si5 0.384338 0.527632 0.965035
Si Si6 0.802380 0.888348 0.778538
O O1 0.817161 0.384215 0.409276
O O2 0.913271 0.460290 0.296371
O O3 0.867727 0.232769 0.295626
O O4 0.005054 0.319886 0.430865
O O5 0.317204 0.895804 0.975267
O O6 0.449518 0.837555 0.894422
O O7 0.363833 0.669971 0.966851
O O8 0.668984 0.461200 0.467761
O O9 0.689883 0.547265 0.313521
O O10 0.500000 0.847128 0.750000
O O11 0.310406 0.847411 0.733303
O O12 0.339295 0.480955 0.862185
O O13 0.500000 0.500000 0.000000
#
# Coordination Sequence:
#
# PCOD8144500 Si02
#       6
#     8   8   8   8   8   8
#     4  10  21  43  65  92 126 164 217 261 314 385
#     4  10  22  43  63  94 126 164 219 257 321 379
#     4  10  25  41  69  90 131 169 214 266 315 370
#     4  10  24  39  67  94 123 166 215 268 314 373
#     4  12  25  43  63  96 129 174 209 263 322 387
#     4  10  24  42  64  95 132 164 215 260 324 377
#
# _framework density 21.072564
#
# number of rings (size 3 to 8) (size 9 to 14) (size 15 to 20)
#    0.000    2.000    1.667    2.500   14.000    4.000 
#    0.000    0.000    0.000    0.000    0.000    0.000 
#    0.000    0.000    0.000    0.000    0.000    0.000 
#
# Total GULP energy -297620.822507 kJ/mol
# GULP energy per Si atom -12400.867604 kJ/mol
# Density = 2.102460 g / cm^3
# Si number density = 21.072564 Si / 1000 Ang^3
#
#
#
# Elastic Constant Matrix: (Units=GPa)
#
#
# Indices 1 2 3 4 5 6 
#
# 1 87.5784 -12.3406 42.7344 0.0000 -4.8885 0.0000
# 2 -12.3406 54.7452 18.7937 0.0000 8.7592 0.0000
# 3 42.7344 18.7937 108.6580 0.0000 25.2213 0.0000
# 4 0.0000 0.0000 0.0000 30.9453 0.0000 16.5210
# 5 -4.8885 8.7592 25.2213 0.0000 39.3500 0.0000
# 6 0.0000 0.0000 0.0000 16.5210 0.0000 19.2199
#
#
#
# Elastic Compliance Matrix: (Units=1/GPa)
#
#
# Indices 1 2 3 4 5 6 
#
# 1 0.017238 0.006022 -0.009407 0.000000 0.006830 0.000000
# 2 0.006022 0.021744 -0.006085 0.000000 -0.000192 0.000000
# 3 -0.009407 -0.006085 0.016344 0.000000 -0.010290 0.000000
# 4 0.000000 0.000000 0.000000 0.059722 0.000000 -0.051336
# 5 0.006830 -0.000192 -0.010290 0.000000 0.032899 0.000000
# 6 0.000000 0.000000 0.000000 -0.051336 0.000000 0.096156
#
#
# Mechanical properties :
#
#
# Convention : Reuss Voigt Hill
#
# Bulk Modulus (GPa) = 27.48239 38.81740 33.14990
# Shear Modulus (GPa) = 18.17056 31.35598 24.76327
#
# Velocity S-wave (km/s) = 2.93966 3.86165 3.43175
# Velocity P-wave (km/s) = 4.95905 6.19224 5.60964
#
# Compressibility (1/GPa) = 0.03638694
#
# Stress axis : x y z
#
# Youngs Moduli (GPa) = 58.01054 45.99066 61.18610
#
# Poissons Ratio (x) = -0.27697 0.57556
# Poissons Ratio (y) = -0.34936 0.37231
# Poissons Ratio (z) = 0.54569 0.27984
#
# Static dielectric constant tensor:
#      x y z
#    x 3.772130 0.000000 0.160370 
#    y 0.000000 3.840520 0.000000 
#    z 0.160370 0.000000 3.839730 
# 
# 
# High freq. dielectric constant tensor:
#      x y z
#    x 1.826010 0.000000 0.014160 
#    y 0.000000 1.822350 0.000000 
#    z 0.014160 0.000000 1.827760 
# 
# From -- ./inp_files/152200.got.cif
#   From: 2010.06.25/outbox.cif.g09.slc.cpg/sg15_77_cif.got.tgz:152200.got - 2010.06.28 07:06:18.
