data_PCOD8144686
_publ_section_title
;
Structure prediction by ZEFSAII (Michael W. Deem and Ramdas Pophale) SiO2 
 PCOD8144686
Probable space group: C 2/C
;
_chemical_formula_sum "Si O2"
_cell_formula_units_Z 56
_cell_length_a 11.750079
_cell_length_b 19.776429
_cell_length_c 11.006340
_cell_angle_alpha 90.000000
_cell_angle_beta 86.173244
_cell_angle_gamma 90.000000
_cell_volume 2551.891505
_symmetry_space_group_name_H-M "C 2/C"
_symmetry_group_IT_number 15
_symmetry_cell_setting 'monoclinic'
loop_
_space_group_symop_operation_xyz
x,y,z
-x,y,1/2-z
-x,-y,-z
x,-y,1/2+z
1/2+x,1/2+y,z
1/2-x,1/2+y,1/2-z
1/2-x,1/2-y,-z
1/2+x,1/2-y,1/2+z
loop_
_atom_site_type_symbol
_atom_site_label
_atom_site_fract_x
_atom_site_fract_y
_atom_site_fract_z
Si Si1 0.000000 0.001152 0.750000
Si Si2 0.826495 0.103349 0.667868
Si Si3 0.225704 0.720381 0.812578
Si Si4 0.499158 0.615162 0.060371
Si Si5 0.500000 0.269228 0.750000
Si Si6 0.752671 0.350873 0.944681
Si Si7 0.467895 0.075644 0.383891
Si Si8 0.935001 0.421767 0.371564
O O1 0.886137 0.047050 0.748799
O O2 0.016713 0.954034 0.632235
O O3 0.820159 0.175833 0.736671
O O4 0.700776 0.078994 0.639223
O O5 0.907009 0.115445 0.548896
O O6 0.259487 0.798926 0.829893
O O7 0.108802 0.720012 0.744744
O O8 0.197387 0.687732 0.943574
O O9 0.516928 0.683505 0.132897
O O10 0.371137 0.618109 0.017710
O O11 0.832954 0.413621 0.909917
O O12 0.500000 0.108584 0.250000
O O13 0.535538 0.109339 0.495589
O O14 0.489365 0.996196 0.376280
O O15 0.000000 0.387745 0.250000
#
# Coordination Sequence:
#
# PCOD8144686 Si02
#       8
#     4   8   8   8   4   8   8   8
#     4  11  24  42  66  96 134 169 204 282 350 391
#     4  12  24  38  66 100 125 168 222 267 327 411
#     4  10  23  39  63  90 128 170 215 269 330 384
#     4  10  23  43  68  92 127 169 218 274 330 395
#     4   9  22  44  64  88 130 171 214 268 340 383
#     4  10  21  44  63  89 128 174 213 272 329 383
#     4  10  22  41  64  94 127 173 222 262 326 402
#     4  10  23  39  62  96 134 168 210 275 333 395
#
# _framework density 21.944507000000002
#
# number of rings (size 3 to 8) (size 9 to 14) (size 15 to 20)
#    0.000    1.714    0.000    3.000    3.000    8.571 
#    9.000    0.000    0.000    0.000    0.000    0.000 
#    0.000    0.000    0.000    0.000    0.000    0.000 
#
# Total GULP energy -347042.872033 kJ/mol
# GULP energy per Si atom -12394.388287 kJ/mol
# Density = 2.189456 g / cm^3
# Si number density = 21.944507 Si / 1000 Ang^3
#
#
#
# Elastic Constant Matrix: (Units=GPa)
#
#
# Indices 1 2 3 4 5 6 
#
# 1 162.7852 35.1776 62.0259 0.0000 0.3029 0.0000
# 2 35.1776 70.5322 26.5921 0.0000 -7.4610 0.0000
# 3 62.0259 26.5921 123.6055 0.0000 -1.4865 0.0000
# 4 0.0000 0.0000 0.0000 -26.4262 0.0000 -5.0592
# 5 0.3029 -7.4610 -1.4865 0.0000 36.9122 0.0000
# 6 0.0000 0.0000 0.0000 -5.0592 0.0000 38.6627
#
#
#
# Elastic Compliance Matrix: (Units=1/GPa)
#
#
# Indices 1 2 3 4 5 6 
#
# 1 0.008066 -0.002802 -0.003454 0.000000 -0.000772 0.000000
# 2 -0.002802 0.016739 -0.002155 0.000000 0.003320 0.000000
# 3 -0.003454 -0.002155 0.010287 0.000000 0.000007 0.000000
# 4 0.000000 0.000000 0.000000 -0.036916 0.000000 -0.004831
# 5 -0.000772 0.003320 0.000007 0.000000 0.027769 0.000000
# 6 0.000000 0.000000 0.000000 -0.004831 0.000000 0.025233
#
#
# Mechanical properties :
#
#
# Convention : Reuss Voigt Hill
#
# Bulk Modulus (GPa) = 54.73535 67.16822 60.95178
# Shear Modulus (GPa) = 67.48497 25.37157 46.42827
#
# Velocity S-wave (km/s) = 5.55152 3.40394 4.60468
# Velocity P-wave (km/s) = 8.12953 6.79144 7.49042
#
# Compressibility (1/GPa) = 0.01826973
#
# Stress axis : x y z
#
# Youngs Moduli (GPa) = 123.97455 59.73982 97.20789
#
# Poissons Ratio (x) = 0.16741 0.33576
# Poissons Ratio (y) = 0.34742 0.20949
# Poissons Ratio (z) = 0.42821 0.12874
#
# Static dielectric constant tensor:
#      x y z
#    x 3.341050 0.000000 0.503260 
#    y 0.000000 3.986410 0.000000 
#    z 0.503260 0.000000 4.171190 
# 
# 
# High freq. dielectric constant tensor:
#      x y z
#    x 1.864110 0.000000 0.015070 
#    y 0.000000 1.862880 0.000000 
#    z 0.015070 0.000000 1.866620 
# 
# From -- ./inp_files/88929.got.cif
#   From: 2010.06.25/outbox.cif.g09.slc.cpg/sg15_45_cif.got.tgz:88929.got - 2010.06.28 07:06:18.
