data_PCOD8144857
_publ_section_title
;
Structure prediction by ZEFSAII (Michael W. Deem and Ramdas Pophale) SiO2 
 PCOD8144857
Probable space group: C 2/C
;
_chemical_formula_sum "Si O2"
_cell_formula_units_Z 48
_cell_length_a 9.576070
_cell_length_b 22.054430
_cell_length_c 11.312623
_cell_angle_alpha 90.000000
_cell_angle_beta 70.991583
_cell_angle_gamma 90.000000
_cell_volume 2258.887261
_symmetry_space_group_name_H-M "C 2/C"
_symmetry_group_IT_number 15
_symmetry_cell_setting 'monoclinic'
loop_
_space_group_symop_operation_xyz
x,y,z
-x,y,1/2-z
-x,-y,-z
x,-y,1/2+z
1/2+x,1/2+y,z
1/2-x,1/2+y,1/2-z
1/2-x,1/2-y,-z
1/2+x,1/2-y,1/2+z
loop_
_atom_site_type_symbol
_atom_site_label
_atom_site_fract_x
_atom_site_fract_y
_atom_site_fract_z
Si Si1 0.860297 0.950593 0.106251
Si Si2 0.660685 0.832287 0.765649
Si Si3 0.161701 0.085248 0.456940
Si Si4 0.167256 0.284980 0.212907
Si Si5 0.169491 0.601718 0.859871
Si Si6 0.653962 0.881928 0.020229
O O1 0.764280 0.939665 0.248193
O O2 0.777282 0.932555 0.008324
O O3 0.876820 0.022996 0.101130
O O4 0.006877 0.907271 0.070771
O O5 0.500000 0.824734 0.750000
O O6 0.788442 0.862277 0.648319
O O7 0.717380 0.768573 0.799621
O O8 0.637493 0.873666 0.885897
O O9 0.291587 0.085117 0.516741
O O10 0.191733 0.327386 0.321403
O O11 0.200386 0.321827 0.082414
O O12 0.000000 0.259545 0.250000
O O13 0.996659 0.589375 0.887484
#
# Coordination Sequence:
#
# PCOD8144857 Si02
#       6
#     8   8   8   8   8   8
#     4  10  24  42  67  90 128 169 213 260 312 381
#     4  12  25  41  62 101 132 161 211 265 315 374
#     4  11  25  41  62 100 126 165 212 266 317 367
#     4   9  22  42  67  92 123 173 210 256 316 380
#     4  10  21  46  65  91 128 166 214 257 317 380
#     4  10  22  44  67  91 126 169 212 254 314 385
#
# _framework density 21.249399
#
# number of rings (size 3 to 8) (size 9 to 14) (size 15 to 20)
#    0.000    1.667    1.667    2.500    4.667    5.333 
#    3.000    0.000    0.000    0.000    0.000    0.000 
#    0.000    0.000    0.000    0.000    0.000    0.000 
#
# Total GULP energy -297373.792956 kJ/mol
# GULP energy per Si atom -12390.574707 kJ/mol
# Density = 2.120103 g / cm^3
# Si number density = 21.249399 Si / 1000 Ang^3
#
#
#
# Elastic Constant Matrix: (Units=GPa)
#
#
# Indices 1 2 3 4 5 6 
#
# 1 87.9093 31.5077 16.3738 0.0000 3.9054 0.0000
# 2 31.5077 50.4518 14.6468 0.0000 -3.9852 0.0000
# 3 16.3738 14.6468 72.4450 0.0000 11.1055 0.0000
# 4 0.0000 0.0000 0.0000 20.1335 0.0000 0.3838
# 5 3.9054 -3.9852 11.1055 0.0000 29.1450 0.0000
# 6 0.0000 0.0000 0.0000 0.3838 0.0000 36.7843
#
#
#
# Elastic Compliance Matrix: (Units=1/GPa)
#
#
# Indices 1 2 3 4 5 6 
#
# 1 0.015039 -0.009307 -0.001076 0.000000 -0.002878 0.000000
# 2 -0.009307 0.027463 -0.004477 0.000000 0.006708 0.000000
# 3 -0.001076 -0.004477 0.015956 0.000000 -0.006548 0.000000
# 4 0.000000 0.000000 0.000000 0.049678 0.000000 -0.000518
# 5 -0.002878 0.006708 -0.006548 0.000000 0.038109 0.000000
# 6 0.000000 0.000000 0.000000 -0.000518 0.000000 0.027191
#
#
# Mechanical properties :
#
#
# Convention : Reuss Voigt Hill
#
# Bulk Modulus (GPa) = 34.79847 37.31807 36.05827
# Shear Modulus (GPa) = 23.50321 27.09774 25.30047
#
# Velocity S-wave (km/s) = 3.32936 3.57490 3.45431
# Velocity P-wave (km/s) = 5.58492 5.88557 5.73722
#
# Compressibility (1/GPa) = 0.02873689
#
# Stress axis : x y z
#
# Youngs Moduli (GPa) = 66.49171 36.41262 62.67310
#
# Poissons Ratio (x) = 0.33890 0.06746
# Poissons Ratio (y) = 0.61885 0.28060
# Poissons Ratio (z) = 0.07157 0.16303
#
# Static dielectric constant tensor:
#      x y z
#    x 4.038000 0.000000 -0.057140 
#    y 0.000000 3.598310 0.000000 
#    z -0.057140 0.000000 3.934020 
# 
# 
# High freq. dielectric constant tensor:
#      x y z
#    x 1.847990 0.000000 -0.001850 
#    y 0.000000 1.813500 0.000000 
#    z -0.001850 0.000000 1.837970 
# 
# From -- ./inp_files/79133.got.cif
#   From: 2010.06.25/outbox.cif.g09.slc.cpg/sg15_40_cif.got.tgz:79133.got - 2010.06.28 07:06:18.
