data_PCOD8144573
_publ_section_title
;
Structure prediction by ZEFSAII (Michael W. Deem and Ramdas Pophale) SiO2 
 PCOD8144573
Probable space group: C 2/C
;
_chemical_formula_sum "Si O2"
_cell_formula_units_Z 64
_cell_length_a 8.457219
_cell_length_b 14.484044
_cell_length_c 24.628585
_cell_angle_alpha 90.000000
_cell_angle_beta 85.533635
_cell_angle_gamma 90.000000
_cell_volume 3007.710348
_symmetry_space_group_name_H-M "C 2/C"
_symmetry_group_IT_number 15
_symmetry_cell_setting 'monoclinic'
loop_
_space_group_symop_operation_xyz
x,y,z
-x,y,1/2-z
-x,-y,-z
x,-y,1/2+z
1/2+x,1/2+y,z
1/2-x,1/2+y,1/2-z
1/2-x,1/2-y,-z
1/2+x,1/2-y,1/2+z
loop_
_atom_site_type_symbol
_atom_site_label
_atom_site_fract_x
_atom_site_fract_y
_atom_site_fract_z
Si Si1 0.047252 0.225847 0.624119
Si Si2 0.327025 0.572618 0.262638
Si Si3 0.750982 0.052260 0.861443
Si Si4 0.583707 0.604535 0.083428
Si Si5 0.099606 0.411703 0.117708
Si Si6 0.212768 0.761597 0.663298
Si Si7 0.742190 0.901188 0.644087
Si Si8 0.340830 0.328268 0.029237
O O1 0.119497 0.132872 0.647341
O O2 0.179514 0.305189 0.621479
O O3 0.902388 0.258809 0.665923
O O4 0.978208 0.208734 0.565572
O O5 0.500000 0.527490 0.250000
O O6 0.230846 0.502534 0.304499
O O7 0.358835 0.672658 0.289184
O O8 0.238055 0.593955 0.209401
O O9 0.588192 0.098913 0.886349
O O10 0.802716 0.980941 0.906242
O O11 0.662225 0.698506 0.105293
O O12 0.416770 0.583232 0.116198
O O13 0.568897 0.610626 0.018821
O O14 0.146518 0.343334 0.166598
O O15 0.125641 0.518142 0.129803
O O16 0.208076 0.388769 0.063087
O O17 0.250000 0.250000 0.000000
#
# Coordination Sequence:
#
# PCOD8144573 Si02
#       8
#     8   8   8   8   8   8   8   8
#     4  11  25  43  68 103 137 176 229 284 335 408
#     4  11  24  44  72  97 137 184 222 277 355 401
#     4  11  25  44  68 101 141 175 229 283 333 414
#     4  11  21  44  69  95 139 175 222 285 334 403
#     4  11  25  43  68 101 136 178 227 280 336 405
#     4  10  21  43  67  97 137 174 222 280 335 401
#     4  12  25  44  69 102 139 177 229 283 339 412
#     4  11  24  45  73  96 138 184 226 284 352 397
#
# _framework density 21.278644
#
# number of rings (size 3 to 8) (size 9 to 14) (size 15 to 20)
#    0.000    1.000    5.000    3.750    0.000    6.000 
#    0.000    0.000    0.000    0.000    0.000    0.000 
#    0.000    0.000    0.000    0.000    0.000    0.000 
#
# Total GULP energy -396757.990689 kJ/mol
# GULP energy per Si atom -12398.687209 kJ/mol
# Density = 2.123021 g / cm^3
# Si number density = 21.278644 Si / 1000 Ang^3
#
#
#
# Elastic Constant Matrix: (Units=GPa)
#
#
# Indices 1 2 3 4 5 6 
#
# 1 97.7817 25.6777 36.8171 0.0000 8.2853 0.0000
# 2 25.6777 105.0369 39.8234 0.0000 2.9567 0.0000
# 3 36.8171 39.8234 129.7532 0.0000 4.7768 0.0000
# 4 0.0000 0.0000 0.0000 20.7572 0.0000 3.9332
# 5 8.2853 2.9567 4.7768 0.0000 20.9868 0.0000
# 6 0.0000 0.0000 0.0000 3.9332 0.0000 44.0502
#
#
#
# Elastic Compliance Matrix: (Units=1/GPa)
#
#
# Indices 1 2 3 4 5 6 
#
# 1 0.012056 -0.001805 -0.002724 0.000000 -0.003885 0.000000
# 2 -0.001805 0.011057 -0.002874 0.000000 -0.000191 0.000000
# 3 -0.002724 -0.002874 0.009386 0.000000 -0.000656 0.000000
# 4 0.000000 0.000000 0.000000 0.049005 0.000000 -0.004376
# 5 -0.003885 -0.000191 -0.000656 0.000000 0.049359 0.000000
# 6 0.000000 0.000000 0.000000 -0.004376 0.000000 0.023092
#
#
# Mechanical properties :
#
#
# Convention : Reuss Voigt Hill
#
# Bulk Modulus (GPa) = 56.52167 59.68979 58.10573
# Shear Modulus (GPa) = 28.62726 32.50908 30.56817
#
# Velocity S-wave (km/s) = 3.67188 3.91292 3.79432
# Velocity P-wave (km/s) = 6.67812 6.96613 6.82365
#
# Compressibility (1/GPa) = 0.01769233
#
# Stress axis : x y z
#
# Youngs Moduli (GPa) = 82.94885 90.44141 106.54045
#
# Poissons Ratio (x) = 0.16326 0.29018
# Poissons Ratio (y) = 0.14973 0.30623
# Poissons Ratio (z) = 0.22593 0.25996
#
# Static dielectric constant tensor:
#      x y z
#    x 3.888450 0.000000 -0.136160 
#    y 0.000000 3.943730 0.000000 
#    z -0.136160 0.000000 4.254550 
# 
# 
# High freq. dielectric constant tensor:
#      x y z
#    x 1.840010 0.000000 -0.002310 
#    y 0.000000 1.846550 0.000000 
#    z -0.002310 0.000000 1.822670 
# 
# From -- ./inp_files/264733.got.cif
#   From: 2010.06.25/outbox.cif.g09.slc.cpg/sg15_133_cif.got.tgz:264733.got - 2010.06.28 07:06:18.
