data_PCOD8144422
_publ_section_title
;
Structure prediction by ZEFSAII (Michael W. Deem and Ramdas Pophale) SiO2 
 PCOD8144422
Probable space group: C 2/C
;
_chemical_formula_sum "Si O2"
_cell_formula_units_Z 56
_cell_length_a 17.110962
_cell_length_b 17.186618
_cell_length_c 9.581240
_cell_angle_alpha 90.000000
_cell_angle_beta 72.273048
_cell_angle_gamma 90.000000
_cell_volume 2683.860414
_symmetry_space_group_name_H-M "C 2/C"
_symmetry_group_IT_number 15
_symmetry_cell_setting 'monoclinic'
loop_
_space_group_symop_operation_xyz
x,y,z
-x,y,1/2-z
-x,-y,-z
x,-y,1/2+z
1/2+x,1/2+y,z
1/2-x,1/2+y,1/2-z
1/2-x,1/2-y,-z
1/2+x,1/2-y,1/2+z
loop_
_atom_site_type_symbol
_atom_site_label
_atom_site_fract_x
_atom_site_fract_y
_atom_site_fract_z
Si Si1 0.734745 0.780605 0.731356
Si Si2 0.148258 0.055143 0.588004
Si Si3 0.139313 0.909069 0.780887
Si Si4 0.500000 0.336110 0.250000
Si Si5 0.013897 0.423403 0.580715
Si Si6 0.068308 0.268630 0.949256
Si Si7 0.189456 0.650111 0.969539
Si Si8 0.500000 0.305322 0.750000
O O1 0.781143 0.854219 0.770836
O O2 0.664743 0.751374 0.874707
O O3 0.799357 0.711563 0.663516
O O4 0.687228 0.802513 0.614921
O O5 0.135596 0.045835 0.429571
O O6 0.237145 0.088627 0.574722
O O7 0.080214 0.111281 0.690372
O O8 0.142318 0.969428 0.653203
O O9 0.057826 0.858680 0.812706
O O10 0.489774 0.281972 0.120323
O O11 0.104828 0.394116 0.496140
O O12 0.000000 0.443112 0.750000
O O13 0.000000 0.500000 0.500000
O O14 0.948253 0.359312 0.568634
O O15 0.051870 0.248847 0.118716
#
# Coordination Sequence:
#
# PCOD8144422 Si02
#       8
#     8   8   8   4   8   8   8   4
#     4  10  21  43  73  99 133 178 233 288 340 406
#     4  11  25  40  69 100 142 180 226 281 341 417
#     4  11  26  43  64 101 139 179 221 284 345 411
#     4  12  21  44  73 102 128 190 230 274 351 412
#     4  12  27  45  69 102 142 187 231 283 343 414
#     4  12  24  45  72 100 133 183 230 287 344 407
#     4  10  21  42  71 104 130 181 239 280 338 407
#     4  12  27  44  67 102 138 172 230 290 343 414
#
# _framework density 20.865466000000001
#
# number of rings (size 3 to 8) (size 9 to 14) (size 15 to 20)
#    0.000    0.857    5.000    1.286    7.000    1.714 
#    0.000    1.429    0.000    0.000    0.000    0.000 
#    0.000    0.000    0.000    0.000    0.000    0.000 
#
# Total GULP energy -347403.086294 kJ/mol
# GULP energy per Si atom -12407.253082 kJ/mol
# Density = 2.081798 g / cm^3
# Si number density = 20.865466 Si / 1000 Ang^3
#
#
#
# Elastic Constant Matrix: (Units=GPa)
#
#
# Indices 1 2 3 4 5 6 
#
# 1 93.4906 50.8342 50.6580 0.0000 -15.8376 0.0000
# 2 50.8342 125.7256 74.3400 0.0000 0.8934 0.0000
# 3 50.6580 74.3400 144.9218 0.0000 -10.5124 0.0000
# 4 0.0000 0.0000 0.0000 25.6373 0.0000 7.2816
# 5 -15.8376 0.8934 -10.5124 0.0000 36.6123 0.0000
# 6 0.0000 0.0000 0.0000 7.2816 0.0000 34.4644
#
#
#
# Elastic Compliance Matrix: (Units=1/GPa)
#
#
# Indices 1 2 3 4 5 6 
#
# 1 0.015813 -0.004933 -0.002545 0.000000 0.006230 0.000000
# 2 -0.004933 0.013101 -0.005284 0.000000 -0.003971 0.000000
# 3 -0.002545 -0.005284 0.010652 0.000000 0.002086 0.000000
# 4 0.000000 0.000000 0.000000 0.041496 0.000000 -0.008767
# 5 0.006230 -0.003971 0.002086 0.000000 0.030704 0.000000
# 6 0.000000 0.000000 0.000000 -0.008767 0.000000 0.030868
#
#
# Mechanical properties :
#
#
# Convention : Reuss Voigt Hill
#
# Bulk Modulus (GPa) = 71.21773 79.53360 75.37567
# Shear Modulus (GPa) = 28.92881 31.89651 30.41266
#
# Velocity S-wave (km/s) = 3.72754 3.91407 3.82194
# Velocity P-wave (km/s) = 7.26168 7.65681 7.46186
#
# Compressibility (1/GPa) = 0.01404145
#
# Stress axis : x y z
#
# Youngs Moduli (GPa) = 63.23932 76.33031 93.88066
#
# Poissons Ratio (x) = 0.37653 0.23894
# Poissons Ratio (y) = 0.31196 0.49607
# Poissons Ratio (z) = 0.16095 0.40333
#
# Static dielectric constant tensor:
#      x y z
#    x 3.756430 0.000000 -0.100930 
#    y 0.000000 3.768730 0.000000 
#    z -0.100930 0.000000 3.833590 
# 
# 
# High freq. dielectric constant tensor:
#      x y z
#    x 1.822310 0.000000 -0.012430 
#    y 0.000000 1.818410 0.000000 
#    z -0.012430 0.000000 1.819470 
# 
# From -- ./inp_files/49050.got.cif
#   From: 2010.06.25/outbox.cif.g09.slc.cpg/sg15_25_cif.got.tgz:49050.got - 2010.06.28 07:06:18.
