data_PCOD8144255
_publ_section_title
;
Structure prediction by ZEFSAII (Michael W. Deem and Ramdas Pophale) SiO2 
 PCOD8144255
Probable space group: C 2/C
;
_chemical_formula_sum "Si O2"
_cell_formula_units_Z 36
_cell_length_a 15.535924
_cell_length_b 6.525379
_cell_length_c 17.074166
_cell_angle_alpha 90.000000
_cell_angle_beta 71.105674
_cell_angle_gamma 90.000000
_cell_volume 1637.673693
_symmetry_space_group_name_H-M "C 2/C"
_symmetry_group_IT_number 15
_symmetry_cell_setting 'monoclinic'
loop_
_space_group_symop_operation_xyz
x,y,z
-x,y,1/2-z
-x,-y,-z
x,-y,1/2+z
1/2+x,1/2+y,z
1/2-x,1/2+y,1/2-z
1/2-x,1/2-y,-z
1/2+x,1/2-y,1/2+z
loop_
_atom_site_type_symbol
_atom_site_label
_atom_site_fract_x
_atom_site_fract_y
_atom_site_fract_z
Si Si1 0.667675 0.873324 0.424742
Si Si2 0.345710 0.130704 0.398769
Si Si3 0.000000 0.197623 0.750000
Si Si4 0.745836 0.226449 0.647488
Si Si5 0.372766 0.426031 0.695960
O O1 0.617367 0.843506 0.523220
O O2 0.772207 0.803624 0.400225
O O3 0.610295 0.744900 0.376991
O O4 0.676000 0.114124 0.402046
O O5 0.425585 0.153674 0.311496
O O6 0.296294 0.908330 0.410547
O O7 0.037256 0.055067 0.809835
O O8 0.658765 0.324708 0.714291
O O9 0.791497 0.075001 0.695881
#
# Coordination Sequence:
#
# PCOD8144255 Si02
#       5
#     8   8   4   8   8
#     4  10  21  42  66  92 118 175 214 257 299 387
#     4  10  23  39  65  93 129 159 218 256 316 374
#     4  12  24  42  58 100 134 168 196 274 328 360
#     4  11  19  41  66  90 117 175 214 253 301 389
#     4  11  22  37  66  91 128 162 217 253 313 376
#
# _framework density 21.982399999999998
#
# number of rings (size 3 to 8) (size 9 to 14) (size 15 to 20)
#    0.000    1.333    4.444    2.000    0.000    1.778 
#    0.000    1.111    0.000    0.000    0.000    0.000 
#    0.000    0.000    0.000    0.000    0.000    0.000 
#
# Total GULP energy -223174.800773 kJ/mol
# GULP energy per Si atom -12398.600043 kJ/mol
# Density = 2.193237 g / cm^3
# Si number density = 21.982400 Si / 1000 Ang^3
#
#
#
# Elastic Constant Matrix: (Units=GPa)
#
#
# Indices 1 2 3 4 5 6 
#
# 1 51.3176 20.3084 22.7434 -0.0002 4.6757 -0.0008
# 2 20.3084 114.2212 31.8875 -0.0004 3.6879 -0.0017
# 3 22.7434 31.8875 117.0230 -0.0001 4.0730 -0.0005
# 4 -0.0002 -0.0004 -0.0001 24.4864 0.0000 0.3913
# 5 4.6757 3.6879 4.0730 0.0000 29.3276 -0.0003
# 6 -0.0008 -0.0017 -0.0005 0.3913 -0.0003 20.5556
#
#
#
# Elastic Compliance Matrix: (Units=1/GPa)
#
#
# Indices 1 2 3 4 5 6 
#
# 1 0.022431 -0.002933 -0.003466 0.000000 -0.002726 0.000001
# 2 -0.002933 0.009880 -0.002105 0.000000 -0.000482 0.000001
# 3 -0.003466 -0.002105 0.009812 0.000000 -0.000545 0.000000
# 4 0.000000 0.000000 0.000000 0.040851 0.000000 -0.000778
# 5 -0.002726 -0.000482 -0.000545 0.000000 0.034669 0.000000
# 6 0.000001 0.000001 0.000000 -0.000778 0.000000 0.048663
#
#
# Mechanical properties :
#
#
# Convention : Reuss Voigt Hill
#
# Bulk Modulus (GPa) = 39.81630 48.04896 43.93263
# Shear Modulus (GPa) = 26.08444 28.71540 27.39992
#
# Velocity S-wave (km/s) = 3.44845 3.61819 3.53434
# Velocity P-wave (km/s) = 5.83163 6.27379 6.05674
#
# Compressibility (1/GPa) = 0.02511534
#
# Stress axis : x y z
#
# Youngs Moduli (GPa) = 44.58044 101.21748 101.92104
#
# Poissons Ratio (x) = 0.29685 0.35321
# Poissons Ratio (y) = 0.13074 0.21458
# Poissons Ratio (z) = 0.15449 0.21310
#
# Static dielectric constant tensor:
#      x y z
#    x 3.570700 0.000000 0.309580 
#    y 0.000000 4.172200 0.000000 
#    z 0.309580 0.000000 3.892850 
# 
# 
# High freq. dielectric constant tensor:
#      x y z
#    x 1.829180 0.000000 0.019930 
#    y 0.000000 1.878090 0.000000 
#    z 0.019930 0.000000 1.863090 
# 
# From -- ./inp_files/207851.got.cif
#   From: 2010.06.25/outbox.cif.g09.slc.cpg/sg15_104_cif.got.tgz:207851.got - 2010.06.28 07:06:18.
