data_PCOD8144643
_publ_section_title
;
Structure prediction by ZEFSAII (Michael W. Deem and Ramdas Pophale) SiO2 
 PCOD8144643
Probable space group: C 2/C
;
_chemical_formula_sum "Si O2"
_cell_formula_units_Z 48
_cell_length_a 27.012045
_cell_length_b 8.593482
_cell_length_c 11.114339
_cell_angle_alpha 90.000000
_cell_angle_beta 120.221956
_cell_angle_gamma 90.000000
_cell_volume 2229.283097
_symmetry_space_group_name_H-M "C 2/C"
_symmetry_group_IT_number 15
_symmetry_cell_setting 'monoclinic'
loop_
_space_group_symop_operation_xyz
x,y,z
-x,y,1/2-z
-x,-y,-z
x,-y,1/2+z
1/2+x,1/2+y,z
1/2-x,1/2+y,1/2-z
1/2-x,1/2-y,-z
1/2+x,1/2-y,1/2+z
loop_
_atom_site_type_symbol
_atom_site_label
_atom_site_fract_x
_atom_site_fract_y
_atom_site_fract_z
Si Si1 0.186450 0.242653 0.968252
Si Si2 0.131299 0.580646 0.600936
Si Si3 0.897258 0.250743 0.850915
Si Si4 0.316673 0.475856 0.358051
Si Si5 0.491136 0.125192 0.096673
Si Si6 0.776689 0.740030 0.661979
O O1 0.143555 0.275742 0.810379
O O2 0.250000 0.250000 0.000000
O O3 0.177413 0.379040 0.054543
O O4 0.175382 0.071041 0.009412
O O5 0.112996 0.400996 0.576261
O O6 0.164494 0.635028 0.763720
O O7 0.074117 0.683830 0.502085
O O8 0.879114 0.094887 0.899516
O O9 0.962403 0.240883 0.879765
O O10 0.272189 0.333838 0.312991
O O11 0.292472 0.587904 0.224917
O O12 0.500000 0.071299 0.250000
O O13 0.500000 0.000000 0.000000
O O14 0.750000 0.750000 0.500000
#
# Coordination Sequence:
#
# PCOD8144643 Si02
#       6
#     8   8   8   8   8   8
#     4  11  22  38  62  93 132 174 219 275 344 411
#     4  10  22  40  66  99 125 173 229 277 340 408
#     4  11  22  40  67  91 135 171 219 288 339 402
#     4  11  24  39  60  98 128 173 224 271 344 412
#     4  10  21  43  71 105 133 177 232 286 343 409
#     4  11  23  41  61  90 135 170 222 274 340 408
#
# _framework density 21.531586000000001
#
# number of rings (size 3 to 8) (size 9 to 14) (size 15 to 20)
#    0.000    1.333    1.667    5.000    0.000    5.333 
#    3.000    3.333    0.000    0.000    0.000    0.000 
#    0.000    0.000    0.000    0.000    0.000    0.000 
#
# Total GULP energy -297319.293610 kJ/mol
# GULP energy per Si atom -12388.303900 kJ/mol
# Density = 2.148258 g / cm^3
# Si number density = 21.531586 Si / 1000 Ang^3
#
#
#
# Elastic Constant Matrix: (Units=GPa)
#
#
# Indices 1 2 3 4 5 6 
#
# 1 130.9733 48.8813 44.2674 0.0000 -0.5042 0.0000
# 2 48.8813 91.6216 11.0037 0.0000 -11.8177 0.0000
# 3 44.2674 11.0037 94.0579 0.0000 2.9030 0.0000
# 4 0.0000 0.0000 0.0000 29.5787 0.0000 -1.3163
# 5 -0.5042 -11.8177 2.9030 0.0000 33.9122 0.0000
# 6 0.0000 0.0000 0.0000 -1.3163 0.0000 38.7335
#
#
#
# Elastic Compliance Matrix: (Units=1/GPa)
#
#
# Indices 1 2 3 4 5 6 
#
# 1 0.011300 -0.005656 -0.004613 0.000000 -0.001408 0.000000
# 2 -0.005656 0.014464 0.000819 0.000000 0.004886 0.000000
# 3 -0.004613 0.000819 0.012734 0.000000 -0.000873 0.000000
# 4 0.000000 0.000000 0.000000 0.033859 0.000000 0.001151
# 5 -0.001408 0.004886 -0.000873 0.000000 0.031244 0.000000
# 6 0.000000 0.000000 0.000000 0.001151 0.000000 0.025857
#
#
# Mechanical properties :
#
#
# Convention : Reuss Voigt Hill
#
# Bulk Modulus (GPa) = 51.02671 58.32862 54.67766
# Shear Modulus (GPa) = 32.28078 34.61156 33.44617
#
# Velocity S-wave (km/s) = 3.87619 4.01369 3.94554
# Velocity P-wave (km/s) = 6.61688 6.97339 6.79747
#
# Compressibility (1/GPa) = 0.01959758
#
# Stress axis : x y z
#
# Youngs Moduli (GPa) = 88.49670 69.13715 78.53037
#
# Poissons Ratio (x) = 0.39106 0.36226
# Poissons Ratio (y) = 0.50056 -0.06433
# Poissons Ratio (z) = 0.40823 -0.05663
#
# Static dielectric constant tensor:
#      x y z
#    x 4.280890 0.000000 0.205290 
#    y 0.000000 3.507040 0.000000 
#    z 0.205290 0.000000 4.294820 
# 
# 
# High freq. dielectric constant tensor:
#      x y z
#    x 1.854940 0.000000 0.004200 
#    y 0.000000 1.821870 0.000000 
#    z 0.004200 0.000000 1.856190 
# 
# From -- ./inp_files/121625.got.cif
#   From: 2010.06.25/outbox.cif.g09.slc.cpg/sg15_61_cif.got.tgz:121625.got - 2010.06.28 07:06:18.
