data_PCOD8144028
_publ_section_title
;
Structure prediction by ZEFSAII (Michael W. Deem and Ramdas Pophale) SiO2 
 PCOD8144028
Probable space group: C 2/C
;
_chemical_formula_sum "Si O2"
_cell_formula_units_Z 56
_cell_length_a 28.049712
_cell_length_b 15.736118
_cell_length_c 11.790000
_cell_angle_alpha 90.000000
_cell_angle_beta 30.337296
_cell_angle_gamma 90.000000
_cell_volume 2628.501230
_symmetry_space_group_name_H-M "C 2/C"
_symmetry_group_IT_number 15
_symmetry_cell_setting 'monoclinic'
loop_
_space_group_symop_operation_xyz
x,y,z
-x,y,1/2-z
-x,-y,-z
x,-y,1/2+z
1/2+x,1/2+y,z
1/2-x,1/2+y,1/2-z
1/2-x,1/2-y,-z
1/2+x,1/2-y,1/2+z
loop_
_atom_site_type_symbol
_atom_site_label
_atom_site_fract_x
_atom_site_fract_y
_atom_site_fract_z
Si Si1 0.500000 0.065313 0.750000
Si Si2 0.845993 0.304565 0.190291
Si Si3 0.664259 0.469960 0.293744
Si Si4 0.040529 0.150248 0.902359
Si Si5 0.500000 0.565489 0.750000
Si Si6 0.164384 0.135818 0.172834
Si Si7 0.865115 0.422096 0.952701
Si Si8 0.480504 0.156615 0.024135
O O1 0.520976 0.126997 0.602035
O O2 0.408403 0.006494 0.919893
O O3 0.849604 0.202248 0.192606
O O4 0.737143 0.330804 0.430576
O O5 0.883980 0.338936 0.992305
O O6 0.911501 0.345338 0.154027
O O7 0.623468 0.399138 0.293938
O O8 0.586201 0.503917 0.540658
O O9 0.703666 0.547445 0.137881
O O10 0.752833 0.431421 0.177348
O O11 0.062712 0.249497 0.872815
O O12 0.034270 0.124537 0.783082
O O13 0.939911 0.125348 0.168065
O O14 0.914881 0.407711 0.729946
#
# Coordination Sequence:
#
# PCOD8144028 Si02
#       8
#     4   8   8   8   4   8   8   8
#     4  12  26  46  70  98 132 186 228 288 344 406
#     4  10  21  41  69  98 130 179 225 280 334 408
#     4  11  25  40  63 101 136 175 223 281 333 409
#     4  10  24  43  69 100 137 178 228 283 340 407
#     4  10  22  42  72  94 136 188 222 274 340 406
#     4   9  20  40  66  95 132 176 226 264 335 403
#     4  12  26  41  71  97 138 179 227 289 339 409
#     4  11  25  46  68 101 136 174 235 284 347 408
#
# _framework density 21.304917
#
# number of rings (size 3 to 8) (size 9 to 14) (size 15 to 20)
#    0.000    1.429    1.429    3.000   12.000    1.143 
#    7.714    0.000    0.000    0.000    0.000    0.000 
#    0.000    0.000    0.000    0.000    0.000    0.000 
#
# Total GULP energy -347223.677853 kJ/mol
# GULP energy per Si atom -12400.845638 kJ/mol
# Density = 2.125643 g / cm^3
# Si number density = 21.304917 Si / 1000 Ang^3
#
#
#
# Elastic Constant Matrix: (Units=GPa)
#
#
# Indices 1 2 3 4 5 6 
#
# 1 136.1409 66.1688 52.7240 0.0000 -1.6422 0.0000
# 2 66.1688 114.1709 27.3898 0.0000 0.8798 0.0000
# 3 52.7240 27.3898 82.8146 0.0000 -1.1389 0.0000
# 4 0.0000 0.0000 0.0000 31.6631 0.0000 3.6317
# 5 -1.6422 0.8798 -1.1389 0.0000 37.2738 0.0000
# 6 0.0000 0.0000 0.0000 3.6317 0.0000 27.6901
#
#
#
# Elastic Compliance Matrix: (Units=1/GPa)
#
#
# Indices 1 2 3 4 5 6 
#
# 1 0.012512 -0.005807 -0.006038 0.000000 0.000504 0.000000
# 2 -0.005807 0.012212 -0.000350 0.000000 -0.000555 0.000000
# 3 -0.006038 -0.000350 0.016038 0.000000 0.000232 0.000000
# 4 0.000000 0.000000 0.000000 0.032065 0.000000 -0.004205
# 5 0.000504 -0.000555 0.000232 0.000000 0.026871 0.000000
# 6 0.000000 0.000000 0.000000 -0.004205 0.000000 0.036666
#
#
# Mechanical properties :
#
#
# Convention : Reuss Voigt Hill
#
# Bulk Modulus (GPa) = 61.07651 69.52127 65.29889
# Shear Modulus (GPa) = 30.08201 31.78166 30.93184
#
# Velocity S-wave (km/s) = 3.76170 3.86651 3.81447
# Velocity P-wave (km/s) = 6.89908 7.25504 7.07930
#
# Compressibility (1/GPa) = 0.01637291
#
# Stress axis : x y z
#
# Youngs Moduli (GPa) = 79.92151 81.88400 62.35016
#
# Poissons Ratio (x) = 0.47549 0.37650
# Poissons Ratio (y) = 0.46409 0.02181
# Poissons Ratio (z) = 0.48261 0.02864
#
# Static dielectric constant tensor:
#      x y z
#    x 3.670260 0.000000 -0.100630 
#    y 0.000000 3.929880 0.000000 
#    z -0.100630 0.000000 3.844690 
# 
# 
# High freq. dielectric constant tensor:
#      x y z
#    x 1.820120 0.000000 -0.007930 
#    y 0.000000 1.846860 0.000000 
#    z -0.007930 0.000000 1.839440 
# 
# From -- ./inp_files/127009.got.cif
#   From: 2010.06.25/outbox.cif.g09.slc.cpg/sg15_64_cif.got.tgz:127009.got - 2010.06.28 07:06:18.
