data_PCOD8144494
_publ_section_title
;
Structure prediction by ZEFSAII (Michael W. Deem and Ramdas Pophale) SiO2 
 PCOD8144494
Probable space group: C 2/C
;
_chemical_formula_sum "Si O2"
_cell_formula_units_Z 52
_cell_length_a 28.006337
_cell_length_b 14.123560
_cell_length_c 9.017507
_cell_angle_alpha 90.000000
_cell_angle_beta 135.705003
_cell_angle_gamma 90.000000
_cell_volume 2490.931874
_symmetry_space_group_name_H-M "C 2/C"
_symmetry_group_IT_number 15
_symmetry_cell_setting 'monoclinic'
loop_
_space_group_symop_operation_xyz
x,y,z
-x,y,1/2-z
-x,-y,-z
x,-y,1/2+z
1/2+x,1/2+y,z
1/2-x,1/2+y,1/2-z
1/2-x,1/2-y,-z
1/2+x,1/2-y,1/2+z
loop_
_atom_site_type_symbol
_atom_site_label
_atom_site_fract_x
_atom_site_fract_y
_atom_site_fract_z
Si Si1 0.775872 0.591346 0.832449
Si Si2 0.000000 0.217703 0.250000
Si Si3 0.602623 0.129222 0.891097
Si Si4 0.363573 0.997177 0.779323
Si Si5 0.062796 0.947961 0.065292
Si Si6 0.847594 0.954317 0.962251
Si Si7 0.751166 0.211140 0.167753
O O1 0.825264 0.567824 0.805362
O O2 0.703637 0.542047 0.644888
O O3 0.763273 0.703650 0.809639
O O4 0.808081 0.560591 0.060131
O O5 0.947042 0.281290 0.226301
O O6 0.040873 0.154724 0.457994
O O7 0.587169 0.058795 0.718627
O O8 0.682096 0.156968 0.056734
O O9 0.590997 0.075703 0.022636
O O10 0.126525 0.930961 0.315571
O O11 0.086354 0.015798 0.984808
O O12 0.000000 0.000000 0.000000
O O13 0.813377 0.861858 0.816695
O O14 0.750000 0.250000 0.000000
#
# Coordination Sequence:
#
# PCOD8144494 Si02
#       7
#     8   4   8   8   8   8   8
#     4  11  21  39  63 101 138 164 219 283 350 408
#     4  12  28  48  68  98 142 190 240 282 334 430
#     4  11  25  44  70  97 139 179 237 282 346 417
#     4  10  21  43  64  96 132 174 216 292 351 394
#     4  12  26  47  65  98 140 192 227 276 345 424
#     4  12  24  42  73  99 139 182 227 291 352 403
#     4  12  23  37  70 108 132 178 222 293 350 404
#
# _framework density 20.875723000000001
#
# number of rings (size 3 to 8) (size 9 to 14) (size 15 to 20)
#    0.000    0.615    6.154    2.769    4.308    1.231 
#    0.000    0.000    0.000    0.000    0.000    0.000 
#    0.000    0.000    0.000    0.000    0.000    0.000 
#
# Total GULP energy -322547.735509 kJ/mol
# GULP energy per Si atom -12405.682135 kJ/mol
# Density = 2.082821 g / cm^3
# Si number density = 20.875723 Si / 1000 Ang^3
#
#
#
# Elastic Constant Matrix: (Units=GPa)
#
#
# Indices 1 2 3 4 5 6 
#
# 1 78.5784 42.6115 35.1798 0.0000 -4.7779 0.0000
# 2 42.6115 143.6917 44.5086 0.0000 -0.3170 0.0000
# 3 35.1798 44.5086 88.2548 0.0000 -16.3580 0.0000
# 4 0.0000 0.0000 0.0000 44.0272 0.0000 10.0168
# 5 -4.7779 -0.3170 -16.3580 0.0000 31.3448 0.0000
# 6 0.0000 0.0000 0.0000 10.0168 0.0000 40.6023
#
#
#
# Elastic Compliance Matrix: (Units=1/GPa)
#
#
# Indices 1 2 3 4 5 6 
#
# 1 0.016820 -0.003445 -0.004980 0.000000 -0.000070 0.000000
# 2 -0.003445 0.009108 -0.003653 0.000000 -0.002340 0.000000
# 3 -0.004980 -0.003653 0.016618 0.000000 0.007877 0.000000
# 4 0.000000 0.000000 0.000000 0.024064 0.000000 -0.005937
# 5 -0.000070 -0.002340 0.007877 0.000000 0.035979 0.000000
# 6 0.000000 0.000000 0.000000 -0.005937 0.000000 0.026094
#
#
# Mechanical properties :
#
#
# Convention : Reuss Voigt Hill
#
# Bulk Modulus (GPa) = 54.38310 61.68052 58.03181
# Shear Modulus (GPa) = 31.45248 35.74320 33.59784
#
# Velocity S-wave (km/s) = 3.88577 4.14235 4.01611
# Velocity P-wave (km/s) = 6.79998 7.24496 7.02599
#
# Compressibility (1/GPa) = 0.01838807
#
# Stress axis : x y z
#
# Youngs Moduli (GPa) = 59.45348 109.79886 60.17458
#
# Poissons Ratio (x) = 0.37831 0.29967
# Poissons Ratio (y) = 0.20485 0.21984
# Poissons Ratio (z) = 0.29608 0.40113
#
# Static dielectric constant tensor:
#      x y z
#    x 3.617490 0.000000 -0.143640 
#    y 0.000000 4.013100 0.000000 
#    z -0.143640 0.000000 3.854460 
# 
# 
# High freq. dielectric constant tensor:
#      x y z
#    x 1.819980 0.000000 -0.010220 
#    y 0.000000 1.827700 0.000000 
#    z -0.010220 0.000000 1.817240 
# 
# From -- ./inp_files/70200.got.cif
#   From: 2010.06.25/outbox.cif.g09.slc.cpg/sg15_36_cif.got.tgz:70200.got - 2010.06.28 07:06:18.
