data_PCOD8144182
_publ_section_title
;
Structure prediction by ZEFSAII (Michael W. Deem and Ramdas Pophale) SiO2 
 PCOD8144182
Probable space group: C 2/C
;
_chemical_formula_sum "Si O2"
_cell_formula_units_Z 40
_cell_length_a 8.079192
_cell_length_b 19.202288
_cell_length_c 15.491438
_cell_angle_alpha 90.000000
_cell_angle_beta 50.645142
_cell_angle_gamma 90.000000
_cell_volume 1858.331804
_symmetry_space_group_name_H-M "C 2/C"
_symmetry_group_IT_number 15
_symmetry_cell_setting 'monoclinic'
loop_
_space_group_symop_operation_xyz
x,y,z
-x,y,1/2-z
-x,-y,-z
x,-y,1/2+z
1/2+x,1/2+y,z
1/2-x,1/2+y,1/2-z
1/2-x,1/2-y,-z
1/2+x,1/2-y,1/2+z
loop_
_atom_site_type_symbol
_atom_site_label
_atom_site_fract_x
_atom_site_fract_y
_atom_site_fract_z
Si Si1 0.000000 0.505438 0.750000
Si Si2 0.771479 0.458523 0.484898
Si Si3 0.375792 0.577316 0.208318
Si Si4 0.425156 0.190357 0.183730
Si Si5 0.000000 0.823468 0.250000
Si Si6 0.141455 0.604778 0.972866
O O1 0.850632 0.553309 0.860516
O O2 0.848133 0.462651 0.734100
O O3 0.531900 0.427325 0.573765
O O4 0.758167 0.541091 0.507279
O O5 0.920102 0.418420 0.503086
O O6 0.500000 0.544350 0.250000
O O7 0.311005 0.657111 0.253230
O O8 0.500000 0.156318 0.250000
O O9 0.418028 0.274373 0.197332
O O10 0.589966 0.169252 0.053507
O O11 0.193693 0.871498 0.155117
#
# Coordination Sequence:
#
# PCOD8144182 Si02
#       6
#     4   8   8   8   4   8
#     4  12  23  42  58 110 138 173 226 252 358 414
#     4  11  24  37  69 102 137 168 216 296 335 404
#     4  12  21  41  70  94 139 181 217 277 339 404
#     4  10  21  42  64  93 130 185 223 266 327 400
#     4  10  25  38  72  92 136 185 230 276 316 412
#     4  11  21  43  65 103 134 172 230 272 352 396
#
# _framework density 21.524681999999999
#
# number of rings (size 3 to 8) (size 9 to 14) (size 15 to 20)
#    0.600    0.400    5.000    2.400    4.200    0.000 
#    0.000    1.000    2.200    0.000    0.000    0.000 
#    0.000    0.000    0.000    0.000    0.000    0.000 
#
# Total GULP energy -247933.382839 kJ/mol
# GULP energy per Si atom -12396.669142 kJ/mol
# Density = 2.147569 g / cm^3
# Si number density = 21.524682 Si / 1000 Ang^3
#
#
#
# Elastic Constant Matrix: (Units=GPa)
#
#
# Indices 1 2 3 4 5 6 
#
# 1 80.8854 4.7154 15.8035 0.0000 -6.6601 0.0000
# 2 4.7154 62.1741 35.7538 0.0000 -10.7442 0.0000
# 3 15.8035 35.7538 151.6700 0.0000 -22.5956 0.0000
# 4 0.0000 0.0000 0.0000 27.0536 0.0000 -0.8171
# 5 -6.6601 -10.7442 -22.5956 0.0000 42.7466 0.0000
# 6 0.0000 0.0000 0.0000 -0.8171 0.0000 9.4421
#
#
#
# Elastic Compliance Matrix: (Units=1/GPa)
#
#
# Indices 1 2 3 4 5 6 
#
# 1 0.012696 -0.000095 -0.001096 0.000000 0.001375 0.000000
# 2 -0.000095 0.018868 -0.004053 0.000000 0.002585 0.000000
# 3 -0.001096 -0.004053 0.008126 0.000000 0.003106 0.000000
# 4 0.000000 0.000000 0.000000 0.037060 0.000000 0.003207
# 5 0.001375 0.002585 0.003106 0.000000 0.025899 0.000000
# 6 0.000000 0.000000 0.000000 0.003207 0.000000 0.106187
#
#
# Mechanical properties :
#
#
# Convention : Reuss Voigt Hill
#
# Bulk Modulus (GPa) = 34.24352 45.25278 39.74815
# Shear Modulus (GPa) = 21.82853 31.74558 26.78706
#
# Velocity S-wave (km/s) = 3.18797 3.84454 3.53155
# Velocity P-wave (km/s) = 5.43087 6.38566 5.92752
#
# Compressibility (1/GPa) = 0.02920261
#
# Stress axis : x y z
#
# Youngs Moduli (GPa) = 78.76499 52.99839 123.06929
#
# Poissons Ratio (x) = 0.00505 0.13483
# Poissons Ratio (y) = 0.00750 0.49878
# Poissons Ratio (z) = 0.08629 0.21480
#
# Static dielectric constant tensor:
#      x y z
#    x 3.690320 0.000000 -0.079620 
#    y 0.000000 3.532310 0.000000 
#    z -0.079620 0.000000 4.034850 
# 
# 
# High freq. dielectric constant tensor:
#      x y z
#    x 1.829040 0.000000 -0.007800 
#    y 0.000000 1.808820 0.000000 
#    z -0.007800 0.000000 1.868940 
# 
# From -- ./inp_files/135800.got.cif
#   From: 2010.06.25/outbox.cif.g09.slc.cpg/sg15_68_cif.got.tgz:135800.got - 2010.06.28 07:06:18.
