data_PCOD8144122
_publ_section_title
;
Structure prediction by ZEFSAII (Michael W. Deem and Ramdas Pophale) SiO2 
 PCOD8144122
Probable space group: C 2/C
;
_chemical_formula_sum "Si O2"
_cell_formula_units_Z 48
_cell_length_a 15.293678
_cell_length_b 16.485483
_cell_length_c 9.203293
_cell_angle_alpha 90.000000
_cell_angle_beta 100.568401
_cell_angle_gamma 90.000000
_cell_volume 2281.006781
_symmetry_space_group_name_H-M "C 2/C"
_symmetry_group_IT_number 15
_symmetry_cell_setting 'monoclinic'
loop_
_space_group_symop_operation_xyz
x,y,z
-x,y,1/2-z
-x,-y,-z
x,-y,1/2+z
1/2+x,1/2+y,z
1/2-x,1/2+y,1/2-z
1/2-x,1/2-y,-z
1/2+x,1/2-y,1/2+z
loop_
_atom_site_type_symbol
_atom_site_label
_atom_site_fract_x
_atom_site_fract_y
_atom_site_fract_z
Si Si1 0.646357 0.018885 0.048452
Si Si2 0.913980 0.894902 0.316467
Si Si3 0.514699 0.700333 0.088665
Si Si4 0.482988 0.890359 0.410868
Si Si5 0.263667 0.516691 0.347368
Si Si6 0.312281 0.671750 0.523944
O O1 0.723364 0.045667 0.183522
O O2 0.612449 0.925696 0.065296
O O3 0.559444 0.074257 0.039429
O O4 0.689415 0.039056 0.903783
O O5 0.852758 0.836772 0.198054
O O6 0.000000 0.924470 0.250000
O O7 0.942031 0.843991 0.466066
O O8 0.858968 0.973497 0.353424
O O9 0.500000 0.673879 0.250000
O O10 0.509740 0.795465 0.063396
O O11 0.613405 0.675387 0.077061
O O12 0.500000 0.915908 0.250000
O O13 0.263840 0.588840 0.466442
O O14 0.250000 0.750000 0.500000
#
# Coordination Sequence:
#
# PCOD8144122 Si02
#       6
#     8   8   8   8   8   8
#     4  11  23  39  65  97 123 173 212 273 327 389
#     4  10  25  46  64  95 133 172 219 270 326 388
#     4  10  24  42  66  93 127 177 213 265 327 385
#     4  10  21  42  62  93 136 164 215 265 332 393
#     4  12  24  42  67  95 130 168 224 268 321 390
#     4  11  25  44  66  96 133 170 217 272 325 385
#
# _framework density 21.043337000000001
#
# number of rings (size 3 to 8) (size 9 to 14) (size 15 to 20)
#    0.000    1.333    3.333    1.000    4.667    3.333 
#    3.000    1.667    0.000    0.000    0.000    0.000 
#    0.000    0.000    0.000    0.000    0.000    0.000 
#
# Total GULP energy -297549.485430 kJ/mol
# GULP energy per Si atom -12397.895226 kJ/mol
# Density = 2.099544 g / cm^3
# Si number density = 21.043337 Si / 1000 Ang^3
#
#
#
# Elastic Constant Matrix: (Units=GPa)
#
#
# Indices 1 2 3 4 5 6 
#
# 1 103.4428 35.5062 45.2484 0.0000 5.5878 0.0000
# 2 35.5062 76.4362 40.6858 0.0000 8.8748 0.0000
# 3 45.2484 40.6858 119.7617 0.0000 6.5754 0.0000
# 4 0.0000 0.0000 0.0000 29.0221 0.0000 0.1435
# 5 5.5878 8.8748 6.5754 0.0000 40.9303 0.0000
# 6 0.0000 0.0000 0.0000 0.1435 0.0000 33.0828
#
#
#
# Elastic Compliance Matrix: (Units=1/GPa)
#
#
# Indices 1 2 3 4 5 6 
#
# 1 0.012524 -0.003995 -0.003358 0.000000 -0.000304 0.000000
# 2 -0.003995 0.017527 -0.004304 0.000000 -0.002564 0.000000
# 3 -0.003358 -0.004304 0.011102 0.000000 -0.000392 0.000000
# 4 0.000000 0.000000 0.000000 0.034457 0.000000 -0.000149
# 5 -0.000304 -0.002564 -0.000392 0.000000 0.025092 0.000000
# 6 0.000000 0.000000 0.000000 -0.000149 0.000000 0.030228
#
#
# Mechanical properties :
#
#
# Convention : Reuss Voigt Hill
#
# Bulk Modulus (GPa) = 56.05628 60.28018 58.16823
# Shear Modulus (GPa) = 31.21277 32.48707 31.84992
#
# Velocity S-wave (km/s) = 3.85549 3.93341 3.89464
# Velocity P-wave (km/s) = 6.82027 7.02402 6.92289
#
# Compressibility (1/GPa) = 0.01783922
#
# Stress axis : x y z
#
# Youngs Moduli (GPa) = 79.84914 57.05393 90.07076
#
# Poissons Ratio (x) = 0.22792 0.30244
# Poissons Ratio (y) = 0.31898 0.38770
# Poissons Ratio (z) = 0.26812 0.24558
#
# Static dielectric constant tensor:
#      x y z
#    x 3.930050 0.000000 -0.037470 
#    y 0.000000 3.768020 0.000000 
#    z -0.037470 0.000000 3.837970 
# 
# 
# High freq. dielectric constant tensor:
#      x y z
#    x 1.842870 0.000000 -0.002330 
#    y 0.000000 1.807720 0.000000 
#    z -0.002330 0.000000 1.834690 
# 
# From -- ./inp_files/39602.got.cif
#   From: 2010.06.25/outbox.cif.g09.slc.cpg/sg15_20_cif.got.tgz:39602.got - 2010.06.28 07:06:18.
