data_PCOD8144988
_publ_section_title
;
Structure prediction by ZEFSAII (Michael W. Deem and Ramdas Pophale) SiO2 
 PCOD8144988
Probable space group: C 2/C
;
_chemical_formula_sum "Si O2"
_cell_formula_units_Z 64
_cell_length_a 28.127877
_cell_length_b 10.266550
_cell_length_c 22.078758
_cell_angle_alpha 90.000000
_cell_angle_beta 150.375666
_cell_angle_gamma 90.000000
_cell_volume 3151.639148
_symmetry_space_group_name_H-M "C 2/C"
_symmetry_group_IT_number 15
_symmetry_cell_setting 'monoclinic'
loop_
_space_group_symop_operation_xyz
x,y,z
-x,y,1/2-z
-x,-y,-z
x,-y,1/2+z
1/2+x,1/2+y,z
1/2-x,1/2+y,1/2-z
1/2-x,1/2-y,-z
1/2+x,1/2-y,1/2+z
loop_
_atom_site_type_symbol
_atom_site_label
_atom_site_fract_x
_atom_site_fract_y
_atom_site_fract_z
Si Si1 0.861005 0.926887 0.382605
Si Si2 0.651087 0.136663 0.648036
Si Si3 0.322687 0.532333 0.208415
Si Si4 0.135940 0.160522 0.028671
Si Si5 0.528192 0.738132 0.109731
Si Si6 0.998444 0.672492 0.317996
Si Si7 0.796220 0.758988 0.117859
Si Si8 0.111988 0.555829 0.006821
O O1 0.764823 0.841732 0.285472
O O2 0.856152 0.001801 0.313853
O O3 0.956889 0.840260 0.486074
O O4 0.865358 0.015225 0.447806
O O5 0.618888 0.247480 0.566779
O O6 0.591261 0.156340 0.642980
O O7 0.630365 0.992773 0.596805
O O8 0.399816 0.642626 0.272665
O O9 0.323127 0.408028 0.164501
O O10 0.214564 0.590244 0.089856
O O11 0.232757 0.195518 0.100022
O O12 0.046281 0.185953 0.884317
O O13 0.458202 0.820017 0.076525
O O14 0.890986 0.670424 0.224330
O O15 0.000000 0.643845 0.250000
O O16 0.065093 0.563069 0.420002
O O17 0.750000 0.750000 0.000000
#
# Coordination Sequence:
#
# PCOD8144988 Si02
#       8
#     8   8   8   8   8   8   8   8
#     4  11  23  37  58  90 133 164 199 268 322 383
#     4  10  22  36  58  88 130 165 206 253 310 388
#     4  11  22  41  61  91 131 167 208 263 329 376
#     4  11  22  40  60  97 120 161 208 257 320 373
#     4  12  23  36  59  90 126 173 207 251 326 386
#     4  11  22  42  66  90 120 159 213 267 318 369
#     4  12  23  41  70  94 122 163 214 275 320 372
#     4  10  23  39  58  88 124 169 213 258 306 386
#
# _framework density 20.306894
#
# number of rings (size 3 to 8) (size 9 to 14) (size 15 to 20)
#    0.000    1.000    6.250    2.250    7.000    0.000 
#    0.000    0.000    2.750    1.500    0.000    0.000 
#    0.000    0.000    0.000    0.000    0.000    0.000 
#
# Total GULP energy -396661.598141 kJ/mol
# GULP energy per Si atom -12395.674942 kJ/mol
# Density = 2.026067 g / cm^3
# Si number density = 20.306894 Si / 1000 Ang^3
#
#
#
# Elastic Constant Matrix: (Units=GPa)
#
#
# Indices 1 2 3 4 5 6 
#
# 1 61.7699 25.0813 32.5693 0.0000 8.6458 0.0000
# 2 25.0813 72.3703 35.9254 0.0000 2.0535 0.0000
# 3 32.5693 35.9254 116.4708 0.0000 20.5160 0.0000
# 4 0.0000 0.0000 0.0000 37.6680 0.0000 11.3814
# 5 8.6458 2.0535 20.5160 0.0000 36.6824 0.0000
# 6 0.0000 0.0000 0.0000 11.3814 0.0000 26.4633
#
#
#
# Elastic Compliance Matrix: (Units=1/GPa)
#
#
# Indices 1 2 3 4 5 6 
#
# 1 0.020620 -0.005232 -0.003714 0.000000 -0.002490 0.000000
# 2 -0.005232 0.017792 -0.004511 0.000000 0.002760 0.000000
# 3 -0.003714 -0.004511 0.011999 0.000000 -0.005583 0.000000
# 4 0.000000 0.000000 0.000000 0.030513 0.000000 -0.013123
# 5 -0.002490 0.002760 -0.005583 0.000000 0.030816 0.000000
# 6 0.000000 0.000000 0.000000 -0.013123 0.000000 0.043432
#
#
# Mechanical properties :
#
#
# Convention : Reuss Voigt Hill
#
# Bulk Modulus (GPa) = 42.55715 48.64033 45.59874
# Shear Modulus (GPa) = 26.32699 30.63173 28.47936
#
# Velocity S-wave (km/s) = 3.60454 3.88808 3.74899
# Velocity P-wave (km/s) = 6.19081 6.64536 6.42211
#
# Compressibility (1/GPa) = 0.02349782
#
# Stress axis : x y z
#
# Youngs Moduli (GPa) = 48.49605 56.20449 83.33877
#
# Poissons Ratio (x) = 0.29407 0.30949
# Poissons Ratio (y) = 0.25374 0.37595
# Poissons Ratio (z) = 0.18010 0.25354
#
# Static dielectric constant tensor:
#      x y z
#    x 3.563520 0.000000 0.231440 
#    y 0.000000 3.739870 0.000000 
#    z 0.231440 0.000000 3.862670 
# 
# 
# High freq. dielectric constant tensor:
#      x y z
#    x 1.775020 0.000000 0.030680 
#    y 0.000000 1.777060 0.000000 
#    z 0.030680 0.000000 1.806580 
# 
# From -- ./inp_files/257515.got.cif
#   From: 2010.06.25/outbox.cif.g09.slc.cpg/sg15_129_cif.got.tgz:257515.got - 2010.06.28 07:06:18.
