data_PCOD8144038
_publ_section_title
;
Structure prediction by ZEFSAII (Michael W. Deem and Ramdas Pophale) SiO2 
 PCOD8144038
Probable space group: C 2/C
;
_chemical_formula_sum "Si O2"
_cell_formula_units_Z 44
_cell_length_a 12.051590
_cell_length_b 10.818783
_cell_length_c 18.217535
_cell_angle_alpha 90.000000
_cell_angle_beta 57.793605
_cell_angle_gamma 90.000000
_cell_volume 2009.793121
_symmetry_space_group_name_H-M "C 2/C"
_symmetry_group_IT_number 15
_symmetry_cell_setting 'monoclinic'
loop_
_space_group_symop_operation_xyz
x,y,z
-x,y,1/2-z
-x,-y,-z
x,-y,1/2+z
1/2+x,1/2+y,z
1/2-x,1/2+y,1/2-z
1/2-x,1/2-y,-z
1/2+x,1/2-y,1/2+z
loop_
_atom_site_type_symbol
_atom_site_label
_atom_site_fract_x
_atom_site_fract_y
_atom_site_fract_z
Si Si1 0.769768 0.502865 0.672457
Si Si2 0.137504 0.563104 0.704139
Si Si3 0.633150 0.166323 0.112382
Si Si4 0.397584 0.789579 0.037432
Si Si5 0.500000 0.628425 0.750000
Si Si6 0.807830 0.743395 0.061735
O O1 0.819242 0.487755 0.738221
O O2 0.860188 0.613866 0.612855
O O3 0.617885 0.539961 0.732214
O O4 0.783892 0.384572 0.614206
O O5 0.090944 0.457201 0.665575
O O6 0.253027 0.648533 0.632968
O O7 0.000000 0.642054 0.750000
O O8 0.788561 0.182524 0.071775
O O9 0.548218 0.285605 0.166042
O O10 0.601150 0.138130 0.039616
O O11 0.538436 0.730772 0.004247
O O12 0.750000 0.750000 0.000000
#
# Coordination Sequence:
#
# PCOD8144038 Si02
#       6
#     8   8   8   8   4   8
#     4  11  25  41  68  94 134 173 219 269 323 392
#     4  12  25  40  68  96 132 174 219 268 329 386
#     4  10  21  41  70  92 123 168 226 267 309 393
#     4  10  22  42  66  93 127 171 219 262 322 383
#     4  10  22  42  66  96 124 172 222 264 322 382
#     4  12  26  42  65  98 141 171 211 273 339 388
#
# _framework density 21.892800999999999
#
# number of rings (size 3 to 8) (size 9 to 14) (size 15 to 20)
#    0.000    1.091    0.909    4.909    6.364    2.182 
#    0.000    0.000    0.000    0.000    0.000    0.000 
#    0.000    0.000    0.000    0.000    0.000    0.000 
#
# Total GULP energy -272700.923486 kJ/mol
# GULP energy per Si atom -12395.496522 kJ/mol
# Density = 2.184297 g / cm^3
# Si number density = 21.892801 Si / 1000 Ang^3
#
#
#
# Elastic Constant Matrix: (Units=GPa)
#
#
# Indices 1 2 3 4 5 6 
#
# 1 137.6412 46.1470 60.3663 0.0000 -30.6768 0.0000
# 2 46.1470 42.5690 13.4901 0.0000 2.9777 0.0000
# 3 60.3663 13.4901 99.3215 0.0000 -6.2100 0.0000
# 4 0.0000 0.0000 0.0000 19.3265 0.0000 10.8904
# 5 -30.6768 2.9777 -6.2100 0.0000 39.6858 0.0000
# 6 0.0000 0.0000 0.0000 10.8904 0.0000 9.6278
#
#
#
# Elastic Compliance Matrix: (Units=1/GPa)
#
#
# Indices 1 2 3 4 5 6 
#
# 1 0.023940 -0.024058 -0.010112 0.000000 0.018728 0.000000
# 2 -0.024058 0.048950 0.006646 0.000000 -0.021229 0.000000
# 3 -0.010112 0.006646 0.014938 0.000000 -0.005978 0.000000
# 4 0.000000 0.000000 0.000000 0.142698 0.000000 -0.161412
# 5 0.018728 -0.021229 -0.005978 0.000000 0.040332 0.000000
# 6 0.000000 0.000000 0.000000 -0.161412 0.000000 0.286448
#
#
# Mechanical properties :
#
#
# Convention : Reuss Voigt Hill
#
# Bulk Modulus (GPa) = 30.50567 57.72650 44.11609
# Shear Modulus (GPa) = 8.02208 24.36324 16.19266
#
# Velocity S-wave (km/s) = 1.91630 3.33955 2.72257
# Velocity P-wave (km/s) = 4.34288 6.42613 5.48433
#
# Compressibility (1/GPa) = 0.03278079
#
# Stress axis : x y z
#
# Youngs Moduli (GPa) = 41.77096 20.42895 66.94450
#
# Poissons Ratio (x) = 0.49148 0.67694
# Poissons Ratio (y) = 1.00492 -0.44493
# Poissons Ratio (z) = 0.42238 -0.13578
#
# Static dielectric constant tensor:
#      x y z
#    x 4.174470 0.000000 -0.206700 
#    y 0.000000 3.684390 0.000000 
#    z -0.206700 0.000000 4.300580 
# 
# 
# High freq. dielectric constant tensor:
#      x y z
#    x 1.881690 0.000000 -0.008800 
#    y 0.000000 1.840050 0.000000 
#    z -0.008800 0.000000 1.883080 
# 
# From -- ./inp_files/196447.got.cif
#   From: 2010.06.25/outbox.cif.g09.slc.cpg/sg15_99_cif.got.tgz:196447.got - 2010.06.28 07:06:18.
