data_PCOD8144914
_publ_section_title
;
Structure prediction by ZEFSAII (Michael W. Deem and Ramdas Pophale) SiO2 
 PCOD8144914
Probable space group: C 2/C
;
_chemical_formula_sum "Si O2"
_cell_formula_units_Z 56
_cell_length_a 13.463192
_cell_length_b 20.844477
_cell_length_c 16.760632
_cell_angle_alpha 90.000000
_cell_angle_beta 35.788983
_cell_angle_gamma 90.000000
_cell_volume 2750.667316
_symmetry_space_group_name_H-M "C 2/C"
_symmetry_group_IT_number 15
_symmetry_cell_setting 'monoclinic'
loop_
_space_group_symop_operation_xyz
x,y,z
-x,y,1/2-z
-x,-y,-z
x,-y,1/2+z
1/2+x,1/2+y,z
1/2-x,1/2+y,1/2-z
1/2-x,1/2-y,-z
1/2+x,1/2-y,1/2+z
loop_
_atom_site_type_symbol
_atom_site_label
_atom_site_fract_x
_atom_site_fract_y
_atom_site_fract_z
Si Si1 0.813365 0.009202 0.847749
Si Si2 0.846294 0.312408 0.910117
Si Si3 0.022358 0.308698 0.509067
Si Si4 0.248707 0.400423 0.775332
Si Si5 0.713508 0.896303 0.278501
Si Si6 0.493203 0.002761 0.161669
Si Si7 0.944207 0.843228 0.507559
O O1 0.839549 0.942844 0.783215
O O2 0.000000 0.033981 0.750000
O O3 0.724294 0.060756 0.849749
O O4 0.687000 0.999995 0.004542
O O5 0.710190 0.357535 0.953733
O O6 0.000000 0.295344 0.750000
O O7 0.750000 0.250000 0.000000
O O8 0.912192 0.341496 0.950055
O O9 0.136871 0.328513 0.358617
O O10 0.011457 0.232135 0.519113
O O11 0.839061 0.341471 0.620131
O O12 0.117689 0.443672 0.810445
O O13 0.393407 0.369237 0.626636
O O14 0.592219 0.932494 0.294450
O O15 0.895489 0.884699 0.121855
O O16 0.500000 0.021176 0.250000
#
# Coordination Sequence:
#
# PCOD8144914 Si02
#       7
#     8   8   8   8   8   8   8
#     4  11  25  43  66  91 120 163 208 260 308 357
#     4  10  22  34  51  86 126 166 202 235 292 362
#     4  11  21  41  62  87 133 167 201 245 310 368
#     4  11  22  42  65  90 127 163 205 250 311 363
#     4  11  24  42  63  94 125 161 209 251 307 370
#     4  11  25  43  67  89 122 163 206 262 309 354
#     4  11  25  35  63  96 125 167 202 251 302 375
#
# _framework density 20.358695000000001
#
# number of rings (size 3 to 8) (size 9 to 14) (size 15 to 20)
#    0.000    1.143    4.286    1.714   14.000    1.143 
#    0.000    0.000    0.000    5.143    0.000    0.000 
#    0.000    0.000    0.000    0.000    0.000    0.000 
#
# Total GULP energy -347125.842791 kJ/mol
# GULP energy per Si atom -12397.351528 kJ/mol
# Density = 2.031236 g / cm^3
# Si number density = 20.358695 Si / 1000 Ang^3
#
#
#
# Elastic Constant Matrix: (Units=GPa)
#
#
# Indices 1 2 3 4 5 6 
#
# 1 39.0556 5.6908 20.4727 0.0081 2.1603 0.0033
# 2 5.6908 70.4901 22.6867 0.0216 3.4965 -0.0060
# 3 20.4727 22.6867 162.4709 0.0830 0.6507 -0.0455
# 4 0.0081 0.0216 0.0830 33.5090 -0.0107 5.0509
# 5 2.1603 3.4965 0.6507 -0.0107 28.1092 -0.0023
# 6 0.0033 -0.0060 -0.0455 5.0509 -0.0023 13.8477
#
#
#
# Elastic Compliance Matrix: (Units=1/GPa)
#
#
# Indices 1 2 3 4 5 6 
#
# 1 0.027607 -0.001065 -0.003322 0.000005 -0.001912 -0.000020
# 2 -0.001065 0.014987 -0.001952 -0.000005 -0.001737 0.000002
# 3 -0.003322 -0.001952 0.006845 -0.000019 0.000340 0.000030
# 4 0.000005 -0.000005 -0.000019 0.031579 0.000012 -0.011518
# 5 -0.001912 -0.001737 0.000340 0.000012 0.035931 0.000003
# 6 -0.000020 0.000002 0.000030 -0.011518 0.000003 0.076416
#
#
# Mechanical properties :
#
#
# Convention : Reuss Voigt Hill
#
# Bulk Modulus (GPa) = 27.20259 41.07967 34.14113
# Shear Modulus (GPa) = 22.90481 29.97094 26.43788
#
# Velocity S-wave (km/s) = 3.35783 3.84102 3.60752
# Velocity P-wave (km/s) = 5.33142 6.31609 5.84453
#
# Compressibility (1/GPa) = 0.03676121
#
# Stress axis : x y z
#
# Youngs Moduli (GPa) = 36.22269 66.72621 146.09717
#
# Poissons Ratio (x) = 0.07104 0.48539
# Poissons Ratio (y) = 0.03856 0.28512
# Poissons Ratio (z) = 0.12035 0.13022
#
# Static dielectric constant tensor:
#      x y z
#    x 2.942470 0.000250 0.093460 
#    y 0.000250 3.369290 0.000060 
#    z 0.093460 0.000060 3.727460 
# 
# 
# High freq. dielectric constant tensor:
#      x y z
#    x 1.763390 0.000000 0.003950 
#    y 0.000000 1.796930 0.000000 
#    z 0.003950 0.000000 1.815550 
# 
# From -- ./inp_files/41258.got.cif
#   From: 2010.06.25/outbox.cif.g09.slc.cpg/sg15_21_cif.got.tgz:41258.got - 2010.06.28 07:06:18.
