data_PCOD8144809
_publ_section_title
;
Structure prediction by ZEFSAII (Michael W. Deem and Ramdas Pophale) SiO2 
 PCOD8144809
Probable space group: C 2/C
;
_chemical_formula_sum "Si O2"
_cell_formula_units_Z 48
_cell_length_a 9.302470
_cell_length_b 22.826558
_cell_length_c 11.424016
_cell_angle_alpha 90.000000
_cell_angle_beta 107.025185
_cell_angle_gamma 90.000000
_cell_volume 2319.505552
_symmetry_space_group_name_H-M "C 2/C"
_symmetry_group_IT_number 15
_symmetry_cell_setting 'monoclinic'
loop_
_space_group_symop_operation_xyz
x,y,z
-x,y,1/2-z
-x,-y,-z
x,-y,1/2+z
1/2+x,1/2+y,z
1/2-x,1/2+y,1/2-z
1/2-x,1/2-y,-z
1/2+x,1/2-y,1/2+z
loop_
_atom_site_type_symbol
_atom_site_label
_atom_site_fract_x
_atom_site_fract_y
_atom_site_fract_z
Si Si1 0.412697 0.716153 0.847768
Si Si2 0.651045 0.443935 0.360682
Si Si3 0.710085 0.423824 0.942166
Si Si4 0.578675 0.362053 0.557041
Si Si5 0.674865 0.881678 0.289697
Si Si6 0.644732 0.847177 0.711478
O O1 0.500000 0.701157 0.750000
O O2 0.257019 0.680911 0.812603
O O3 0.381697 0.784592 0.855624
O O4 0.517280 0.696351 0.980138
O O5 0.500000 0.438372 0.250000
O O6 0.690305 0.509977 0.399325
O O7 0.633149 0.409885 0.477161
O O8 0.787470 0.416747 0.319451
O O9 0.550452 0.390953 0.893866
O O10 0.829433 0.394129 0.883801
O O11 0.772979 0.421404 0.088792
O O12 0.714586 0.341654 0.669331
O O13 0.500000 0.868337 0.250000
O O14 0.500000 0.867614 0.750000
#
# Coordination Sequence:
#
# PCOD8144809 Si02
#       6
#     8   8   8   8   8   8
#     4  10  21  45  67  94 128 180 225 263 327 403
#     4  12  22  44  71  93 131 178 229 266 323 404
#     4  11  26  42  67 100 132 177 226 268 325 398
#     4  11  22  44  70  95 128 178 227 266 328 394
#     4  11  25  41  67 100 130 174 220 276 336 382
#     4  11  27  41  66 103 137 170 215 282 340 380
#
# _framework density 20.694064000000001
#
# number of rings (size 3 to 8) (size 9 to 14) (size 15 to 20)
#    0.000    1.000    5.000    2.000    4.667    9.333 
#    0.000    0.000    0.000    0.000    0.000    0.000 
#    0.000    0.000    0.000    0.000    0.000    0.000 
#
# Total GULP energy -297762.868742 kJ/mol
# GULP energy per Si atom -12406.786198 kJ/mol
# Density = 2.064696 g / cm^3
# Si number density = 20.694064 Si / 1000 Ang^3
#
#
#
# Elastic Constant Matrix: (Units=GPa)
#
#
# Indices 1 2 3 4 5 6 
#
# 1 123.0569 28.1285 19.5775 0.0000 -3.8039 0.0000
# 2 28.1285 107.4939 20.5387 0.0000 -14.9434 0.0000
# 3 19.5775 20.5387 48.7602 0.0000 -6.8508 0.0000
# 4 0.0000 0.0000 0.0000 65.6075 0.0000 -27.8965
# 5 -3.8039 -14.9434 -6.8508 0.0000 37.4139 0.0000
# 6 0.0000 0.0000 0.0000 -27.8965 0.0000 13.7503
#
#
#
# Elastic Compliance Matrix: (Units=1/GPa)
#
#
# Indices 1 2 3 4 5 6 
#
# 1 0.008997 -0.001853 -0.002882 0.000000 -0.000353 0.000000
# 2 -0.001853 0.010924 -0.003357 0.000000 0.003560 0.000000
# 3 -0.002882 -0.003357 0.023453 0.000000 0.002661 0.000000
# 4 0.000000 0.000000 0.000000 0.110969 0.000000 0.225132
# 5 -0.000353 0.003560 0.002661 0.000000 0.028601 0.000000
# 6 0.000000 0.000000 0.000000 0.225132 0.000000 0.529471
#
#
# Mechanical properties :
#
#
# Convention : Reuss Voigt Hill
#
# Bulk Modulus (GPa) = 36.77640 46.20006 41.48823
# Shear Modulus (GPa) = 6.77816 37.42542 22.10179
#
# Velocity S-wave (km/s) = 1.81177 4.25727 3.27161
# Velocity P-wave (km/s) = 4.71028 6.82199 5.86201
#
# Compressibility (1/GPa) = 0.02719135
#
# Stress axis : x y z
#
# Youngs Moduli (GPa) = 111.14328 91.54087 42.63758
#
# Poissons Ratio (x) = 0.16961 0.12287
# Poissons Ratio (y) = 0.20593 0.14315
# Poissons Ratio (z) = 0.32027 0.30733
#
# Static dielectric constant tensor:
#      x y z
#    x 3.983240 0.000000 -0.188120 
#    y 0.000000 3.718590 0.000000 
#    z -0.188120 0.000000 4.020340 
# 
# 
# High freq. dielectric constant tensor:
#      x y z
#    x 1.820570 0.000000 -0.009410 
#    y 0.000000 1.812230 0.000000 
#    z -0.009410 0.000000 1.815410 
# 
# From -- ./inp_files/79141.got.cif
#   From: 2010.06.25/outbox.cif.g09.slc.cpg/sg15_40_cif.got.tgz:79141.got - 2010.06.28 07:06:18.
