data_PCOD8144438
_publ_section_title
;
Structure prediction by ZEFSAII (Michael W. Deem and Ramdas Pophale) SiO2 
 PCOD8144438
Probable space group: C 2/C
;
_chemical_formula_sum "Si O2"
_cell_formula_units_Z 32
_cell_length_a 14.183546
_cell_length_b 5.233792
_cell_length_c 17.381481
_cell_angle_alpha 90.000000
_cell_angle_beta 101.081133
_cell_angle_gamma 90.000000
_cell_volume 1266.235962
_symmetry_space_group_name_H-M "C 2/C"
_symmetry_group_IT_number 15
_symmetry_cell_setting 'monoclinic'
loop_
_space_group_symop_operation_xyz
x,y,z
-x,y,1/2-z
-x,-y,-z
x,-y,1/2+z
1/2+x,1/2+y,z
1/2-x,1/2+y,1/2-z
1/2-x,1/2-y,-z
1/2+x,1/2-y,1/2+z
loop_
_atom_site_type_symbol
_atom_site_label
_atom_site_fract_x
_atom_site_fract_y
_atom_site_fract_z
Si Si1 0.752288 0.235583 0.590959
Si Si2 0.460825 0.599368 0.658117
Si Si3 0.560811 0.104386 0.646634
Si Si4 0.209955 0.396996 0.282087
O O1 0.750000 0.250000 0.500000
O O2 0.844947 0.077670 0.636868
O O3 0.655449 0.107076 0.607290
O O4 0.765896 0.526072 0.626415
O O5 0.500000 0.608438 0.750000
O O6 0.498643 0.353908 0.617640
O O7 0.498560 0.852430 0.619731
O O8 0.596182 0.126141 0.742986
O O9 0.236299 0.643359 0.233303
#
# Coordination Sequence:
#
# PCOD8144438 Si02
#       4
#     8   8   8   8
#     4  11  27  47  74 111 151 190 236 305 375 421
#     4  12  26  44  77 107 136 192 249 289 357 434
#     4  11  25  46  74 103 144 184 247 297 345 435
#     4  10  21  42  73 100 135 190 239 290 351 426
#
# _framework density 25.271750000000001
#
# number of rings (size 3 to 8) (size 9 to 14) (size 15 to 20)
#    0.000    1.000    2.500    3.750    7.000    4.000 
#    0.000   17.500    0.000    0.000    0.000    0.000 
#    0.000    0.000    0.000    0.000    0.000    0.000 
#
# Total GULP energy -198299.853392 kJ/mol
# GULP energy per Si atom -12393.740837 kJ/mol
# Density = 2.521423 g / cm^3
# Si number density = 25.271750 Si / 1000 Ang^3
#
#
#
# Elastic Constant Matrix: (Units=GPa)
#
#
# Indices 1 2 3 4 5 6 
#
# 1 177.6911 82.5324 30.3989 0.0000 -6.9563 0.0000
# 2 82.5324 176.0744 12.0671 0.0000 -14.0388 0.0000
# 3 30.3989 12.0671 130.8605 0.0000 -7.1246 0.0000
# 4 0.0000 0.0000 0.0000 14.7159 0.0000 6.1664
# 5 -6.9563 -14.0388 -7.1246 0.0000 23.5299 0.0000
# 6 0.0000 0.0000 0.0000 6.1664 0.0000 43.0676
#
#
#
# Elastic Compliance Matrix: (Units=1/GPa)
#
#
# Indices 1 2 3 4 5 6 
#
# 1 0.007448 -0.003414 -0.001430 0.000000 -0.000268 0.000000
# 2 -0.003414 0.007545 0.000292 0.000000 0.003581 0.000000
# 3 -0.001430 0.000292 0.008066 0.000000 0.002194 0.000000
# 4 0.000000 0.000000 0.000000 0.072291 0.000000 -0.010351
# 5 -0.000268 0.003581 0.002194 0.000000 0.045221 0.000000
# 6 0.000000 0.000000 0.000000 -0.010351 0.000000 0.024701
#
#
# Mechanical properties :
#
#
# Convention : Reuss Voigt Hill
#
# Bulk Modulus (GPa) = 71.65574 81.62475 76.64025
# Shear Modulus (GPa) = 27.92859 40.23785 34.08322
#
# Velocity S-wave (km/s) = 3.32796 3.99458 3.67641
# Velocity P-wave (km/s) = 6.57136 7.32424 6.95799
#
# Compressibility (1/GPa) = 0.01395562
#
# Stress axis : x y z
#
# Youngs Moduli (GPa) = 134.26851 132.53175 123.97127
#
# Poissons Ratio (x) = 0.45252 0.17726
# Poissons Ratio (y) = 0.45845 -0.03624
# Poissons Ratio (z) = 0.19199 -0.03875
#
# Static dielectric constant tensor:
#      x y z
#    x 4.945930 0.000000 0.090520 
#    y 0.000000 5.332970 0.000000 
#    z 0.090520 0.000000 4.295860 
# 
# 
# High freq. dielectric constant tensor:
#      x y z
#    x 2.032930 0.000000 0.000450 
#    y 0.000000 2.031130 0.000000 
#    z 0.000450 0.000000 1.956390 
# 
# From -- ./inp_files/241271.got.cif
#   From: 2010.06.25/outbox.cif.g09.slc.cpg/sg15_121_cif.got.tgz:241271.got - 2010.06.28 07:06:18.
