data_PCOD8144918
_publ_section_title
;
Structure prediction by ZEFSAII (Michael W. Deem and Ramdas Pophale) SiO2 
 PCOD8144918
Probable space group: C 2/C
;
_chemical_formula_sum "Si O2"
_cell_formula_units_Z 60
_cell_length_a 21.132656
_cell_length_b 14.220061
_cell_length_c 15.328208
_cell_angle_alpha 90.000000
_cell_angle_beta 40.256101
_cell_angle_gamma 90.000000
_cell_volume 2976.578963
_symmetry_space_group_name_H-M "C 2/C"
_symmetry_group_IT_number 15
_symmetry_cell_setting 'monoclinic'
loop_
_space_group_symop_operation_xyz
x,y,z
-x,y,1/2-z
-x,-y,-z
x,-y,1/2+z
1/2+x,1/2+y,z
1/2-x,1/2+y,1/2-z
1/2-x,1/2-y,-z
1/2+x,1/2-y,1/2+z
loop_
_atom_site_type_symbol
_atom_site_label
_atom_site_fract_x
_atom_site_fract_y
_atom_site_fract_z
Si Si1 0.174524 0.358767 0.603505
Si Si2 0.337189 0.424633 0.542701
Si Si3 0.660490 0.217845 0.935989
Si Si4 0.000000 0.496839 0.750000
Si Si5 0.439560 0.060350 0.993345
Si Si6 0.945868 0.280200 0.614330
Si Si7 0.758950 0.039754 0.779705
Si Si8 0.539678 0.565541 0.883498
O O1 0.274912 0.415830 0.519601
O O2 0.193036 0.287143 0.503967
O O3 0.096314 0.434054 0.653811
O O4 0.139865 0.303415 0.726447
O O5 0.327981 0.325833 0.606543
O O6 0.293127 0.508056 0.647705
O O7 0.454660 0.438365 0.397789
O O8 0.727024 0.149522 0.806854
O O9 0.547915 0.184038 0.048448
O O10 0.005375 0.561579 0.657589
O O11 0.428473 0.165866 0.041522
O O12 0.500000 0.000000 0.000000
O O13 0.331141 0.020365 0.090890
O O14 0.948029 0.170406 0.591675
O O15 0.849719 0.030000 0.754114
O O16 0.500000 0.500000 0.000000
#
# Coordination Sequence:
#
# PCOD8144918 Si02
#       8
#     8   8   8   4   8   8   8   8
#     4  12  18  34  54  87 124 145 189 247 299 361
#     4  10  22  34  54  80 117 159 197 234 298 358
#     4  11  21  34  54  90 118 151 190 249 296 356
#     4  12  22  34  56  92 130 146 192 252 306 354
#     4  12  20  36  58  92 118 154 186 244 305 355
#     4  11  20  36  61  88 117 152 197 238 306 362
#     4  11  19  36  55  79 115 150 197 235 285 347
#     4   9  22  39  55  84 112 158 205 242 279 356
#
# _framework density 20.157368999999999
#
# number of rings (size 3 to 8) (size 9 to 14) (size 15 to 20)
#    0.000    1.067    6.667    1.200    0.000    0.000 
#    0.000    0.667    0.000    0.000   31.200   14.000 
#    0.000    0.000    0.000    0.000    0.000    0.000 
#
# Total GULP energy -371761.028848 kJ/mol
# GULP energy per Si atom -12392.034295 kJ/mol
# Density = 2.011149 g / cm^3
# Si number density = 20.157369 Si / 1000 Ang^3
#
#
#
# Elastic Constant Matrix: (Units=GPa)
#
#
# Indices 1 2 3 4 5 6 
#
# 1 137.0815 31.1980 43.4815 0.0000 -30.2377 0.0000
# 2 31.1980 81.5747 31.5917 0.0000 12.7919 0.0000
# 3 43.4815 31.5917 78.0850 0.0000 3.2215 0.0000
# 4 0.0000 0.0000 0.0000 27.0361 0.0000 0.8913
# 5 -30.2377 12.7919 3.2215 0.0000 47.1900 0.0000
# 6 0.0000 0.0000 0.0000 0.8913 0.0000 25.4402
#
#
#
# Elastic Compliance Matrix: (Units=1/GPa)
#
#
# Indices 1 2 3 4 5 6 
#
# 1 0.011889 -0.003860 -0.005432 0.000000 0.009036 0.000000
# 2 -0.003860 0.016408 -0.004215 0.000000 -0.006634 0.000000
# 3 -0.005432 -0.004215 0.017683 0.000000 -0.003545 0.000000
# 4 0.000000 0.000000 0.000000 0.037030 0.000000 -0.001297
# 5 0.009036 -0.006634 -0.003545 0.000000 0.029021 0.000000
# 6 0.000000 0.000000 0.000000 -0.001297 0.000000 0.039353
#
#
# Mechanical properties :
#
#
# Convention : Reuss Voigt Hill
#
# Bulk Modulus (GPa) = 52.72595 56.58707 54.65651
# Shear Modulus (GPa) = 27.06803 32.63129 29.84966
#
# Velocity S-wave (km/s) = 3.66845 4.02783 3.85233
# Velocity P-wave (km/s) = 6.64509 7.05442 6.85281
#
# Compressibility (1/GPa) = 0.01896599
#
# Stress axis : x y z
#
# Youngs Moduli (GPa) = 84.10811 60.94715 56.55285
#
# Poissons Ratio (x) = 0.23529 0.30717
# Poissons Ratio (y) = 0.32470 0.23836
# Poissons Ratio (z) = 0.45683 0.25688
#
# Static dielectric constant tensor:
#      x y z
#    x 4.292110 0.000000 -0.562790 
#    y 0.000000 3.658340 0.000000 
#    z -0.562790 0.000000 3.696960 
# 
# 
# High freq. dielectric constant tensor:
#      x y z
#    x 1.803240 0.000000 -0.043150 
#    y 0.000000 1.773330 0.000000 
#    z -0.043150 0.000000 1.767120 
# 
# From -- ./inp_files/168262.got.cif
#   From: 2010.06.25/outbox.cif.g09.slc.cpg/sg15_85_cif.got.tgz:168262.got - 2010.06.28 07:06:18.
