data_PCOD8144683
_publ_section_title
;
Structure prediction by ZEFSAII (Michael W. Deem and Ramdas Pophale) SiO2 
 PCOD8144683
Probable space group: C 2/C
;
_chemical_formula_sum "Si O2"
_cell_formula_units_Z 52
_cell_length_a 17.311150
_cell_length_b 8.834301
_cell_length_c 18.400220
_cell_angle_alpha 90.000000
_cell_angle_beta 70.138638
_cell_angle_gamma 90.000000
_cell_volume 2646.598036
_symmetry_space_group_name_H-M "C 2/C"
_symmetry_group_IT_number 15
_symmetry_cell_setting 'monoclinic'
loop_
_space_group_symop_operation_xyz
x,y,z
-x,y,1/2-z
-x,-y,-z
x,-y,1/2+z
1/2+x,1/2+y,z
1/2-x,1/2+y,1/2-z
1/2-x,1/2-y,-z
1/2+x,1/2-y,1/2+z
loop_
_atom_site_type_symbol
_atom_site_label
_atom_site_fract_x
_atom_site_fract_y
_atom_site_fract_z
Si Si1 0.210966 0.372033 0.460266
Si Si2 0.182641 0.174569 0.704436
Si Si3 0.500000 0.434329 0.250000
Si Si4 0.744767 0.507682 0.825490
Si Si5 0.051786 0.090808 0.089848
Si Si6 0.100735 0.121258 0.457501
Si Si7 0.181908 0.657549 0.562681
O O1 0.250000 0.250000 0.500000
O O2 0.279996 0.413188 0.377893
O O3 0.133711 0.292193 0.446605
O O4 0.171877 0.507914 0.517692
O O5 0.083134 0.164385 0.734286
O O6 0.205409 0.351469 0.700383
O O7 0.227540 0.091202 0.756058
O O8 0.507510 0.539738 0.177291
O O9 0.656440 0.483297 0.889108
O O10 0.796642 0.617920 0.861155
O O11 0.100354 0.243296 0.091694
O O12 0.989434 0.133350 0.045804
O O13 0.104800 0.953139 0.037572
O O14 0.250000 0.750000 0.500000
#
# Coordination Sequence:
#
# PCOD8144683 Si02
#       7
#     8   8   4   8   8   8   8
#     4  11  21  42  69  92 126 170 218 267 315 381
#     4  11  25  42  67  94 132 172 211 272 322 387
#     4  12  24  42  66  94 130 176 208 262 342 372
#     4  11  24  43  66  97 129 168 223 261 321 385
#     4  11  24  38  69  93 131 168 213 266 320 390
#     4  10  21  44  62  95 129 167 213 266 322 381
#     4  12  23  40  68  98 122 170 223 264 313 389
#
# _framework density 19.647864999999999
#
# number of rings (size 3 to 8) (size 9 to 14) (size 15 to 20)
#    0.000    0.923    6.154    1.846    4.308    0.615 
#    0.000    3.846    0.000    0.000    0.000    0.000 
#    0.000    0.000    0.000    0.000    0.000    0.000 
#
# Total GULP energy -322341.430261 kJ/mol
# GULP energy per Si atom -12397.747318 kJ/mol
# Density = 1.960315 g / cm^3
# Si number density = 19.647865 Si / 1000 Ang^3
#
#
#
# Elastic Constant Matrix: (Units=GPa)
#
#
# Indices 1 2 3 4 5 6 
#
# 1 113.1389 54.3045 49.0495 0.0000 3.5070 0.0000
# 2 54.3045 87.1788 43.5384 0.0000 1.8699 0.0000
# 3 49.0495 43.5384 141.5285 0.0000 7.1066 0.0000
# 4 0.0000 0.0000 0.0000 40.4316 0.0000 0.5395
# 5 3.5070 1.8699 7.1066 0.0000 35.3349 0.0000
# 6 0.0000 0.0000 0.0000 0.5395 0.0000 34.6926
#
#
#
# Elastic Compliance Matrix: (Units=1/GPa)
#
#
# Indices 1 2 3 4 5 6 
#
# 1 0.013288 -0.007064 -0.002409 0.000000 -0.000461 0.000000
# 2 -0.007064 0.017309 -0.002895 0.000000 0.000367 0.000000
# 3 -0.002409 -0.002895 0.008861 0.000000 -0.001390 0.000000
# 4 0.000000 0.000000 0.000000 0.024738 0.000000 -0.000385
# 5 -0.000461 0.000367 -0.001390 0.000000 0.028606 0.000000
# 6 0.000000 0.000000 0.000000 -0.000385 0.000000 0.028831
#
#
# Mechanical properties :
#
#
# Convention : Reuss Voigt Hill
#
# Bulk Modulus (GPa) = 67.92725 70.62568 69.27646
# Shear Modulus (GPa) = 33.05198 35.08873 34.07036
#
# Velocity S-wave (km/s) = 4.10593 4.23055 4.16871
# Velocity P-wave (km/s) = 7.55815 7.73868 7.64895
#
# Compressibility (1/GPa) = 0.01472163
#
# Stress axis : x y z
#
# Youngs Moduli (GPa) = 75.25555 57.77337 112.85499
#
# Poissons Ratio (x) = 0.40813 0.27186
# Poissons Ratio (y) = 0.53163 0.32671
# Poissons Ratio (z) = 0.18128 0.16725
#
# Static dielectric constant tensor:
#      x y z
#    x 4.269110 -0.000060 0.125370 
#    y -0.000060 -6.981010 -0.000010 
#    z 0.125370 -0.000010 3.894630 
# 
# 
# High freq. dielectric constant tensor:
#      x y z
#    x 1.772590 0.000000 0.008180 
#    y 0.000000 1.761140 0.000000 
#    z 0.008180 0.000000 1.780630 
# 
# From -- ./inp_files/209023.got.cif
#   From: 2010.06.25/outbox.cif.g09.slc.cpg/sg15_105_cif.got.tgz:209023.got - 2010.06.28 07:06:18.
