data_PCOD8144066
_publ_section_title
;
Structure prediction by ZEFSAII (Michael W. Deem and Ramdas Pophale) SiO2 
 PCOD8144066
Probable space group: C 2/C
;
_chemical_formula_sum "Si O2"
_cell_formula_units_Z 60
_cell_length_a 8.422795
_cell_length_b 21.626848
_cell_length_c 24.008235
_cell_angle_alpha 90.000000
_cell_angle_beta 141.416444
_cell_angle_gamma 90.000000
_cell_volume 2727.434255
_symmetry_space_group_name_H-M "C 2/C"
_symmetry_group_IT_number 15
_symmetry_cell_setting 'monoclinic'
loop_
_space_group_symop_operation_xyz
x,y,z
-x,y,1/2-z
-x,-y,-z
x,-y,1/2+z
1/2+x,1/2+y,z
1/2-x,1/2+y,1/2-z
1/2-x,1/2-y,-z
1/2+x,1/2-y,1/2+z
loop_
_atom_site_type_symbol
_atom_site_label
_atom_site_fract_x
_atom_site_fract_y
_atom_site_fract_z
Si Si1 0.528623 0.639159 0.410766
Si Si2 0.508384 0.716315 0.864540
Si Si3 0.373439 0.922146 0.853225
Si Si4 0.551585 0.428637 0.505724
Si Si5 0.423141 0.196749 0.441053
Si Si6 0.500000 0.203539 0.250000
Si Si7 0.519796 0.530077 0.334760
Si Si8 0.294618 0.409569 0.320027
O O1 0.565556 0.625813 0.486960
O O2 0.722289 0.690423 0.437666
O O3 0.581503 0.567752 0.407300
O O4 0.245309 0.660568 0.319701
O O5 0.392897 0.745536 0.890173
O O6 0.489091 0.758024 0.804379
O O7 0.340072 0.656196 0.803301
O O8 0.800680 0.697490 0.955132
O O9 0.364363 0.860313 0.885901
O O10 0.173872 0.921827 0.748223
O O11 0.278616 0.977461 0.868987
O O12 0.647950 0.929406 0.903280
O O13 0.500000 0.500000 0.500000
O O14 0.463565 0.407973 0.421373
O O15 0.396362 0.463460 0.308262
O O16 0.000000 0.422319 0.250000
#
# Coordination Sequence:
#
# PCOD8144066 Si02
#       8
#     8   8   8   8   8   4   8   8
#     4  11  24  41  73 105 133 176 243 295 349 417
#     4  11  26  47  68  98 143 189 236 293 361 422
#     4  10  21  41  71  97 136 181 234 287 346 416
#     4  12  23  41  68 102 138 179 229 289 356 426
#     4  10  23  46  73  98 135 189 244 292 346 420
#     4  12  28  42  72 106 138 180 242 298 346 424
#     4  10  22  41  67 104 134 178 227 291 355 423
#     4  12  27  43  66  99 146 186 225 293 371 432
#
# _framework density 21.998698000000001
#
# number of rings (size 3 to 8) (size 9 to 14) (size 15 to 20)
#    0.000    1.067    2.667    3.200    4.667    5.333 
#    0.000    0.000    0.000    0.000    0.000    0.000 
#    0.000    0.000    0.000    0.000    0.000    0.000 
#
# Total GULP energy -371662.620689 kJ/mol
# GULP energy per Si atom -12388.754023 kJ/mol
# Density = 2.194863 g / cm^3
# Si number density = 21.998698 Si / 1000 Ang^3
#
#
#
# Elastic Constant Matrix: (Units=GPa)
#
#
# Indices 1 2 3 4 5 6 
#
# 1 125.4410 49.3126 23.6918 0.0008 7.0965 0.0028
# 2 49.3126 97.6230 13.8693 -0.0002 0.4904 0.0005
# 3 23.6918 13.8693 63.3496 0.0023 -10.0159 0.0081
# 4 0.0008 -0.0002 0.0023 47.9094 0.0013 -11.7396
# 5 7.0965 0.4904 -10.0159 0.0013 32.8550 0.0040
# 6 0.0028 0.0005 0.0081 -11.7396 0.0040 40.1777
#
#
#
# Elastic Compliance Matrix: (Units=1/GPa)
#
#
# Indices 1 2 3 4 5 6 
#
# 1 0.010747 -0.004920 -0.003465 0.000000 -0.003304 0.000000
# 2 -0.004920 0.012850 -0.000878 0.000000 0.000603 0.000000
# 3 -0.003465 -0.000878 0.018275 -0.000002 0.006332 -0.000005
# 4 0.000000 0.000000 -0.000002 0.022482 -0.000002 0.006569
# 5 -0.003304 0.000603 0.006332 -0.000002 0.033072 -0.000005
# 6 0.000000 0.000000 -0.000005 0.006569 -0.000005 0.026809
#
#
# Mechanical properties :
#
#
# Convention : Reuss Voigt Hill
#
# Bulk Modulus (GPa) = 42.83182 51.12899 46.98041
# Shear Modulus (GPa) = 33.21312 37.49109 35.35210
#
# Velocity S-wave (km/s) = 3.88980 4.13272 4.01310
# Velocity P-wave (km/s) = 6.29972 6.78711 6.54795
#
# Compressibility (1/GPa) = 0.02334713
#
# Stress axis : x y z
#
# Youngs Moduli (GPa) = 93.04704 77.81836 54.72098
#
# Poissons Ratio (x) = 0.38287 0.18958
# Poissons Ratio (y) = 0.45779 0.04804
# Poissons Ratio (z) = 0.32237 0.06832
#
# Static dielectric constant tensor:
#      x y z
#    x 7.759060 0.000230 3.343590 
#    y 0.000230 4.128740 0.000240 
#    z 3.343590 0.000240 7.484810 
# 
# 
# High freq. dielectric constant tensor:
#      x y z
#    x 1.881640 0.000000 -0.004430 
#    y 0.000000 1.865050 0.000000 
#    z -0.004430 0.000000 1.863400 
# 
# From -- ./inp_files/266242.got.cif
#   From: 2010.06.25/outbox.cif.g09.slc.cpg/sg15_134_cif.got.tgz:266242.got - 2010.06.28 07:06:18.
