data_PCOD8144222
_publ_section_title
;
Structure prediction by ZEFSAII (Michael W. Deem and Ramdas Pophale) SiO2 
 PCOD8144222
Probable space group: C 2/C
;
_chemical_formula_sum "Si O2"
_cell_formula_units_Z 52
_cell_length_a 10.942482
_cell_length_b 14.714842
_cell_length_c 19.281494
_cell_angle_alpha 90.000000
_cell_angle_beta 134.624572
_cell_angle_gamma 90.000000
_cell_volume 2209.653912
_symmetry_space_group_name_H-M "C 2/C"
_symmetry_group_IT_number 15
_symmetry_cell_setting 'monoclinic'
loop_
_space_group_symop_operation_xyz
x,y,z
-x,y,1/2-z
-x,-y,-z
x,-y,1/2+z
1/2+x,1/2+y,z
1/2-x,1/2+y,1/2-z
1/2-x,1/2-y,-z
1/2+x,1/2-y,1/2+z
loop_
_atom_site_type_symbol
_atom_site_label
_atom_site_fract_x
_atom_site_fract_y
_atom_site_fract_z
Si Si1 0.182440 0.736453 0.549241
Si Si2 0.168503 0.563209 0.935871
Si Si3 0.092610 0.759695 0.856934
Si Si4 0.043941 0.892750 0.583907
Si Si5 0.000000 0.722356 0.250000
Si Si6 0.117231 0.607110 0.062068
Si Si7 0.625588 0.060998 0.216126
O O1 0.250000 0.750000 0.500000
O O2 0.088095 0.829732 0.535643
O O3 0.341594 0.715420 0.664152
O O4 0.074316 0.644901 0.508037
O O5 0.133692 0.670583 0.917806
O O6 0.035914 0.507789 0.834230
O O7 0.371748 0.546952 0.998911
O O8 0.132973 0.537415 0.003005
O O9 0.268769 0.804612 0.904829
O O10 0.000000 0.729484 0.750000
O O11 0.981434 0.828673 0.858819
O O12 0.205499 0.958994 0.668706
O O13 0.054360 0.660458 0.206104
O O14 0.176947 0.556103 0.155756
#
# Coordination Sequence:
#
# PCOD8144222 Si02
#       7
#     8   8   8   8   4   8   8
#     4  11  20  39  65  91 123 170 221 270 321 383
#     4  11  23  39  64  98 130 165 219 276 333 396
#     4  11  20  37  67  97 124 164 224 272 322 392
#     4  10  21  42  65  95 129 171 223 273 328 401
#     4  10  24  38  60  86 128 168 214 254 324 398
#     4  11  20  40  64  93 123 167 219 272 326 394
#     4  11  23  40  61  95 134 173 207 268 347 394
#
# _framework density 23.533096
#
# number of rings (size 3 to 8) (size 9 to 14) (size 15 to 20)
#    0.000    1.231    6.154    1.385    1.077    0.000 
#    0.000    6.154    0.000    0.000    0.000    0.000 
#    0.000    0.000    0.000    0.000    0.000    0.000 
#
# Total GULP energy -322355.990082 kJ/mol
# GULP energy per Si atom -12398.307311 kJ/mol
# Density = 2.347953 g / cm^3
# Si number density = 23.533096 Si / 1000 Ang^3
#
#
#
# Elastic Constant Matrix: (Units=GPa)
#
#
# Indices 1 2 3 4 5 6 
#
# 1 121.6354 9.0219 46.9204 0.0000 10.9873 0.0000
# 2 9.0219 48.2996 39.1297 0.0000 16.5264 0.0000
# 3 46.9204 39.1297 138.4633 0.0000 29.3392 0.0000
# 4 0.0000 0.0000 0.0000 42.9225 0.0000 11.3638
# 5 10.9873 16.5264 29.3392 0.0000 43.3700 0.0000
# 6 0.0000 0.0000 0.0000 11.3638 0.0000 -5.6308
#
#
#
# Elastic Compliance Matrix: (Units=1/GPa)
#
#
# Indices 1 2 3 4 5 6 
#
# 1 0.009511 0.001200 -0.003449 0.000000 -0.000534 0.000000
# 2 0.001200 0.028387 -0.007089 0.000000 -0.006326 0.000000
# 3 -0.003449 -0.007089 0.011249 0.000000 -0.004035 0.000000
# 4 0.000000 0.000000 0.000000 0.015185 0.000000 0.030645
# 5 -0.000534 -0.006326 -0.004035 0.000000 0.028333 0.000000
# 6 0.000000 0.000000 0.000000 0.030645 0.000000 -0.115749
#
#
# Mechanical properties :
#
#
# Convention : Reuss Voigt Hill
#
# Bulk Modulus (GPa) = 32.81645 55.39359 44.10502
# Shear Modulus (GPa) = 869.92511 30.35408 450.13960
#
# Velocity S-wave (km/s) = 19.24741 3.59534 13.84538
# Velocity P-wave (km/s) = 22.53720 6.38944 16.56428
#
# Compressibility (1/GPa) = 0.03047252
#
# Stress axis : x y z
#
# Youngs Moduli (GPa) = 105.14225 35.22724 88.89631
#
# Poissons Ratio (x) = -0.04228 0.30661
# Poissons Ratio (y) = -0.12620 0.63014
# Poissons Ratio (z) = 0.36264 0.24971
#
# Static dielectric constant tensor:
#      x y z
#    x 4.509020 0.000000 0.100710 
#    y 0.000000 3.713460 0.000000 
#    z 0.100710 0.000000 4.781650 
# 
# 
# High freq. dielectric constant tensor:
#      x y z
#    x 1.950520 0.000000 0.000020 
#    y 0.000000 1.888540 0.000000 
#    z 0.000020 0.000000 1.948400 
# 
# From -- ./inp_files/239866.got.cif
#   From: 2010.06.25/outbox.cif.g09.slc.cpg/sg15_120_cif.got.tgz:239866.got - 2010.06.28 07:06:18.
