data_PCOD8144539
_publ_section_title
;
Structure prediction by ZEFSAII (Michael W. Deem and Ramdas Pophale) SiO2 
 PCOD8144539
Probable space group: C 2/C
;
_chemical_formula_sum "Si O2"
_cell_formula_units_Z 48
_cell_length_a 21.763477
_cell_length_b 10.461565
_cell_length_c 10.758878
_cell_angle_alpha 90.000000
_cell_angle_beta 51.578715
_cell_angle_gamma 90.000000
_cell_volume 1919.155739
_symmetry_space_group_name_H-M "C 2/C"
_symmetry_group_IT_number 15
_symmetry_cell_setting 'monoclinic'
loop_
_space_group_symop_operation_xyz
x,y,z
-x,y,1/2-z
-x,-y,-z
x,-y,1/2+z
1/2+x,1/2+y,z
1/2-x,1/2+y,1/2-z
1/2-x,1/2-y,-z
1/2+x,1/2-y,1/2+z
loop_
_atom_site_type_symbol
_atom_site_label
_atom_site_fract_x
_atom_site_fract_y
_atom_site_fract_z
Si Si1 0.376492 0.928511 0.086847
Si Si2 0.628329 0.477972 0.584529
Si Si3 0.000000 0.823064 0.250000
Si Si4 0.566169 0.769719 0.286883
Si Si5 0.500000 0.000327 0.250000
Si Si6 0.585414 0.206013 0.372402
Si Si7 0.295214 0.582063 0.762288
O O1 0.392289 0.057470 0.145451
O O2 0.374554 0.799161 0.173643
O O3 0.298287 0.923179 0.102627
O O4 0.454766 0.909437 0.905418
O O5 0.564527 0.578947 0.613594
O O6 0.591021 0.339749 0.660712
O O7 0.667746 0.510403 0.666956
O O8 0.689189 0.476816 0.394203
O O9 0.047812 0.734653 0.285753
O O10 0.567771 0.906290 0.215318
O O11 0.477011 0.744307 0.446490
O O12 0.668272 0.276843 0.285737
#
# Coordination Sequence:
#
# PCOD8144539 Si02
#       7
#     8   8   4   8   4   8   8
#     4  11  26  42  69 104 142 188 234 297 360 426
#     4  11  23  44  73 106 144 186 243 291 363 424
#     4  10  21  43  72 104 138 193 237 300 348 422
#     4  11  23  41  75 100 132 186 239 301 344 428
#     4  10  21  43  66  98 136 183 239 290 352 426
#     4  10  22  45  70 105 144 185 243 289 357 424
#     4  11  26  44  69 107 149 190 231 298 359 430
#
# _framework density 25.010997
#
# number of rings (size 3 to 8) (size 9 to 14) (size 15 to 20)
#    0.000    1.333    0.000    6.500    4.667    6.000 
#    0.000    1.667    0.000    0.000    0.000    0.000 
#    0.000    0.000    0.000    0.000    0.000    0.000 
#
# Total GULP energy -297313.341372 kJ/mol
# GULP energy per Si atom -12388.055890 kJ/mol
# Density = 2.495407 g / cm^3
# Si number density = 25.010997 Si / 1000 Ang^3
#
#
#
# Elastic Constant Matrix: (Units=GPa)
#
#
# Indices 1 2 3 4 5 6 
#
# 1 143.7226 49.1999 37.6459 0.0000 -6.0113 0.0000
# 2 49.1999 86.8179 35.0635 0.0000 -6.9430 0.0000
# 3 37.6459 35.0635 76.9163 0.0000 8.0299 0.0000
# 4 0.0000 0.0000 0.0000 15.9216 0.0000 -5.8986
# 5 -6.0113 -6.9430 8.0299 0.0000 46.5948 0.0000
# 6 0.0000 0.0000 0.0000 -5.8986 0.0000 34.0203
#
#
#
# Elastic Compliance Matrix: (Units=1/GPa)
#
#
# Indices 1 2 3 4 5 6 
#
# 1 0.009074 -0.003946 -0.002753 0.000000 0.001057 0.000000
# 2 -0.003946 0.016341 -0.005824 0.000000 0.002930 0.000000
# 3 -0.002753 -0.005824 0.017445 0.000000 -0.004229 0.000000
# 4 0.000000 0.000000 0.000000 0.067119 0.000000 0.011638
# 5 0.001057 0.002930 -0.004229 0.000000 0.022763 0.000000
# 6 0.000000 0.000000 0.000000 0.011638 0.000000 0.031412
#
#
# Mechanical properties :
#
#
# Convention : Reuss Voigt Hill
#
# Bulk Modulus (GPa) = 56.13306 61.25281 58.69294
# Shear Modulus (GPa) = 25.62303 31.67720 28.65011
#
# Velocity S-wave (km/s) = 3.20421 3.56270 3.38820
# Velocity P-wave (km/s) = 6.01509 6.43951 6.23091
#
# Compressibility (1/GPa) = 0.01781481
#
# Stress axis : x y z
#
# Youngs Moduli (GPa) = 110.20665 61.19631 57.32374
#
# Poissons Ratio (x) = 0.24148 0.15779
# Poissons Ratio (y) = 0.43487 0.33384
# Poissons Ratio (z) = 0.30336 0.35639
#
# Static dielectric constant tensor:
#      x y z
#    x 4.712710 0.000000 0.283270 
#    y 0.000000 4.650730 0.000000 
#    z 0.283270 0.000000 4.502370 
# 
# 
# High freq. dielectric constant tensor:
#      x y z
#    x 2.014300 0.000000 0.017430 
#    y 0.000000 2.008900 0.000000 
#    z 0.017430 0.000000 1.983260 
# 
# From -- ./inp_files/111483.got.cif
#   From: 2010.06.25/outbox.cif.g09.slc.cpg/sg15_56_cif.got.tgz:111483.got - 2010.06.28 07:06:18.
