data_PCOD8144657
_publ_section_title
;
Structure prediction by ZEFSAII (Michael W. Deem and Ramdas Pophale) SiO2 
 PCOD8144657
Probable space group: C 2/C
;
_chemical_formula_sum "Si O2"
_cell_formula_units_Z 36
_cell_length_a 6.776393
_cell_length_b 19.407408
_cell_length_c 12.369382
_cell_angle_alpha 90.000000
_cell_angle_beta 115.560715
_cell_angle_gamma 90.000000
_cell_volume 1467.515046
_symmetry_space_group_name_H-M "C 2/C"
_symmetry_group_IT_number 15
_symmetry_cell_setting 'monoclinic'
loop_
_space_group_symop_operation_xyz
x,y,z
-x,y,1/2-z
-x,-y,-z
x,-y,1/2+z
1/2+x,1/2+y,z
1/2-x,1/2+y,1/2-z
1/2-x,1/2-y,-z
1/2+x,1/2-y,1/2+z
loop_
_atom_site_type_symbol
_atom_site_label
_atom_site_fract_x
_atom_site_fract_y
_atom_site_fract_z
Si Si1 0.121275 0.573232 0.031156
Si Si2 0.000000 0.967897 0.750000
Si Si3 0.745721 0.932830 0.329838
Si Si4 0.044699 0.279940 0.014637
Si Si5 0.204533 0.218770 0.725980
O O1 0.290604 0.578240 0.170462
O O2 0.274791 0.581007 0.962947
O O3 0.000000 0.500000 0.000000
O O4 0.952909 0.636824 0.998268
O O5 0.069470 0.014164 0.664250
O O6 0.500000 0.961442 0.250000
O O7 0.782920 0.862971 0.274021
O O8 0.075790 0.260363 0.151503
O O9 0.250000 0.250000 0.000000
O O10 0.824673 0.249709 0.903806
O O11 0.000000 0.242637 0.750000
#
# Coordination Sequence:
#
# PCOD8144657 Si02
#       5
#     8   4   8   8   8
#     4  12  26  47  74 112 151 199 255 310 390 460
#     4  12  26  48  74 110 150 198 258 324 372 456
#     4  12  23  46  76 100 148 201 245 307 385 455
#     4  10  23  44  72 107 145 195 246 311 373 453
#     4  10  21  43  71  99 142 192 244 304 378 445
#
# _framework density 24.531265999999999
#
# number of rings (size 3 to 8) (size 9 to 14) (size 15 to 20)
#    0.000    0.889    5.556    0.667    3.111    2.667 
#   14.000    0.000    0.000    0.000    0.000    0.000 
#    0.000    0.000    0.000    0.000    0.000    0.000 
#
# Total GULP energy -223016.185390 kJ/mol
# GULP energy per Si atom -12389.788077 kJ/mol
# Density = 2.447543 g / cm^3
# Si number density = 24.531266 Si / 1000 Ang^3
#
#
#
# Elastic Constant Matrix: (Units=GPa)
#
#
# Indices 1 2 3 4 5 6 
#
# 1 44.6358 33.5062 25.2169 0.0000 10.5869 0.0000
# 2 33.5062 99.9684 57.3094 0.0000 9.7475 0.0000
# 3 25.2169 57.3094 235.6882 0.0000 8.0139 0.0000
# 4 0.0000 0.0000 0.0000 35.6796 0.0000 5.9354
# 5 10.5869 9.7475 8.0139 0.0000 39.2195 0.0000
# 6 0.0000 0.0000 0.0000 5.9354 0.0000 27.7803
#
#
#
# Elastic Compliance Matrix: (Units=1/GPa)
#
#
# Indices 1 2 3 4 5 6 
#
# 1 0.031393 -0.009450 -0.000859 0.000000 -0.005950 0.000000
# 2 -0.009450 0.014683 -0.002539 0.000000 -0.000579 0.000000
# 3 -0.000859 -0.002539 0.004957 0.000000 -0.000150 0.000000
# 4 0.000000 0.000000 0.000000 0.029060 0.000000 -0.006209
# 5 -0.005950 -0.000579 -0.000150 0.000000 0.027278 0.000000
# 6 0.000000 0.000000 0.000000 -0.006209 0.000000 0.037323
#
#
# Mechanical properties :
#
#
# Convention : Reuss Voigt Hill
#
# Bulk Modulus (GPa) = 39.46673 68.03970 53.75322
# Shear Modulus (GPa) = 27.95845 38.15319 33.05582
#
# Velocity S-wave (km/s) = 3.37962 3.94799 3.67481
# Velocity P-wave (km/s) = 5.59932 6.96981 6.32181
#
# Compressibility (1/GPa) = 0.02533780
#
# Stress axis : x y z
#
# Youngs Moduli (GPa) = 31.85386 68.10764 201.71978
#
# Poissons Ratio (x) = 0.64358 0.17324
# Poissons Ratio (y) = 0.30100 0.51226
# Poissons Ratio (z) = 0.02736 0.17296
#
# Static dielectric constant tensor:
#      x y z
#    x 4.364650 0.000000 0.046030 
#    y 0.000000 4.198560 0.000000 
#    z 0.046030 0.000000 5.633230 
# 
# 
# High freq. dielectric constant tensor:
#      x y z
#    x 1.968360 0.000000 0.001380 
#    y 0.000000 1.950320 0.000000 
#    z 0.001380 0.000000 2.005340 
# 
# From -- ./inp_files/134657.got.cif
#   From: 2010.06.25/outbox.cif.g09.slc.cpg/sg15_68_cif.got.tgz:134657.got - 2010.06.28 07:06:18.
