data_PCOD8144279
_publ_section_title
;
Structure prediction by ZEFSAII (Michael W. Deem and Ramdas Pophale) SiO2 
 PCOD8144279
Probable space group: C 2/C
;
_chemical_formula_sum "Si O2"
_cell_formula_units_Z 56
_cell_length_a 9.004957
_cell_length_b 28.516520
_cell_length_c 16.154656
_cell_angle_alpha 90.000000
_cell_angle_beta 143.230888
_cell_angle_gamma 90.000000
_cell_volume 2483.171271
_symmetry_space_group_name_H-M "C 2/C"
_symmetry_group_IT_number 15
_symmetry_cell_setting 'monoclinic'
loop_
_space_group_symop_operation_xyz
x,y,z
-x,y,1/2-z
-x,-y,-z
x,-y,1/2+z
1/2+x,1/2+y,z
1/2-x,1/2+y,1/2-z
1/2-x,1/2-y,-z
1/2+x,1/2-y,1/2+z
loop_
_atom_site_type_symbol
_atom_site_label
_atom_site_fract_x
_atom_site_fract_y
_atom_site_fract_z
Si Si1 0.042504 0.310870 0.172442
Si Si2 0.782883 0.743574 0.892074
Si Si3 0.500000 0.453178 0.750000
Si Si4 0.959423 0.078851 0.519659
Si Si5 0.593162 0.675738 0.935976
Si Si6 0.206661 0.597458 0.980728
Si Si7 0.792975 0.471744 0.292060
Si Si8 0.000000 0.470761 0.750000
O O1 0.055006 0.264863 0.118895
O O2 0.314342 0.333505 0.280299
O O3 0.000000 0.298013 0.250000
O O4 0.841070 0.346634 0.043961
O O5 0.500000 0.759668 0.750000
O O6 0.774111 0.696299 0.945371
O O7 0.923091 0.786208 0.997934
O O8 0.418377 0.418303 0.639825
O O9 0.277321 0.489113 0.671847
O O10 0.820924 0.125123 0.493440
O O11 0.753949 0.057841 0.367299
O O12 0.204194 0.087142 0.573491
O O13 0.043867 0.044554 0.631931
O O14 0.946284 0.573307 0.892363
O O15 0.999115 0.496936 0.329308
#
# Coordination Sequence:
#
# PCOD8144279 Si02
#       8
#     8   8   4   8   8   8   8   4
#     4  11  21  41  71  97 130 177 219 268 333 405
#     4   9  22  41  67  99 139 167 220 277 334 402
#     4  12  28  40  62 102 142 172 226 284 350 382
#     4  12  23  42  71  95 131 176 230 274 334 405
#     4  10  21  42  66  98 129 177 216 274 333 395
#     4  12  23  45  64  96 138 175 223 289 332 401
#     4  12  23  44  68  94 128 181 224 282 329 400
#     4  12  24  38  66  92 128 172 226 270 334 390
#
# _framework density 22.551808000000001
#
# number of rings (size 3 to 8) (size 9 to 14) (size 15 to 20)
#    0.000    0.857    5.714    1.714    1.000    2.857 
#    0.000    0.000    0.000    0.000    0.000    0.000 
#    0.000    0.000    0.000    0.000    0.000    0.000 
#
# Total GULP energy -347016.812995 kJ/mol
# GULP energy per Si atom -12393.457607 kJ/mol
# Density = 2.250048 g / cm^3
# Si number density = 22.551808 Si / 1000 Ang^3
#
#
#
# Elastic Constant Matrix: (Units=GPa)
#
#
# Indices 1 2 3 4 5 6 
#
# 1 92.0280 31.9007 0.7221 0.0000 -11.2699 0.0000
# 2 31.9007 87.3053 23.8145 0.0000 -8.7778 0.0000
# 3 0.7221 23.8145 69.3603 0.0000 -3.0007 0.0000
# 4 0.0000 0.0000 0.0000 33.6689 0.0000 0.0428
# 5 -11.2699 -8.7778 -3.0007 0.0000 34.1294 0.0000
# 6 0.0000 0.0000 0.0000 0.0428 0.0000 27.9738
#
#
#
# Elastic Compliance Matrix: (Units=1/GPa)
#
#
# Indices 1 2 3 4 5 6 
#
# 1 0.012926 -0.004861 0.001671 0.000000 0.003165 0.000000
# 2 -0.004861 0.014754 -0.004939 0.000000 0.001755 0.000000
# 3 0.001671 -0.004939 0.016126 0.000000 0.000699 0.000000
# 4 0.000000 0.000000 0.000000 0.029701 0.000000 -0.000045
# 5 0.003165 0.001755 0.000699 0.000000 0.030858 0.000000
# 6 0.000000 0.000000 0.000000 -0.000045 0.000000 0.035748
#
#
# Mechanical properties :
#
#
# Convention : Reuss Voigt Hill
#
# Bulk Modulus (GPa) = 36.29945 40.17426 38.23685
# Shear Modulus (GPa) = 30.20190 31.97151 31.08671
#
# Velocity S-wave (km/s) = 3.66351 3.76931 3.71679
# Velocity P-wave (km/s) = 5.83318 6.06601 5.95074
#
# Compressibility (1/GPa) = 0.02754863
#
# Stress axis : x y z
#
# Youngs Moduli (GPa) = 77.36585 67.77914 62.01118
#
# Poissons Ratio (x) = 0.32944 -0.10363
# Poissons Ratio (y) = 0.37604 0.30628
# Poissons Ratio (z) = -0.12929 0.33477
#
# Static dielectric constant tensor:
#      x y z
#    x 3.840430 0.000000 -0.201130 
#    y 0.000000 3.994930 0.000000 
#    z -0.201130 0.000000 3.806730 
# 
# 
# High freq. dielectric constant tensor:
#      x y z
#    x 1.886630 0.000000 -0.002900 
#    y 0.000000 1.881150 0.000000 
#    z -0.002900 0.000000 1.878670 
# 
# From -- ./inp_files/81314.got.cif
#   From: 2010.06.25/outbox.cif.g09.slc.cpg/sg15_41_cif.got.tgz:81314.got - 2010.06.28 07:06:18.
