data_PCOD8144068
_publ_section_title
;
Structure prediction by ZEFSAII (Michael W. Deem and Ramdas Pophale) SiO2 
 PCOD8144068
Probable space group: C 2/C
;
_chemical_formula_sum "Si O2"
_cell_formula_units_Z 64
_cell_length_a 7.920372
_cell_length_b 26.196057
_cell_length_c 13.689872
_cell_angle_alpha 90.000000
_cell_angle_beta 102.030678
_cell_angle_gamma 90.000000
_cell_volume 2778.022738
_symmetry_space_group_name_H-M "C 2/C"
_symmetry_group_IT_number 15
_symmetry_cell_setting 'monoclinic'
loop_
_space_group_symop_operation_xyz
x,y,z
-x,y,1/2-z
-x,-y,-z
x,-y,1/2+z
1/2+x,1/2+y,z
1/2-x,1/2+y,1/2-z
1/2-x,1/2-y,-z
1/2+x,1/2-y,1/2+z
loop_
_atom_site_type_symbol
_atom_site_label
_atom_site_fract_x
_atom_site_fract_y
_atom_site_fract_z
Si Si1 0.878092 0.798326 0.459088
Si Si2 0.658588 0.240341 0.589809
Si Si3 0.807399 0.037871 0.575347
Si Si4 0.785346 0.127176 0.096582
Si Si5 0.310162 0.273832 0.712701
Si Si6 0.630509 0.351056 0.354502
Si Si7 0.358550 0.041133 0.316110
Si Si8 0.084429 0.045611 0.120962
O O1 0.543438 0.740735 0.447082
O O2 0.743758 0.837640 0.495620
O O3 0.804372 0.763154 0.366471
O O4 0.031966 0.833729 0.440112
O O5 0.750000 0.250000 0.500000
O O6 0.759790 0.273958 0.683775
O O7 0.690127 0.181511 0.628310
O O8 0.779080 0.046226 0.454577
O O9 0.816718 0.090404 0.634464
O O10 0.652814 0.006554 0.610283
O O11 0.988640 0.008724 0.608552
O O12 0.822652 0.167256 0.186265
O O13 0.623789 0.091792 0.112595
O O14 0.950345 0.091926 0.093345
O O15 0.500000 0.248471 0.750000
O O16 0.500000 0.341066 0.250000
O O17 0.500000 0.033195 0.250000
O O18 0.179310 0.049403 0.236347
#
# Coordination Sequence:
#
# PCOD8144068 Si02
#       8
#     8   8   8   8   8   8   8   8
#     4  11  23  41  65  99 136 177 230 275 329 401
#     4  10  24  39  60  95 136 173 222 273 331 386
#     4  10  21  41  73  96 128 173 226 274 332 405
#     4  11  22  42  70  97 129 177 230 273 331 397
#     4  12  23  41  65  93 135 183 222 277 330 393
#     4  11  20  40  67  97 132 177 222 277 334 400
#     4  11  25  44  64 104 135 167 215 282 344 406
#     4  10  21  41  72 100 121 171 232 276 325 409
#
# _framework density 23.037969
#
# number of rings (size 3 to 8) (size 9 to 14) (size 15 to 20)
#    0.000    1.250    3.750    3.375    0.000    0.500 
#    6.750    0.625    0.000    0.000    0.000    0.000 
#    0.000    0.000    0.000    0.000    0.000    0.000 
#
# Total GULP energy -396427.806004 kJ/mol
# GULP energy per Si atom -12388.368938 kJ/mol
# Density = 2.298553 g / cm^3
# Si number density = 23.037969 Si / 1000 Ang^3
#
#
#
# Elastic Constant Matrix: (Units=GPa)
#
#
# Indices 1 2 3 4 5 6 
#
# 1 44.0363 37.0744 14.7949 0.0000 -20.4776 0.0000
# 2 37.0744 164.6312 59.7979 0.0000 -11.3143 0.0000
# 3 14.7949 59.7979 136.0586 0.0000 -8.2452 0.0000
# 4 0.0000 0.0000 0.0000 37.3234 0.0000 -11.2060
# 5 -20.4776 -11.3143 -8.2452 0.0000 46.0035 0.0000
# 6 0.0000 0.0000 0.0000 -11.2060 0.0000 21.2423
#
#
#
# Elastic Compliance Matrix: (Units=1/GPa)
#
#
# Indices 1 2 3 4 5 6 
#
# 1 0.034992 -0.006961 0.000095 0.000000 0.013881 0.000000
# 2 -0.006961 0.008681 -0.003151 0.000000 -0.001528 0.000000
# 3 0.000095 -0.003151 0.008775 0.000000 0.000840 0.000000
# 4 0.000000 0.000000 0.000000 0.031835 0.000000 0.016794
# 5 0.013881 -0.001528 0.000840 0.000000 0.027691 0.000000
# 6 0.000000 0.000000 0.000000 0.016794 0.000000 0.055935
#
#
# Mechanical properties :
#
#
# Convention : Reuss Voigt Hill
#
# Bulk Modulus (GPa) = 30.84952 63.11783 46.98368
# Shear Modulus (GPa) = 25.15753 36.45109 30.80431
#
# Velocity S-wave (km/s) = 3.30813 3.98203 3.66062
# Velocity P-wave (km/s) = 5.29258 6.97129 6.18911
#
# Compressibility (1/GPa) = 0.03241541
#
# Stress axis : x y z
#
# Youngs Moduli (GPa) = 28.57826 115.19063 113.95698
#
# Poissons Ratio (x) = 0.80181 -0.01088
# Poissons Ratio (y) = 0.19893 0.35909
# Poissons Ratio (z) = -0.00273 0.36298
#
# Static dielectric constant tensor:
#      x y z
#    x 4.222040 0.000000 -0.214940 
#    y 0.000000 4.272370 0.000000 
#    z -0.214940 0.000000 4.717010 
# 
# 
# High freq. dielectric constant tensor:
#      x y z
#    x 1.872230 0.000000 -0.022400 
#    y 0.000000 1.914470 0.000000 
#    z -0.022400 0.000000 1.939430 
# 
# From -- ./inp_files/137876.got.cif
#   From: 2010.06.25/outbox.cif.g09.slc.cpg/sg15_69_cif.got.tgz:137876.got - 2010.06.28 07:06:18.
