data_PCOD8144312
_publ_section_title
;
Structure prediction by ZEFSAII (Michael W. Deem and Ramdas Pophale) SiO2 
 PCOD8144312
Probable space group: C 2/C
;
_chemical_formula_sum "Si O2"
_cell_formula_units_Z 44
_cell_length_a 21.451636
_cell_length_b 14.240707
_cell_length_c 16.524122
_cell_angle_alpha 90.000000
_cell_angle_beta 158.070777
_cell_angle_gamma 90.000000
_cell_volume 1885.191958
_symmetry_space_group_name_H-M "C 2/C"
_symmetry_group_IT_number 15
_symmetry_cell_setting 'monoclinic'
loop_
_space_group_symop_operation_xyz
x,y,z
-x,y,1/2-z
-x,-y,-z
x,-y,1/2+z
1/2+x,1/2+y,z
1/2-x,1/2+y,1/2-z
1/2-x,1/2-y,-z
1/2+x,1/2-y,1/2+z
loop_
_atom_site_type_symbol
_atom_site_label
_atom_site_fract_x
_atom_site_fract_y
_atom_site_fract_z
Si Si1 0.121002 0.329285 0.822313
Si Si2 0.563453 0.776819 0.487770
Si Si3 0.351872 0.155900 0.873914
Si Si4 0.653300 0.961746 0.544874
Si Si5 0.219728 0.474054 0.449097
Si Si6 0.500000 0.333731 0.750000
O O1 0.000000 0.361938 0.750000
O O2 0.994502 0.295512 0.600688
O O3 0.250000 0.250000 0.000000
O O4 0.231030 0.419408 0.927765
O O5 0.408705 0.822226 0.350683
O O6 0.668332 0.699999 0.665542
O O7 0.701505 0.860393 0.640116
O O8 0.489626 0.731661 0.316647
O O9 0.336349 0.045147 0.876689
O O10 0.764422 0.980874 0.599129
O O11 0.465482 0.938782 0.290301
O O12 0.342222 0.402773 0.551918
#
# Coordination Sequence:
#
# PCOD8144312 Si02
#       6
#     8   8   8   8   8   4
#     4  11  22  43  70  98 134 178 223 273 345 409
#     4  12  25  43  67  98 138 181 231 284 334 412
#     4  11  24  43  65 103 133 176 229 279 349 404
#     4  10  21  44  68  91 134 182 224 277 349 406
#     4  10  21  42  67  97 132 178 228 278 335 412
#     4  12  26  42  66 104 136 178 236 280 344 394
#
# _framework density 23.339797999999998
#
# number of rings (size 3 to 8) (size 9 to 14) (size 15 to 20)
#    0.000    1.091    3.636    4.909    1.273    3.636 
#    3.273    1.818    0.000    0.000    0.000    0.000 
#    0.000    0.000    0.000    0.000    0.000    0.000 
#
# Total GULP energy -272675.377130 kJ/mol
# GULP energy per Si atom -12394.335324 kJ/mol
# Density = 2.328668 g / cm^3
# Si number density = 23.339798 Si / 1000 Ang^3
#
#
#
# Elastic Constant Matrix: (Units=GPa)
#
#
# Indices 1 2 3 4 5 6 
#
# 1 94.8865 23.3798 5.4758 0.0023 -6.9469 0.0031
# 2 23.3798 125.6239 33.1205 -0.0004 -6.6493 -0.0002
# 3 5.4758 33.1205 58.3374 0.0008 -12.1414 0.0034
# 4 0.0023 -0.0004 0.0008 26.7653 0.0022 -1.3950
# 5 -6.9469 -6.6493 -12.1414 0.0022 27.0788 0.0036
# 6 0.0031 -0.0002 0.0034 -1.3950 0.0036 41.2749
#
#
#
# Elastic Compliance Matrix: (Units=1/GPa)
#
#
# Indices 1 2 3 4 5 6 
#
# 1 0.011220 -0.002135 0.000716 -0.000001 0.002675 -0.000001
# 2 -0.002135 0.009768 -0.005471 0.000001 -0.000602 0.000001
# 3 0.000716 -0.005471 0.021991 -0.000002 0.008701 -0.000003
# 4 -0.000001 0.000001 -0.000002 0.037428 -0.000004 0.001265
# 5 0.002675 -0.000602 0.008701 -0.000004 0.041369 -0.000005
# 6 -0.000001 0.000001 -0.000003 0.001265 -0.000005 0.024271
#
#
# Mechanical properties :
#
#
# Convention : Reuss Voigt Hill
#
# Bulk Modulus (GPa) = 34.24795 44.75557 39.50176
# Shear Modulus (GPa) = 29.48829 33.48190 31.48510
#
# Velocity S-wave (km/s) = 3.55834 3.79164 3.67684
# Velocity P-wave (km/s) = 5.62031 6.19564 5.91497
#
# Compressibility (1/GPa) = 0.02919882
#
# Stress axis : x y z
#
# Youngs Moduli (GPa) = 89.13023 102.37400 45.47279
#
# Poissons Ratio (x) = 0.21859 -0.03255
# Poissons Ratio (y) = 0.19031 0.24877
# Poissons Ratio (z) = -0.06380 0.56005
#
# Static dielectric constant tensor:
#      x y z
#    x 4.254230 0.000000 -0.165600 
#    y 0.000000 4.460860 0.000000 
#    z -0.165600 0.000000 3.866190 
# 
# 
# High freq. dielectric constant tensor:
#      x y z
#    x 1.914880 0.000000 -0.014710 
#    y 0.000000 1.942320 0.000000 
#    z -0.014710 0.000000 1.901820 
# 
# From -- ./inp_files/219788.got.cif
#   From: 2010.06.25/outbox.cif.g09.slc.cpg/sg15_110_cif.got.tgz:219788.got - 2010.06.28 07:06:18.
