data_PCOD8144025
_publ_section_title
;
Structure prediction by ZEFSAII (Michael W. Deem and Ramdas Pophale) SiO2 
 PCOD8144025
Probable space group: C 2/C
;
_chemical_formula_sum "Si O2"
_cell_formula_units_Z 64
_cell_length_a 18.591332
_cell_length_b 28.517495
_cell_length_c 9.615519
_cell_angle_alpha 90.000000
_cell_angle_beta 38.506368
_cell_angle_gamma 90.000000
_cell_volume 3173.984876
_symmetry_space_group_name_H-M "C 2/C"
_symmetry_group_IT_number 15
_symmetry_cell_setting 'monoclinic'
loop_
_space_group_symop_operation_xyz
x,y,z
-x,y,1/2-z
-x,-y,-z
x,-y,1/2+z
1/2+x,1/2+y,z
1/2-x,1/2+y,1/2-z
1/2-x,1/2-y,-z
1/2+x,1/2-y,1/2+z
loop_
_atom_site_type_symbol
_atom_site_label
_atom_site_fract_x
_atom_site_fract_y
_atom_site_fract_z
Si Si1 0.746497 0.464633 0.005508
Si Si2 0.483388 0.327688 0.937249
Si Si3 0.759425 0.949485 0.801279
Si Si4 0.487723 0.416476 0.110675
Si Si5 0.289707 0.721773 0.307146
Si Si6 0.884075 0.357928 0.512044
Si Si7 0.252444 0.715913 0.867262
Si Si8 0.886232 0.372907 0.830720
O O1 0.784658 0.512876 0.019987
O O2 0.612373 0.455288 0.242923
O O3 0.764351 0.470770 0.814342
O O4 0.825943 0.422933 0.942356
O O5 0.500000 0.338140 0.750000
O O6 0.600172 0.309355 0.828109
O O7 0.449340 0.375134 0.067068
O O8 0.382861 0.289843 0.113129
O O9 0.894372 0.939484 0.620545
O O10 0.689134 0.901939 0.932145
O O11 0.500000 0.396762 0.250000
O O12 0.250000 0.750000 0.500000
O O13 0.188018 0.689152 0.402501
O O14 0.322891 0.759798 0.139657
O O15 0.916163 0.363155 0.625061
O O16 0.000000 0.354152 0.250000
O O17 0.250000 0.750000 0.000000
O O18 0.201750 0.665744 0.980930
O O19 0.000000 0.371722 0.750000
#
# Coordination Sequence:
#
# PCOD8144025 Si02
#       8
#     8   8   8   8   8   8   8   8
#     4  10  22  42  67  97 132 167 216 266 323 397
#     4  12  26  43  65 101 137 172 218 271 324 383
#     4  10  22  42  67  98 128 172 214 264 331 387
#     4  10  21  41  69  96 134 171 213 267 327 387
#     4  12  27  44  68  96 136 175 219 272 322 385
#     4  11  26  46  68  95 133 173 220 270 331 390
#     4  12  27  44  68  98 130 174 226 265 325 387
#     4  11  26  46  67  98 131 171 221 275 324 388
#
# _framework density 20.163927999999999
#
# number of rings (size 3 to 8) (size 9 to 14) (size 15 to 20)
#    0.000    1.000    5.000    0.375    7.000    2.500 
#    0.000    2.500    0.000    0.000    0.000    0.000 
#    0.000    0.000    0.000    0.000    0.000    0.000 
#
# Total GULP energy -396974.369949 kJ/mol
# GULP energy per Si atom -12405.449061 kJ/mol
# Density = 2.011803 g / cm^3
# Si number density = 20.163928 Si / 1000 Ang^3
#
#
#
# Elastic Constant Matrix: (Units=GPa)
#
#
# Indices 1 2 3 4 5 6 
#
# 1 100.7289 33.0122 32.6934 0.0000 5.7617 0.0000
# 2 33.0122 96.2549 24.6091 0.0000 14.6114 0.0000
# 3 32.6934 24.6091 79.7442 0.0000 -0.1455 0.0000
# 4 0.0000 0.0000 0.0000 30.2062 0.0000 14.3759
# 5 5.7617 14.6114 -0.1455 0.0000 36.6075 0.0000
# 6 0.0000 0.0000 0.0000 14.3759 0.0000 28.5850
#
#
#
# Elastic Compliance Matrix: (Units=1/GPa)
#
#
# Indices 1 2 3 4 5 6 
#
# 1 0.012303 -0.003060 -0.004101 0.000000 -0.000731 0.000000
# 2 -0.003060 0.012840 -0.002716 0.000000 -0.004654 0.000000
# 3 -0.004101 -0.002716 0.015063 0.000000 0.001789 0.000000
# 4 0.000000 0.000000 0.000000 0.043523 0.000000 -0.021888
# 5 -0.000731 -0.004654 0.001789 0.000000 0.029297 0.000000
# 6 0.000000 0.000000 0.000000 -0.021888 0.000000 0.045991
#
#
# Mechanical properties :
#
#
# Convention : Reuss Voigt Hill
#
# Bulk Modulus (GPa) = 48.89730 50.81749 49.85740
# Shear Modulus (GPa) = 26.94127 31.50729 29.22428
#
# Velocity S-wave (km/s) = 3.65925 3.95721 3.81114
# Velocity P-wave (km/s) = 6.49277 6.79236 6.64426
#
# Compressibility (1/GPa) = 0.02045102
#
# Stress axis : x y z
#
# Youngs Moduli (GPa) = 81.27779 77.88462 66.38806
#
# Poissons Ratio (x) = 0.23834 0.27227
# Poissons Ratio (y) = 0.24872 0.18032
# Poissons Ratio (z) = 0.33333 0.21155
#
# Static dielectric constant tensor:
#      x y z
#    x 3.696230 0.000000 0.074620 
#    y 0.000000 3.789480 0.000000 
#    z 0.074620 0.000000 3.599160 
# 
# 
# High freq. dielectric constant tensor:
#      x y z
#    x 1.795490 0.000000 0.003750 
#    y 0.000000 1.795310 0.000000 
#    z 0.003750 0.000000 1.791560 
# 
# From -- ./inp_files/52816.got.cif
#   From: 2010.06.25/outbox.cif.g09.slc.cpg/sg15_27_cif.got.tgz:52816.got - 2010.06.28 07:06:18.
