data_PCOD8144291
_publ_section_title
;
Structure prediction by ZEFSAII (Michael W. Deem and Ramdas Pophale) SiO2 
 PCOD8144291
Probable space group: C 2/C
;
_chemical_formula_sum "Si O2"
_cell_formula_units_Z 48
_cell_length_a 15.036226
_cell_length_b 18.725596
_cell_length_c 8.113371
_cell_angle_alpha 90.000000
_cell_angle_beta 96.868752
_cell_angle_gamma 90.000000
_cell_volume 2268.023417
_symmetry_space_group_name_H-M "C 2/C"
_symmetry_group_IT_number 15
_symmetry_cell_setting 'monoclinic'
loop_
_space_group_symop_operation_xyz
x,y,z
-x,y,1/2-z
-x,-y,-z
x,-y,1/2+z
1/2+x,1/2+y,z
1/2-x,1/2+y,1/2-z
1/2-x,1/2-y,-z
1/2+x,1/2-y,1/2+z
loop_
_atom_site_type_symbol
_atom_site_label
_atom_site_fract_x
_atom_site_fract_y
_atom_site_fract_z
Si Si1 0.423950 0.193495 0.502134
Si Si2 0.500000 0.691303 0.250000
Si Si3 0.190830 0.406563 0.309304
Si Si4 0.318797 0.057650 0.070377
Si Si5 0.801708 0.783271 0.244824
Si Si6 0.000000 0.395342 0.750000
Si Si7 0.668796 0.327737 0.598074
O O1 0.468471 0.261275 0.592491
O O2 0.390606 0.135880 0.626543
O O3 0.348327 0.223618 0.364221
O O4 0.497611 0.153529 0.410735
O O5 0.417167 0.646445 0.311326
O O6 0.216411 0.476808 0.419001
O O7 0.278274 0.355543 0.338752
O O8 0.163189 0.425145 0.116069
O O9 0.409430 0.059073 0.202294
O O10 0.244231 0.111105 0.126047
O O11 0.706574 0.747296 0.175483
O O12 0.858245 0.808815 0.096975
#
# Coordination Sequence:
#
# PCOD8144291 Si02
#       7
#     8   4   8   8   8   4   8
#     4  12  23  37  63  97 123 168 208 260 313 376
#     4  12  24  35  66  97 128 162 214 268 306 373
#     4  11  24  41  65  93 127 169 208 260 315 385
#     4  11  25  42  61  91 131 169 208 255 321 377
#     4  10  21  42  67  90 127 163 214 260 311 371
#     4  12  24  39  62  89 134 172 200 262 310 387
#     4  10  22  43  62  95 127 166 210 263 312 370
#
# _framework density 21.163802
#
# number of rings (size 3 to 8) (size 9 to 14) (size 15 to 20)
#    0.000    1.000    3.333    3.500    2.333    3.333 
#    0.000    0.000    0.000   10.000    0.000    0.000 
#    0.000    0.000    0.000    0.000    0.000    0.000 
#
# Total GULP energy -297527.476545 kJ/mol
# GULP energy per Si atom -12396.978189 kJ/mol
# Density = 2.111563 g / cm^3
# Si number density = 21.163802 Si / 1000 Ang^3
#
#
#
# Elastic Constant Matrix: (Units=GPa)
#
#
# Indices 1 2 3 4 5 6 
#
# 1 99.6549 38.2304 43.1283 0.0000 -27.1729 0.0000
# 2 38.2304 114.0361 29.8012 0.0000 -9.4604 0.0000
# 3 43.1283 29.8012 79.8018 0.0000 -17.6127 0.0000
# 4 0.0000 0.0000 0.0000 36.9139 0.0000 -7.3152
# 5 -27.1729 -9.4604 -17.6127 0.0000 33.3739 0.0000
# 6 0.0000 0.0000 0.0000 -7.3152 0.0000 6.7415
#
#
#
# Elastic Compliance Matrix: (Units=1/GPa)
#
#
# Indices 1 2 3 4 5 6 
#
# 1 0.016202 -0.003220 -0.005482 0.000000 0.009385 0.000000
# 2 -0.003220 0.010384 -0.002339 0.000000 -0.000913 0.000000
# 3 -0.005482 -0.002339 0.017244 0.000000 0.003974 0.000000
# 4 0.000000 0.000000 0.000000 0.034511 0.000000 0.037448
# 5 0.009385 -0.000913 0.003974 0.000000 0.039444 0.000000
# 6 0.000000 0.000000 0.000000 0.037448 0.000000 0.188970
#
#
# Mechanical properties :
#
#
# Convention : Reuss Voigt Hill
#
# Bulk Modulus (GPa) = 45.98212 57.31252 51.64732
# Shear Modulus (GPa) = 14.87713 27.56140 21.21926
#
# Velocity S-wave (km/s) = 2.65420 3.61264 3.16985
# Velocity P-wave (km/s) = 5.58274 6.67389 6.15255
#
# Compressibility (1/GPa) = 0.02174758
#
# Stress axis : x y z
#
# Youngs Moduli (GPa) = 61.72223 96.29938 57.99010
#
# Poissons Ratio (x) = 0.31012 0.31790
# Poissons Ratio (y) = 0.19877 0.13564
# Poissons Ratio (z) = 0.33836 0.22524
#
# Static dielectric constant tensor:
#      x y z
#    x 3.914560 0.000000 0.000690 
#    y 0.000000 3.755910 0.000000 
#    z 0.000690 0.000000 4.212250 
# 
# 
# High freq. dielectric constant tensor:
#      x y z
#    x 1.809190 0.000000 -0.017230 
#    y 0.000000 1.817950 0.000000 
#    z -0.017230 0.000000 1.848550 
# 
# From -- ./inp_files/39681.got.cif
#   From: 2010.06.25/outbox.cif.g09.slc.cpg/sg15_20_cif.got.tgz:39681.got - 2010.06.28 07:06:18.
