data_PCOD8144447
_publ_section_title
;
Structure prediction by ZEFSAII (Michael W. Deem and Ramdas Pophale) SiO2 
 PCOD8144447
Probable space group: C 2/C
;
_chemical_formula_sum "Si O2"
_cell_formula_units_Z 52
_cell_length_a 16.876165
_cell_length_b 10.705208
_cell_length_c 15.478805
_cell_angle_alpha 90.000000
_cell_angle_beta 117.685782
_cell_angle_gamma 90.000000
_cell_volume 2476.277187
_symmetry_space_group_name_H-M "C 2/C"
_symmetry_group_IT_number 15
_symmetry_cell_setting 'monoclinic'
loop_
_space_group_symop_operation_xyz
x,y,z
-x,y,1/2-z
-x,-y,-z
x,-y,1/2+z
1/2+x,1/2+y,z
1/2-x,1/2+y,1/2-z
1/2-x,1/2-y,-z
1/2+x,1/2-y,1/2+z
loop_
_atom_site_type_symbol
_atom_site_label
_atom_site_fract_x
_atom_site_fract_y
_atom_site_fract_z
Si Si1 0.933532 0.228398 0.289488
Si Si2 0.759769 0.603978 0.518143
Si Si3 0.929869 0.599827 0.351164
Si Si4 0.500000 0.715907 0.750000
Si Si5 0.847782 0.977202 0.191302
Si Si6 0.554783 0.870482 0.455088
Si Si7 0.282179 0.069038 0.718103
O O1 0.909564 0.084770 0.263189
O O2 0.842306 0.306394 0.249829
O O3 0.000000 0.282932 0.250000
O O4 0.999153 0.243584 0.405334
O O5 0.750000 0.750000 0.500000
O O6 0.706641 0.525559 0.419351
O O7 0.865974 0.583705 0.567143
O O8 0.729515 0.562858 0.599635
O O9 0.989104 0.696545 0.327822
O O10 0.902926 0.659718 0.429563
O O11 0.841306 0.557275 0.255072
O O12 0.983216 0.479082 0.408467
O O13 0.588484 0.633491 0.808994
O O14 0.784565 0.923197 0.234586
#
# Coordination Sequence:
#
# PCOD8144447 Si02
#       7
#     8   8   8   4   8   8   8
#     4  11  21  44  67  98 134 181 227 281 334 412
#     4  12  23  42  71 101 133 179 234 285 337 416
#     4  10  23  45  69  97 131 179 224 284 345 409
#     4  12  28  44  64  96 154 174 212 298 362 394
#     4  12  27  44  65 107 144 179 228 291 354 412
#     4  10  21  42  74  95 125 178 241 272 331 419
#     4  11  24  42  74  98 135 184 236 284 334 410
#
# _framework density 20.999264
#
# number of rings (size 3 to 8) (size 9 to 14) (size 15 to 20)
#    0.000    0.923    5.385    0.923    6.462    1.231 
#    0.000    4.615    0.000    0.000    0.000    0.000 
#    0.000    0.000    0.000    0.000    0.000    0.000 
#
# Total GULP energy -322244.358474 kJ/mol
# GULP energy per Si atom -12394.013787 kJ/mol
# Density = 2.095147 g / cm^3
# Si number density = 20.999264 Si / 1000 Ang^3
#
#
#
# Elastic Constant Matrix: (Units=GPa)
#
#
# Indices 1 2 3 4 5 6 
#
# 1 114.8434 35.5998 37.4250 0.0000 -11.4797 0.0000
# 2 35.5998 78.7784 49.0822 0.0000 -6.6336 0.0000
# 3 37.4250 49.0822 141.2109 0.0000 -15.0012 0.0000
# 4 0.0000 0.0000 0.0000 -5.3685 0.0000 -0.8965
# 5 -11.4797 -6.6336 -15.0012 0.0000 29.8428 0.0000
# 6 0.0000 0.0000 0.0000 -0.8965 0.0000 38.9862
#
#
#
# Elastic Compliance Matrix: (Units=1/GPa)
#
#
# Indices 1 2 3 4 5 6 
#
# 1 0.010534 -0.003796 -0.001195 0.000000 0.002608 0.000000
# 2 -0.003796 0.017589 -0.005121 0.000000 -0.000125 0.000000
# 3 -0.001195 -0.005121 0.009517 0.000000 0.003186 0.000000
# 4 0.000000 0.000000 0.000000 -0.185559 0.000000 -0.004267
# 5 0.002608 -0.000125 0.003186 0.000000 0.036086 0.000000
# 6 0.000000 0.000000 0.000000 -0.004267 0.000000 0.025552
#
#
# Mechanical properties :
#
#
# Convention : Reuss Voigt Hill
#
# Bulk Modulus (GPa) = 57.41951 64.33852 60.87902
# Shear Modulus (GPa) = -82.98614 26.87380 -28.05617
#
# Velocity S-wave (km/s) = -6.29320 3.58124 -3.65917
# Velocity P-wave (km/s) = 5.04013 6.91414 3.34682
#
# Compressibility (1/GPa) = 0.01741568
#
# Stress axis : x y z
#
# Youngs Moduli (GPa) = 94.92632 56.85270 105.07749
#
# Poissons Ratio (x) = 0.21582 0.12562
# Poissons Ratio (y) = 0.36035 0.53809
# Poissons Ratio (z) = 0.11348 0.29113
#
# Static dielectric constant tensor:
#      x y z
#    x 3.813000 0.000000 -0.168340 
#    y 0.000000 3.688170 0.000000 
#    z -0.168340 0.000000 4.221190 
# 
# 
# High freq. dielectric constant tensor:
#      x y z
#    x 1.832070 0.000000 -0.002360 
#    y 0.000000 1.808950 0.000000 
#    z -0.002360 0.000000 1.829230 
# 
# From -- ./inp_files/161075.got.cif
#   From: 2010.06.25/outbox.cif.g09.slc.cpg/sg15_81_cif.got.tgz:161075.got - 2010.06.28 07:06:18.
