data_PCOD8144992
_publ_section_title
;
Structure prediction by ZEFSAII (Michael W. Deem and Ramdas Pophale) SiO2 
 PCOD8144992
Probable space group: C 2/C
;
_chemical_formula_sum "Si O2"
_cell_formula_units_Z 40
_cell_length_a 11.765544
_cell_length_b 30.694207
_cell_length_c 5.164044
_cell_angle_alpha 90.000000
_cell_angle_beta 76.987184
_cell_angle_gamma 90.000000
_cell_volume 1817.020629
_symmetry_space_group_name_H-M "C 2/C"
_symmetry_group_IT_number 15
_symmetry_cell_setting 'monoclinic'
loop_
_space_group_symop_operation_xyz
x,y,z
-x,y,1/2-z
-x,-y,-z
x,-y,1/2+z
1/2+x,1/2+y,z
1/2-x,1/2+y,1/2-z
1/2-x,1/2-y,-z
1/2+x,1/2-y,1/2+z
loop_
_atom_site_type_symbol
_atom_site_label
_atom_site_fract_x
_atom_site_fract_y
_atom_site_fract_z
Si Si1 0.424456 0.783347 0.539747
Si Si2 0.869112 0.019102 0.580905
Si Si3 0.922543 0.187844 0.534905
Si Si4 0.762657 0.891656 0.192198
Si Si5 0.867838 0.625692 0.223328
O O1 0.500000 0.772520 0.750000
O O2 0.365059 0.736132 0.517278
O O3 0.341408 0.823342 0.666442
O O4 0.500000 0.798275 0.250000
O O5 0.862492 0.071216 0.618368
O O6 0.803256 0.004026 0.354414
O O7 0.000000 0.000000 0.500000
O O8 0.815660 0.155169 0.606337
O O9 0.000000 0.174775 0.250000
O O10 0.000000 0.183633 0.750000
O O11 0.713535 0.891685 0.506705
O O12 0.662483 0.900634 0.025474
O O13 0.000000 0.619294 0.250000
#
# Coordination Sequence:
#
# PCOD8144992 Si02
#       5
#     8   8   8   8   8
#     4   9  18  36  57  85 126 177 210 256 323 345
#     4  10  23  41  65  93 127 162 188 255 327 405
#     4  10  22  36  58  91 136 166 207 270 311 387
#     4  12  24  38  67  97 120 170 217 254 323 380
#     4  11  23  41  63  89 128 169 223 269 291 363
#
# _framework density 22.014061000000002
#
# number of rings (size 3 to 8) (size 9 to 14) (size 15 to 20)
#    0.000    1.600    0.000    5.400    5.600    1.600 
#    0.000    0.000    0.000   12.000    0.000    0.000 
#    0.000    0.000    0.000    0.000    0.000    0.000 
#
# Total GULP energy -247774.975719 kJ/mol
# GULP energy per Si atom -12388.748786 kJ/mol
# Density = 2.196396 g / cm^3
# Si number density = 22.014061 Si / 1000 Ang^3
#
#
#
# Elastic Constant Matrix: (Units=GPa)
#
#
# Indices 1 2 3 4 5 6 
#
# 1 60.6848 38.0643 25.2266 0.0000 2.6435 0.0000
# 2 38.0643 119.8138 38.0645 0.0000 -7.7636 0.0000
# 3 25.2266 38.0645 182.5931 0.0000 16.1608 0.0000
# 4 0.0000 0.0000 0.0000 32.5020 0.0000 -9.3873
# 5 2.6435 -7.7636 16.1608 0.0000 24.1840 0.0000
# 6 0.0000 0.0000 0.0000 -9.3873 0.0000 31.8243
#
#
#
# Elastic Compliance Matrix: (Units=1/GPa)
#
#
# Indices 1 2 3 4 5 6 
#
# 1 0.021296 -0.006604 -0.001245 0.000000 -0.003616 0.000000
# 2 -0.006604 0.011444 -0.001979 0.000000 0.005718 0.000000
# 3 -0.001245 -0.001979 0.006489 0.000000 -0.004836 0.000000
# 4 0.000000 0.000000 0.000000 0.033633 0.000000 0.009921
# 5 -0.003616 0.005718 -0.004836 0.000000 0.046812 0.000000
# 6 0.000000 0.000000 0.000000 0.009921 0.000000 0.034349
#
#
# Mechanical properties :
#
#
# Convention : Reuss Voigt Hill
#
# Bulk Modulus (GPa) = 51.09530 62.86694 56.98112
# Shear Modulus (GPa) = 27.74620 35.15118 31.44869
#
# Velocity S-wave (km/s) = 3.55404 4.00028 3.78375
# Velocity P-wave (km/s) = 6.33264 7.06795 6.71038
#
# Compressibility (1/GPa) = 0.01957127
#
# Stress axis : x y z
#
# Youngs Moduli (GPa) = 46.95635 87.38349 154.09879
#
# Poissons Ratio (x) = 0.57711 0.19192
# Poissons Ratio (y) = 0.31012 0.30501
# Poissons Ratio (z) = 0.05848 0.17296
#
# Static dielectric constant tensor:
#      x y z
#    x 3.822510 0.000000 2.041740 
#    y 0.000000 4.023620 0.000000 
#    z 2.041740 0.000000 14.822530 
# 
# 
# High freq. dielectric constant tensor:
#      x y z
#    x 1.826070 0.000000 0.026840 
#    y 0.000000 1.859440 0.000000 
#    z 0.026840 0.000000 1.900020 
# 
# From -- ./inp_files/5500.got.cif
#   From: 2010.06.25/outbox.cif.g09.slc.cpg/sg15_3_cif.got.tgz:5500.got - 2010.06.28 07:06:18.
