data_PCOD8144430
_publ_section_title
;
Structure prediction by ZEFSAII (Michael W. Deem and Ramdas Pophale) SiO2 
 PCOD8144430
Probable space group: C 2/C
;
_chemical_formula_sum "Si O2"
_cell_formula_units_Z 60
_cell_length_a 16.496701
_cell_length_b 20.549539
_cell_length_c 8.285410
_cell_angle_alpha 90.000000
_cell_angle_beta 106.725141
_cell_angle_gamma 90.000000
_cell_volume 2689.930165
_symmetry_space_group_name_H-M "C 2/C"
_symmetry_group_IT_number 15
_symmetry_cell_setting 'monoclinic'
loop_
_space_group_symop_operation_xyz
x,y,z
-x,y,1/2-z
-x,-y,-z
x,-y,1/2+z
1/2+x,1/2+y,z
1/2-x,1/2+y,1/2-z
1/2-x,1/2-y,-z
1/2+x,1/2-y,1/2+z
loop_
_atom_site_type_symbol
_atom_site_label
_atom_site_fract_x
_atom_site_fract_y
_atom_site_fract_z
Si Si1 0.500000 0.613523 0.750000
Si Si2 0.425818 0.177975 0.833166
Si Si3 0.682990 0.424845 0.331980
Si Si4 0.763062 0.803423 0.327706
Si Si5 0.220526 0.163833 0.311547
Si Si6 0.269664 0.034053 0.202069
Si Si7 0.059814 0.540328 0.642659
Si Si8 0.541429 0.316241 0.594295
O O1 0.416424 0.569236 0.683489
O O2 0.509919 0.653255 0.586127
O O3 0.500000 0.172594 0.750000
O O4 0.336753 0.189446 0.692346
O O5 0.413948 0.109652 0.925036
O O6 0.447935 0.240742 0.953866
O O7 0.702672 0.350397 0.292316
O O8 0.701210 0.478811 0.206846
O O9 0.746708 0.441192 0.512410
O O10 0.808887 0.823360 0.520692
O O11 0.776734 0.726944 0.287361
O O12 0.272093 0.096140 0.324731
O O13 0.135909 0.153496 0.155765
O O14 0.361611 0.001727 0.250511
O O15 0.000000 0.563130 0.750000
O O16 0.000000 0.500000 0.500000
O O17 0.500000 0.325027 0.750000
#
# Coordination Sequence:
#
# PCOD8144430 Si02
#       8
#     4   8   8   8   8   8   8   8
#     4  12  26  48  68 108 142 180 246 300 354 426
#     4   9  20  39  69  96 134 179 222 280 349 427
#     4  12  26  45  68 100 137 185 231 296 350 422
#     4  10  21  42  71  97 135 178 231 290 354 425
#     4  10  22  42  70 100 126 186 233 279 360 423
#     4  12  25  45  69  95 139 182 230 287 354 418
#     4  11  24  42  63  96 134 176 227 275 343 425
#     4  10  21  45  71 101 139 179 232 295 358 417
#
# _framework density 22.305409999999998
#
# number of rings (size 3 to 8) (size 9 to 14) (size 15 to 20)
#    0.000    1.333    2.667    2.400    3.733    2.133 
#    2.400    0.000    0.000    0.000    0.000    0.000 
#    0.000    0.000    0.000    0.000    0.000    0.000 
#
# Total GULP energy -371692.358151 kJ/mol
# GULP energy per Si atom -12389.745272 kJ/mol
# Density = 2.225464 g / cm^3
# Si number density = 22.305410 Si / 1000 Ang^3
#
#
#
# Elastic Constant Matrix: (Units=GPa)
#
#
# Indices 1 2 3 4 5 6 
#
# 1 97.1166 40.5656 20.1014 0.0000 17.1859 0.0000
# 2 40.5656 144.9240 22.0709 0.0000 3.7754 0.0000
# 3 20.1014 22.0709 98.6486 0.0000 7.8851 0.0000
# 4 0.0000 0.0000 0.0000 48.3547 0.0000 31.7525
# 5 17.1859 3.7754 7.8851 0.0000 33.7584 0.0000
# 6 0.0000 0.0000 0.0000 31.7525 0.0000 97.7491
#
#
#
# Elastic Compliance Matrix: (Units=1/GPa)
#
#
# Indices 1 2 3 4 5 6 
#
# 1 0.013008 -0.003267 -0.001447 0.000000 -0.005919 0.000000
# 2 -0.003267 0.007970 -0.001202 0.000000 0.001052 0.000000
# 3 -0.001447 -0.001202 0.010833 0.000000 -0.001660 0.000000
# 4 0.000000 0.000000 0.000000 0.026288 0.000000 -0.008539
# 5 -0.005919 0.001052 -0.001660 0.000000 0.032905 0.000000
# 6 0.000000 0.000000 0.000000 -0.008539 0.000000 0.013004
#
#
# Mechanical properties :
#
#
# Convention : Reuss Voigt Hill
#
# Bulk Modulus (GPa) = 50.04575 56.24054 53.14314
# Shear Modulus (GPa) = 40.81645 53.16920 46.99283
#
# Velocity S-wave (km/s) = 4.28236 4.88760 4.59496
# Velocity P-wave (km/s) = 6.85104 7.55779 7.21308
#
# Compressibility (1/GPa) = 0.01998172
#
# Stress axis : x y z
#
# Youngs Moduli (GPa) = 76.87435 125.46879 92.30814
#
# Poissons Ratio (x) = 0.40986 0.13354
# Poissons Ratio (y) = 0.25112 0.11092
# Poissons Ratio (z) = 0.11121 0.15077
#
# Static dielectric constant tensor:
#      x y z
#    x 3.955680 0.000000 0.130370 
#    y 0.000000 4.526820 0.000000 
#    z 0.130370 0.000000 3.796480 
# 
# 
# High freq. dielectric constant tensor:
#      x y z
#    x 1.873380 0.000000 0.016230 
#    y 0.000000 1.898740 0.000000 
#    z 0.016230 0.000000 1.861230 
# 
# From -- ./inp_files/50672.got.cif
#   From: 2010.06.25/outbox.cif.g09.slc.cpg/sg15_26_cif.got.tgz:50672.got - 2010.06.28 07:06:18.
