data_PCOD8144362
_publ_section_title
;
Structure prediction by ZEFSAII (Michael W. Deem and Ramdas Pophale) SiO2 
 PCOD8144362
Probable space group: C 2/C
;
_chemical_formula_sum "Si O2"
_cell_formula_units_Z 52
_cell_length_a 14.958906
_cell_length_b 12.264581
_cell_length_c 13.730390
_cell_angle_alpha 90.000000
_cell_angle_beta 114.411246
_cell_angle_gamma 90.000000
_cell_volume 2293.846164
_symmetry_space_group_name_H-M "C 2/C"
_symmetry_group_IT_number 15
_symmetry_cell_setting 'monoclinic'
loop_
_space_group_symop_operation_xyz
x,y,z
-x,y,1/2-z
-x,-y,-z
x,-y,1/2+z
1/2+x,1/2+y,z
1/2-x,1/2+y,1/2-z
1/2-x,1/2-y,-z
1/2+x,1/2-y,1/2+z
loop_
_atom_site_type_symbol
_atom_site_label
_atom_site_fract_x
_atom_site_fract_y
_atom_site_fract_z
Si Si1 0.055173 0.496593 0.368520
Si Si2 0.857163 0.243315 0.843201
Si Si3 0.187089 0.082661 0.933439
Si Si4 0.291874 0.273190 0.873744
Si Si5 0.247481 0.630722 0.952120
Si Si6 0.500000 0.647690 0.750000
Si Si7 0.529763 0.851371 0.018209
O O1 0.139014 0.411282 0.374396
O O2 0.088761 0.600986 0.448977
O O3 0.000000 0.543525 0.250000
O O4 0.972269 0.439337 0.397284
O O5 0.764126 0.306934 0.751376
O O6 0.814683 0.138938 0.884380
O O7 0.934657 0.218140 0.793653
O O8 0.916260 0.320986 0.944274
O O9 0.243572 0.155966 0.879939
O O10 0.071760 0.079737 0.853369
O O11 0.216961 0.130401 0.052736
O O12 0.213728 0.955146 0.950079
O O13 0.408503 0.251913 0.914396
O O14 0.250000 0.750000 0.000000
#
# Coordination Sequence:
#
# PCOD8144362 Si02
#       7
#     8   8   8   8   8   4   8
#     4  11  25  41  70  97 137 183 230 279 339 409
#     4  11  24  41  71  98 138 175 222 287 345 401
#     4  10  22  41  69  95 133 172 224 281 333 406
#     4  10  21  42  69 102 128 173 229 284 333 390
#     4  12  25  47  61  97 145 179 214 278 349 408
#     4  10  22  44  68  96 124 172 228 280 334 400
#     4  11  22  43  68 104 133 177 235 283 333 412
#
# _framework density 22.669349
#
# number of rings (size 3 to 8) (size 9 to 14) (size 15 to 20)
#    0.000    1.231    4.615    0.923    3.231    0.615 
#    6.923    0.000    0.000    0.000    0.000    0.000 
#    0.000    0.000    0.000    0.000    0.000    0.000 
#
# Total GULP energy -322173.285550 kJ/mol
# GULP energy per Si atom -12391.280213 kJ/mol
# Density = 2.261775 g / cm^3
# Si number density = 22.669349 Si / 1000 Ang^3
#
#
#
# Elastic Constant Matrix: (Units=GPa)
#
#
# Indices 1 2 3 4 5 6 
#
# 1 81.8223 18.4969 31.5574 0.0000 1.7280 0.0000
# 2 18.4969 80.6743 19.3233 0.0000 12.6978 0.0000
# 3 31.5574 19.3233 118.7581 0.0000 28.9458 0.0000
# 4 0.0000 0.0000 0.0000 23.8468 0.0000 3.3193
# 5 1.7280 12.6978 28.9458 0.0000 45.3643 0.0000
# 6 0.0000 0.0000 0.0000 3.3193 0.0000 35.1022
#
#
#
# Elastic Compliance Matrix: (Units=1/GPa)
#
#
# Indices 1 2 3 4 5 6 
#
# 1 0.014348 -0.002762 -0.004048 0.000000 0.002810 0.000000
# 2 -0.002762 0.013713 -0.000696 0.000000 -0.003289 0.000000
# 3 -0.004048 -0.000696 0.011278 0.000000 -0.006848 0.000000
# 4 0.000000 0.000000 0.000000 0.042494 0.000000 -0.004018
# 5 0.002810 -0.003289 -0.006848 0.000000 0.027227 0.000000
# 6 0.000000 0.000000 0.000000 -0.004018 0.000000 0.028868
#
#
# Mechanical properties :
#
#
# Convention : Reuss Voigt Hill
#
# Bulk Modulus (GPa) = 41.10522 46.66778 43.88650
# Shear Modulus (GPa) = 31.04643 34.98778 33.01711
#
# Velocity S-wave (km/s) = 3.70474 3.93287 3.82051
# Velocity P-wave (km/s) = 6.03920 6.42295 6.23403
#
# Compressibility (1/GPa) = 0.02432781
#
# Stress axis : x y z
#
# Youngs Moduli (GPa) = 69.69629 72.92252 88.66571
#
# Poissons Ratio (x) = 0.20144 0.35892
# Poissons Ratio (y) = 0.19252 0.06167
# Poissons Ratio (z) = 0.28213 0.05072
#
# Static dielectric constant tensor:
#      x y z
#    x 4.197620 0.000000 0.260900 
#    y 0.000000 3.750540 0.000000 
#    z 0.260900 0.000000 4.572420 
# 
# 
# High freq. dielectric constant tensor:
#      x y z
#    x 1.894020 0.000000 0.014560 
#    y 0.000000 1.863960 0.000000 
#    z 0.014560 0.000000 1.905620 
# 
# From -- ./inp_files/161067.got.cif
#   From: 2010.06.25/outbox.cif.g09.slc.cpg/sg15_81_cif.got.tgz:161067.got - 2010.06.28 07:06:18.
