data_PCOD8144642
_publ_section_title
;
Structure prediction by ZEFSAII (Michael W. Deem and Ramdas Pophale) SiO2 
 PCOD8144642
Probable space group: C 2/C
;
_chemical_formula_sum "Si O2"
_cell_formula_units_Z 52
_cell_length_a 8.065337
_cell_length_b 31.983235
_cell_length_c 13.801962
_cell_angle_alpha 90.000000
_cell_angle_beta 136.828810
_cell_angle_gamma 90.000000
_cell_volume 2435.882917
_symmetry_space_group_name_H-M "C 2/C"
_symmetry_group_IT_number 15
_symmetry_cell_setting 'monoclinic'
loop_
_space_group_symop_operation_xyz
x,y,z
-x,y,1/2-z
-x,-y,-z
x,-y,1/2+z
1/2+x,1/2+y,z
1/2-x,1/2+y,1/2-z
1/2-x,1/2-y,-z
1/2+x,1/2-y,1/2+z
loop_
_atom_site_type_symbol
_atom_site_label
_atom_site_fract_x
_atom_site_fract_y
_atom_site_fract_z
Si Si1 0.407879 0.687871 0.103685
Si Si2 0.066976 0.974676 0.620927
Si Si3 0.000000 0.960943 0.250000
Si Si4 0.673046 0.600555 0.412685
Si Si5 0.573146 0.774446 0.166555
Si Si6 0.000000 0.178822 0.750000
Si Si7 0.672939 0.109689 0.523862
Si Si8 0.500000 0.917396 0.750000
O O1 0.500000 0.678662 0.250000
O O2 0.422562 0.640930 0.063401
O O3 0.573162 0.725466 0.131775
O O4 0.128111 0.702325 0.983057
O O5 0.301682 0.946389 0.714017
O O6 0.836136 0.943093 0.533613
O O7 0.130260 0.007818 0.731251
O O8 0.000000 0.000000 0.500000
O O9 0.810751 0.932968 0.109823
O O10 0.500000 0.590714 0.250000
O O11 0.941538 0.612380 0.494300
O O12 0.500000 0.778042 0.250000
O O13 0.836021 0.793037 0.252777
O O14 0.162802 0.150250 0.888636
O O15 0.607370 0.110923 0.382171
#
# Coordination Sequence:
#
# PCOD8144642 Si02
#       8
#     8   8   4   8   8   4   8   4
#     4   9  20  41  70  95 132 176 224 273 335 405
#     4  12  25  40  63  97 132 180 229 280 345 408
#     4  11  24  44  62  90 141 178 221 288 350 395
#     4  11  21  41  68  91 131 179 219 277 343 394
#     4  10  21  43  71 100 138 177 222 277 338 412
#     4  11  24  46  67 104 144 176 226 280 351 403
#     4  11  24  43  66  99 137 176 226 287 338 410
#     4  12  24  42  63  96 137 174 235 284 325 424
#
# _framework density 21.347494999999999
#
# number of rings (size 3 to 8) (size 9 to 14) (size 15 to 20)
#    0.000    1.231    5.385    0.000    2.154    2.462 
#    0.000    7.692    0.000    0.000    0.000    0.000 
#    0.000    0.000    0.000    0.000    0.000    0.000 
#
# Total GULP energy -322122.213598 kJ/mol
# GULP energy per Si atom -12389.315908 kJ/mol
# Density = 2.129891 g / cm^3
# Si number density = 21.347495 Si / 1000 Ang^3
#
#
#
# Elastic Constant Matrix: (Units=GPa)
#
#
# Indices 1 2 3 4 5 6 
#
# 1 114.1355 59.1237 41.6777 0.0000 7.8076 0.0000
# 2 59.1237 174.3831 44.0032 0.0000 -1.5025 0.0000
# 3 41.6777 44.0032 105.8223 0.0000 -0.8764 0.0000
# 4 0.0000 0.0000 0.0000 10.3649 0.0000 -14.7314
# 5 7.8076 -1.5025 -0.8764 0.0000 33.2332 0.0000
# 6 0.0000 0.0000 0.0000 -14.7314 0.0000 -9.5424
#
#
#
# Elastic Compliance Matrix: (Units=1/GPa)
#
#
# Indices 1 2 3 4 5 6 
#
# 1 0.011852 -0.003195 -0.003364 0.000000 -0.003018 0.000000
# 2 -0.003195 0.007270 -0.001756 0.000000 0.001033 0.000000
# 3 -0.003364 -0.001756 0.011513 0.000000 0.001015 0.000000
# 4 0.000000 0.000000 0.000000 0.030205 0.000000 -0.046630
# 5 -0.003018 0.001033 0.001015 0.000000 0.030873 0.000000
# 6 0.000000 0.000000 0.000000 -0.046630 0.000000 -0.032809
#
#
# Mechanical properties :
#
#
# Convention : Reuss Voigt Hill
#
# Bulk Modulus (GPa) = 71.40749 75.99446 73.70098
# Shear Modulus (GPa) = 62.34212 23.44689 42.89450
#
# Velocity S-wave (km/s) = 5.40989 3.31772 4.48744
# Velocity P-wave (km/s) = 8.51735 7.09594 7.83893
#
# Compressibility (1/GPa) = 0.01400413
#
# Stress axis : x y z
#
# Youngs Moduli (GPa) = 84.37710 137.55436 86.85645
#
# Poissons Ratio (x) = 0.43953 0.29218
# Poissons Ratio (y) = 0.26961 0.15251
# Poissons Ratio (z) = 0.28384 0.24154
#
# Static dielectric constant tensor:
#      x y z
#    x 3.910990 0.000000 0.185180 
#    y 0.000000 4.227870 0.000000 
#    z 0.185180 0.000000 3.574230 
# 
# 
# High freq. dielectric constant tensor:
#      x y z
#    x 1.809400 0.000000 0.006470 
#    y 0.000000 1.866870 0.000000 
#    z 0.006470 0.000000 1.839170 
# 
# From -- ./inp_files/139923.got.cif
#   From: 2010.06.25/outbox.cif.g09.slc.cpg/sg15_70_cif.got.tgz:139923.got - 2010.06.28 07:06:18.
