data_PCOD8144679
_publ_section_title
;
Structure prediction by ZEFSAII (Michael W. Deem and Ramdas Pophale) SiO2 
 PCOD8144679
Probable space group: C 2/C
;
_chemical_formula_sum "Si O2"
_cell_formula_units_Z 52
_cell_length_a 15.149056
_cell_length_b 8.901611
_cell_length_c 31.053981
_cell_angle_alpha 90.000000
_cell_angle_beta 38.028156
_cell_angle_gamma 90.000000
_cell_volume 2579.802562
_symmetry_space_group_name_H-M "C 2/C"
_symmetry_group_IT_number 15
_symmetry_cell_setting 'monoclinic'
loop_
_space_group_symop_operation_xyz
x,y,z
-x,y,1/2-z
-x,-y,-z
x,-y,1/2+z
1/2+x,1/2+y,z
1/2-x,1/2+y,1/2-z
1/2-x,1/2-y,-z
1/2+x,1/2-y,1/2+z
loop_
_atom_site_type_symbol
_atom_site_label
_atom_site_fract_x
_atom_site_fract_y
_atom_site_fract_z
Si Si1 0.422500 0.017548 0.338521
Si Si2 0.686436 0.829952 0.699757
Si Si3 0.000000 0.943775 0.250000
Si Si4 0.603891 0.098569 0.488882
Si Si5 0.252581 0.924602 0.989875
Si Si6 0.490391 0.353093 0.912819
Si Si7 0.104700 0.186728 0.145811
O O1 0.313514 0.086406 0.345916
O O2 0.574090 0.102445 0.277167
O O3 0.357409 0.037002 0.410513
O O4 0.448364 0.844796 0.315073
O O5 0.639823 0.656883 0.708078
O O6 0.840423 0.862948 0.661157
O O7 0.023963 0.047926 0.199024
O O8 0.521870 0.231775 0.544522
O O9 0.725047 0.170170 0.411409
O O10 0.500000 0.000000 0.500000
O O11 0.682652 0.992532 0.492149
O O12 0.250000 0.750000 0.000000
O O13 0.092614 0.992422 0.042000
O O14 0.419032 0.300219 0.896205
#
# Coordination Sequence:
#
# PCOD8144679 Si02
#       7
#     8   8   4   8   8   8   8
#     4  10  21  44  61  89 132 163 210 257 322 373
#     4  10  25  39  64  92 129 167 208 265 312 387
#     4  10  22  40  64  90 124 172 214 258 326 382
#     4  11  23  41  65  95 125 165 212 263 320 383
#     4  11  24  41  66  93 128 168 210 267 321 379
#     4  11  23  43  63  94 128 164 212 267 318 377
#     4  11  21  42  65  87 127 168 210 263 319 377
#
# _framework density 20.156580999999999
#
# number of rings (size 3 to 8) (size 9 to 14) (size 15 to 20)
#    0.000    1.538    3.077    2.769   10.769    3.077 
#    2.769    0.000    0.000    0.000    0.000    0.000 
#    0.000    0.000    0.000    0.000    0.000    0.000 
#
# Total GULP energy -322286.820018 kJ/mol
# GULP energy per Si atom -12395.646924 kJ/mol
# Density = 2.011070 g / cm^3
# Si number density = 20.156581 Si / 1000 Ang^3
#
#
#
# Elastic Constant Matrix: (Units=GPa)
#
#
# Indices 1 2 3 4 5 6 
#
# 1 85.0590 37.6198 40.0557 -0.0007 -17.1857 -0.0006
# 2 37.6198 163.0850 48.5283 -0.0028 -3.4846 -0.0020
# 3 40.0557 48.5283 95.6811 -0.0002 -7.0811 -0.0004
# 4 -0.0007 -0.0028 -0.0002 36.3195 -0.0002 6.7294
# 5 -17.1857 -3.4846 -7.0811 -0.0002 36.6029 -0.0004
# 6 -0.0006 -0.0020 -0.0004 6.7294 -0.0004 29.2807
#
#
#
# Elastic Compliance Matrix: (Units=1/GPa)
#
#
# Indices 1 2 3 4 5 6 
#
# 1 0.016526 -0.002070 -0.005386 0.000000 0.006520 0.000000
# 2 -0.002070 0.007481 -0.002990 0.000000 -0.000838 0.000000
# 3 -0.005386 -0.002990 0.014218 0.000000 -0.000063 0.000000
# 4 0.000000 0.000000 0.000000 0.028758 0.000000 -0.006609
# 5 0.006520 -0.000838 -0.000063 0.000000 0.030290 0.000000
# 6 0.000000 0.000000 0.000000 -0.006609 0.000000 0.035671
#
#
# Mechanical properties :
#
#
# Convention : Reuss Voigt Hill
#
# Bulk Modulus (GPa) = 57.69253 66.24809 61.97031
# Shear Modulus (GPa) = 31.32590 34.94871 33.13730
#
# Velocity S-wave (km/s) = 3.94652 4.16848 4.05902
# Velocity P-wave (km/s) = 7.03214 7.49042 7.26490
#
# Compressibility (1/GPa) = 0.01733327
#
# Stress axis : x y z
#
# Youngs Moduli (GPa) = 60.51160 133.67160 70.33458
#
# Poissons Ratio (x) = 0.27672 0.37881
# Poissons Ratio (y) = 0.12527 0.21028
# Poissons Ratio (z) = 0.32590 0.39963
#
# Static dielectric constant tensor:
#      x y z
#    x 3.481900 0.000000 -0.049140 
#    y 0.000000 3.952200 0.000000 
#    z -0.049140 0.000000 3.738990 
# 
# 
# High freq. dielectric constant tensor:
#      x y z
#    x 1.770300 0.000000 0.003160 
#    y 0.000000 1.801290 0.000000 
#    z 0.003160 0.000000 1.798380 
# 
# From -- ./inp_files/313068.got.cif
#   From: 2010.06.25/outbox.cif.g09.slc.cpg/sg15_157_cif.got.tgz:313068.got - 2010.06.28 07:06:18.
