data_PCOD8144445
_publ_section_title
;
Structure prediction by ZEFSAII (Michael W. Deem and Ramdas Pophale) SiO2 
 PCOD8144445
Probable space group: C 2/C
;
_chemical_formula_sum "Si O2"
_cell_formula_units_Z 48
_cell_length_a 11.784905
_cell_length_b 14.994535
_cell_length_c 20.596871
_cell_angle_alpha 90.000000
_cell_angle_beta 37.857536
_cell_angle_gamma 90.000000
_cell_volume 2233.657653
_symmetry_space_group_name_H-M "C 2/C"
_symmetry_group_IT_number 15
_symmetry_cell_setting 'monoclinic'
loop_
_space_group_symop_operation_xyz
x,y,z
-x,y,1/2-z
-x,-y,-z
x,-y,1/2+z
1/2+x,1/2+y,z
1/2-x,1/2+y,1/2-z
1/2-x,1/2-y,-z
1/2+x,1/2-y,1/2+z
loop_
_atom_site_type_symbol
_atom_site_label
_atom_site_fract_x
_atom_site_fract_y
_atom_site_fract_z
Si Si1 0.277027 0.128557 0.237958
Si Si2 0.111598 0.837126 0.616288
Si Si3 0.690631 0.314466 0.202711
Si Si4 0.696517 0.064989 0.734402
Si Si5 0.810294 0.361612 0.400493
Si Si6 0.527480 0.896815 0.975879
O O1 0.285417 0.215171 0.279798
O O2 0.451655 0.125572 0.110093
O O3 0.092372 0.126209 0.275887
O O4 0.268078 0.040422 0.286263
O O5 0.095318 0.734432 0.642029
O O6 0.139034 0.858449 0.527064
O O7 0.279144 0.880307 0.577392
O O8 0.500000 0.321990 0.250000
O O9 0.686197 0.388129 0.261627
O O10 0.863367 0.335262 0.077430
O O11 0.761769 0.110368 0.637803
O O12 0.477151 0.073998 0.847295
O O13 0.500000 0.000000 0.000000
#
# Coordination Sequence:
#
# PCOD8144445 Si02
#       6
#     8   8   8   8   8   8
#     4  12  26  43  73 105 142 190 237 294 362 419
#     4  11  21  42  74 103 131 186 244 294 353 423
#     4  12  27  47  69 106 146 188 239 290 361 435
#     4  11  23  44  67 104 140 184 232 295 353 419
#     4  10  21  42  73  97 141 178 241 303 345 416
#     4  12  25  46  72 104 146 188 241 296 357 428
#
# _framework density 21.489415999999999
#
# number of rings (size 3 to 8) (size 9 to 14) (size 15 to 20)
#    0.000    0.667    5.000    2.500    7.000    1.333 
#    0.000    0.000    0.000    0.000    0.000    0.000 
#    0.000    0.000    0.000    0.000    0.000    0.000 
#
# Total GULP energy -297531.818670 kJ/mol
# GULP energy per Si atom -12397.159111 kJ/mol
# Density = 2.144050 g / cm^3
# Si number density = 21.489416 Si / 1000 Ang^3
#
#
#
# Elastic Constant Matrix: (Units=GPa)
#
#
# Indices 1 2 3 4 5 6 
#
# 1 126.7582 38.7617 52.0444 -0.0004 -7.4880 0.0001
# 2 38.7617 143.5694 64.8984 -0.0004 5.5847 -0.0001
# 3 52.0444 64.8984 138.3220 0.0007 18.5768 0.0012
# 4 -0.0004 -0.0004 0.0007 38.8364 -0.0001 11.6650
# 5 -7.4880 5.5847 18.5768 -0.0001 40.2909 -0.0005
# 6 0.0001 -0.0001 0.0012 11.6650 -0.0005 35.8390
#
#
#
# Elastic Compliance Matrix: (Units=1/GPa)
#
#
# Indices 1 2 3 4 5 6 
#
# 1 0.009990 -0.001163 -0.003714 0.000000 0.003730 0.000000
# 2 -0.001163 0.008996 -0.003823 0.000000 0.000300 0.000000
# 3 -0.003714 -0.003823 0.011131 0.000000 -0.005293 0.000000
# 4 0.000000 0.000000 0.000000 0.028539 0.000000 -0.009289
# 5 0.003730 0.000300 -0.005293 0.000000 0.027912 0.000001
# 6 0.000000 0.000000 0.000000 -0.009289 0.000001 0.030926
#
#
# Mechanical properties :
#
#
# Convention : Reuss Voigt Hill
#
# Bulk Modulus (GPa) = 78.63931 80.00652 79.32291
# Shear Modulus (GPa) = 35.93655 39.85626 37.89640
#
# Velocity S-wave (km/s) = 4.09380 4.31129 4.20395
# Velocity P-wave (km/s) = 7.68241 7.88000 7.78183
#
# Compressibility (1/GPa) = 0.01271629
#
# Stress axis : x y z
#
# Youngs Moduli (GPa) = 100.09985 111.16079 89.83518
#
# Poissons Ratio (x) = 0.12933 0.33364
# Poissons Ratio (y) = 0.11646 0.34346
# Poissons Ratio (z) = 0.37176 0.42500
#
# Static dielectric constant tensor:
#      x y z
#    x 3.821580 0.000000 0.205620 
#    y 0.000000 3.824300 0.000000 
#    z 0.205620 0.000000 4.160770 
# 
# 
# High freq. dielectric constant tensor:
#      x y z
#    x 1.838410 0.000000 0.010760 
#    y 0.000000 1.850430 0.000000 
#    z 0.010760 0.000000 1.854000 
# 
# From -- ./inp_files/238934.got.cif
#   From: 2010.06.25/outbox.cif.g09.slc.cpg/sg15_120_cif.got.tgz:238934.got - 2010.06.28 07:06:18.
