data_PCOD8144882
_publ_section_title
;
Structure prediction by ZEFSAII (Michael W. Deem and Ramdas Pophale) SiO2 
 PCOD8144882
Probable space group: C 2/C
;
_chemical_formula_sum "Si O2"
_cell_formula_units_Z 36
_cell_length_a 5.201437
_cell_length_b 25.657749
_cell_length_c 11.311672
_cell_angle_alpha 90.000000
_cell_angle_beta 99.113942
_cell_angle_gamma 90.000000
_cell_volume 1490.565119
_symmetry_space_group_name_H-M "C 2/C"
_symmetry_group_IT_number 15
_symmetry_cell_setting 'monoclinic'
loop_
_space_group_symop_operation_xyz
x,y,z
-x,y,1/2-z
-x,-y,-z
x,-y,1/2+z
1/2+x,1/2+y,z
1/2-x,1/2+y,1/2-z
1/2-x,1/2-y,-z
1/2+x,1/2-y,1/2+z
loop_
_atom_site_type_symbol
_atom_site_label
_atom_site_fract_x
_atom_site_fract_y
_atom_site_fract_z
Si Si1 0.812776 0.143470 0.583842
Si Si2 0.500000 0.729365 0.750000
Si Si3 0.615925 0.127259 0.127004
Si Si4 0.835797 0.051864 0.976074
Si Si5 0.500000 0.701341 0.250000
Si Si6 0.500000 0.916188 0.250000
O O1 0.983737 0.194264 0.629667
O O2 0.581075 0.156906 0.475822
O O3 0.704446 0.121416 0.700346
O O4 0.982814 0.100428 0.533689
O O5 0.239984 0.763895 0.723523
O O6 0.500000 0.122812 0.250000
O O7 0.878800 0.162548 0.142132
O O8 0.678176 0.068430 0.083647
O O9 0.636820 0.045086 0.853188
O O10 0.000000 0.000000 0.000000
#
# Coordination Sequence:
#
# PCOD8144882 Si02
#       6
#     8   4   8   8   4   4
#     4  11  24  48  77 111 154 197 263 326 380 477
#     4  12  26  46  84 112 153 211 266 324 398 460
#     4  11  26  52  72 113 162 201 259 323 390 477
#     4  11  25  48  79 112 150 205 257 325 395 466
#     4  12  27  50  75 120 155 210 260 325 404 458
#     4  10  21  46  75 108 156 191 262 315 396 456
#
# _framework density 24.151910999999998
#
# number of rings (size 3 to 8) (size 9 to 14) (size 15 to 20)
#    0.000    0.889    3.333    2.000    3.111    5.333 
#   20.000    0.000    0.000    0.000    0.000    0.000 
#    0.000    0.000    0.000    0.000    0.000    0.000 
#
# Total GULP energy -223123.496044 kJ/mol
# GULP energy per Si atom -12395.749780 kJ/mol
# Density = 2.409694 g / cm^3
# Si number density = 24.151911 Si / 1000 Ang^3
#
#
#
# Elastic Constant Matrix: (Units=GPa)
#
#
# Indices 1 2 3 4 5 6 
#
# 1 130.3143 64.8509 58.3967 0.0000 21.5183 0.0000
# 2 64.8509 142.2002 87.3476 0.0000 24.3702 0.0000
# 3 58.3967 87.3476 154.4744 0.0000 15.9968 0.0000
# 4 0.0000 0.0000 0.0000 24.9302 0.0000 3.8861
# 5 21.5183 24.3702 15.9968 0.0000 53.5696 0.0000
# 6 0.0000 0.0000 0.0000 3.8861 0.0000 54.6684
#
#
#
# Elastic Compliance Matrix: (Units=1/GPa)
#
#
# Indices 1 2 3 4 5 6 
#
# 1 0.010503 -0.003244 -0.001912 0.000000 -0.002173 0.000000
# 2 -0.003244 0.012329 -0.005468 0.000000 -0.002673 0.000000
# 3 -0.001912 -0.005468 0.010269 0.000000 0.000189 0.000000
# 4 0.000000 0.000000 0.000000 0.040561 0.000000 -0.002883
# 5 -0.002173 -0.002673 0.000189 0.000000 0.020699 0.000000
# 6 0.000000 0.000000 0.000000 -0.002883 0.000000 0.018497
#
#
# Mechanical properties :
#
#
# Convention : Reuss Voigt Hill
#
# Bulk Modulus (GPa) = 84.36103 94.24214 89.30159
# Shear Modulus (GPa) = 36.21716 41.05991 38.63854
#
# Velocity S-wave (km/s) = 3.87661 4.12766 4.00411
# Velocity P-wave (km/s) = 7.41907 7.86270 7.64411
#
# Compressibility (1/GPa) = 0.01185381
#
# Stress axis : x y z
#
# Youngs Moduli (GPa) = 95.20848 81.11285 97.38407
#
# Poissons Ratio (x) = 0.26309 0.18616
# Poissons Ratio (y) = 0.30881 0.53252
# Poissons Ratio (z) = 0.18200 0.44354
#
# Static dielectric constant tensor:
#      x y z
#    x 30.956840 0.000000 3.419450 
#    y 0.000000 4.495810 0.000000 
#    z 3.419450 0.000000 4.990950 
# 
# 
# High freq. dielectric constant tensor:
#      x y z
#    x 1.977690 0.000000 0.017260 
#    y 0.000000 1.944510 0.000000 
#    z 0.017260 0.000000 1.968830 
# 
# From -- ./inp_files/72732.got.cif
#   From: 2010.06.25/outbox.cif.g09.slc.cpg/sg15_37_cif.got.tgz:72732.got - 2010.06.28 07:06:18.
