data_PCOD8144976
_publ_section_title
;
Structure prediction by ZEFSAII (Michael W. Deem and Ramdas Pophale) SiO2 
 PCOD8144976
Probable space group: C 2/C
;
_chemical_formula_sum "Si O2"
_cell_formula_units_Z 56
_cell_length_a 26.865427
_cell_length_b 12.288998
_cell_length_c 9.129724
_cell_angle_alpha 90.000000
_cell_angle_beta 124.995471
_cell_angle_gamma 90.000000
_cell_volume 2469.200890
_symmetry_space_group_name_H-M "C 2/C"
_symmetry_group_IT_number 15
_symmetry_cell_setting 'monoclinic'
loop_
_space_group_symop_operation_xyz
x,y,z
-x,y,1/2-z
-x,-y,-z
x,-y,1/2+z
1/2+x,1/2+y,z
1/2-x,1/2+y,1/2-z
1/2-x,1/2-y,-z
1/2+x,1/2-y,1/2+z
loop_
_atom_site_type_symbol
_atom_site_label
_atom_site_fract_x
_atom_site_fract_y
_atom_site_fract_z
Si Si1 0.057896 0.425725 0.449302
Si Si2 0.168959 0.064249 0.535109
Si Si3 0.311029 0.923936 0.253629
Si Si4 0.175733 0.131901 0.868145
Si Si5 0.519382 0.842388 0.937575
Si Si6 0.682049 0.870586 0.905107
Si Si7 0.385776 0.223286 0.685315
O O1 0.066519 0.557012 0.481559
O O2 0.108977 0.355855 0.448600
O O3 0.000000 0.408935 0.250000
O O4 0.042910 0.380763 0.587579
O O5 0.239142 0.075136 0.608909
O O6 0.158824 0.072273 0.689964
O O7 0.129648 0.155706 0.389761
O O8 0.147155 0.943973 0.447146
O O9 0.329292 0.913758 0.452246
O O10 0.330995 0.822052 0.190934
O O11 0.343638 0.037776 0.252284
O O12 0.148475 0.254321 0.827339
O O13 0.247452 0.142594 0.012440
O O14 0.500000 0.786874 0.750000
O O15 0.554998 0.763974 0.109746
#
# Coordination Sequence:
#
# PCOD8144976 Si02
#       7
#     8   8   8   8   8   8   8
#     4   8  17  35  55  81 122 157 193 252 323 378
#     4  10  22  39  56  82 122 171 212 250 290 360
#     4  10  22  36  55  87 129 160 204 256 303 360
#     4   9  20  39  58  74 117 170 216 249 296 340
#     4   9  18  37  58  84 121 155 195 259 324 378
#     4   9  20  37  56  81 117 169 207 255 297 349
#     4  11  22  33  57  90 119 161 202 246 313 377
#
# _framework density 22.679400999999999
#
# number of rings (size 3 to 8) (size 9 to 14) (size 15 to 20)
#    0.000    2.571    0.000    1.286    6.000    0.000 
#    2.571    0.000    0.000    0.000    0.000   13.000 
#    0.000    0.000    0.000    0.000    0.000    0.000 
#
# Total GULP energy -347102.242414 kJ/mol
# GULP energy per Si atom -12396.508658 kJ/mol
# Density = 2.262778 g / cm^3
# Si number density = 22.679401 Si / 1000 Ang^3
#
#
#
# Elastic Constant Matrix: (Units=GPa)
#
#
# Indices 1 2 3 4 5 6 
#
# 1 38.1177 12.8676 -3.7228 0.0000 -2.6992 0.0000
# 2 12.8676 132.1895 48.1522 0.0000 -5.4069 0.0000
# 3 -3.7228 48.1522 74.4002 0.0000 -7.1313 0.0000
# 4 0.0000 0.0000 0.0000 41.6961 0.0000 -0.0568
# 5 -2.6992 -5.4069 -7.1313 0.0000 12.7241 0.0000
# 6 0.0000 0.0000 0.0000 -0.0568 0.0000 25.3947
#
#
#
# Elastic Compliance Matrix: (Units=1/GPa)
#
#
# Indices 1 2 3 4 5 6 
#
# 1 0.028649 -0.004278 0.004872 0.000000 0.006990 0.000000
# 2 -0.004278 0.010542 -0.007075 0.000000 -0.000393 0.000000
# 3 0.004872 -0.007075 0.019100 0.000000 0.008732 0.000000
# 4 0.000000 0.000000 0.000000 0.023983 0.000000 0.000054
# 5 0.006990 -0.000393 0.008732 0.000000 0.084801 0.000000
# 6 0.000000 0.000000 0.000000 0.000054 0.000000 0.039378
#
#
# Mechanical properties :
#
#
# Convention : Reuss Voigt Hill
#
# Bulk Modulus (GPa) = 22.05970 39.92236 30.99103
# Shear Modulus (GPa) = 21.31963 28.45701 24.88832
#
# Velocity S-wave (km/s) = 3.06934 3.54609 3.31629
# Velocity P-wave (km/s) = 4.72324 5.86579 5.32524
#
# Compressibility (1/GPa) = 0.04533152
#
# Stress axis : x y z
#
# Youngs Moduli (GPa) = 34.90483 94.85600 52.35498
#
# Poissons Ratio (x) = 0.40575 -0.25508
# Poissons Ratio (y) = 0.14931 0.37040
# Poissons Ratio (z) = -0.17006 0.67108
#
# Static dielectric constant tensor:
#      x y z
#    x 4.033250 0.000000 -0.254110 
#    y 0.000000 4.069930 0.000000 
#    z -0.254110 0.000000 4.270510 
# 
# 
# High freq. dielectric constant tensor:
#      x y z
#    x 1.879010 0.000000 -0.013900 
#    y 0.000000 1.867500 0.000000 
#    z -0.013900 0.000000 1.913620 
# 
# From -- ./inp_files/69431.got.cif
#   From: 2010.06.25/outbox.cif.g09.slc.cpg/sg15_35_cif.got.tgz:69431.got - 2010.06.28 07:06:18.
