data_PCOD8144086
_publ_section_title
;
Structure prediction by ZEFSAII (Michael W. Deem and Ramdas Pophale) SiO2 
 PCOD8144086
Probable space group: C 2/C
;
_chemical_formula_sum "Si O2"
_cell_formula_units_Z 60
_cell_length_a 12.103827
_cell_length_b 15.147035
_cell_length_c 17.659466
_cell_angle_alpha 90.000000
_cell_angle_beta 116.356454
_cell_angle_gamma 90.000000
_cell_volume 2901.081123
_symmetry_space_group_name_H-M "C 2/C"
_symmetry_group_IT_number 15
_symmetry_cell_setting 'monoclinic'
loop_
_space_group_symop_operation_xyz
x,y,z
-x,y,1/2-z
-x,-y,-z
x,-y,1/2+z
1/2+x,1/2+y,z
1/2-x,1/2+y,1/2-z
1/2-x,1/2-y,-z
1/2+x,1/2-y,1/2+z
loop_
_atom_site_type_symbol
_atom_site_label
_atom_site_fract_x
_atom_site_fract_y
_atom_site_fract_z
Si Si1 0.656725 0.999000 0.676117
Si Si2 0.532761 0.408573 0.971812
Si Si3 0.378834 0.197438 0.845090
Si Si4 0.044993 0.377945 0.848825
Si Si5 0.000000 0.791860 0.750000
Si Si6 0.772060 0.870841 0.833892
Si Si7 0.043954 0.274540 0.537796
Si Si8 0.283114 0.385243 0.603216
O O1 0.512184 0.970779 0.638471
O O2 0.724964 0.939591 0.758631
O O3 0.714600 0.973107 0.612838
O O4 0.674289 0.102295 0.695244
O O5 0.417680 0.383786 0.884696
O O6 0.653451 0.412899 0.956094
O O7 0.500000 0.500000 0.000000
O O8 0.551769 0.332003 0.039788
O O9 0.479702 0.228160 0.815111
O O10 0.263240 0.266401 0.809260
O O11 0.445413 0.189604 0.946697
O O12 0.194023 0.385662 0.888105
O O13 0.000000 0.353381 0.750000
O O14 0.001980 0.301565 0.892857
O O15 0.881217 0.852093 0.695762
O O16 0.179705 0.310518 0.559088
#
# Coordination Sequence:
#
# PCOD8144086 Si02
#       8
#     8   8   8   8   4   8   8   8
#     4  10  22  40  65  96 123 167 221 264 320 382
#     4  11  24  38  60  93 125 171 215 256 329 387
#     4  11  24  38  67  99 123 175 218 263 330 380
#     4   9  21  40  64  88 129 162 207 271 320 376
#     4  12  22  40  68  92 132 174 212 270 320 384
#     4  10  21  42  58  90 133 163 211 268 318 384
#     4  10  23  42  65  93 128 170 220 267 323 377
#     4  11  21  43  66  89 137 165 212 270 320 383
#
# _framework density 20.681944999999999
#
# number of rings (size 3 to 8) (size 9 to 14) (size 15 to 20)
#    0.000    1.600    4.000    0.400    2.800    8.533 
#    0.000    0.000    5.867    0.000    0.000    0.000 
#    0.000    0.000    0.000    0.000    0.000    0.000 
#
# Total GULP energy -371844.318047 kJ/mol
# GULP energy per Si atom -12394.810602 kJ/mol
# Density = 2.063487 g / cm^3
# Si number density = 20.681945 Si / 1000 Ang^3
#
#
#
# Elastic Constant Matrix: (Units=GPa)
#
#
# Indices 1 2 3 4 5 6 
#
# 1 131.1059 56.7061 22.9464 0.0000 -19.4076 0.0000
# 2 56.7061 175.8845 35.5705 0.0000 -10.0563 0.0000
# 3 22.9464 35.5705 68.2032 0.0000 -14.2910 0.0000
# 4 0.0000 0.0000 0.0000 21.4631 0.0000 1.1094
# 5 -19.4076 -10.0563 -14.2910 0.0000 40.4862 0.0000
# 6 0.0000 0.0000 0.0000 1.1094 0.0000 23.3731
#
#
#
# Elastic Compliance Matrix: (Units=1/GPa)
#
#
# Indices 1 2 3 4 5 6 
#
# 1 0.009476 -0.002636 -0.001078 0.000000 0.003507 0.000000
# 2 -0.002636 0.007097 -0.002926 0.000000 -0.000534 0.000000
# 3 -0.001078 -0.002926 0.017591 0.000000 0.004966 0.000000
# 4 0.000000 0.000000 0.000000 0.046706 0.000000 -0.002217
# 5 0.003507 -0.000534 0.004966 0.000000 0.028001 0.000000
# 6 0.000000 0.000000 0.000000 -0.002217 0.000000 0.042889
#
#
# Mechanical properties :
#
#
# Convention : Reuss Voigt Hill
#
# Bulk Modulus (GPa) = 47.88738 67.29327 57.59033
# Shear Modulus (GPa) = 29.06934 34.39586 31.73260
#
# Velocity S-wave (km/s) = 3.75312 4.08252 3.92128
# Velocity P-wave (km/s) = 6.47964 7.40476 6.95759
#
# Compressibility (1/GPa) = 0.02088233
#
# Stress axis : x y z
#
# Youngs Moduli (GPa) = 105.53487 140.90886 56.84595
#
# Poissons Ratio (x) = 0.37149 0.06129
# Poissons Ratio (y) = 0.27823 0.16634
# Poissons Ratio (z) = 0.11379 0.41231
#
# Static dielectric constant tensor:
#      x y z
#    x 4.408510 0.000000 -0.095930 
#    y 0.000000 3.942260 0.000000 
#    z -0.095930 0.000000 3.609380 
# 
# 
# High freq. dielectric constant tensor:
#      x y z
#    x 1.827450 0.000000 -0.010560 
#    y 0.000000 1.800620 0.000000 
#    z -0.010560 0.000000 1.795670 
# 
# From -- ./inp_files/198380.got.cif
#   From: 2010.06.25/outbox.cif.g09.slc.cpg/sg15_100_cif.got.tgz:198380.got - 2010.06.28 07:06:18.
