data_PCOD8144384
_publ_section_title
;
Structure prediction by ZEFSAII (Michael W. Deem and Ramdas Pophale) SiO2 
 PCOD8144384
Probable space group: C 2/C
;
_chemical_formula_sum "Si O2"
_cell_formula_units_Z 56
_cell_length_a 8.005824
_cell_length_b 32.256683
_cell_length_c 11.407285
_cell_angle_alpha 90.000000
_cell_angle_beta 122.062338
_cell_angle_gamma 90.000000
_cell_volume 2496.507662
_symmetry_space_group_name_H-M "C 2/C"
_symmetry_group_IT_number 15
_symmetry_cell_setting 'monoclinic'
loop_
_space_group_symop_operation_xyz
x,y,z
-x,y,1/2-z
-x,-y,-z
x,-y,1/2+z
1/2+x,1/2+y,z
1/2-x,1/2+y,1/2-z
1/2-x,1/2-y,-z
1/2+x,1/2-y,1/2+z
loop_
_atom_site_type_symbol
_atom_site_label
_atom_site_fract_x
_atom_site_fract_y
_atom_site_fract_z
Si Si1 0.265483 0.377279 0.933310
Si Si2 0.500000 0.497600 0.750000
Si Si3 0.278646 0.068668 0.301344
Si Si4 0.091686 0.782261 0.899121
Si Si5 0.000000 0.589750 0.750000
Si Si6 0.835378 0.442280 0.423567
Si Si7 0.696789 0.214286 0.390800
Si Si8 0.182309 0.128428 0.473234
O O1 0.162514 0.403155 0.788121
O O2 0.159015 0.332962 0.919140
O O3 0.493068 0.374885 0.984980
O O4 0.241114 0.399187 0.049873
O O5 0.375467 0.467681 0.791936
O O6 0.340411 0.524873 0.620031
O O7 0.470385 0.045660 0.428706
O O8 0.177354 0.096532 0.364408
O O9 0.202757 0.826041 0.923077
O O10 0.000000 0.762540 0.750000
O O11 0.900282 0.790623 0.901675
O O12 0.250000 0.750000 0.000000
O O13 0.881021 0.561656 0.800810
O O14 0.863197 0.620326 0.625902
O O15 0.500000 0.229322 0.250000
O O16 0.750000 0.250000 0.500000
#
# Coordination Sequence:
#
# PCOD8144384 Si02
#       8
#     8   4   8   8   4   8   8   8
#     4  11  22  45  73  96 134 180 231 278 345 414
#     4  12  24  44  66  99 140 170 227 286 350 406
#     4  11  22  44  70  99 127 179 228 283 340 411
#     4  11  24  41  68 101 136 178 233 283 345 416
#     4  10  24  44  64  93 138 180 225 276 342 408
#     4  11  25  43  65 100 133 180 226 283 344 407
#     4  11  24  44  67 102 138 179 226 287 343 410
#     4  10  21  42  69  96 132 178 228 278 342 414
#
# _framework density 22.431336000000002
#
# number of rings (size 3 to 8) (size 9 to 14) (size 15 to 20)
#    0.000    1.143    1.429    5.143    1.000    4.000 
#   14.143    0.000    0.000    0.000    0.000    0.000 
#    0.000    0.000    0.000    0.000    0.000    0.000 
#
# Total GULP energy -346896.975972 kJ/mol
# GULP energy per Si atom -12389.177713 kJ/mol
# Density = 2.238028 g / cm^3
# Si number density = 22.431336 Si / 1000 Ang^3
#
#
#
# Elastic Constant Matrix: (Units=GPa)
#
#
# Indices 1 2 3 4 5 6 
#
# 1 95.1264 56.4679 38.6422 0.0000 13.5438 0.0000
# 2 56.4679 151.2774 82.5279 0.0000 16.4592 0.0000
# 3 38.6422 82.5279 126.4549 0.0000 14.4512 0.0000
# 4 0.0000 0.0000 0.0000 36.6225 0.0000 8.5724
# 5 13.5438 16.4592 14.4512 0.0000 49.4117 0.0000
# 6 0.0000 0.0000 0.0000 8.5724 0.0000 38.2805
#
#
#
# Elastic Compliance Matrix: (Units=1/GPa)
#
#
# Indices 1 2 3 4 5 6 
#
# 1 0.013832 -0.004292 -0.001196 0.000000 -0.002012 0.000000
# 2 -0.004292 0.011707 -0.006226 0.000000 -0.000902 0.000000
# 3 -0.001196 -0.006226 0.012479 0.000000 -0.001248 0.000000
# 4 0.000000 0.000000 0.000000 0.028816 0.000000 -0.006453
# 5 -0.002012 -0.000902 -0.001248 0.000000 0.021455 0.000000
# 6 0.000000 0.000000 0.000000 -0.006453 0.000000 0.027568
#
#
# Mechanical properties :
#
#
# Convention : Reuss Voigt Hill
#
# Bulk Modulus (GPa) = 68.53355 80.90385 74.71870
# Shear Modulus (GPa) = 34.68648 37.87766 36.28207
#
# Velocity S-wave (km/s) = 3.93662 4.11372 4.02614
# Velocity P-wave (km/s) = 7.16111 7.66220 7.41589
#
# Compressibility (1/GPa) = 0.01459139
#
# Stress axis : x y z
#
# Youngs Moduli (GPa) = 72.29444 85.41946 80.13432
#
# Poissons Ratio (x) = 0.36661 0.09584
# Poissons Ratio (y) = 0.31028 0.49888
# Poissons Ratio (z) = 0.08646 0.53179
#
# Static dielectric constant tensor:
#      x y z
#    x 4.542210 0.000000 0.333100 
#    y 0.000000 3.958180 0.000000 
#    z 0.333100 0.000000 4.109020 
# 
# 
# High freq. dielectric constant tensor:
#      x y z
#    x 1.905000 0.000000 0.022500 
#    y 0.000000 1.887670 0.000000 
#    z 0.022500 0.000000 1.871890 
# 
# From -- ./inp_files/82727.got.cif
#   From: 2010.06.25/outbox.cif.g09.slc.cpg/sg15_42_cif.got.tgz:82727.got - 2010.06.28 07:06:18.
