data_PCOD8144163
_publ_section_title
;
Structure prediction by ZEFSAII (Michael W. Deem and Ramdas Pophale) SiO2 
 PCOD8144163
Probable space group: C 2/C
;
_chemical_formula_sum "Si O2"
_cell_formula_units_Z 52
_cell_length_a 8.535381
_cell_length_b 13.889742
_cell_length_c 25.668620
_cell_angle_alpha 90.000000
_cell_angle_beta 49.847384
_cell_angle_gamma 90.000000
_cell_volume 2325.949441
_symmetry_space_group_name_H-M "C 2/C"
_symmetry_group_IT_number 15
_symmetry_cell_setting 'monoclinic'
loop_
_space_group_symop_operation_xyz
x,y,z
-x,y,1/2-z
-x,-y,-z
x,-y,1/2+z
1/2+x,1/2+y,z
1/2-x,1/2+y,1/2-z
1/2-x,1/2-y,-z
1/2+x,1/2-y,1/2+z
loop_
_atom_site_type_symbol
_atom_site_label
_atom_site_fract_x
_atom_site_fract_y
_atom_site_fract_z
Si Si1 0.824522 0.886093 0.609443
Si Si2 0.877882 0.592962 0.543998
Si Si3 0.854509 0.696227 0.737175
Si Si4 0.920852 0.287731 0.410147
Si Si5 0.070627 0.915114 0.369226
Si Si6 0.000000 0.691703 0.250000
Si Si7 0.469181 0.713442 0.982762
O O1 0.602644 0.872054 0.683036
O O2 0.982163 0.818513 0.607254
O O3 0.824915 0.858143 0.547960
O O4 0.878012 0.997632 0.603396
O O5 0.649061 0.562541 0.610370
O O6 0.000000 0.500000 0.500000
O O7 0.986901 0.636868 0.569873
O O8 0.868455 0.678651 0.501148
O O9 0.745958 0.604517 0.788711
O O10 0.670925 0.750638 0.746606
O O11 0.000000 0.750006 0.750000
O O12 0.022065 0.665013 0.658188
O O13 0.678774 0.277578 0.471244
O O14 0.030935 0.820661 0.412504
#
# Coordination Sequence:
#
# PCOD8144163 Si02
#       7
#     8   8   8   8   8   4   8
#     4  10  22  39  65  88 128 170 211 258 331 396
#     4  11  23  40  64  95 129 167 221 275 328 399
#     4  11  22  42  68  94 132 172 225 270 330 394
#     4  10  21  42  64  87 128 175 207 265 336 390
#     4  12  23  38  64  96 128 166 219 274 323 387
#     4  10  24  44  68  88 130 182 216 266 344 394
#     4  11  21  39  64  90 127 167 210 265 332 383
#
# _framework density 22.356463000000002
#
# number of rings (size 3 to 8) (size 9 to 14) (size 15 to 20)
#    0.000    1.231    1.538    7.385    1.077    0.000 
#    0.000    3.077    6.769    0.000    0.000    0.000 
#    0.000    0.000    0.000    0.000    0.000    0.000 
#
# Total GULP energy -322150.211483 kJ/mol
# GULP energy per Si atom -12390.392749 kJ/mol
# Density = 2.230558 g / cm^3
# Si number density = 22.356463 Si / 1000 Ang^3
#
#
#
# Elastic Constant Matrix: (Units=GPa)
#
#
# Indices 1 2 3 4 5 6 
#
# 1 92.8845 10.5848 4.7199 0.0004 -10.7861 -0.0001
# 2 10.5848 110.7728 32.1337 0.0006 3.3146 -0.0002
# 3 4.7199 32.1337 125.4333 0.0015 -5.7611 -0.0004
# 4 0.0004 0.0006 0.0015 30.3248 -0.0006 -0.5705
# 5 -10.7861 3.3146 -5.7611 -0.0006 40.1574 0.0001
# 6 -0.0001 -0.0002 -0.0004 -0.5705 0.0001 18.8901
#
#
#
# Elastic Compliance Matrix: (Units=1/GPa)
#
#
# Indices 1 2 3 4 5 6 
#
# 1 0.011262 -0.001176 0.000021 0.000000 0.003125 0.000000
# 2 -0.001176 0.009930 -0.002569 0.000000 -0.001504 0.000000
# 3 0.000021 -0.002569 0.008697 0.000000 0.001465 0.000000
# 4 0.000000 0.000000 0.000000 0.032995 0.000000 0.000996
# 5 0.003125 -0.001504 0.001465 0.000000 0.026076 0.000000
# 6 0.000000 0.000000 0.000000 0.000996 0.000000 0.052968
#
#
# Mechanical properties :
#
#
# Convention : Reuss Voigt Hill
#
# Bulk Modulus (GPa) = 44.55961 47.10748 45.83354
# Shear Modulus (GPa) = 31.87657 36.65127 34.26392
#
# Velocity S-wave (km/s) = 3.78012 4.05335 3.91911
# Velocity P-wave (km/s) = 6.24716 6.55919 6.40508
#
# Compressibility (1/GPa) = 0.02244185
#
# Stress axis : x y z
#
# Youngs Moduli (GPa) = 88.79528 100.70515 114.98309
#
# Poissons Ratio (x) = 0.11840 -0.00241
# Poissons Ratio (y) = 0.10440 0.29536
# Poissons Ratio (z) = -0.00186 0.25868
#
# Static dielectric constant tensor:
#      x y z
#    x 4.394050 0.000000 -0.286230 
#    y 0.000000 4.323610 0.000030 
#    z -0.286230 0.000030 3.807170 
# 
# 
# High freq. dielectric constant tensor:
#      x y z
#    x 1.900250 0.000000 -0.013340 
#    y 0.000000 1.846880 0.000000 
#    z -0.013340 0.000000 1.904780 
# 
# From -- ./inp_files/231304.got.cif
#   From: 2010.06.25/outbox.cif.g09.slc.cpg/sg15_116_cif.got.tgz:231304.got - 2010.06.28 07:06:18.
