data_PCOD8144267
_publ_section_title
;
Structure prediction by ZEFSAII (Michael W. Deem and Ramdas Pophale) SiO2 
 PCOD8144267
Probable space group: C 2/C
;
_chemical_formula_sum "Si O2"
_cell_formula_units_Z 32
_cell_length_a 8.266722
_cell_length_b 11.448923
_cell_length_c 27.927295
_cell_angle_alpha 90.000000
_cell_angle_beta 146.933481
_cell_angle_gamma 90.000000
_cell_volume 1442.151969
_symmetry_space_group_name_H-M "C 2/C"
_symmetry_group_IT_number 15
_symmetry_cell_setting 'monoclinic'
loop_
_space_group_symop_operation_xyz
x,y,z
-x,y,1/2-z
-x,-y,-z
x,-y,1/2+z
1/2+x,1/2+y,z
1/2-x,1/2+y,1/2-z
1/2-x,1/2-y,-z
1/2+x,1/2-y,1/2+z
loop_
_atom_site_type_symbol
_atom_site_label
_atom_site_fract_x
_atom_site_fract_y
_atom_site_fract_z
Si Si1 0.687821 0.011164 0.844134
Si Si2 0.832076 0.408658 0.991388
Si Si3 0.405162 0.238308 0.424770
Si Si4 0.821247 0.486738 0.843375
O O1 0.500000 0.995044 0.750000
O O2 0.732176 0.147501 0.865774
O O3 0.507791 0.952861 0.842768
O O4 0.994619 0.944129 0.915655
O O5 0.852926 0.283864 0.969183
O O6 0.000000 0.500000 0.000000
O O7 0.005304 0.410840 0.084881
O O8 0.273628 0.129808 0.362659
O O9 0.750000 0.250000 0.500000
O O10 0.500000 0.537722 0.750000
#
# Coordination Sequence:
#
# PCOD8144267 Si02
#       4
#     8   8   8   8
#     4  12  24  42  68  95 131 174 213 267 326 379
#     4  10  21  42  66  95 129 167 214 265 319 385
#     4  11  23  42  69  92 130 171 214 264 329 382
#     4  11  24  44  65  96 134 167 219 269 316 387
#
# _framework density 22.189062
#
# number of rings (size 3 to 8) (size 9 to 14) (size 15 to 20)
#    0.000    1.000    5.000    4.500    0.000    1.000 
#    0.000    1.250    0.000    0.000    0.000    0.000 
#    0.000    0.000    0.000    0.000    0.000    0.000 
#
# Total GULP energy -198424.151003 kJ/mol
# GULP energy per Si atom -12401.509438 kJ/mol
# Density = 2.213856 g / cm^3
# Si number density = 22.189062 Si / 1000 Ang^3
#
#
#
# Elastic Constant Matrix: (Units=GPa)
#
#
# Indices 1 2 3 4 5 6 
#
# 1 144.1171 15.9884 74.3735 0.0002 10.1111 -0.0001
# 2 15.9884 65.5568 31.1520 0.0004 -1.4917 0.0000
# 3 74.3735 31.1520 204.1577 0.0014 2.9673 0.0002
# 4 0.0002 0.0004 0.0014 -3.3599 0.0002 -4.9679
# 5 10.1111 -1.4917 2.9673 0.0002 46.3045 -0.0001
# 6 -0.0001 0.0000 0.0002 -4.9679 -0.0001 26.8255
#
#
#
# Elastic Compliance Matrix: (Units=1/GPa)
#
#
# Indices 1 2 3 4 5 6 
#
# 1 0.008707 -0.000720 -0.003037 -0.000001 -0.001730 0.000000
# 2 -0.000720 0.016528 -0.002272 0.000001 0.000835 0.000000
# 3 -0.003037 -0.002272 0.006349 0.000002 0.000183 0.000000
# 4 -0.000001 0.000001 0.000002 -0.233649 0.000001 -0.043270
# 5 -0.001730 0.000835 0.000183 0.000001 0.021989 0.000000
# 6 0.000000 0.000000 0.000000 -0.043270 0.000000 0.029265
#
#
# Mechanical properties :
#
#
# Convention : Reuss Voigt Hill
#
# Bulk Modulus (GPa) = 51.21249 72.98439 62.09844
# Shear Modulus (GPa) = -37.80869 33.44186 -2.18341
#
# Velocity S-wave (km/s) = -4.13235 3.88639 -0.99305
# Velocity P-wave (km/s) = 0.60144 7.28712 5.17030
#
# Compressibility (1/GPa) = 0.01952649
#
# Stress axis : x y z
#
# Youngs Moduli (GPa) = 114.84562 60.50303 157.51599
#
# Poissons Ratio (x) = 0.04355 0.47839
# Poissons Ratio (y) = 0.08266 0.35786
# Poissons Ratio (z) = 0.34879 0.13746
#
# Static dielectric constant tensor:
#      x y z
#    x 4.591680 0.000000 -0.388660 
#    y 0.000000 3.401590 0.000000 
#    z -0.388660 0.000000 4.242040 
# 
# 
# High freq. dielectric constant tensor:
#      x y z
#    x 1.898350 0.000000 -0.003760 
#    y 0.000000 1.853790 0.000000 
#    z -0.003760 0.000000 1.884050 
# 
# From -- ./inp_files/131728.got.cif
#   From: 2010.06.25/outbox.cif.g09.slc.cpg/sg15_66_cif.got.tgz:131728.got - 2010.06.28 07:06:18.
