data_PCOD8144342
_publ_section_title
;
Structure prediction by ZEFSAII (Michael W. Deem and Ramdas Pophale) SiO2 
 PCOD8144342
Probable space group: C 2/C
;
_chemical_formula_sum "Si O2"
_cell_formula_units_Z 60
_cell_length_a 16.452836
_cell_length_b 8.753084
_cell_length_c 18.762718
_cell_angle_alpha 90.000000
_cell_angle_beta 85.406097
_cell_angle_gamma 90.000000
_cell_volume 2693.395678
_symmetry_space_group_name_H-M "C 2/C"
_symmetry_group_IT_number 15
_symmetry_cell_setting 'monoclinic'
loop_
_space_group_symop_operation_xyz
x,y,z
-x,y,1/2-z
-x,-y,-z
x,-y,1/2+z
1/2+x,1/2+y,z
1/2-x,1/2+y,1/2-z
1/2-x,1/2-y,-z
1/2+x,1/2-y,1/2+z
loop_
_atom_site_type_symbol
_atom_site_label
_atom_site_fract_x
_atom_site_fract_y
_atom_site_fract_z
Si Si1 0.268195 0.315292 0.661217
Si Si2 0.263959 0.662183 0.699782
Si Si3 0.590458 0.134254 0.116132
Si Si4 0.582734 0.409108 0.498233
Si Si5 0.106456 0.282256 0.135456
Si Si6 0.435881 0.676254 0.657963
Si Si7 0.000000 0.911021 0.750000
Si Si8 0.160121 0.788025 0.986218
O O1 0.282352 0.484064 0.689977
O O2 0.280905 0.191989 0.722389
O O3 0.176144 0.299619 0.637928
O O4 0.340783 0.274819 0.599949
O O5 0.204348 0.722051 0.641049
O O6 0.352577 0.747367 0.697281
O O7 0.515285 0.217717 0.161035
O O8 0.577414 0.957216 0.132540
O O9 0.593188 0.179169 0.030737
O O10 0.500000 0.500000 0.500000
O O11 0.584149 0.287809 0.561136
O O12 0.593869 0.331379 0.421530
O O13 0.651328 0.534999 0.509259
O O14 0.063558 0.196152 0.203882
O O15 0.455254 0.514210 0.693668
O O16 0.250000 0.750000 0.000000
#
# Coordination Sequence:
#
# PCOD8144342 Si02
#       8
#     8   8   8   8   8   8   4   8
#     4  10  22  42  63  99 138 177 228 278 348 412
#     4  11  24  42  66 101 136 177 225 286 343 407
#     4  10  23  44  67 104 139 176 228 292 348 408
#     4  12  23  46  71 100 132 182 239 279 341 429
#     4  11  27  45  68 104 144 176 232 293 349 404
#     4  12  24  44  74  99 135 185 233 279 345 424
#     4  12  24  44  74  98 136 194 226 278 346 418
#     4  10  21  42  68  94 135 181 225 282 339 414
#
# _framework density 22.276713999999998
#
# number of rings (size 3 to 8) (size 9 to 14) (size 15 to 20)
#    0.000    1.067    4.000    1.600    0.000    6.933 
#    2.400    0.000    0.000    0.000    0.000    0.000 
#    0.000    0.000    0.000    0.000    0.000    0.000 
#
# Total GULP energy -371785.016546 kJ/mol
# GULP energy per Si atom -12392.833885 kJ/mol
# Density = 2.222601 g / cm^3
# Si number density = 22.276714 Si / 1000 Ang^3
#
#
#
# Elastic Constant Matrix: (Units=GPa)
#
#
# Indices 1 2 3 4 5 6 
#
# 1 98.1115 48.6863 21.1940 0.0000 -7.4372 0.0000
# 2 48.6863 102.2767 56.0975 0.0000 -1.3605 0.0000
# 3 21.1940 56.0975 129.2897 0.0000 -12.5270 0.0000
# 4 0.0000 0.0000 0.0000 38.7794 0.0000 1.5715
# 5 -7.4372 -1.3605 -12.5270 0.0000 31.2799 0.0000
# 6 0.0000 0.0000 0.0000 1.5715 0.0000 33.6985
#
#
#
# Elastic Compliance Matrix: (Units=1/GPa)
#
#
# Indices 1 2 3 4 5 6 
#
# 1 0.013742 -0.007142 0.001179 0.000000 0.003429 0.000000
# 2 -0.007142 0.016635 -0.006389 0.000000 -0.003533 0.000000
# 3 0.001179 -0.006389 0.010730 0.000000 0.004300 0.000000
# 4 0.000000 0.000000 0.000000 0.025836 0.000000 -0.001205
# 5 0.003429 -0.003533 0.004300 0.000000 0.034353 0.000000
# 6 0.000000 0.000000 0.000000 -0.001205 0.000000 0.029731
#
#
# Mechanical properties :
#
#
# Convention : Reuss Voigt Hill
#
# Bulk Modulus (GPa) = 60.97217 64.62595 62.79906
# Shear Modulus (GPa) = 31.01744 34.33157 32.67451
#
# Velocity S-wave (km/s) = 3.73550 3.93000 3.83398
# Velocity P-wave (km/s) = 6.78491 7.04746 6.91743
#
# Compressibility (1/GPa) = 0.01640092
#
# Stress axis : x y z
#
# Youngs Moduli (GPa) = 72.76910 60.11517 93.19526
#
# Poissons Ratio (x) = 0.42937 -0.10983
# Poissons Ratio (y) = 0.51974 0.59544
# Poissons Ratio (z) = -0.08576 0.38409
#
# Static dielectric constant tensor:
#      x y z
#    x 4.237580 0.000000 -0.030730 
#    y 0.000000 3.417140 0.000000 
#    z -0.030730 0.000000 2.435650 
# 
# 
# High freq. dielectric constant tensor:
#      x y z
#    x 1.887180 0.000000 -0.006480 
#    y 0.000000 1.858580 0.000000 
#    z -0.006480 0.000000 1.891320 
# 
# From -- ./inp_files/209604.got.cif
#   From: 2010.06.25/outbox.cif.g09.slc.cpg/sg15_105_cif.got.tgz:209604.got - 2010.06.28 07:06:18.
