data_PCOD8144026
_publ_section_title
;
Structure prediction by ZEFSAII (Michael W. Deem and Ramdas Pophale) SiO2 
 PCOD8144026
Probable space group: C 2/C
;
_chemical_formula_sum "Si O2"
_cell_formula_units_Z 40
_cell_length_a 13.840633
_cell_length_b 9.325851
_cell_length_c 28.842073
_cell_angle_alpha 90.000000
_cell_angle_beta 150.190801
_cell_angle_gamma 90.000000
_cell_volume 1850.658386
_symmetry_space_group_name_H-M "C 2/C"
_symmetry_group_IT_number 15
_symmetry_cell_setting 'monoclinic'
loop_
_space_group_symop_operation_xyz
x,y,z
-x,y,1/2-z
-x,-y,-z
x,-y,1/2+z
1/2+x,1/2+y,z
1/2-x,1/2+y,1/2-z
1/2-x,1/2-y,-z
1/2+x,1/2-y,1/2+z
loop_
_atom_site_type_symbol
_atom_site_label
_atom_site_fract_x
_atom_site_fract_y
_atom_site_fract_z
Si Si1 0.201693 0.137030 0.608557
Si Si2 0.424888 0.499631 0.816717
Si Si3 0.000000 0.880463 0.750000
Si Si4 0.537264 0.174640 0.166845
Si Si5 0.162956 0.014299 0.000114
Si Si6 0.000000 0.408159 0.750000
O O1 0.303818 0.285460 0.665576
O O2 0.981295 0.129505 0.534959
O O3 0.214759 0.112397 0.558253
O O4 0.311706 0.006966 0.679817
O O5 0.500529 0.479517 0.795883
O O6 0.410182 0.665593 0.827081
O O7 0.216846 0.428578 0.733423
O O8 0.574726 0.436710 0.917516
O O9 0.478319 0.190092 0.196167
O O10 0.353625 0.104098 0.064006
#
# Coordination Sequence:
#
# PCOD8144026 Si02
#       6
#     8   8   4   8   8   4
#     4   9  19  40  67  97 123 170 214 268 316 392
#     4  12  25  43  64  98 133 176 214 271 324 386
#     4  11  25  42  64  92 142 168 218 268 328 370
#     4  11  24  41  67  95 132 169 219 268 327 384
#     4  10  21  41  69  97 125 173 221 263 325 390
#     4   9  17  38  66  90 126 166 208 262 324 376
#
# _framework density 21.61393
#
# number of rings (size 3 to 8) (size 9 to 14) (size 15 to 20)
#    0.000    1.600    2.000    2.400    5.600    0.800 
#    0.000    2.000    0.000    0.000    0.000    0.000 
#    0.000    0.000    0.000    0.000    0.000    0.000 
#
# Total GULP energy -247955.987741 kJ/mol
# GULP energy per Si atom -12397.799387 kJ/mol
# Density = 2.156474 g / cm^3
# Si number density = 21.613930 Si / 1000 Ang^3
#
#
#
# Elastic Constant Matrix: (Units=GPa)
#
#
# Indices 1 2 3 4 5 6 
#
# 1 65.0417 19.5438 37.4105 -0.0003 -17.3746 -0.0001
# 2 19.5438 72.2605 32.7217 -0.0001 5.7877 0.0000
# 3 37.4105 32.7217 137.7020 -0.0007 -1.4710 -0.0005
# 4 -0.0003 -0.0001 -0.0007 24.8839 -0.0005 -2.3511
# 5 -17.3746 5.7877 -1.4710 -0.0005 35.3268 -0.0002
# 6 -0.0001 0.0000 -0.0005 -2.3511 -0.0002 28.4894
#
#
#
# Elastic Compliance Matrix: (Units=1/GPa)
#
#
# Indices 1 2 3 4 5 6 
#
# 1 0.022831 -0.004898 -0.004913 0.000000 0.011827 0.000000
# 2 -0.004898 0.016819 -0.002722 0.000000 -0.005278 0.000000
# 3 -0.004913 -0.002722 0.009227 0.000000 -0.001586 0.000000
# 4 0.000000 0.000000 0.000000 0.040502 0.000001 0.003342
# 5 0.011827 -0.005278 -0.001586 0.000001 0.034922 0.000000
# 6 0.000000 0.000000 0.000000 0.003342 0.000000 0.035377
#
#
# Mechanical properties :
#
#
# Convention : Reuss Voigt Hill
#
# Bulk Modulus (GPa) = 41.99646 50.48404 46.24025
# Shear Modulus (GPa) = 25.94959 30.09523 28.02241
#
# Velocity S-wave (km/s) = 3.46872 3.73554 3.60460
# Velocity P-wave (km/s) = 5.95946 6.48178 6.22610
#
# Compressibility (1/GPa) = 0.02381153
#
# Stress axis : x y z
#
# Youngs Moduli (GPa) = 43.79939 59.45664 108.38138
#
# Poissons Ratio (x) = 0.29120 0.53243
# Poissons Ratio (y) = 0.21452 0.29506
# Poissons Ratio (z) = 0.21517 0.16187
#
# Static dielectric constant tensor:
#      x y z
#    x 3.974910 0.000000 -0.257650 
#    y 0.000000 3.531060 0.000000 
#    z -0.257650 0.000000 4.256370 
# 
# 
# High freq. dielectric constant tensor:
#      x y z
#    x 1.854040 0.000000 -0.008850 
#    y 0.000000 1.812400 0.000000 
#    z -0.008850 0.000000 1.865860 
# 
# From -- ./inp_files/150646.got.cif
#   From: 2010.06.25/outbox.cif.g09.slc.cpg/sg15_76_cif.got.tgz:150646.got - 2010.06.28 07:06:18.
