data_PCOD8144751
_publ_section_title
;
Structure prediction by ZEFSAII (Michael W. Deem and Ramdas Pophale) SiO2 
 PCOD8144751
Probable space group: C 2/C
;
_chemical_formula_sum "Si O2"
_cell_formula_units_Z 36
_cell_length_a 5.378108
_cell_length_b 13.511004
_cell_length_c 23.713439
_cell_angle_alpha 90.000000
_cell_angle_beta 104.444759
_cell_angle_gamma 90.000000
_cell_volume 1668.634995
_symmetry_space_group_name_H-M "C 2/C"
_symmetry_group_IT_number 15
_symmetry_cell_setting 'monoclinic'
loop_
_space_group_symop_operation_xyz
x,y,z
-x,y,1/2-z
-x,-y,-z
x,-y,1/2+z
1/2+x,1/2+y,z
1/2-x,1/2+y,1/2-z
1/2-x,1/2-y,-z
1/2+x,1/2-y,1/2+z
loop_
_atom_site_type_symbol
_atom_site_label
_atom_site_fract_x
_atom_site_fract_y
_atom_site_fract_z
Si Si1 0.357187 0.114662 0.595832
Si Si2 0.105928 0.518177 0.193035
Si Si3 0.681066 0.683530 0.943393
Si Si4 0.829135 0.265491 0.837559
Si Si5 0.500000 0.635318 0.750000
O O1 0.386500 0.017599 0.637063
O O2 0.569834 0.117369 0.558440
O O3 0.064391 0.112983 0.554849
O O4 0.390364 0.215604 0.635531
O O5 0.324630 0.434963 0.201336
O O6 0.000000 0.531318 0.250000
O O7 0.229348 0.620614 0.178770
O O8 0.602349 0.753012 0.885681
O O9 0.750000 0.750000 0.000000
O O10 0.826816 0.204298 0.779394
#
# Coordination Sequence:
#
# PCOD8144751 Si02
#       5
#     8   8   8   8   4
#     4  10  22  42  63  94 131 160 220 264 315 384
#     4  12  22  38  64  95 129 175 210 262 327 388
#     4  10  21  44  69  89 130 173 211 274 326 368
#     4  10  24  38  64  95 130 167 217 258 328 382
#     4  12  22  40  58  94 134 168 208 270 314 396
#
# _framework density 21.574518999999999
#
# number of rings (size 3 to 8) (size 9 to 14) (size 15 to 20)
#    1.333    0.000    5.556    0.667    0.000    3.556 
#    0.000    2.222    0.000    0.000    0.000    0.000 
#    0.000    0.000    0.000    0.000    0.000    0.000 
#
# Total GULP energy -223061.409592 kJ/mol
# GULP energy per Si atom -12392.300533 kJ/mol
# Density = 2.152541 g / cm^3
# Si number density = 21.574519 Si / 1000 Ang^3
#
#
#
# Elastic Constant Matrix: (Units=GPa)
#
#
# Indices 1 2 3 4 5 6 
#
# 1 113.0595 15.1200 1.7782 0.0000 -2.0079 0.0000
# 2 15.1200 119.6470 7.6829 0.0000 2.7166 0.0000
# 3 1.7782 7.6829 40.5584 0.0000 0.4914 0.0000
# 4 0.0000 0.0000 0.0000 16.1965 0.0000 1.2170
# 5 -2.0079 2.7166 0.4914 0.0000 28.1629 0.0000
# 6 0.0000 0.0000 0.0000 1.2170 0.0000 16.7835
#
#
#
# Elastic Compliance Matrix: (Units=1/GPa)
#
#
# Indices 1 2 3 4 5 6 
#
# 1 0.009014 -0.001144 -0.000188 0.000000 0.000756 0.000000
# 2 -0.001144 0.008624 -0.001573 0.000000 -0.000886 0.000000
# 3 -0.000188 -0.001573 0.024966 0.000000 -0.000297 0.000000
# 4 0.000000 0.000000 0.000000 0.062080 0.000000 -0.004501
# 5 0.000756 -0.000886 -0.000297 0.000000 0.035652 0.000000
# 6 0.000000 0.000000 0.000000 -0.004501 0.000000 0.059909
#
#
# Mechanical properties :
#
#
# Convention : Reuss Voigt Hill
#
# Bulk Modulus (GPa) = 27.17805 35.82522 31.50164
# Shear Modulus (GPa) = 22.90235 28.80751 25.85493
#
# Velocity S-wave (km/s) = 3.26167 3.65808 3.46555
# Velocity P-wave (km/s) = 5.17777 5.87226 5.53592
#
# Compressibility (1/GPa) = 0.03679440
#
# Stress axis : x y z
#
# Youngs Moduli (GPa) = 110.93471 115.96054 40.05518
#
# Poissons Ratio (x) = 0.13269 0.00751
# Poissons Ratio (y) = 0.12694 0.06299
# Poissons Ratio (z) = 0.02081 0.18237
#
# Static dielectric constant tensor:
#      x y z
#    x 3.748670 0.000000 0.074350 
#    y 0.000000 3.619940 0.000000 
#    z 0.074350 0.000000 3.745730 
# 
# 
# High freq. dielectric constant tensor:
#      x y z
#    x 1.840340 0.000000 0.001290 
#    y 0.000000 1.825230 0.000000 
#    z 0.001290 0.000000 1.838770 
# 
# From -- ./inp_files/259914.got.cif
#   From: 2010.06.25/outbox.cif.g09.slc.cpg/sg15_130_cif.got.tgz:259914.got - 2010.06.28 07:06:18.
