data_PCOD8144297
_publ_section_title
;
Structure prediction by ZEFSAII (Michael W. Deem and Ramdas Pophale) SiO2 
 PCOD8144297
Probable space group: C 2/C
;
_chemical_formula_sum "Si O2"
_cell_formula_units_Z 48
_cell_length_a 20.463180
_cell_length_b 6.299189
_cell_length_c 16.740700
_cell_angle_alpha 90.000000
_cell_angle_beta 103.197575
_cell_angle_gamma 90.000000
_cell_volume 2100.907069
_symmetry_space_group_name_H-M "C 2/C"
_symmetry_group_IT_number 15
_symmetry_cell_setting 'monoclinic'
loop_
_space_group_symop_operation_xyz
x,y,z
-x,y,1/2-z
-x,-y,-z
x,-y,1/2+z
1/2+x,1/2+y,z
1/2-x,1/2+y,1/2-z
1/2-x,1/2-y,-z
1/2+x,1/2-y,1/2+z
loop_
_atom_site_type_symbol
_atom_site_label
_atom_site_fract_x
_atom_site_fract_y
_atom_site_fract_z
Si Si1 0.132668 0.240460 0.351771
Si Si2 0.740096 0.417957 0.343856
Si Si3 0.572045 0.741197 0.581173
Si Si4 0.847799 0.418729 0.757495
Si Si5 0.656796 0.032909 0.497526
Si Si6 0.573631 0.415099 0.445487
O O1 0.105005 0.418222 0.281148
O O2 0.169814 0.354175 0.435682
O O3 0.189411 0.113151 0.320550
O O4 0.074616 0.085931 0.372386
O O5 0.800288 0.437902 0.298492
O O6 0.699483 0.202568 0.318317
O O7 0.772822 0.419005 0.440571
O O8 0.608736 0.750984 0.677973
O O9 0.587346 0.527730 0.534916
O O10 0.492736 0.730338 0.574934
O O11 0.596929 0.950081 0.540418
O O12 0.634039 0.251650 0.449465
#
# Coordination Sequence:
#
# PCOD8144297 Si02
#       6
#     8   8   8   8   8   8
#     4  11  23  40  60  94 128 167 213 269 326 388
#     4  11  23  39  62  90 129 169 212 268 327 388
#     4   9  22  41  66  94 125 170 216 267 324 382
#     4  11  23  39  63  93 131 170 217 264 328 390
#     4  10  22  39  66  93 124 166 217 269 322 389
#     4  10  21  42  67  93 127 168 221 267 318 390
#
# _framework density 22.847273000000001
#
# number of rings (size 3 to 8) (size 9 to 14) (size 15 to 20)
#    0.000    1.667    1.667    2.000    2.333    4.000 
#    0.000    5.000    0.000    0.000    0.000    0.000 
#    0.000    0.000    0.000    0.000    0.000    0.000 
#
# Total GULP energy -297444.842971 kJ/mol
# GULP energy per Si atom -12393.535124 kJ/mol
# Density = 2.279527 g / cm^3
# Si number density = 22.847273 Si / 1000 Ang^3
#
#
#
# Elastic Constant Matrix: (Units=GPa)
#
#
# Indices 1 2 3 4 5 6 
#
# 1 51.8215 24.8447 25.8841 0.0000 3.5049 0.0000
# 2 24.8447 86.3177 25.7390 0.0000 5.1054 0.0000
# 3 25.8841 25.7390 69.4805 0.0000 -3.9255 0.0000
# 4 0.0000 0.0000 0.0000 33.4908 0.0000 -4.1627
# 5 3.5049 5.1054 -3.9255 0.0000 26.1953 0.0000
# 6 0.0000 0.0000 0.0000 -4.1627 0.0000 33.7851
#
#
#
# Elastic Compliance Matrix: (Units=1/GPa)
#
#
# Indices 1 2 3 4 5 6 
#
# 1 0.025894 -0.004826 -0.008070 0.000000 -0.003733 0.000000
# 2 -0.004826 0.014210 -0.003617 0.000000 -0.002666 0.000000
# 3 -0.008070 -0.003617 0.019000 0.000000 0.004632 0.000000
# 4 0.000000 0.000000 0.000000 0.030323 0.000000 0.003736
# 5 -0.003733 -0.002666 0.004632 0.000000 0.039888 0.000000
# 6 0.000000 0.000000 0.000000 0.003736 0.000000 0.030059
#
#
# Mechanical properties :
#
#
# Convention : Reuss Voigt Hill
#
# Bulk Modulus (GPa) = 38.34422 40.06171 39.20296
# Shear Modulus (GPa) = 24.86405 27.43767 26.15086
#
# Velocity S-wave (km/s) = 3.30248 3.46918 3.38686
# Velocity P-wave (km/s) = 5.60010 5.79824 5.70003
#
# Compressibility (1/GPa) = 0.02607955
#
# Stress axis : x y z
#
# Youngs Moduli (GPa) = 38.61919 70.37102 52.63053
#
# Poissons Ratio (x) = 0.33961 0.42471
# Poissons Ratio (y) = 0.18637 0.19037
# Poissons Ratio (z) = 0.31164 0.25453
#
# Static dielectric constant tensor:
#      x y z
#    x 3.889750 0.000000 -0.188380 
#    y 0.000000 4.039580 0.000000 
#    z -0.188380 0.000000 4.157900 
# 
# 
# High freq. dielectric constant tensor:
#      x y z
#    x 1.882540 0.000000 -0.022890 
#    y 0.000000 1.907920 0.000000 
#    z -0.022890 0.000000 1.898080 
# 
# From -- ./inp_files/217819.got.cif
#   From: 2010.06.25/outbox.cif.g09.slc.cpg/sg15_109_cif.got.tgz:217819.got - 2010.06.28 07:06:18.
