data_PCOD8144899
_publ_section_title
;
Structure prediction by ZEFSAII (Michael W. Deem and Ramdas Pophale) SiO2 
 PCOD8144899
Probable space group: C 2/C
;
_chemical_formula_sum "Si O2"
_cell_formula_units_Z 44
_cell_length_a 21.556463
_cell_length_b 5.067670
_cell_length_c 19.176393
_cell_angle_alpha 90.000000
_cell_angle_beta 90.103271
_cell_angle_gamma 90.000000
_cell_volume 2094.845728
_symmetry_space_group_name_H-M "C 2/C"
_symmetry_group_IT_number 15
_symmetry_cell_setting 'monoclinic'
loop_
_space_group_symop_operation_xyz
x,y,z
-x,y,1/2-z
-x,-y,-z
x,-y,1/2+z
1/2+x,1/2+y,z
1/2-x,1/2+y,1/2-z
1/2-x,1/2-y,-z
1/2+x,1/2-y,1/2+z
loop_
_atom_site_type_symbol
_atom_site_label
_atom_site_fract_x
_atom_site_fract_y
_atom_site_fract_z
Si Si1 0.891199 0.555531 0.813181
Si Si2 0.072448 0.735701 0.956801
Si Si3 0.391019 0.441864 0.686409
Si Si4 0.927665 0.235623 0.456291
Si Si5 0.500000 0.748568 0.750000
Si Si6 0.290626 0.251632 0.249966
O O1 0.875786 0.747467 0.749526
O O2 0.890242 0.713775 0.885247
O O3 0.958356 0.422913 0.801797
O O4 0.836036 0.337896 0.813787
O O5 0.110063 0.786080 0.886033
O O6 0.000079 0.750284 0.939411
O O7 0.090998 0.449097 0.985165
O O8 0.091041 0.949093 0.015482
O O9 0.458173 0.574212 0.698251
O O10 0.335829 0.659342 0.686106
O O11 0.250153 0.501920 0.275375
#
# Coordination Sequence:
#
# PCOD8144899 Si02
#       6
#     8   8   8   8   4   8
#     4  11  23  39  66  92 130 165 209 268 310 380
#     4  10  23  37  58  91 135 171 202 243 313 389
#     4  11  23  39  66  92 130 165 209 268 310 380
#     4  10  23  37  58  91 135 171 202 243 313 389
#     4  10  22  32  60 102 128 152 218 252 324 364
#     4  11  24  43  66  95 116 161 222 276 316 361
#
# _framework density 21.003934000000001
#
# number of rings (size 3 to 8) (size 9 to 14) (size 15 to 20)
#    0.000    1.455    1.818    2.727   17.818    0.000 
#    0.000    0.000    0.000    6.545    0.000    0.000 
#    0.000    0.000    0.000    0.000    0.000    0.000 
#
# Total GULP energy -272809.427128 kJ/mol
# GULP energy per Si atom -12400.428506 kJ/mol
# Density = 2.095613 g / cm^3
# Si number density = 21.003934 Si / 1000 Ang^3
#
#
#
# Elastic Constant Matrix: (Units=GPa)
#
#
# Indices 1 2 3 4 5 6 
#
# 1 106.0250 45.4288 36.7209 0.0000 5.3057 0.0000
# 2 45.4288 107.0783 26.5150 0.0000 1.3158 0.0000
# 3 36.7209 26.5150 117.1312 0.0000 -7.5039 0.0000
# 4 0.0000 0.0000 0.0000 33.5375 0.0000 0.7178
# 5 5.3057 1.3158 -7.5039 0.0000 2.7388 0.0000
# 6 0.0000 0.0000 0.0000 0.7178 0.0000 42.6842
#
#
#
# Elastic Compliance Matrix: (Units=1/GPa)
#
#
# Indices 1 2 3 4 5 6 
#
# 1 0.016370 -0.004536 -0.007274 0.000000 -0.049463 0.000000
# 2 -0.004536 0.011561 -0.001198 0.000000 -0.000049 0.000000
# 3 -0.007274 -0.001198 0.014590 0.000000 0.054641 0.000000
# 4 0.000000 0.000000 0.000000 0.029828 0.000000 -0.000502
# 5 -0.049463 -0.000049 0.054641 0.000000 0.610688 0.000000
# 6 0.000000 0.000000 0.000000 -0.000502 0.000000 0.023436
#
#
# Mechanical properties :
#
#
# Convention : Reuss Voigt Hill
#
# Bulk Modulus (GPa) = 60.59173 60.84044 60.71608
# Shear Modulus (GPa) = 6.77516 30.56340 18.66928
#
# Velocity S-wave (km/s) = 1.79796 3.81875 2.98459
# Velocity P-wave (km/s) = 5.76374 6.96225 6.39115
#
# Compressibility (1/GPa) = 0.01650390
#
# Stress axis : x y z
#
# Youngs Moduli (GPa) = 61.08804 86.50008 68.54208
#
# Poissons Ratio (x) = 0.39237 0.49857
# Poissons Ratio (y) = 0.27710 0.08212
# Poissons Ratio (z) = 0.44435 0.10364
#
# Static dielectric constant tensor:
#      x y z
#    x 3.794040 0.000000 0.026230 
#    y 0.000000 4.240350 0.000000 
#    z 0.026230 0.000000 3.436460 
# 
# 
# High freq. dielectric constant tensor:
#      x y z
#    x 1.800570 0.000000 0.000180 
#    y 0.000000 1.848470 0.000000 
#    z 0.000180 0.000000 1.795500 
# 
# From -- ./inp_files/212932.got.cif
#   From: 2010.06.25/outbox.cif.g09.slc.cpg/sg15_107_cif.got.tgz:212932.got - 2010.06.28 07:06:18.
