data_PCOD8144236
_publ_section_title
;
Structure prediction by ZEFSAII (Michael W. Deem and Ramdas Pophale) SiO2 
 PCOD8144236
Probable space group: C 2/C
;
_chemical_formula_sum "Si O2"
_cell_formula_units_Z 60
_cell_length_a 28.724530
_cell_length_b 24.238109
_cell_length_c 5.372331
_cell_angle_alpha 90.000000
_cell_angle_beta 53.009955
_cell_angle_gamma 90.000000
_cell_volume 2987.582423
_symmetry_space_group_name_H-M "C 2/C"
_symmetry_group_IT_number 15
_symmetry_cell_setting 'monoclinic'
loop_
_space_group_symop_operation_xyz
x,y,z
-x,y,1/2-z
-x,-y,-z
x,-y,1/2+z
1/2+x,1/2+y,z
1/2-x,1/2+y,1/2-z
1/2-x,1/2-y,-z
1/2+x,1/2-y,1/2+z
loop_
_atom_site_type_symbol
_atom_site_label
_atom_site_fract_x
_atom_site_fract_y
_atom_site_fract_z
Si Si1 0.296078 0.529886 0.981387
Si Si2 0.318914 0.750379 0.799779
Si Si3 0.000000 0.694036 0.750000
Si Si4 0.341990 0.969656 0.553364
Si Si5 0.432982 0.653336 0.968753
Si Si6 0.630532 0.634605 0.851594
Si Si7 0.608350 0.848378 0.161228
Si Si8 0.091231 0.732556 0.098098
O O1 0.318402 0.493506 0.674865
O O2 0.319455 0.590903 0.866437
O O3 0.226956 0.532782 0.213049
O O4 0.339142 0.690261 0.649363
O O5 0.345029 0.800906 0.558336
O O6 0.344388 0.757897 0.995394
O O7 0.250000 0.750000 0.000000
O O8 0.951942 0.653026 0.792723
O O9 0.035740 0.736010 0.460295
O O10 0.364867 0.908147 0.445615
O O11 0.364652 0.004577 0.241418
O O12 0.500000 0.637391 0.750000
O O13 0.407212 0.640265 0.777927
O O14 0.421618 0.718850 0.059830
O O15 0.406907 0.617631 0.282979
O O16 0.591051 0.830144 0.495469
#
# Coordination Sequence:
#
# PCOD8144236 Si02
#       8
#     8   8   4   8   8   8   8   8
#     4  10  21  42  66  88 118 166 208 254 302 373
#     4  10  22  37  56  93 129 160 194 259 327 374
#     4  10  22  36  62  86 122 168 218 250 314 372
#     4  10  24  42  65  91 121 164 218 260 310 370
#     4  11  22  37  60  90 128 160 203 253 299 372
#     4  11  22  39  60  95 121 159 207 250 312 372
#     4  11  21  40  61  89 124 166 204 265 312 377
#     4  10  22  37  60  87 124 174 206 247 309 391
#
# _framework density 20.083126
#
# number of rings (size 3 to 8) (size 9 to 14) (size 15 to 20)
#    0.000    1.600    1.333    3.200    7.467    0.533 
#    4.800    0.667    0.000    8.000    0.000    0.000 
#    0.000    0.000    0.000    0.000    0.000    0.000 
#
# Total GULP energy -371681.615969 kJ/mol
# GULP energy per Si atom -12389.387199 kJ/mol
# Density = 2.003742 g / cm^3
# Si number density = 20.083126 Si / 1000 Ang^3
#
#
#
# Elastic Constant Matrix: (Units=GPa)
#
#
# Indices 1 2 3 4 5 6 
#
# 1 68.8111 22.5165 60.4414 0.0000 5.8145 0.0000
# 2 22.5165 105.0761 40.2396 0.0000 2.7275 0.0000
# 3 60.4414 40.2396 107.9374 0.0000 13.3331 0.0000
# 4 0.0000 0.0000 0.0000 31.0479 0.0000 1.1530
# 5 5.8145 2.7275 13.3331 0.0000 30.3832 0.0000
# 6 0.0000 0.0000 0.0000 1.1530 0.0000 21.9539
#
#
#
# Elastic Compliance Matrix: (Units=1/GPa)
#
#
# Indices 1 2 3 4 5 6 
#
# 1 0.028677 0.000046 -0.016280 0.000000 0.001652 0.000000
# 2 0.000046 0.011124 -0.004280 0.000000 0.000871 0.000000
# 3 -0.016280 -0.004280 0.020664 0.000000 -0.005568 0.000000
# 4 0.000000 0.000000 0.000000 0.032271 0.000000 -0.001695
# 5 0.001652 0.000871 -0.005568 0.000000 0.034962 0.000000
# 6 0.000000 0.000000 0.000000 -0.001695 0.000000 0.045639
#
#
# Mechanical properties :
#
#
# Convention : Reuss Voigt Hill
#
# Bulk Modulus (GPa) = 51.44654 58.69106 55.06880
# Shear Modulus (GPa) = 22.64036 27.25216 24.94626
#
# Velocity S-wave (km/s) = 3.36122 3.68770 3.52824
# Velocity P-wave (km/s) = 6.38249 6.88620 6.63912
#
# Compressibility (1/GPa) = 0.01943765
#
# Stress axis : x y z
#
# Youngs Moduli (GPa) = 34.87073 89.89890 48.39252
#
# Poissons Ratio (x) = -0.00417 0.78782
# Poissons Ratio (y) = -0.00162 0.20714
# Poissons Ratio (z) = 0.56768 0.38481
#
# Static dielectric constant tensor:
#      x y z
#    x 3.795820 0.000000 0.237750 
#    y 0.000000 2.648610 0.000000 
#    z 0.237750 0.000000 3.909410 
# 
# 
# High freq. dielectric constant tensor:
#      x y z
#    x 1.787140 0.000000 0.008620 
#    y 0.000000 1.765250 0.000000 
#    z 0.008620 0.000000 1.794270 
# 
# From -- ./inp_files/18704.got.cif
#   From: 2010.06.25/outbox.cif.g09.slc.cpg/sg15_10_cif.got.tgz:18704.got - 2010.06.28 07:06:18.
