data_PCOD8144179
_publ_section_title
;
Structure prediction by ZEFSAII (Michael W. Deem and Ramdas Pophale) SiO2 
 PCOD8144179
Probable space group: C 2/C
;
_chemical_formula_sum "Si O2"
_cell_formula_units_Z 52
_cell_length_a 12.451192
_cell_length_b 25.044661
_cell_length_c 9.264275
_cell_angle_alpha 90.000000
_cell_angle_beta 123.352201
_cell_angle_gamma 90.000000
_cell_volume 2413.145723
_symmetry_space_group_name_H-M "C 2/C"
_symmetry_group_IT_number 15
_symmetry_cell_setting 'monoclinic'
loop_
_space_group_symop_operation_xyz
x,y,z
-x,y,1/2-z
-x,-y,-z
x,-y,1/2+z
1/2+x,1/2+y,z
1/2-x,1/2+y,1/2-z
1/2-x,1/2-y,-z
1/2+x,1/2-y,1/2+z
loop_
_atom_site_type_symbol
_atom_site_label
_atom_site_fract_x
_atom_site_fract_y
_atom_site_fract_z
Si Si1 0.676856 0.858210 0.609340
Si Si2 0.640545 0.783783 0.337093
Si Si3 0.500000 0.635140 0.750000
Si Si4 0.148328 0.048218 0.364202
Si Si5 0.271953 0.307016 0.948032
Si Si6 0.309858 0.559731 0.773396
Si Si7 0.611523 0.857766 0.055150
O O1 0.642755 0.839444 0.424068
O O2 0.767920 0.909465 0.664801
O O3 0.749261 0.811499 0.757593
O O4 0.538414 0.869555 0.576908
O O5 0.500000 0.755401 0.250000
O O6 0.750000 0.750000 0.500000
O O7 0.653806 0.804358 0.181345
O O8 0.414815 0.673799 0.588448
O O9 0.420835 0.600461 0.806134
O O10 0.180853 0.042727 0.555089
O O11 0.000000 0.065187 0.250000
O O12 0.177744 0.991524 0.317070
O O13 0.250000 0.250000 0.000000
O O14 0.169089 0.347799 0.939629
O O15 0.171859 0.587653 0.658786
#
# Coordination Sequence:
#
# PCOD8144179 Si02
#       7
#     8   8   4   8   8   8   8
#     4  11  24  42  66  97 133 177 221 278 335 410
#     4  10  21  42  64  92 131 173 217 277 336 400
#     4  10  24  44  70  96 144 172 220 286 340 396
#     4  12  25  41  71  97 133 173 230 279 349 407
#     4  11  24  42  68  99 133 180 228 272 335 403
#     4  11  24  44  67  98 133 175 222 287 342 405
#     4  10  23  44  64  92 140 170 220 284 335 402
#
# _framework density 21.548635999999998
#
# number of rings (size 3 to 8) (size 9 to 14) (size 15 to 20)
#    0.000    1.231    2.308    2.769    6.462    1.231 
#    8.308    0.000    0.000    0.000    0.000    0.000 
#    0.000    0.000    0.000    0.000    0.000    0.000 
#
# Total GULP energy -322245.742038 kJ/mol
# GULP energy per Si atom -12394.067001 kJ/mol
# Density = 2.149959 g / cm^3
# Si number density = 21.548636 Si / 1000 Ang^3
#
#
#
# Elastic Constant Matrix: (Units=GPa)
#
#
# Indices 1 2 3 4 5 6 
#
# 1 78.0594 26.4130 37.7989 0.0000 28.7977 0.0000
# 2 26.4130 95.1544 39.2751 0.0000 17.6498 0.0000
# 3 37.7989 39.2751 120.2470 0.0000 4.6923 0.0000
# 4 0.0000 0.0000 0.0000 21.8850 0.0000 -0.8637
# 5 28.7977 17.6498 4.6923 0.0000 47.3858 0.0000
# 6 0.0000 0.0000 0.0000 -0.8637 0.0000 35.4348
#
#
#
# Elastic Compliance Matrix: (Units=1/GPa)
#
#
# Indices 1 2 3 4 5 6 
#
# 1 0.019972 -0.001232 -0.005441 0.000000 -0.011140 0.000000
# 2 -0.001232 0.013093 -0.003743 0.000000 -0.003758 0.000000
# 3 -0.005441 -0.003743 0.011108 0.000000 0.003601 0.000000
# 4 0.000000 0.000000 0.000000 0.045737 0.000000 0.001115
# 5 -0.011140 -0.003758 0.003601 0.000000 0.028916 0.000000
# 6 0.000000 0.000000 0.000000 0.001115 0.000000 0.028248
#
#
# Mechanical properties :
#
#
# Convention : Reuss Voigt Hill
#
# Bulk Modulus (GPa) = 42.84009 55.60385 49.22197
# Shear Modulus (GPa) = 28.45974 33.60606 31.03290
#
# Velocity S-wave (km/s) = 3.63812 3.95339 3.79903
# Velocity P-wave (km/s) = 6.12957 6.83366 6.49117
#
# Compressibility (1/GPa) = 0.02334262
#
# Stress axis : x y z
#
# Youngs Moduli (GPa) = 50.07001 76.37753 90.02133
#
# Poissons Ratio (x) = 0.09408 0.48981
# Poissons Ratio (y) = 0.06167 0.33691
# Poissons Ratio (z) = 0.27243 0.28585
#
# Static dielectric constant tensor:
#      x y z
#    x 4.297610 0.000000 -0.199340 
#    y 0.000000 4.020060 0.000000 
#    z -0.199340 0.000000 4.498890 
# 
# 
# High freq. dielectric constant tensor:
#      x y z
#    x 1.856850 0.000000 -0.004250 
#    y 0.000000 1.834200 0.000000 
#    z -0.004250 0.000000 1.864150 
# 
# From -- ./inp_files/34455.got.cif
#   From: 2010.06.25/outbox.cif.g09.slc.cpg/sg15_18_cif.got.tgz:34455.got - 2010.06.28 07:06:18.
