data_PCOD8144985
_publ_section_title
;
Structure prediction by ZEFSAII (Michael W. Deem and Ramdas Pophale) SiO2 
 PCOD8144985
Probable space group: C 2/C
;
_chemical_formula_sum "Si O2"
_cell_formula_units_Z 48
_cell_length_a 12.065729
_cell_length_b 21.024560
_cell_length_c 10.588804
_cell_angle_alpha 90.000000
_cell_angle_beta 54.030692
_cell_angle_gamma 90.000000
_cell_volume 2173.972095
_symmetry_space_group_name_H-M "C 2/C"
_symmetry_group_IT_number 15
_symmetry_cell_setting 'monoclinic'
loop_
_space_group_symop_operation_xyz
x,y,z
-x,y,1/2-z
-x,-y,-z
x,-y,1/2+z
1/2+x,1/2+y,z
1/2-x,1/2+y,1/2-z
1/2-x,1/2-y,-z
1/2+x,1/2-y,1/2+z
loop_
_atom_site_type_symbol
_atom_site_label
_atom_site_fract_x
_atom_site_fract_y
_atom_site_fract_z
Si Si1 0.769058 0.068645 0.454263
Si Si2 0.679468 0.820231 0.310309
Si Si3 0.000000 0.024043 0.750000
Si Si4 0.500000 0.093929 0.750000
Si Si5 0.563579 0.388453 0.427960
Si Si6 0.641635 0.196695 0.106505
Si Si7 0.309940 0.328542 0.719556
O O1 0.607858 0.051826 0.593385
O O2 0.847270 0.071163 0.534305
O O3 0.767808 0.134600 0.375609
O O4 0.858028 0.015495 0.320222
O O5 0.594774 0.860156 0.267717
O O6 0.837283 0.841578 0.214950
O O7 0.613265 0.837068 0.491410
O O8 0.684802 0.747040 0.262093
O O9 0.981416 0.066444 0.887081
O O10 0.461263 0.347304 0.579130
O O11 0.500000 0.226641 0.250000
O O12 0.704755 0.152939 0.175839
O O13 0.750000 0.250000 0.000000
#
# Coordination Sequence:
#
# PCOD8144985 Si02
#       7
#     8   8   4   4   8   8   8
#     4  11  24  43  67 103 130 179 234 282 340 397
#     4  10  24  39  66  98 144 176 221 274 356 412
#     4  12  24  47  74  90 137 178 250 284 320 400
#     4  10  24  41  66  96 143 170 220 286 354 402
#     4  11  24  42  68 103 131 184 228 285 334 406
#     4  10  22  36  57  88 132 178 218 261 326 404
#     4  11  23  38  70  98 139 172 231 278 344 405
#
# _framework density 22.0794
#
# number of rings (size 3 to 8) (size 9 to 14) (size 15 to 20)
#    0.000    1.333    1.667    2.500   14.000    1.333 
#    0.000    3.333    7.333    0.000    0.000    0.000 
#    0.000    0.000    0.000    0.000    0.000    0.000 
#
# Total GULP energy -297403.741523 kJ/mol
# GULP energy per Si atom -12391.822563 kJ/mol
# Density = 2.202915 g / cm^3
# Si number density = 22.079400 Si / 1000 Ang^3
#
#
#
# Elastic Constant Matrix: (Units=GPa)
#
#
# Indices 1 2 3 4 5 6 
#
# 1 83.6479 13.2893 31.0729 0.0000 -1.9630 0.0000
# 2 13.2893 64.3563 21.6813 0.0000 -10.7646 0.0000
# 3 31.0729 21.6813 148.3789 0.0000 -33.2289 0.0000
# 4 0.0000 0.0000 0.0000 16.5253 0.0000 2.8321
# 5 -1.9630 -10.7646 -33.2289 0.0000 54.6828 0.0000
# 6 0.0000 0.0000 0.0000 2.8321 0.0000 28.5819
#
#
#
# Elastic Compliance Matrix: (Units=1/GPa)
#
#
# Indices 1 2 3 4 5 6 
#
# 1 0.013305 -0.002063 -0.002858 0.000000 -0.001665 0.000000
# 2 -0.002063 0.016863 -0.001511 0.000000 0.002327 0.000000
# 3 -0.002858 -0.001511 0.008646 0.000000 0.004854 0.000000
# 4 0.000000 0.000000 0.000000 0.061559 0.000000 -0.006100
# 5 -0.001665 0.002327 0.004854 0.000000 0.021635 0.000000
# 6 0.000000 0.000000 0.000000 -0.006100 0.000000 0.035592
#
#
# Mechanical properties :
#
#
# Convention : Reuss Voigt Hill
#
# Bulk Modulus (GPa) = 38.53518 47.60779 43.07148
# Shear Modulus (GPa) = 27.91545 35.31397 31.61471
#
# Velocity S-wave (km/s) = 3.55959 4.00360 3.78810
# Velocity P-wave (km/s) = 5.86388 6.55596 6.21956
#
# Compressibility (1/GPa) = 0.02595032
#
# Stress axis : x y z
#
# Youngs Moduli (GPa) = 75.15892 59.30218 115.66488
#
# Poissons Ratio (x) = 0.12235 0.33054
# Poissons Ratio (y) = 0.15507 0.17474
# Poissons Ratio (z) = 0.21478 0.08959
#
# Static dielectric constant tensor:
#      x y z
#    x 4.499380 0.000000 0.183180 
#    y 0.000000 3.704160 0.000000 
#    z 0.183180 0.000000 4.988360 
# 
# 
# High freq. dielectric constant tensor:
#      x y z
#    x 1.879560 0.000000 0.001820 
#    y 0.000000 1.830260 0.000000 
#    z 0.001820 0.000000 1.892720 
# 
# From -- ./inp_files/89430.got.cif
#   From: 2010.06.25/outbox.cif.g09.slc.cpg/sg15_45_cif.got.tgz:89430.got - 2010.06.28 07:06:18.
