data_PCOD8144221
_publ_section_title
;
Structure prediction by ZEFSAII (Michael W. Deem and Ramdas Pophale) SiO2 
 PCOD8144221
Probable space group: C 2/C
;
_chemical_formula_sum "Si O2"
_cell_formula_units_Z 56
_cell_length_a 17.610568
_cell_length_b 17.143171
_cell_length_c 9.448989
_cell_angle_alpha 90.000000
_cell_angle_beta 70.092866
_cell_angle_gamma 90.000000
_cell_volume 2682.200493
_symmetry_space_group_name_H-M "C 2/C"
_symmetry_group_IT_number 15
_symmetry_cell_setting 'monoclinic'
loop_
_space_group_symop_operation_xyz
x,y,z
-x,y,1/2-z
-x,-y,-z
x,-y,1/2+z
1/2+x,1/2+y,z
1/2-x,1/2+y,1/2-z
1/2-x,1/2-y,-z
1/2+x,1/2-y,1/2+z
loop_
_atom_site_type_symbol
_atom_site_label
_atom_site_fract_x
_atom_site_fract_y
_atom_site_fract_z
Si Si1 0.968116 0.427499 0.108107
Si Si2 0.542563 0.212329 0.077128
Si Si3 0.212412 0.331034 0.564304
Si Si4 0.419344 0.295630 0.716134
Si Si5 0.766855 0.101582 0.308026
Si Si6 0.222712 0.431316 0.311733
Si Si7 0.296527 0.821194 0.402488
O O1 0.871213 0.436436 0.172862
O O2 0.000000 0.426776 0.250000
O O3 0.000134 0.350597 0.001133
O O4 0.000000 0.500000 0.000000
O O5 0.500000 0.239869 0.250000
O O6 0.619130 0.167715 0.088368
O O7 0.562721 0.287295 0.964402
O O8 0.250000 0.250000 0.500000
O O9 0.229272 0.341726 0.716519
O O10 0.246230 0.405035 0.455129
O O11 0.500000 0.316018 0.750000
O O12 0.357317 0.366991 0.782625
O O13 0.383416 0.211728 0.794052
O O14 0.703314 0.110518 0.478563
O O15 0.769005 0.012291 0.255636
O O16 0.254612 0.359936 0.193174
O O17 0.250000 0.750000 0.500000
#
# Coordination Sequence:
#
# PCOD8144221 Si02
#       7
#     8   8   8   8   8   8   8
#     4  11  25  38  57  93 140 173 209 257 332 413
#     4  11  24  39  62  94 126 177 214 268 334 390
#     4  11  21  42  64  93 130 163 219 270 320 385
#     4  11  23  44  66  94 132 174 229 280 321 395
#     4  11  24  39  66  95 132 174 219 267 333 397
#     4  11  24  39  64  94 134 171 208 273 328 390
#     4  10  21  42  65  95 120 173 222 262 327 393
#
# _framework density 20.878378999999999
#
# number of rings (size 3 to 8) (size 9 to 14) (size 15 to 20)
#    0.000    1.143    4.286    2.571   10.000    0.000 
#    0.000    0.000    0.000    8.571    0.000    0.000 
#    0.000    0.000    0.000    0.000    0.000    0.000 
#
# Total GULP energy -346909.478382 kJ/mol
# GULP energy per Si atom -12389.624228 kJ/mol
# Density = 2.083086 g / cm^3
# Si number density = 20.878379 Si / 1000 Ang^3
#
#
#
# Elastic Constant Matrix: (Units=GPa)
#
#
# Indices 1 2 3 4 5 6 
#
# 1 91.6745 35.3328 41.6862 0.0000 17.3961 0.0000
# 2 35.3328 100.8965 27.0611 0.0000 -10.5148 0.0000
# 3 41.6862 27.0611 139.2974 0.0000 0.8848 0.0000
# 4 0.0000 0.0000 0.0000 36.4583 0.0000 4.0128
# 5 17.3961 -10.5148 0.8848 0.0000 21.6507 0.0000
# 6 0.0000 0.0000 0.0000 4.0128 0.0000 29.0747
#
#
#
# Elastic Compliance Matrix: (Units=1/GPa)
#
#
# Indices 1 2 3 4 5 6 
#
# 1 0.019402 -0.007663 -0.004196 0.000000 -0.019139 0.000000
# 2 -0.007663 0.014093 -0.000527 0.000000 0.013024 0.000000
# 3 -0.004196 -0.000527 0.008519 0.000000 0.002767 0.000000
# 4 0.000000 0.000000 0.000000 0.027852 0.000000 -0.003844
# 5 -0.019139 0.013024 0.002767 0.000000 0.067778 0.000000
# 6 0.000000 0.000000 0.000000 -0.003844 0.000000 0.034925
#
#
# Mechanical properties :
#
#
# Convention : Reuss Voigt Hill
#
# Bulk Modulus (GPa) = 57.99998 60.00318 59.00158
# Shear Modulus (GPa) = 24.61971 32.62262 28.62116
#
# Velocity S-wave (km/s) = 3.43767 3.95714 3.70652
# Velocity P-wave (km/s) = 6.60280 7.04843 6.82925
#
# Compressibility (1/GPa) = 0.01724138
#
# Stress axis : x y z
#
# Youngs Moduli (GPa) = 51.54217 70.95479 117.37953
#
# Poissons Ratio (x) = 0.54376 0.49250
# Poissons Ratio (y) = 0.39499 0.06189
# Poissons Ratio (z) = 0.21626 0.03741
#
# Static dielectric constant tensor:
#      x y z
#    x 3.605450 0.000000 0.146270 
#    y 0.000000 3.764850 0.000000 
#    z 0.146270 0.000000 4.595720 
# 
# 
# High freq. dielectric constant tensor:
#      x y z
#    x 1.790120 0.000000 0.017420 
#    y 0.000000 1.810370 0.000000 
#    z 0.017420 0.000000 1.840280 
# 
# From -- ./inp_files/49009.got.cif
#   From: 2010.06.25/outbox.cif.g09.slc.cpg/sg15_25_cif.got.tgz:49009.got - 2010.06.28 07:06:18.
