data_PCOD8144827
_publ_section_title
;
Structure prediction by ZEFSAII (Michael W. Deem and Ramdas Pophale) SiO2 
 PCOD8144827
Probable space group: C 2/C
;
_chemical_formula_sum "Si O2"
_cell_formula_units_Z 36
_cell_length_a 16.273356
_cell_length_b 10.762740
_cell_length_c 14.459694
_cell_angle_alpha 90.000000
_cell_angle_beta 142.808610
_cell_angle_gamma 90.000000
_cell_volume 1530.878028
_symmetry_space_group_name_H-M "C 2/C"
_symmetry_group_IT_number 15
_symmetry_cell_setting 'monoclinic'
loop_
_space_group_symop_operation_xyz
x,y,z
-x,y,1/2-z
-x,-y,-z
x,-y,1/2+z
1/2+x,1/2+y,z
1/2-x,1/2+y,1/2-z
1/2-x,1/2-y,-z
1/2+x,1/2-y,1/2+z
loop_
_atom_site_type_symbol
_atom_site_label
_atom_site_fract_x
_atom_site_fract_y
_atom_site_fract_z
Si Si1 0.744794 0.621305 0.941490
Si Si2 0.500000 0.450010 0.750000
Si Si3 0.519278 0.008380 0.126984
Si Si4 0.433584 0.736950 0.347922
Si Si5 0.160658 0.266915 0.699075
O O1 0.631963 0.533905 0.885583
O O2 0.703496 0.648667 0.798041
O O3 0.750000 0.750000 0.000000
O O4 0.887645 0.548669 0.068211
O O5 0.508811 0.366174 0.667667
O O6 0.634831 0.114363 0.244444
O O7 0.564424 0.871751 0.201057
O O8 0.500000 0.000000 0.000000
O O9 0.278783 0.700504 0.232375
O O10 0.521702 0.735718 0.520802
#
# Coordination Sequence:
#
# PCOD8144827 Si02
#       5
#     8   4   8   8   8
#     4  12  26  47  70 108 147 188 244 298 360 429
#     4  12  28  44  72 118 142 180 252 300 356 428
#     4  10  21  45  69  99 145 186 234 290 362 425
#     4  11  26  45  75 106 148 187 242 299 364 427
#     4  11  23  46  74 104 141 199 239 290 366 432
#
# _framework density 23.515917999999999
#
# number of rings (size 3 to 8) (size 9 to 14) (size 15 to 20)
#    0.000    0.889    4.444    4.000    0.000    8.000 
#    0.000    0.000    0.000    0.000    0.000    0.000 
#    0.000    0.000    0.000    0.000    0.000    0.000 
#
# Total GULP energy -223270.159865 kJ/mol
# GULP energy per Si atom -12403.897770 kJ/mol
# Density = 2.346239 g / cm^3
# Si number density = 23.515918 Si / 1000 Ang^3
#
#
#
# Elastic Constant Matrix: (Units=GPa)
#
#
# Indices 1 2 3 4 5 6 
#
# 1 132.1478 68.7983 14.7426 0.0000 47.0780 0.0000
# 2 68.7983 171.1763 35.3234 0.0000 30.4218 0.0000
# 3 14.7426 35.3234 57.0796 0.0000 30.1897 0.0000
# 4 0.0000 0.0000 0.0000 30.3222 0.0000 5.6003
# 5 47.0780 30.4218 30.1897 0.0000 48.3385 0.0000
# 6 0.0000 0.0000 0.0000 5.6003 0.0000 63.5743
#
#
#
# Elastic Compliance Matrix: (Units=1/GPa)
#
#
# Indices 1 2 3 4 5 6 
#
# 1 0.015050 -0.004713 0.007785 0.000000 -0.016553 0.000000
# 2 -0.004713 0.008370 -0.005382 0.000000 0.002684 0.000000
# 3 0.007785 -0.005382 0.031445 0.000000 -0.023833 0.000000
# 4 0.000000 0.000000 0.000000 0.033525 0.000000 -0.002953
# 5 -0.016553 0.002684 -0.023833 0.000000 0.050005 0.000000
# 6 0.000000 0.000000 0.000000 -0.002953 0.000000 0.015990
#
#
# Mechanical properties :
#
#
# Convention : Reuss Voigt Hill
#
# Bulk Modulus (GPa) = 19.90316 66.45915 43.18116
# Shear Modulus (GPa) = 28.44914 44.54962 36.49938
#
# Velocity S-wave (km/s) = 3.48197 4.35724 3.94396
# Velocity P-wave (km/s) = 4.96463 7.32372 6.25637
#
# Compressibility (1/GPa) = 0.05024327
#
# Stress axis : x y z
#
# Youngs Moduli (GPa) = 66.44697 119.47667 31.80154
#
# Poissons Ratio (x) = 0.56313 -0.24756
# Poissons Ratio (y) = 0.31318 0.17115
# Poissons Ratio (z) = -0.51726 0.64301
#
# Static dielectric constant tensor:
#      x y z
#    x 4.331180 0.000000 0.261450 
#    y 0.000000 5.091540 0.000000 
#    z 0.261450 0.000000 4.166140 
# 
# 
# High freq. dielectric constant tensor:
#      x y z
#    x 1.943860 0.000000 0.009650 
#    y 0.000000 1.947590 0.000000 
#    z 0.009650 0.000000 1.915750 
# 
# From -- ./inp_files/46320.got.cif
#   From: 2010.06.25/outbox.cif.g09.slc.cpg/sg15_24_cif.got.tgz:46320.got - 2010.06.28 07:06:18.
