data_PCOD8144311
_publ_section_title
;
Structure prediction by ZEFSAII (Michael W. Deem and Ramdas Pophale) SiO2 
 PCOD8144311
Probable space group: C 2/C
;
_chemical_formula_sum "Si O2"
_cell_formula_units_Z 52
_cell_length_a 11.997697
_cell_length_b 25.363286
_cell_length_c 10.488430
_cell_angle_alpha 90.000000
_cell_angle_beta 50.649186
_cell_angle_gamma 90.000000
_cell_volume 2468.025526
_symmetry_space_group_name_H-M "C 2/C"
_symmetry_group_IT_number 15
_symmetry_cell_setting 'monoclinic'
loop_
_space_group_symop_operation_xyz
x,y,z
-x,y,1/2-z
-x,-y,-z
x,-y,1/2+z
1/2+x,1/2+y,z
1/2-x,1/2+y,1/2-z
1/2-x,1/2-y,-z
1/2+x,1/2-y,1/2+z
loop_
_atom_site_type_symbol
_atom_site_label
_atom_site_fract_x
_atom_site_fract_y
_atom_site_fract_z
Si Si1 0.668496 0.546919 0.477608
Si Si2 0.666423 0.456510 0.274046
Si Si3 0.093718 0.301524 0.532529
Si Si4 0.028143 0.208448 0.440281
Si Si5 0.806813 0.653656 0.284607
Si Si6 0.000000 0.294272 0.250000
Si Si7 0.247983 0.651942 0.695151
O O1 0.702304 0.503338 0.345946
O O2 0.500034 0.561155 0.595801
O O3 0.705832 0.529124 0.597165
O O4 0.767186 0.596024 0.365636
O O5 0.764111 0.408567 0.252809
O O6 0.165133 0.308118 0.616767
O O7 0.215779 0.311294 0.338997
O O8 0.044332 0.240068 0.561789
O O9 0.960026 0.343022 0.599594
O O10 0.981284 0.255629 0.381920
O O11 0.908195 0.163579 0.529870
O O12 0.176552 0.178218 0.295435
O O13 0.862993 0.333271 0.337013
#
# Coordination Sequence:
#
# PCOD8144311 Si02
#       7
#     8   8   8   8   8   4   8
#     4  10  21  42  67  97 128 159 218 274 320 386
#     4  10  21  42  68  98 121 166 217 272 323 382
#     4  10  22  36  60  93 133 157 203 259 316 378
#     4  11  22  40  62  90 122 178 216 253 305 382
#     4  11  21  39  61  94 128 162 205 263 318 368
#     4  10  24  40  56  92 136 162 218 262 312 384
#     4  11  21  41  65  87 126 172 209 262 318 377
#
# _framework density 21.069474
#
# number of rings (size 3 to 8) (size 9 to 14) (size 15 to 20)
#    0.000    1.538    3.077    2.769    0.000    3.077 
#    8.308    2.308    0.000    0.000    0.000    0.000 
#    0.000    0.000    0.000    0.000    0.000    0.000 
#
# Total GULP energy -322168.005003 kJ/mol
# GULP energy per Si atom -12391.077115 kJ/mol
# Density = 2.102152 g / cm^3
# Si number density = 21.069474 Si / 1000 Ang^3
#
#
#
# Elastic Constant Matrix: (Units=GPa)
#
#
# Indices 1 2 3 4 5 6 
#
# 1 107.3168 45.6292 27.0979 0.0000 2.7317 0.0000
# 2 45.6292 89.6283 18.5351 0.0000 15.4582 0.0000
# 3 27.0979 18.5351 53.1429 0.0000 -3.9717 0.0000
# 4 0.0000 0.0000 0.0000 28.0457 0.0000 0.9473
# 5 2.7317 15.4582 -3.9717 0.0000 32.4188 0.0000
# 6 0.0000 0.0000 0.0000 0.9473 0.0000 30.4291
#
#
#
# Elastic Compliance Matrix: (Units=1/GPa)
#
#
# Indices 1 2 3 4 5 6 
#
# 1 0.012898 -0.005845 -0.004452 0.000000 0.001155 0.000000
# 2 -0.005845 0.016102 -0.003202 0.000000 -0.007578 0.000000
# 3 -0.004452 -0.003202 0.022553 0.000000 0.004665 0.000000
# 4 0.000000 0.000000 0.000000 0.035694 0.000000 -0.001111
# 5 0.001155 -0.007578 0.004665 0.000000 0.034934 0.000000
# 6 0.000000 0.000000 0.000000 -0.001111 0.000000 0.032898
#
#
# Mechanical properties :
#
#
# Convention : Reuss Voigt Hill
#
# Bulk Modulus (GPa) = 40.72478 48.06802 44.39640
# Shear Modulus (GPa) = 26.27980 28.76712 27.52346
#
# Velocity S-wave (km/s) = 3.53553 3.69907 3.61822
# Velocity P-wave (km/s) = 6.00312 6.41153 6.21068
#
# Compressibility (1/GPa) = 0.02455507
#
# Stress axis : x y z
#
# Youngs Moduli (GPa) = 77.53102 62.10479 44.34063
#
# Poissons Ratio (x) = 0.36299 0.19740
# Poissons Ratio (y) = 0.45315 0.14198
# Poissons Ratio (z) = 0.34517 0.19886
#
# Static dielectric constant tensor:
#      x y z
#    x 4.213950 0.000000 0.021800 
#    y 0.000000 3.656740 0.000000 
#    z 0.021800 0.000000 3.825660 
# 
# 
# High freq. dielectric constant tensor:
#      x y z
#    x 1.830870 0.000000 -0.002080 
#    y 0.000000 1.812600 0.000000 
#    z -0.002080 0.000000 1.816250 
# 
# From -- ./inp_files/52230.got.cif
#   From: 2010.06.25/outbox.cif.g09.slc.cpg/sg15_27_cif.got.tgz:52230.got - 2010.06.28 07:06:18.
