data_PCOD8144652
_publ_section_title
;
Structure prediction by ZEFSAII (Michael W. Deem and Ramdas Pophale) SiO2 
 PCOD8144652
Probable space group: C 2/C
;
_chemical_formula_sum "Si O2"
_cell_formula_units_Z 40
_cell_length_a 11.416030
_cell_length_b 14.149776
_cell_length_c 13.867350
_cell_angle_alpha 90.000000
_cell_angle_beta 45.837523
_cell_angle_gamma 90.000000
_cell_volume 1606.939603
_symmetry_space_group_name_H-M "C 2/C"
_symmetry_group_IT_number 15
_symmetry_cell_setting 'monoclinic'
loop_
_space_group_symop_operation_xyz
x,y,z
-x,y,1/2-z
-x,-y,-z
x,-y,1/2+z
1/2+x,1/2+y,z
1/2-x,1/2+y,1/2-z
1/2-x,1/2-y,-z
1/2+x,1/2-y,1/2+z
loop_
_atom_site_type_symbol
_atom_site_label
_atom_site_fract_x
_atom_site_fract_y
_atom_site_fract_z
Si Si1 0.141309 0.549898 0.100500
Si Si2 0.019156 0.617342 0.978676
Si Si3 0.720941 0.874535 0.175747
Si Si4 0.584780 0.331699 0.972293
Si Si5 0.160630 0.839423 0.708392
O O1 0.077450 0.542345 0.026520
O O2 0.189090 0.444188 0.105046
O O3 0.292215 0.622853 0.021105
O O4 0.000000 0.591929 0.250000
O O5 0.824017 0.611812 0.075526
O O6 0.112037 0.591403 0.827522
O O7 0.072226 0.719179 0.990713
O O8 0.668171 0.770459 0.173237
O O9 0.910639 0.878779 0.094679
O O10 0.647749 0.356382 0.829543
O O11 0.000000 0.884008 0.750000
#
# Coordination Sequence:
#
# PCOD8144652 Si02
#       5
#     8   8   8   8   8
#     4  12  23  41  67 100 143 172 219 284 340 389
#     4  10  23  44  70  98 131 185 225 272 334 405
#     4  10  24  41  67 102 138 172 226 277 337 394
#     4  10  22  44  67  99 135 178 229 271 329 406
#     4  10  21  43  71  98 130 179 230 272 327 405
#
# _framework density 24.892036999999998
#
# number of rings (size 3 to 8) (size 9 to 14) (size 15 to 20)
#    0.000    1.600    2.000    1.800    0.000   10.400 
#    3.600    0.000    0.000    0.000    0.000    0.000 
#    0.000    0.000    0.000    0.000    0.000    0.000 
#
# Total GULP energy -248139.446709 kJ/mol
# GULP energy per Si atom -12406.972335 kJ/mol
# Density = 2.483538 g / cm^3
# Si number density = 24.892037 Si / 1000 Ang^3
#
#
#
# Elastic Constant Matrix: (Units=GPa)
#
#
# Indices 1 2 3 4 5 6 
#
# 1 152.9555 40.3022 46.9877 -0.0001 -19.6940 0.0001
# 2 40.3022 98.0990 40.3903 -0.0001 -4.1966 0.0000
# 3 46.9877 40.3903 132.0466 -0.0001 -28.6468 0.0001
# 4 -0.0001 -0.0001 -0.0001 25.1333 0.0001 4.9176
# 5 -19.6940 -4.1966 -28.6468 0.0001 47.8480 -0.0001
# 6 0.0001 0.0000 0.0001 4.9176 -0.0001 25.9271
#
#
#
# Elastic Compliance Matrix: (Units=1/GPa)
#
#
# Indices 1 2 3 4 5 6 
#
# 1 0.007966 -0.002520 -0.001609 0.000000 0.002094 0.000000
# 2 -0.002520 0.012529 -0.003358 0.000000 -0.001949 0.000000
# 3 -0.001609 -0.003358 0.010304 0.000000 0.005212 0.000000
# 4 0.000000 0.000000 0.000000 0.041321 0.000000 -0.007837
# 5 0.002094 -0.001949 0.005212 0.000000 0.024711 0.000000
# 6 0.000000 0.000000 0.000000 -0.007837 0.000000 0.040056
#
#
# Mechanical properties :
#
#
# Convention : Reuss Voigt Hill
#
# Bulk Modulus (GPa) = 63.20247 70.94017 67.07132
# Shear Modulus (GPa) = 31.81941 36.80973 34.31457
#
# Velocity S-wave (km/s) = 3.57921 3.84966 3.71689
# Velocity P-wave (km/s) = 6.52125 6.95132 6.73972
#
# Compressibility (1/GPa) = 0.01582217
#
# Stress axis : x y z
#
# Youngs Moduli (GPa) = 125.53352 79.81767 97.05296
#
# Poissons Ratio (x) = 0.20118 0.15619
# Poissons Ratio (y) = 0.31640 0.32592
# Poissons Ratio (z) = 0.20203 0.26804
#
# Static dielectric constant tensor:
#      x y z
#    x 4.422910 0.000000 -0.341090 
#    y 0.000000 4.397590 0.000000 
#    z -0.341090 0.000000 4.565460 
# 
# 
# High freq. dielectric constant tensor:
#      x y z
#    x 1.997950 0.000000 -0.015090 
#    y 0.000000 2.002030 0.000000 
#    z -0.015090 0.000000 1.997510 
# 
# From -- ./inp_files/143301.got.cif
#   From: 2010.06.25/outbox.cif.g09.slc.cpg/sg15_72_cif.got.tgz:143301.got - 2010.06.28 07:06:18.
