data_PCOD8144731
_publ_section_title
;
Structure prediction by ZEFSAII (Michael W. Deem and Ramdas Pophale) SiO2 
 PCOD8144731
Probable space group: C 2/C
;
_chemical_formula_sum "Si O2"
_cell_formula_units_Z 52
_cell_length_a 21.646935
_cell_length_b 8.150308
_cell_length_c 21.028463
_cell_angle_alpha 90.000000
_cell_angle_beta 143.679343
_cell_angle_gamma 90.000000
_cell_volume 2197.467259
_symmetry_space_group_name_H-M "C 2/C"
_symmetry_group_IT_number 15
_symmetry_cell_setting 'monoclinic'
loop_
_space_group_symop_operation_xyz
x,y,z
-x,y,1/2-z
-x,-y,-z
x,-y,1/2+z
1/2+x,1/2+y,z
1/2-x,1/2+y,1/2-z
1/2-x,1/2-y,-z
1/2+x,1/2-y,1/2+z
loop_
_atom_site_type_symbol
_atom_site_label
_atom_site_fract_x
_atom_site_fract_y
_atom_site_fract_z
Si Si1 0.502191 0.948890 0.612137
Si Si2 0.823892 0.130869 0.600113
Si Si3 0.619780 0.747518 0.191790
Si Si4 0.595068 0.590732 0.438460
Si Si5 0.500000 0.141825 0.250000
Si Si6 0.699796 0.885929 0.578186
Si Si7 0.440922 0.641661 0.488549
O O1 0.465052 0.953643 0.656594
O O2 0.514107 0.769589 0.589575
O O3 0.607209 0.057701 0.695825
O O4 0.414597 0.046623 0.497136
O O5 0.750000 0.250000 0.500000
O O6 0.907498 0.248616 0.702683
O O7 0.889744 0.993624 0.616632
O O8 0.757995 0.041560 0.598433
O O9 0.732324 0.685046 0.307853
O O10 0.625359 0.733943 0.120008
O O11 0.525023 0.647708 0.148200
O O12 0.678024 0.738749 0.510499
O O13 0.629851 0.452238 0.518688
O O14 0.500000 0.500000 0.500000
#
# Coordination Sequence:
#
# PCOD8144731 Si02
#       7
#     8   8   8   8   4   8   8
#     4  11  24  45  67 103 141 171 238 278 339 418
#     4  12  23  40  64  95 135 180 221 278 343 402
#     4  10  24  41  69  92 130 186 214 283 345 390
#     4  10  22  42  61  93 131 168 224 284 324 410
#     4  12  24  40  70  96 136 184 216 280 354 392
#     4  11  24  41  66 101 133 174 229 279 341 407
#     4  10  21  44  67  96 133 178 225 283 340 399
#
# _framework density 23.663606000000001
#
# number of rings (size 3 to 8) (size 9 to 14) (size 15 to 20)
#    0.000    1.231    3.077    1.846    4.308    3.692 
#    0.000    0.000    0.000    0.000    0.000    0.000 
#    0.000    0.000    0.000    0.000    0.000    0.000 
#
# Total GULP energy -322095.631102 kJ/mol
# GULP energy per Si atom -12388.293504 kJ/mol
# Density = 2.360975 g / cm^3
# Si number density = 23.663606 Si / 1000 Ang^3
#
#
#
# Elastic Constant Matrix: (Units=GPa)
#
#
# Indices 1 2 3 4 5 6 
#
# 1 17.7757 12.3719 7.1078 0.0000 -7.7202 0.0000
# 2 12.3719 127.3379 31.0462 0.0000 -6.3904 0.0000
# 3 7.1078 31.0462 105.1080 0.0000 -5.2595 0.0000
# 4 0.0000 0.0000 0.0000 39.4749 0.0000 3.5441
# 5 -7.7202 -6.3904 -5.2595 0.0000 31.3763 0.0000
# 6 0.0000 0.0000 0.0000 3.5441 0.0000 38.1213
#
#
#
# Elastic Compliance Matrix: (Units=1/GPa)
#
#
# Indices 1 2 3 4 5 6 
#
# 1 0.067375 -0.005238 -0.002252 0.000000 0.015134 0.000000
# 2 -0.005238 0.008924 -0.002274 0.000000 0.000148 0.000000
# 3 -0.002252 -0.002274 0.010374 0.000000 0.000722 0.000000
# 4 0.000000 0.000000 0.000000 0.025546 0.000000 -0.002375
# 5 0.015134 0.000148 0.000722 0.000000 0.035746 0.000000
# 6 0.000000 0.000000 0.000000 -0.002375 0.000000 0.026453
#
#
# Mechanical properties :
#
#
# Convention : Reuss Voigt Hill
#
# Bulk Modulus (GPa) = 14.89297 39.03039 26.96168
# Shear Modulus (GPa) = 23.11315 35.10755 29.11035
#
# Velocity S-wave (km/s) = 3.12867 3.85594 3.51119
# Velocity P-wave (km/s) = 4.39986 6.02943 5.27792
#
# Compressibility (1/GPa) = 0.06714576
#
# Stress axis : x y z
#
# Youngs Moduli (GPa) = 14.84228 112.05867 96.39298
#
# Poissons Ratio (x) = 0.58691 0.21707
# Poissons Ratio (y) = 0.07774 0.21923
# Poissons Ratio (z) = 0.03342 0.25486
#
# Static dielectric constant tensor:
#      x y z
#    x 1.041460 0.000000 0.734040 
#    y 0.000000 4.743760 0.000000 
#    z 0.734040 0.000000 4.216990 
# 
# 
# High freq. dielectric constant tensor:
#      x y z
#    x 1.911780 0.000000 -0.011150 
#    y 0.000000 1.961070 0.000000 
#    z -0.011150 0.000000 1.926390 
# 
# From -- ./inp_files/283328.got.cif
#   From: 2010.06.25/outbox.cif.g09.slc.cpg/sg15_142_cif.got.tgz:283328.got - 2010.06.28 07:06:18.
