data_PCOD8144111
_publ_section_title
;
Structure prediction by ZEFSAII (Michael W. Deem and Ramdas Pophale) SiO2 
 PCOD8144111
Probable space group: C 2/C
;
_chemical_formula_sum "Si O2"
_cell_formula_units_Z 56
_cell_length_a 20.761928
_cell_length_b 21.364308
_cell_length_c 17.266719
_cell_angle_alpha 90.000000
_cell_angle_beta 160.254327
_cell_angle_gamma 90.000000
_cell_volume 2587.525567
_symmetry_space_group_name_H-M "C 2/C"
_symmetry_group_IT_number 15
_symmetry_cell_setting 'monoclinic'
loop_
_space_group_symop_operation_xyz
x,y,z
-x,y,1/2-z
-x,-y,-z
x,-y,1/2+z
1/2+x,1/2+y,z
1/2-x,1/2+y,1/2-z
1/2-x,1/2-y,-z
1/2+x,1/2-y,1/2+z
loop_
_atom_site_type_symbol
_atom_site_label
_atom_site_fract_x
_atom_site_fract_y
_atom_site_fract_z
Si Si1 0.788409 0.058850 0.329786
Si Si2 0.420767 0.125828 0.931030
Si Si3 0.441419 0.195719 0.797285
Si Si4 0.034440 0.933300 0.959833
Si Si5 0.975336 0.834209 0.135503
Si Si6 0.315610 0.668612 0.129909
Si Si7 0.615871 0.192396 0.456418
O O1 0.864708 0.054642 0.328475
O O2 0.844463 0.121576 0.436956
O O3 0.874534 0.997844 0.471143
O O4 0.557576 0.065731 0.068465
O O5 0.427446 0.176748 0.870306
O O6 0.205545 0.102045 0.696843
O O7 0.479816 0.160603 0.077068
O O8 0.446897 0.270757 0.794710
O O9 0.260150 0.168454 0.544237
O O10 0.637670 0.168290 0.986733
O O11 0.945388 0.892729 0.789240
O O12 0.171968 0.831560 0.312781
O O13 0.000000 0.861149 0.250000
O O14 0.874937 0.766982 0.026336
O O15 0.500000 0.171078 0.250000
#
# Coordination Sequence:
#
# PCOD8144111 Si02
#       7
#     8   8   8   8   8   8   8
#     4  11  24  43  63  92 127 175 219 264 311 391
#     4  12  23  41  69  96 127 170 221 268 332 386
#     4  10  22  37  68  97 131 168 213 276 333 389
#     4  11  24  42  67  88 133 172 220 261 321 382
#     4  11  22  42  64  94 130 166 212 270 332 388
#     4  10  21  42  61  98 135 167 218 272 330 389
#     4  11  23  39  66 100 129 165 212 276 336 394
#
# _framework density 21.642299000000001
#
# number of rings (size 3 to 8) (size 9 to 14) (size 15 to 20)
#    0.000    1.143    2.857    4.714    2.000    4.000 
#    2.571    0.000    3.143    0.000    0.000    0.000 
#    0.000    0.000    0.000    0.000    0.000    0.000 
#
# Total GULP energy -347242.671264 kJ/mol
# GULP energy per Si atom -12401.523974 kJ/mol
# Density = 2.159304 g / cm^3
# Si number density = 21.642299 Si / 1000 Ang^3
#
#
#
# Elastic Constant Matrix: (Units=GPa)
#
#
# Indices 1 2 3 4 5 6 
#
# 1 114.3691 33.6137 27.0293 -0.0002 -13.8954 -0.0001
# 2 33.6137 93.9492 46.4539 -0.0001 -13.7261 -0.0001
# 3 27.0293 46.4539 87.0445 -0.0007 -7.0887 -0.0005
# 4 -0.0002 -0.0001 -0.0007 40.5166 -0.0003 -0.3615
# 5 -13.8954 -13.7261 -7.0887 -0.0003 27.9336 -0.0001
# 6 -0.0001 -0.0001 -0.0005 -0.3615 -0.0001 28.6660
#
#
#
# Elastic Compliance Matrix: (Units=1/GPa)
#
#
# Indices 1 2 3 4 5 6 
#
# 1 0.010249 -0.002336 -0.001648 0.000000 0.003532 0.000000
# 2 -0.002336 0.015789 -0.007315 0.000000 0.004740 0.000000
# 3 -0.001648 -0.007315 0.015873 0.000000 -0.000386 0.000000
# 4 0.000000 0.000000 0.000000 0.024684 0.000000 0.000311
# 5 0.003532 0.004740 -0.000386 0.000000 0.039787 0.000000
# 6 0.000000 0.000000 0.000000 0.000311 0.000000 0.034888
#
#
# Mechanical properties :
#
#
# Convention : Reuss Voigt Hill
#
# Bulk Modulus (GPa) = 51.78007 56.61738 54.19873
# Shear Modulus (GPa) = 29.35884 31.97433 30.66658
#
# Velocity S-wave (km/s) = 3.68713 3.84787 3.76836
# Velocity P-wave (km/s) = 6.48875 6.77929 6.63561
#
# Compressibility (1/GPa) = 0.01931245
#
# Stress axis : x y z
#
# Youngs Moduli (GPa) = 97.57235 63.33376 63.00148
#
# Poissons Ratio (x) = 0.14794 0.10384
# Poissons Ratio (y) = 0.22791 0.46086
# Poissons Ratio (z) = 0.16082 0.46329
#
# Static dielectric constant tensor:
#      x y z
#    x 3.873380 0.000000 0.182780 
#    y 0.000000 3.856880 0.000000 
#    z 0.182780 0.000000 4.091250 
# 
# 
# High freq. dielectric constant tensor:
#      x y z
#    x 1.849970 0.000000 0.014960 
#    y 0.000000 1.834660 0.000000 
#    z 0.014960 0.000000 1.864970 
# 
# From -- ./inp_files/216667.got.cif
#   From: 2010.06.25/outbox.cif.g09.slc.cpg/sg15_109_cif.got.tgz:216667.got - 2010.06.28 07:06:18.
