data_PCOD8144968
_publ_section_title
;
Structure prediction by ZEFSAII (Michael W. Deem and Ramdas Pophale) SiO2 
 PCOD8144968
Probable space group: C 2/C
;
_chemical_formula_sum "Si O2"
_cell_formula_units_Z 56
_cell_length_a 12.106860
_cell_length_b 8.996189
_cell_length_c 25.331634
_cell_angle_alpha 90.000000
_cell_angle_beta 119.049370
_cell_angle_gamma 90.000000
_cell_volume 2411.931177
_symmetry_space_group_name_H-M "C 2/C"
_symmetry_group_IT_number 15
_symmetry_cell_setting 'monoclinic'
loop_
_space_group_symop_operation_xyz
x,y,z
-x,y,1/2-z
-x,-y,-z
x,-y,1/2+z
1/2+x,1/2+y,z
1/2-x,1/2+y,1/2-z
1/2-x,1/2-y,-z
1/2+x,1/2-y,1/2+z
loop_
_atom_site_type_symbol
_atom_site_label
_atom_site_fract_x
_atom_site_fract_y
_atom_site_fract_z
Si Si1 0.946716 0.699444 0.568231
Si Si2 0.418750 0.496492 0.891941
Si Si3 0.194107 0.232918 0.568563
Si Si4 0.000000 0.198048 0.250000
Si Si5 0.000000 0.303485 0.750000
Si Si6 0.664554 0.007208 0.136787
Si Si7 0.310771 0.957314 0.235524
Si Si8 0.583113 0.563738 0.844381
O O1 0.874475 0.688408 0.496102
O O2 0.843592 0.717664 0.591106
O O3 0.057214 0.822994 0.592303
O O4 0.021135 0.546825 0.595431
O O5 0.370430 0.572393 0.934933
O O6 0.326026 0.538325 0.822301
O O7 0.553155 0.556833 0.900173
O O8 0.172830 0.324668 0.617312
O O9 0.884516 0.302194 0.243516
O O10 0.954315 0.094160 0.191439
O O11 0.878173 0.406023 0.722727
O O12 0.994382 0.201498 0.697094
O O13 0.705761 0.994228 0.206919
O O14 0.766737 0.910978 0.127279
#
# Coordination Sequence:
#
# PCOD8144968 Si02
#       8
#     8   8   8   4   4   8   8   8
#     4  11  26  49  74 100 137 187 241 292 342 403
#     4  12  24  44  70 103 139 184 225 289 347 421
#     4  11  26  49  74 100 137 187 241 292 342 403
#     4  10  22  40  64  96 146 188 218 270 332 432
#     4  10  22  36  52  94 140 170 226 264 326 428
#     4  12  24  44  70 103 139 184 225 289 347 421
#     4  11  24  37  66 103 137 180 223 275 355 418
#     4  11  22  38  62  94 140 182 220 273 344 402
#
# _framework density 23.21791
#
# number of rings (size 3 to 8) (size 9 to 14) (size 15 to 20)
#    0.000    0.857    1.429    6.000    4.000    3.429 
#    2.571    0.714    0.000    0.000    0.000    0.000 
#    0.000    0.000    0.000    0.000    0.000    0.000 
#
# Total GULP energy -347163.856869 kJ/mol
# GULP energy per Si atom -12398.709174 kJ/mol
# Density = 2.316507 g / cm^3
# Si number density = 23.217910 Si / 1000 Ang^3
#
#
#
# Elastic Constant Matrix: (Units=GPa)
#
#
# Indices 1 2 3 4 5 6 
#
# 1 100.7091 41.7587 31.6825 0.0000 2.5090 0.0000
# 2 41.7587 100.6796 6.7312 0.0000 -4.5968 0.0000
# 3 31.6825 6.7312 57.7253 0.0000 -1.5798 0.0000
# 4 0.0000 0.0000 0.0000 26.6503 0.0000 0.4510
# 5 2.5090 -4.5968 -1.5798 0.0000 36.4228 0.0000
# 6 0.0000 0.0000 0.0000 0.4510 0.0000 34.4434
#
#
#
# Elastic Compliance Matrix: (Units=1/GPa)
#
#
# Indices 1 2 3 4 5 6 
#
# 1 0.014682 -0.005685 -0.007452 0.000000 -0.002052 0.000000
# 2 -0.005685 0.012266 0.001745 0.000000 0.002015 0.000000
# 3 -0.007452 0.001745 0.021255 0.000000 0.001656 0.000000
# 4 0.000000 0.000000 0.000000 0.037531 0.000000 -0.000491
# 5 -0.002052 0.002015 0.001656 0.000000 0.027923 0.000000
# 6 0.000000 0.000000 0.000000 -0.000491 0.000000 0.029040
#
#
# Mechanical properties :
#
#
# Convention : Reuss Voigt Hill
#
# Bulk Modulus (GPa) = 39.33916 46.60653 42.97284
# Shear Modulus (GPa) = 28.74327 31.43273 30.08800
#
# Velocity S-wave (km/s) = 3.52231 3.68341 3.60376
# Velocity P-wave (km/s) = 5.78986 6.18119 5.98872
#
# Compressibility (1/GPa) = 0.02541997
#
# Stress axis : x y z
#
# Youngs Moduli (GPa) = 68.10904 81.52680 47.04761
#
# Poissons Ratio (x) = 0.46350 0.35058
# Poissons Ratio (y) = 0.38722 -0.08211
# Poissons Ratio (z) = 0.50752 -0.14228
#
# Static dielectric constant tensor:
#      x y z
#    x 4.542320 0.000000 -0.030420 
#    y 0.000000 4.149210 0.000000 
#    z -0.030420 0.000000 3.891970 
# 
# 
# High freq. dielectric constant tensor:
#      x y z
#    x 1.938290 0.000000 -0.001810 
#    y 0.000000 1.915460 0.000000 
#    z -0.001810 0.000000 1.899820 
# 
# From -- ./inp_files/291652.got.cif
#   From: 2010.06.25/outbox.cif.g09.slc.cpg/sg15_146_cif.got.tgz:291652.got - 2010.06.28 07:06:18.
