data_PCOD8144355
_publ_section_title
;
Structure prediction by ZEFSAII (Michael W. Deem and Ramdas Pophale) SiO2 
 PCOD8144355
Probable space group: C 2/C
;
_chemical_formula_sum "Si O2"
_cell_formula_units_Z 44
_cell_length_a 13.340018
_cell_length_b 19.978544
_cell_length_c 8.544357
_cell_angle_alpha 90.000000
_cell_angle_beta 58.356113
_cell_angle_gamma 90.000000
_cell_volume 1938.631160
_symmetry_space_group_name_H-M "C 2/C"
_symmetry_group_IT_number 15
_symmetry_cell_setting 'monoclinic'
loop_
_space_group_symop_operation_xyz
x,y,z
-x,y,1/2-z
-x,-y,-z
x,-y,1/2+z
1/2+x,1/2+y,z
1/2-x,1/2+y,1/2-z
1/2-x,1/2-y,-z
1/2+x,1/2-y,1/2+z
loop_
_atom_site_type_symbol
_atom_site_label
_atom_site_fract_x
_atom_site_fract_y
_atom_site_fract_z
Si Si1 0.158522 0.760321 0.866091
Si Si2 0.000000 0.808681 0.250000
Si Si3 0.500000 0.005877 0.250000
Si Si4 0.831830 0.522627 0.636937
Si Si5 0.000000 0.696788 0.750000
Si Si6 0.775237 0.373817 0.577299
Si Si7 0.675109 0.637250 0.830438
O O1 0.228997 0.826312 0.753868
O O2 0.244830 0.697977 0.791045
O O3 0.049593 0.746191 0.840722
O O4 0.107305 0.766480 0.085423
O O5 0.046241 0.852588 0.360431
O O6 0.435789 0.049081 0.436052
O O7 0.608586 0.964835 0.240607
O O8 0.792747 0.446584 0.639495
O O9 0.719533 0.569051 0.713370
O O10 0.099654 0.650700 0.590891
O O11 0.678029 0.371299 0.516420
#
# Coordination Sequence:
#
# PCOD8144355 Si02
#       7
#     8   4   4   8   4   8   8
#     4  11  24  42  68  95 133 172 220 270 329 396
#     4  12  26  45  62  96 131 178 222 280 328 377
#     4  10  23  39  68 102 137 165 212 270 351 381
#     4  11  23  42  66 103 131 171 214 279 329 398
#     4  10  21  42  68  98 128 173 218 264 337 400
#     4  11  23  43  69  97 133 176 216 269 326 408
#     4  11  25  44  65  96 133 171 224 270 329 394
#
# _framework density 22.696428000000001
#
# number of rings (size 3 to 8) (size 9 to 14) (size 15 to 20)
#    0.000    1.091    1.818    5.455   10.182    0.727 
#    0.000    4.545    0.000    0.000    0.000    0.000 
#    0.000    0.000    0.000    0.000    0.000    0.000 
#
# Total GULP energy -272671.663184 kJ/mol
# GULP energy per Si atom -12394.166508 kJ/mol
# Density = 2.264477 g / cm^3
# Si number density = 22.696428 Si / 1000 Ang^3
#
#
#
# Elastic Constant Matrix: (Units=GPa)
#
#
# Indices 1 2 3 4 5 6 
#
# 1 103.4383 21.2153 11.7568 0.0000 26.8635 0.0000
# 2 21.2153 134.1113 51.3916 0.0000 1.6926 0.0000
# 3 11.7568 51.3916 105.3499 0.0000 3.5388 0.0000
# 4 0.0000 0.0000 0.0000 24.3423 0.0000 2.7275
# 5 26.8635 1.6926 3.5388 0.0000 30.1230 0.0000
# 6 0.0000 0.0000 0.0000 2.7275 0.0000 19.4364
#
#
#
# Elastic Compliance Matrix: (Units=1/GPa)
#
#
# Indices 1 2 3 4 5 6 
#
# 1 0.013060 -0.001858 -0.000164 0.000000 -0.011523 0.000000
# 2 -0.001858 0.009435 -0.004451 0.000000 0.001649 0.000000
# 3 -0.000164 -0.004451 0.011715 0.000000 -0.000980 0.000000
# 4 0.000000 0.000000 0.000000 0.041737 0.000000 -0.005857
# 5 -0.011523 0.001649 -0.000980 0.000000 0.043496 0.000000
# 6 0.000000 0.000000 0.000000 -0.005857 0.000000 0.052272
#
#
# Mechanical properties :
#
#
# Convention : Reuss Voigt Hill
#
# Bulk Modulus (GPa) = 47.02688 56.84744 51.93716
# Shear Modulus (GPa) = 26.07603 32.01607 29.04605
#
# Velocity S-wave (km/s) = 3.39323 3.75990 3.58126
# Velocity P-wave (km/s) = 6.00974 6.62951 6.32721
#
# Compressibility (1/GPa) = 0.02126443
#
# Stress axis : x y z
#
# Youngs Moduli (GPa) = 76.57055 105.98792 85.36400
#
# Poissons Ratio (x) = 0.19688 0.01402
# Poissons Ratio (y) = 0.14224 0.37993
# Poissons Ratio (z) = 0.01257 0.47172
#
# Static dielectric constant tensor:
#      x y z
#    x 4.418310 0.000000 0.255760 
#    y 0.000000 3.832310 0.000000 
#    z 0.255760 0.000000 4.224110 
# 
# 
# High freq. dielectric constant tensor:
#      x y z
#    x 1.903090 0.000000 0.015400 
#    y 0.000000 1.878820 0.000000 
#    z 0.015400 0.000000 1.900470 
# 
# From -- ./inp_files/39571.got.cif
#   From: 2010.06.25/outbox.cif.g09.slc.cpg/sg15_20_cif.got.tgz:39571.got - 2010.06.28 07:06:18.
