data_PCOD8144792
_publ_section_title
;
Structure prediction by ZEFSAII (Michael W. Deem and Ramdas Pophale) SiO2 
 PCOD8144792
Probable space group: C 2/C
;
_chemical_formula_sum "Si O2"
_cell_formula_units_Z 28
_cell_length_a 13.383745
_cell_length_b 10.526357
_cell_length_c 9.795166
_cell_angle_alpha 90.000000
_cell_angle_beta 127.649269
_cell_angle_gamma 90.000000
_cell_volume 1092.606236
_symmetry_space_group_name_H-M "C 2/C"
_symmetry_group_IT_number 15
_symmetry_cell_setting 'monoclinic'
loop_
_space_group_symop_operation_xyz
x,y,z
-x,y,1/2-z
-x,-y,-z
x,-y,1/2+z
1/2+x,1/2+y,z
1/2-x,1/2+y,1/2-z
1/2-x,1/2-y,-z
1/2+x,1/2-y,1/2+z
loop_
_atom_site_type_symbol
_atom_site_label
_atom_site_fract_x
_atom_site_fract_y
_atom_site_fract_z
Si Si1 0.854551 0.024380 0.380519
Si Si2 0.869497 0.245355 0.199938
Si Si3 0.732492 0.109620 0.539169
Si Si4 0.000000 0.482687 0.250000
O O1 0.825986 0.165776 0.296325
O O2 0.805028 0.016075 0.493887
O O3 0.788905 0.912990 0.236440
O O4 0.000000 0.000000 0.500000
O O5 0.000000 0.180475 0.250000
O O6 0.910866 0.391293 0.270353
O O7 0.750000 0.250000 0.000000
O O8 0.750000 0.250000 0.500000
O O9 0.584713 0.072847 0.416373
#
# Coordination Sequence:
#
# PCOD8144792 Si02
#       4
#     8   8   8   4
#     4  12  27  48  76 114 157 199 260 319 395 464
#     4  10  21  44  77 108 148 205 258 311 387 456
#     4  12  30  49  76 116 157 203 261 322 392 467
#     4  10  26  48  78 104 158 200 266 308 402 454
#
# _framework density 25.626798000000001
#
# number of rings (size 3 to 8) (size 9 to 14) (size 15 to 20)
#    0.857    0.000    2.857    2.571    8.000    3.429 
#    0.000    0.000    0.000    0.000    0.000    0.000 
#    0.000    0.000    0.000    0.000    0.000    0.000 
#
# Total GULP energy -173506.302841 kJ/mol
# GULP energy per Si atom -12393.307346 kJ/mol
# Density = 2.556847 g / cm^3
# Si number density = 25.626798 Si / 1000 Ang^3
#
#
#
# Elastic Constant Matrix: (Units=GPa)
#
#
# Indices 1 2 3 4 5 6 
#
# 1 99.1132 -2.7378 49.1499 0.0000 25.1374 0.0000
# 2 -2.7378 115.6714 8.7235 0.0000 27.1344 0.0000
# 3 49.1499 8.7235 129.2999 0.0000 30.6183 0.0000
# 4 0.0000 0.0000 0.0000 38.6657 0.0000 13.3773
# 5 25.1374 27.1344 30.6183 0.0000 66.1525 0.0000
# 6 0.0000 0.0000 0.0000 13.3773 0.0000 45.9998
#
#
#
# Elastic Compliance Matrix: (Units=1/GPa)
#
#
# Indices 1 2 3 4 5 6 
#
# 1 0.013157 0.001487 -0.004238 0.000000 -0.003648 0.000000
# 2 0.001487 0.009745 -0.000160 0.000000 -0.004488 0.000000
# 3 -0.004238 -0.000160 0.010062 0.000000 -0.002981 0.000000
# 4 0.000000 0.000000 0.000000 0.028756 0.000000 -0.008363
# 5 -0.003648 -0.004488 -0.002981 0.000000 0.019724 0.000000
# 6 0.000000 0.000000 0.000000 -0.008363 0.000000 0.024171
#
#
# Mechanical properties :
#
#
# Convention : Reuss Voigt Hill
#
# Bulk Modulus (GPa) = 36.84273 50.48400 43.66337
# Shear Modulus (GPa) = 41.49927 49.42686 45.46307
#
# Velocity S-wave (km/s) = 4.02851 4.39648 4.21651
# Velocity P-wave (km/s) = 6.00386 6.74645 6.38596
#
# Compressibility (1/GPa) = 0.02714240
#
# Stress axis : x y z
#
# Youngs Moduli (GPa) = 76.00338 102.61356 99.38823
#
# Poissons Ratio (x) = -0.15256 0.42119
# Poissons Ratio (y) = -0.11300 0.01588
# Poissons Ratio (z) = 0.32209 0.01640
#
# Static dielectric constant tensor:
#      x y z
#    x 4.720930 0.000000 0.122340 
#    y 0.000000 5.124560 0.000000 
#    z 0.122340 0.000000 4.455320 
# 
# 
# High freq. dielectric constant tensor:
#      x y z
#    x 2.034160 0.000000 0.019170 
#    y 0.000000 2.036730 0.000000 
#    z 0.019170 0.000000 2.015450 
# 
# From -- ./inp_files/36666.got.cif
#   From: 2010.06.25/outbox.cif.g09.slc.cpg/sg15_19_cif.got.tgz:36666.got - 2010.06.28 07:06:18.
