data_PCOD8144051
_publ_section_title
;
Structure prediction by ZEFSAII (Michael W. Deem and Ramdas Pophale) SiO2 
 PCOD8144051
Probable space group: C 2/C
;
_chemical_formula_sum "Si O2"
_cell_formula_units_Z 56
_cell_length_a 9.198477
_cell_length_b 22.704606
_cell_length_c 14.377633
_cell_angle_alpha 90.000000
_cell_angle_beta 118.725944
_cell_angle_gamma 90.000000
_cell_volume 2633.185997
_symmetry_space_group_name_H-M "C 2/C"
_symmetry_group_IT_number 15
_symmetry_cell_setting 'monoclinic'
loop_
_space_group_symop_operation_xyz
x,y,z
-x,y,1/2-z
-x,-y,-z
x,-y,1/2+z
1/2+x,1/2+y,z
1/2-x,1/2+y,1/2-z
1/2-x,1/2-y,-z
1/2+x,1/2-y,1/2+z
loop_
_atom_site_type_symbol
_atom_site_label
_atom_site_fract_x
_atom_site_fract_y
_atom_site_fract_z
Si Si1 0.258045 0.322836 0.820562
Si Si2 0.982208 0.679404 0.090944
Si Si3 0.079514 0.776551 0.982533
Si Si4 0.816375 0.094196 0.953154
Si Si5 0.425944 0.569523 0.317539
Si Si6 0.490132 0.931824 0.464463
Si Si7 0.663652 0.442247 0.251860
O O1 0.136369 0.302170 0.702860
O O2 0.278515 0.393089 0.816838
O O3 0.185597 0.313951 0.901587
O O4 0.437432 0.291219 0.862069
O O5 0.982294 0.729924 0.014843
O O6 0.998110 0.613410 0.053814
O O7 0.128609 0.838306 0.043575
O O8 0.250000 0.750000 0.000000
O O9 0.632864 0.085816 0.936332
O O10 0.824715 0.069661 0.853084
O O11 0.936350 0.058191 0.060175
O O12 0.500000 0.604329 0.250000
O O13 0.345828 0.512421 0.245972
O O14 0.320201 0.919391 0.357469
O O15 0.500000 0.000000 0.500000
O O16 0.500000 0.414020 0.250000
#
# Coordination Sequence:
#
# PCOD8144051 Si02
#       7
#     8   8   8   8   8   8   8
#     4  10  24  41  70  99 130 177 228 281 338 407
#     4  11  24  45  66 101 134 177 227 278 344 403
#     4  11  24  45  68  95 132 178 229 284 338 405
#     4  11  24  44  68  97 136 181 228 277 342 407
#     4  10  21  41  70  98 136 178 226 271 338 416
#     4  12  25  42  69 100 139 173 226 284 341 408
#     4  11  25  42  65 101 138 182 222 275 345 406
#
# _framework density 21.267012999999999
#
# number of rings (size 3 to 8) (size 9 to 14) (size 15 to 20)
#    0.000    1.143    1.429    4.714    8.000    1.143 
#    5.143    0.000    0.000    0.000    0.000    0.000 
#    0.000    0.000    0.000    0.000    0.000    0.000 
#
# Total GULP energy -347006.032502 kJ/mol
# GULP energy per Si atom -12393.072589 kJ/mol
# Density = 2.121861 g / cm^3
# Si number density = 21.267013 Si / 1000 Ang^3
#
#
#
# Elastic Constant Matrix: (Units=GPa)
#
#
# Indices 1 2 3 4 5 6 
#
# 1 96.0790 16.6649 42.3919 0.0000 9.3196 0.0000
# 2 16.6649 91.9487 12.0174 0.0000 -3.0805 0.0000
# 3 42.3919 12.0174 98.0278 0.0000 -6.2481 0.0000
# 4 0.0000 0.0000 0.0000 27.7431 0.0000 -2.3905
# 5 9.3196 -3.0805 -6.2481 0.0000 36.0380 0.0000
# 6 0.0000 0.0000 0.0000 -2.3905 0.0000 37.8831
#
#
#
# Elastic Compliance Matrix: (Units=1/GPa)
#
#
# Indices 1 2 3 4 5 6 
#
# 1 0.013883 -0.001883 -0.006079 0.000000 -0.004805 0.000000
# 2 -0.001883 0.011326 -0.000487 0.000000 0.001371 0.000000
# 3 -0.006079 -0.000487 0.013132 0.000000 0.003807 0.000000
# 4 0.000000 0.000000 0.000000 0.036242 0.000000 0.002287
# 5 -0.004805 0.001371 0.003807 0.000000 0.029768 0.000000
# 6 0.000000 0.000000 0.000000 0.002287 0.000000 0.026541
#
#
# Mechanical properties :
#
#
# Convention : Reuss Voigt Hill
#
# Bulk Modulus (GPa) = 46.63250 47.57823 47.10536
# Shear Modulus (GPa) = 32.27073 34.66493 33.46783
#
# Velocity S-wave (km/s) = 3.89962 4.04169 3.97129
# Velocity P-wave (km/s) = 6.50006 6.64836 6.57463
#
# Compressibility (1/GPa) = 0.02144427
#
# Stress axis : x y z
#
# Youngs Moduli (GPa) = 72.03076 88.28920 76.14709
#
# Poissons Ratio (x) = 0.16622 0.46291
# Poissons Ratio (y) = 0.13561 0.03709
# Poissons Ratio (z) = 0.43788 0.04300
#
# Static dielectric constant tensor:
#      x y z
#    x 4.181470 0.000000 0.050040 
#    y 0.000000 4.187410 0.000000 
#    z 0.050040 0.000000 3.871570 
# 
# 
# High freq. dielectric constant tensor:
#      x y z
#    x 1.850180 0.000000 0.005490 
#    y 0.000000 1.828650 0.000000 
#    z 0.005490 0.000000 1.839710 
# 
# From -- ./inp_files/137972.got.cif
#   From: 2010.06.25/outbox.cif.g09.slc.cpg/sg15_69_cif.got.tgz:137972.got - 2010.06.28 07:06:18.
