data_PCOD8144224
_publ_section_title
;
Structure prediction by ZEFSAII (Michael W. Deem and Ramdas Pophale) SiO2 
 PCOD8144224
Probable space group: C 2/C
;
_chemical_formula_sum "Si O2"
_cell_formula_units_Z 40
_cell_length_a 11.217117
_cell_length_b 9.010880
_cell_length_c 18.644307
_cell_angle_alpha 90.000000
_cell_angle_beta 91.524828
_cell_angle_gamma 90.000000
_cell_volume 1883.826428
_symmetry_space_group_name_H-M "C 2/C"
_symmetry_group_IT_number 15
_symmetry_cell_setting 'monoclinic'
loop_
_space_group_symop_operation_xyz
x,y,z
-x,y,1/2-z
-x,-y,-z
x,-y,1/2+z
1/2+x,1/2+y,z
1/2-x,1/2+y,1/2-z
1/2-x,1/2-y,-z
1/2+x,1/2-y,1/2+z
loop_
_atom_site_type_symbol
_atom_site_label
_atom_site_fract_x
_atom_site_fract_y
_atom_site_fract_z
Si Si1 0.563672 0.946641 0.091382
Si Si2 0.821407 0.607191 0.527875
Si Si3 0.522581 0.768864 0.830593
Si Si4 0.282641 0.231250 0.798310
Si Si5 0.811197 0.058242 0.832143
O O1 0.506473 0.102137 0.114588
O O2 0.456797 0.850081 0.054286
O O3 0.616513 0.859471 0.158968
O O4 0.667307 0.984938 0.035345
O O5 0.750000 0.750000 0.500000
O O6 0.751166 0.533372 0.592614
O O7 0.500000 0.829637 0.750000
O O8 0.659157 0.717838 0.840176
O O9 0.442055 0.625420 0.845700
O O10 0.323487 0.401623 0.791958
O O11 0.269339 0.168049 0.717661
#
# Coordination Sequence:
#
# PCOD8144224 Si02
#       5
#     8   8   8   8   8
#     4  11  24  43  69  93 129 177 213 267 325 383
#     4  11  24  43  67  95 133 172 218 263 328 389
#     4  10  21  42  65  95 131 165 210 273 320 375
#     4  11  24  43  68  98 128 169 221 265 321 382
#     4  11  23  43  67  97 133 170 212 273 319 382
#
# _framework density 21.233377999999998
#
# number of rings (size 3 to 8) (size 9 to 14) (size 15 to 20)
#    0.000    1.200    4.000    2.400    0.000    2.400 
#    7.200    2.000    0.000    0.000    0.000    0.000 
#    0.000    0.000    0.000    0.000    0.000    0.000 
#
# Total GULP energy -248040.627498 kJ/mol
# GULP energy per Si atom -12402.031375 kJ/mol
# Density = 2.118505 g / cm^3
# Si number density = 21.233378 Si / 1000 Ang^3
#
#
#
# Elastic Constant Matrix: (Units=GPa)
#
#
# Indices 1 2 3 4 5 6 
#
# 1 101.1854 37.2785 12.2176 0.0000 6.3017 0.0000
# 2 37.2785 88.6185 11.2861 0.0000 -2.3884 0.0000
# 3 12.2176 11.2861 74.7639 0.0000 -20.3952 0.0000
# 4 0.0000 0.0000 0.0000 28.1659 0.0000 4.4080
# 5 6.3017 -2.3884 -20.3952 0.0000 34.5448 0.0000
# 6 0.0000 0.0000 0.0000 4.4080 0.0000 38.3509
#
#
#
# Elastic Compliance Matrix: (Units=1/GPa)
#
#
# Indices 1 2 3 4 5 6 
#
# 1 0.012236 -0.004957 -0.002329 0.000000 -0.003950 0.000000
# 2 -0.004957 0.013516 -0.000869 0.000000 0.001326 0.000000
# 3 -0.002329 -0.000869 0.016672 0.000000 0.010208 0.000000
# 4 0.000000 0.000000 0.000000 0.036154 0.000000 -0.004156
# 5 -0.003950 0.001326 0.010208 0.000000 0.035787 0.000000
# 6 0.000000 0.000000 0.000000 -0.004156 0.000000 0.026553
#
#
# Mechanical properties :
#
#
# Convention : Reuss Voigt Hill
#
# Bulk Modulus (GPa) = 38.29214 42.90359 40.59786
# Shear Modulus (GPa) = 30.13286 33.79802 31.96544
#
# Velocity S-wave (km/s) = 3.77122 3.99399 3.88420
# Velocity P-wave (km/s) = 6.08571 6.44351 6.26717
#
# Compressibility (1/GPa) = 0.02611502
#
# Stress axis : x y z
#
# Youngs Moduli (GPa) = 81.72364 73.98637 59.98180
#
# Poissons Ratio (x) = 0.36677 0.13968
# Poissons Ratio (y) = 0.40512 0.05209
# Poissons Ratio (z) = 0.19032 0.06426
#
# Static dielectric constant tensor:
#      x y z
#    x 4.014890 0.000000 -0.030840 
#    y 0.000000 3.648580 0.000000 
#    z -0.030840 0.000000 3.940420 
# 
# 
# High freq. dielectric constant tensor:
#      x y z
#    x 1.838370 0.000000 -0.002090 
#    y 0.000000 1.817110 0.000000 
#    z -0.002090 0.000000 1.840470 
# 
# From -- ./inp_files/195166.got.cif
#   From: 2010.06.25/outbox.cif.g09.slc.cpg/sg15_98_cif.got.tgz:195166.got - 2010.06.28 07:06:18.
