data_PCOD8144745
_publ_section_title
;
Structure prediction by ZEFSAII (Michael W. Deem and Ramdas Pophale) SiO2 
 PCOD8144745
Probable space group: C 2/C
;
_chemical_formula_sum "Si O2"
_cell_formula_units_Z 44
_cell_length_a 15.249556
_cell_length_b 25.652136
_cell_length_c 5.464817
_cell_angle_alpha 90.000000
_cell_angle_beta 115.011897
_cell_angle_gamma 90.000000
_cell_volume 1937.269342
_symmetry_space_group_name_H-M "C 2/C"
_symmetry_group_IT_number 15
_symmetry_cell_setting 'monoclinic'
loop_
_space_group_symop_operation_xyz
x,y,z
-x,y,1/2-z
-x,-y,-z
x,-y,1/2+z
1/2+x,1/2+y,z
1/2-x,1/2+y,1/2-z
1/2-x,1/2-y,-z
1/2+x,1/2-y,1/2+z
loop_
_atom_site_type_symbol
_atom_site_label
_atom_site_fract_x
_atom_site_fract_y
_atom_site_fract_z
Si Si1 0.500000 0.348096 0.250000
Si Si2 0.500000 0.152073 0.250000
Si Si3 0.676263 0.628044 0.243469
Si Si4 0.500000 0.087078 0.750000
Si Si5 0.796890 0.468499 0.016322
Si Si6 0.186941 0.298644 0.834272
Si Si7 0.897511 0.786944 0.512195
O O1 0.566457 0.383166 0.512548
O O2 0.416426 0.311808 0.267165
O O3 0.488210 0.119415 0.485803
O O4 0.403780 0.187125 0.097992
O O5 0.717309 0.577311 0.424616
O O6 0.753434 0.648077 0.132324
O O7 0.676403 0.675478 0.435966
O O8 0.406252 0.051085 0.659208
O O9 0.777804 0.499386 0.741571
O O10 0.140984 0.272498 0.535541
O O11 0.250000 0.250000 0.000000
O O12 0.000000 0.786470 0.750000
#
# Coordination Sequence:
#
# PCOD8144745 Si02
#       7
#     4   4   8   4   8   8   8
#     4  10  21  44  68  99 142 185 238 294 365 432
#     4  12  29  45  72 114 156 198 246 299 357 438
#     4  11  25  44  71 102 142 194 243 312 363 442
#     4  12  26  51  76 105 150 193 242 313 376 442
#     4  12  28  49  79 108 140 189 250 313 387 445
#     4  12  25  40  70 103 152 197 246 292 358 434
#     4  10  23  40  66  98 143 191 239 291 357 438
#
# _framework density 22.712381000000001
#
# number of rings (size 3 to 8) (size 9 to 14) (size 15 to 20)
#    0.000    0.727    3.636    2.727    8.909    0.000 
#    0.000    0.909    0.000    0.000    0.000    0.000 
#    0.000    0.000    0.000    0.000    0.000    0.000 
#
# Total GULP energy -272553.057657 kJ/mol
# GULP energy per Si atom -12388.775348 kJ/mol
# Density = 2.266069 g / cm^3
# Si number density = 22.712381 Si / 1000 Ang^3
#
#
#
# Elastic Constant Matrix: (Units=GPa)
#
#
# Indices 1 2 3 4 5 6 
#
# 1 88.6445 22.2857 27.9604 0.0000 12.8482 0.0000
# 2 22.2857 86.3318 38.5416 0.0000 15.5522 0.0000
# 3 27.9604 38.5416 76.8004 0.0000 -6.9127 0.0000
# 4 0.0000 0.0000 0.0000 41.9002 0.0000 3.8888
# 5 12.8482 15.5522 -6.9127 0.0000 38.6289 0.0000
# 6 0.0000 0.0000 0.0000 3.8888 0.0000 41.9412
#
#
#
# Elastic Compliance Matrix: (Units=1/GPa)
#
#
# Indices 1 2 3 4 5 6 
#
# 1 0.013841 -0.000136 -0.005468 0.000000 -0.005528 0.000000
# 2 -0.000136 0.017402 -0.009462 0.000000 -0.008654 0.000000
# 3 -0.005468 -0.009462 0.020599 0.000000 0.009315 0.000000
# 4 0.000000 0.000000 0.000000 0.024073 0.000000 -0.002232
# 5 -0.005528 -0.008654 0.009315 0.000000 0.032877 0.000000
# 6 0.000000 0.000000 0.000000 -0.002232 0.000000 0.024050
#
#
# Mechanical properties :
#
#
# Convention : Reuss Voigt Hill
#
# Bulk Modulus (GPa) = 46.06571 47.70580 46.88575
# Shear Modulus (GPa) = 29.37531 35.35998 32.36764
#
# Velocity S-wave (km/s) = 3.60023 3.94999 3.77916
# Velocity P-wave (km/s) = 6.13258 6.46940 6.30324
#
# Compressibility (1/GPa) = 0.02170812
#
# Stress axis : x y z
#
# Youngs Moduli (GPa) = 72.24804 57.46597 48.54696
#
# Poissons Ratio (x) = 0.00781 0.26548
# Poissons Ratio (y) = 0.00982 0.45937
# Poissons Ratio (z) = 0.39508 0.54376
#
# Static dielectric constant tensor:
#      x y z
#    x 4.366020 0.000000 0.391430 
#    y 0.000000 2.181550 0.000000 
#    z 0.391430 0.000000 4.443060 
# 
# 
# High freq. dielectric constant tensor:
#      x y z
#    x 1.910570 0.000000 0.016210 
#    y 0.000000 1.874340 0.000000 
#    z 0.016210 0.000000 1.912200 
# 
# From -- ./inp_files/7997.got.cif
#   From: 2010.06.25/outbox.cif.g09.slc.cpg/sg15_4_cif.got.tgz:7997.got - 2010.06.28 07:06:18.
