data_PCOD8144846
_publ_section_title
;
Structure prediction by ZEFSAII (Michael W. Deem and Ramdas Pophale) SiO2 
 PCOD8144846
Probable space group: C 2/C
;
_chemical_formula_sum "Si O2"
_cell_formula_units_Z 40
_cell_length_a 9.065813
_cell_length_b 22.197903
_cell_length_c 9.493862
_cell_angle_alpha 90.000000
_cell_angle_beta 74.180692
_cell_angle_gamma 90.000000
_cell_volume 1838.203778
_symmetry_space_group_name_H-M "C 2/C"
_symmetry_group_IT_number 15
_symmetry_cell_setting 'monoclinic'
loop_
_space_group_symop_operation_xyz
x,y,z
-x,y,1/2-z
-x,-y,-z
x,-y,1/2+z
1/2+x,1/2+y,z
1/2-x,1/2+y,1/2-z
1/2-x,1/2-y,-z
1/2+x,1/2-y,1/2+z
loop_
_atom_site_type_symbol
_atom_site_label
_atom_site_fract_x
_atom_site_fract_y
_atom_site_fract_z
Si Si1 0.574516 0.767852 0.576753
Si Si2 0.366269 0.551753 0.892220
Si Si3 0.187745 0.805902 0.429721
Si Si4 0.883897 0.638477 0.657956
Si Si5 0.429635 0.582437 0.409430
O O1 0.500000 0.783629 0.750000
O O2 0.750000 0.750000 0.500000
O O3 0.490765 0.707145 0.549035
O O4 0.530806 0.825891 0.490516
O O5 0.500000 0.569235 0.750000
O O6 0.208359 0.582155 0.883086
O O7 0.339856 0.479946 0.904991
O O8 0.422757 0.574147 0.028783
O O9 0.250000 0.750000 0.500000
O O10 0.272389 0.811688 0.258020
O O11 0.197914 0.870580 0.503609
O O12 0.000000 0.615562 0.750000
O O13 0.500000 0.609690 0.250000
#
# Coordination Sequence:
#
# PCOD8144846 Si02
#       5
#     8   8   8   8   8
#     4  12  26  42  69 108 145 188 242 297 359 434
#     4  10  21  45  73 100 130 187 249 300 356 428
#     4  12  25  42  68 103 145 186 234 293 364 437
#     4  12  25  45  70 101 149 192 233 296 373 433
#     4  10  23  40  74 103 132 178 250 305 350 425
#
# _framework density 21.760373999999999
#
# number of rings (size 3 to 8) (size 9 to 14) (size 15 to 20)
#    0.000    0.800    6.000    1.200    2.800    1.600 
#    0.000    1.000    0.000    0.000    0.000    0.000 
#    0.000    0.000    0.000    0.000    0.000    0.000 
#
# Total GULP energy -247850.917867 kJ/mol
# GULP energy per Si atom -12392.545893 kJ/mol
# Density = 2.171085 g / cm^3
# Si number density = 21.760374 Si / 1000 Ang^3
#
#
#
# Elastic Constant Matrix: (Units=GPa)
#
#
# Indices 1 2 3 4 5 6 
#
# 1 115.4985 42.3821 42.3692 0.0000 2.8974 0.0000
# 2 42.3821 112.8672 50.2357 0.0000 0.6404 0.0000
# 3 42.3692 50.2357 156.4729 0.0000 -1.9280 0.0000
# 4 0.0000 0.0000 0.0000 31.2209 0.0000 1.6804
# 5 2.8974 0.6404 -1.9280 0.0000 34.1395 0.0000
# 6 0.0000 0.0000 0.0000 1.6804 0.0000 43.7604
#
#
#
# Elastic Compliance Matrix: (Units=1/GPa)
#
#
# Indices 1 2 3 4 5 6 
#
# 1 0.010505 -0.003113 -0.001857 0.000000 -0.000938 0.000000
# 2 -0.003113 0.011265 -0.002775 0.000000 -0.000104 0.000000
# 3 -0.001857 -0.002775 0.007792 0.000000 0.000650 0.000000
# 4 0.000000 0.000000 0.000000 0.032096 0.000000 -0.001232
# 5 -0.000938 -0.000104 0.000650 0.000000 0.029410 0.000000
# 6 0.000000 0.000000 0.000000 -0.001232 0.000000 0.022899
#
#
# Mechanical properties :
#
#
# Convention : Reuss Voigt Hill
#
# Bulk Modulus (GPa) = 71.05750 72.75696 71.90723
# Shear Modulus (GPa) = 37.27251 38.48094 37.87672
#
# Velocity S-wave (km/s) = 4.14316 4.20979 4.17661
# Velocity P-wave (km/s) = 7.45742 7.55896 7.50836
#
# Compressibility (1/GPa) = 0.01407311
#
# Stress axis : x y z
#
# Youngs Moduli (GPa) = 95.19226 88.77410 128.32870
#
# Poissons Ratio (x) = 0.27635 0.23826
# Poissons Ratio (y) = 0.29633 0.35609
# Poissons Ratio (z) = 0.17674 0.24633
#
# Static dielectric constant tensor:
#      x y z
#    x 4.143240 0.000000 0.192260 
#    y 0.000000 4.057380 0.000000 
#    z 0.192260 0.000000 4.339980 
# 
# 
# High freq. dielectric constant tensor:
#      x y z
#    x 1.843240 0.000000 0.007790 
#    y 0.000000 1.853500 0.000000 
#    z 0.007790 0.000000 1.872290 
# 
# From -- ./inp_files/23483.got.cif
#   From: 2010.06.25/outbox.cif.g09.slc.cpg/sg15_12_cif.got.tgz:23483.got - 2010.06.28 07:06:18.
