data_PCOD8144927
_publ_section_title
;
Structure prediction by ZEFSAII (Michael W. Deem and Ramdas Pophale) SiO2 
 PCOD8144927
Probable space group: C 2/C
;
_chemical_formula_sum "Si O2"
_cell_formula_units_Z 60
_cell_length_a 19.696599
_cell_length_b 24.474243
_cell_length_c 10.817337
_cell_angle_alpha 90.000000
_cell_angle_beta 146.805516
_cell_angle_gamma 90.000000
_cell_volume 2854.902247
_symmetry_space_group_name_H-M "C 2/C"
_symmetry_group_IT_number 15
_symmetry_cell_setting 'monoclinic'
loop_
_space_group_symop_operation_xyz
x,y,z
-x,y,1/2-z
-x,-y,-z
x,-y,1/2+z
1/2+x,1/2+y,z
1/2-x,1/2+y,1/2-z
1/2-x,1/2-y,-z
1/2+x,1/2-y,1/2+z
loop_
_atom_site_type_symbol
_atom_site_label
_atom_site_fract_x
_atom_site_fract_y
_atom_site_fract_z
Si Si1 0.406591 0.116984 0.711915
Si Si2 0.000000 0.847960 0.750000
Si Si3 0.756080 0.385699 0.435233
Si Si4 0.463606 0.696430 0.931905
Si Si5 0.354178 0.451410 0.020164
Si Si6 0.273399 0.426816 0.378602
Si Si7 0.091408 0.681040 0.162538
Si Si8 0.283236 0.350590 0.765857
O O1 0.500000 0.091273 0.750000
O O2 0.338876 0.071187 0.692672
O O3 0.300447 0.152806 0.484183
O O4 0.478121 0.157274 0.911708
O O5 0.019076 0.807726 0.894231
O O6 0.881163 0.886599 0.591253
O O7 0.713988 0.437026 0.454977
O O8 0.780052 0.406036 0.333349
O O9 0.882213 0.356923 0.676991
O O10 0.647597 0.341505 0.280124
O O11 0.586275 0.677643 0.050512
O O12 0.439340 0.757397 0.847735
O O13 0.500000 0.441400 0.250000
O O14 0.328374 0.513460 0.944706
O O15 0.299085 0.414257 0.826489
O O16 0.217106 0.682053 0.274645
#
# Coordination Sequence:
#
# PCOD8144927 Si02
#       8
#     8   4   8   8   8   8   8   8
#     4  10  23  45  66  92 136 177 227 267 320 403
#     4  10  22  34  58 112 136 152 224 278 338 390
#     4  10  24  42  61 104 135 164 227 272 332 404
#     4  11  21  38  68  95 136 173 215 282 334 386
#     4  11  22  40  71  99 130 170 214 277 356 390
#     4  11  23  40  68  99 135 169 210 291 336 387
#     4  10  24  42  64  93 132 184 220 262 328 396
#     4  10  22  41  65  98 131 166 227 278 322 403
#
# _framework density 21.016482
#
# number of rings (size 3 to 8) (size 9 to 14) (size 15 to 20)
#    0.000    1.600    3.333    0.400    4.667    3.733 
#    0.000    8.667    0.000    0.000    0.000    0.000 
#    0.000    0.000    0.000    0.000    0.000    0.000 
#
# Total GULP energy -372031.630488 kJ/mol
# GULP energy per Si atom -12401.054350 kJ/mol
# Density = 2.096865 g / cm^3
# Si number density = 21.016482 Si / 1000 Ang^3
#
#
#
# Elastic Constant Matrix: (Units=GPa)
#
#
# Indices 1 2 3 4 5 6 
#
# 1 95.5656 27.4455 41.1026 0.0000 5.5867 0.0000
# 2 27.4455 82.2129 37.6848 0.0000 -1.8613 0.0000
# 3 41.1026 37.6848 103.9077 0.0000 -19.5380 0.0000
# 4 0.0000 0.0000 0.0000 34.4625 0.0000 9.6486
# 5 5.5867 -1.8613 -19.5380 0.0000 29.1003 0.0000
# 6 0.0000 0.0000 0.0000 9.6486 0.0000 19.9586
#
#
#
# Elastic Compliance Matrix: (Units=1/GPa)
#
#
# Indices 1 2 3 4 5 6 
#
# 1 0.014102 -0.002049 -0.006145 0.000000 -0.006964 0.000000
# 2 -0.002049 0.015119 -0.005055 0.000000 -0.002034 0.000000
# 3 -0.006145 -0.005055 0.016079 0.000000 0.011652 0.000000
# 4 0.000000 0.000000 0.000000 0.033559 0.000000 -0.016224
# 5 -0.006964 -0.002034 0.011652 0.000000 0.043394 0.000000
# 6 0.000000 0.000000 0.000000 -0.016224 0.000000 0.057947
#
#
# Mechanical properties :
#
#
# Convention : Reuss Voigt Hill
#
# Bulk Modulus (GPa) = 53.18490 54.90579 54.04534
# Shear Modulus (GPa) = 23.47801 28.40115 25.93958
#
# Velocity S-wave (km/s) = 3.34597 3.68009 3.51700
# Velocity P-wave (km/s) = 6.34733 6.65126 6.50107
#
# Compressibility (1/GPa) = 0.01880233
#
# Stress axis : x y z
#
# Youngs Moduli (GPa) = 70.90956 66.14352 62.19312
#
# Poissons Ratio (x) = 0.13552 0.38217
# Poissons Ratio (y) = 0.14528 0.31439
# Poissons Ratio (z) = 0.43573 0.33436
#
# Static dielectric constant tensor:
#      x y z
#    x 3.835600 0.000000 -0.060050 
#    y 0.000000 3.514600 0.000000 
#    z -0.060050 0.000000 4.141720 
# 
# 
# High freq. dielectric constant tensor:
#      x y z
#    x 1.826690 0.000000 -0.004430 
#    y 0.000000 1.803160 0.000000 
#    z -0.004430 0.000000 1.841430 
# 
# From -- ./inp_files/114847.got.cif
#   From: 2010.06.25/outbox.cif.g09.slc.cpg/sg15_58_cif.got.tgz:114847.got - 2010.06.28 07:06:18.
