data_PCOD8144143
_publ_section_title
;
Structure prediction by ZEFSAII (Michael W. Deem and Ramdas Pophale) SiO2 
 PCOD8144143
Probable space group: C 2/C
;
_chemical_formula_sum "Si O2"
_cell_formula_units_Z 36
_cell_length_a 29.313885
_cell_length_b 7.947470
_cell_length_c 18.324643
_cell_angle_alpha 90.000000
_cell_angle_beta 25.515099
_cell_angle_gamma 90.000000
_cell_volume 1838.916521
_symmetry_space_group_name_H-M "C 2/C"
_symmetry_group_IT_number 15
_symmetry_cell_setting 'monoclinic'
loop_
_space_group_symop_operation_xyz
x,y,z
-x,y,1/2-z
-x,-y,-z
x,-y,1/2+z
1/2+x,1/2+y,z
1/2-x,1/2+y,1/2-z
1/2-x,1/2-y,-z
1/2+x,1/2-y,1/2+z
loop_
_atom_site_type_symbol
_atom_site_label
_atom_site_fract_x
_atom_site_fract_y
_atom_site_fract_z
Si Si1 0.150134 0.670255 0.605892
Si Si2 0.000000 0.071095 0.250000
Si Si3 0.508146 0.032149 0.073389
Si Si4 0.880881 0.163976 0.031411
Si Si5 0.794155 0.498608 0.625248
O O1 0.250000 0.750000 0.500000
O O2 0.189064 0.578968 0.477587
O O3 0.067051 0.816391 0.708529
O O4 0.097590 0.532933 0.734823
O O5 0.921444 0.956469 0.409816
O O6 0.611178 0.935362 0.957522
O O7 0.500000 0.000000 0.000000
O O8 0.522803 0.232779 0.068753
O O9 0.799412 0.298136 0.112510
O O10 0.819767 0.055710 0.180235
#
# Coordination Sequence:
#
# PCOD8144143 Si02
#       5
#     8   4   8   8   8
#     4  12  24  42  67  93 129 173 212 264 324 382
#     4  12  22  44  64  96 130 166 214 268 314 390
#     4  10  22  41  65  93 132 162 217 264 320 377
#     4  10  22  38  67  91 127 171 208 264 323 369
#     4  10  21  42  63  92 130 164 214 257 324 373
#
# _framework density 19.576744000000001
#
# number of rings (size 3 to 8) (size 9 to 14) (size 15 to 20)
#    1.333    0.000    2.222    4.000    3.111    0.000 
#    4.000    4.444    0.000    0.000    0.000    0.000 
#    0.000    0.000    0.000    0.000    0.000    0.000 
#
# Total GULP energy -223139.874794 kJ/mol
# GULP energy per Si atom -12396.659711 kJ/mol
# Density = 1.953219 g / cm^3
# Si number density = 19.576744 Si / 1000 Ang^3
#
#
#
# Elastic Constant Matrix: (Units=GPa)
#
#
# Indices 1 2 3 4 5 6 
#
# 1 109.1357 21.9886 43.6525 0.0097 11.6296 -0.0122
# 2 21.9886 101.4160 62.9756 0.0131 7.2850 -0.0221
# 3 43.6525 62.9756 170.2447 0.0096 24.6887 -0.0125
# 4 0.0097 0.0131 0.0096 52.2191 -0.0058 -2.9962
# 5 11.6296 7.2850 24.6887 -0.0058 42.2650 0.0056
# 6 -0.0122 -0.0221 -0.0125 -2.9962 0.0056 17.1792
#
#
#
# Elastic Compliance Matrix: (Units=1/GPa)
#
#
# Indices 1 2 3 4 5 6 
#
# 1 0.010337 -0.000807 -0.002141 -0.000001 -0.001455 0.000005
# 2 -0.000807 0.012878 -0.004662 -0.000001 0.000726 0.000012
# 3 -0.002141 -0.004662 0.008681 0.000000 -0.003678 0.000000
# 4 -0.000001 -0.000001 0.000000 0.019344 0.000003 0.003374
# 5 -0.001455 0.000726 -0.003678 0.000003 0.026084 -0.000011
# 6 0.000005 0.000012 0.000000 0.003374 -0.000011 0.058799
#
#
# Mechanical properties :
#
#
# Convention : Reuss Voigt Hill
#
# Bulk Modulus (GPa) = 59.96854 70.89219 65.43036
# Shear Modulus (GPa) = 31.86723 39.14464 35.50593
#
# Velocity S-wave (km/s) = 4.03899 4.47648 4.26335
# Velocity P-wave (km/s) = 7.24226 7.93786 7.59802
#
# Compressibility (1/GPa) = 0.01667541
#
# Stress axis : x y z
#
# Youngs Moduli (GPa) = 96.74094 77.65034 115.19672
#
# Poissons Ratio (x) = 0.06269 0.24663
# Poissons Ratio (y) = 0.07810 0.53705
# Poissons Ratio (z) = 0.20711 0.36201
#
# Static dielectric constant tensor:
#      x y z
#    x 3.462660 0.000010 -0.057110 
#    y 0.000010 3.918140 -0.000030 
#    z -0.057110 -0.000030 4.817190 
# 
# 
# High freq. dielectric constant tensor:
#      x y z
#    x 1.746990 0.000000 0.009790 
#    y 0.000000 1.765500 0.000000 
#    z 0.009790 0.000000 1.776330 
# 
# From -- ./inp_files/158635.got.cif
#   From: 2010.06.25/outbox.cif.g09.slc.cpg/sg15_80_cif.got.tgz:158635.got - 2010.06.28 07:06:18.
