data_PCOD8144695
_publ_section_title
;
Structure prediction by ZEFSAII (Michael W. Deem and Ramdas Pophale) SiO2 
 PCOD8144695
Probable space group: C 2/C
;
_chemical_formula_sum "Si O2"
_cell_formula_units_Z 44
_cell_length_a 9.175687
_cell_length_b 26.859988
_cell_length_c 8.223784
_cell_angle_alpha 90.000000
_cell_angle_beta 102.457387
_cell_angle_gamma 90.000000
_cell_volume 1979.106178
_symmetry_space_group_name_H-M "C 2/C"
_symmetry_group_IT_number 15
_symmetry_cell_setting 'monoclinic'
loop_
_space_group_symop_operation_xyz
x,y,z
-x,y,1/2-z
-x,-y,-z
x,-y,1/2+z
1/2+x,1/2+y,z
1/2-x,1/2+y,1/2-z
1/2-x,1/2-y,-z
1/2+x,1/2-y,1/2+z
loop_
_atom_site_type_symbol
_atom_site_label
_atom_site_fract_x
_atom_site_fract_y
_atom_site_fract_z
Si Si1 0.785194 0.667653 0.766313
Si Si2 0.152821 0.407536 0.703038
Si Si3 0.615494 0.475493 0.647817
Si Si4 0.500000 0.274140 0.250000
Si Si5 0.427275 0.809633 0.978479
Si Si6 0.170029 0.438038 0.344920
O O1 0.642201 0.691252 0.820052
O O2 0.751178 0.612096 0.699545
O O3 0.829650 0.700436 0.617062
O O4 0.917691 0.664909 0.929591
O O5 0.286342 0.424830 0.859879
O O6 0.176988 0.439075 0.542718
O O7 0.000000 0.423916 0.750000
O O8 0.153829 0.348170 0.665168
O O9 0.500000 0.456682 0.750000
O O10 0.500000 0.500000 0.500000
O O11 0.738884 0.517495 0.717708
O O12 0.536663 0.241859 0.100208
O O13 0.000000 0.440729 0.250000
#
# Coordination Sequence:
#
# PCOD8144695 Si02
#       6
#     8   8   8   4   8   8
#     4  10  22  41  65  93 132 171 218 270 329 387
#     4  11  23  44  68  93 128 178 224 262 320 403
#     4  12  27  43  65 101 136 163 218 280 335 380
#     4  12  22  38  68 102 126 168 218 284 334 368
#     4  10  21  44  64  92 131 172 222 264 318 407
#     4  11  23  45  68  90 131 182 220 259 325 406
#
# _framework density 22.232257000000001
#
# number of rings (size 3 to 8) (size 9 to 14) (size 15 to 20)
#    0.000    1.091    6.364    1.636    3.818    1.455 
#    0.000    0.000    4.000    0.000    0.000    0.000 
#    0.000    0.000    0.000    0.000    0.000    0.000 
#
# Total GULP energy -272559.653074 kJ/mol
# GULP energy per Si atom -12389.075140 kJ/mol
# Density = 2.218166 g / cm^3
# Si number density = 22.232257 Si / 1000 Ang^3
#
#
#
# Elastic Constant Matrix: (Units=GPa)
#
#
# Indices 1 2 3 4 5 6 
#
# 1 142.7602 63.8928 19.4576 0.0000 4.2670 0.0000
# 2 63.8928 104.7492 23.9046 0.0000 1.9355 0.0000
# 3 19.4576 23.9046 47.0689 0.0000 16.9165 0.0000
# 4 0.0000 0.0000 0.0000 27.5498 0.0000 5.6893
# 5 4.2670 1.9355 16.9165 0.0000 28.4509 0.0000
# 6 0.0000 0.0000 0.0000 5.6893 0.0000 33.3754
#
#
#
# Elastic Compliance Matrix: (Units=1/GPa)
#
#
# Indices 1 2 3 4 5 6 
#
# 1 0.009694 -0.005691 -0.000933 0.000000 -0.000512 0.000000
# 2 -0.005691 0.014374 -0.006236 0.000000 0.003583 0.000000
# 3 -0.000933 -0.006236 0.031280 0.000000 -0.018034 0.000000
# 4 0.000000 0.000000 0.000000 0.037622 0.000000 -0.006413
# 5 -0.000512 0.003583 -0.018034 0.000000 0.045704 0.000000
# 6 0.000000 0.000000 0.000000 -0.006413 0.000000 0.031055
#
#
# Mechanical properties :
#
#
# Convention : Reuss Voigt Hill
#
# Bulk Modulus (GPa) = 33.75084 56.56537 45.15811
# Shear Modulus (GPa) = 24.35155 30.36343 27.35749
#
# Velocity S-wave (km/s) = 3.31316 3.69960 3.51170
# Velocity P-wave (km/s) = 5.46352 6.61419 6.06620
#
# Compressibility (1/GPa) = 0.02962889
#
# Stress axis : x y z
#
# Youngs Moduli (GPa) = 103.15564 69.56802 31.96965
#
# Poissons Ratio (x) = 0.39588 0.02984
# Poissons Ratio (y) = 0.58701 0.19935
# Poissons Ratio (z) = 0.09629 0.43380
#
# Static dielectric constant tensor:
#      x y z
#    x 4.266100 0.000000 0.017950 
#    y 0.000000 4.050330 0.000000 
#    z 0.017950 0.000000 3.964270 
# 
# 
# High freq. dielectric constant tensor:
#      x y z
#    x 1.886300 0.000000 -0.007440 
#    y 0.000000 1.868920 0.000000 
#    z -0.007440 0.000000 1.864350 
# 
# From -- ./inp_files/25441.got.cif
#   From: 2010.06.25/outbox.cif.g09.slc.cpg/sg15_13_cif.got.tgz:25441.got - 2010.06.28 07:06:18.
