data_PCOD8144406
_publ_section_title
;
Structure prediction by ZEFSAII (Michael W. Deem and Ramdas Pophale) SiO2 
 PCOD8144406
Probable space group: C 2/C
;
_chemical_formula_sum "Si O2"
_cell_formula_units_Z 56
_cell_length_a 25.790712
_cell_length_b 8.868691
_cell_length_c 18.402654
_cell_angle_alpha 90.000000
_cell_angle_beta 142.350267
_cell_angle_gamma 90.000000
_cell_volume 2571.138997
_symmetry_space_group_name_H-M "C 2/C"
_symmetry_group_IT_number 15
_symmetry_cell_setting 'monoclinic'
loop_
_space_group_symop_operation_xyz
x,y,z
-x,y,1/2-z
-x,-y,-z
x,-y,1/2+z
1/2+x,1/2+y,z
1/2-x,1/2+y,1/2-z
1/2-x,1/2-y,-z
1/2+x,1/2-y,1/2+z
loop_
_atom_site_type_symbol
_atom_site_label
_atom_site_fract_x
_atom_site_fract_y
_atom_site_fract_z
Si Si1 0.528774 0.866672 0.362932
Si Si2 0.158858 0.641879 0.197297
Si Si3 0.121732 0.315185 0.204831
Si Si4 0.541208 0.216015 0.372631
Si Si5 0.730183 0.198390 0.560033
Si Si6 0.999166 0.168993 0.526322
Si Si7 0.714819 0.870464 0.601333
O O1 0.500000 0.843106 0.250000
O O2 0.457696 0.779729 0.330534
O O3 0.623613 0.798626 0.478394
O O4 0.531547 0.043086 0.387378
O O5 0.132292 0.492143 0.209238
O O6 0.205754 0.740279 0.309224
O O7 0.214870 0.599149 0.188666
O O8 0.076752 0.734785 0.078180
O O9 0.209201 0.245276 0.331930
O O10 0.092200 0.241701 0.095947
O O11 0.500000 0.247890 0.250000
O O12 0.638542 0.264443 0.476665
O O13 0.494038 0.322350 0.378728
O O14 0.750000 0.250000 0.500000
O O15 0.731158 0.017488 0.570085
O O16 0.000000 0.000000 0.500000
#
# Coordination Sequence:
#
# PCOD8144406 Si02
#       7
#     8   8   8   8   8   8   8
#     4  10  22  43  69 100 135 183 230 278 348 420
#     4  12  23  43  71  99 141 185 238 290 355 424
#     4  12  24  43  71 102 137 183 232 289 352 414
#     4  10  21  42  70  96 132 184 231 278 342 418
#     4  11  25  44  68 104 140 186 239 287 353 429
#     4  12  24  41  70 103 136 179 235 293 348 416
#     4  11  24  43  71 103 141 182 238 293 350 423
#
# _framework density 21.78023
#
# number of rings (size 3 to 8) (size 9 to 14) (size 15 to 20)
#    0.000    0.857    2.857    5.571    4.000    1.714 
#    0.000    0.714    0.000    0.000    0.000    0.000 
#    0.000    0.000    0.000    0.000    0.000    0.000 
#
# Total GULP energy -347211.559167 kJ/mol
# GULP energy per Si atom -12400.412827 kJ/mol
# Density = 2.173066 g / cm^3
# Si number density = 21.780230 Si / 1000 Ang^3
#
#
#
# Elastic Constant Matrix: (Units=GPa)
#
#
# Indices 1 2 3 4 5 6 
#
# 1 127.3627 44.1739 52.5552 0.0000 9.3055 0.0000
# 2 44.1739 94.4992 42.1160 0.0000 17.0527 0.0000
# 3 52.5552 42.1160 132.0523 0.0000 27.0363 0.0000
# 4 0.0000 0.0000 0.0000 26.3573 0.0000 4.0329
# 5 9.3055 17.0527 27.0363 0.0000 40.4022 0.0000
# 6 0.0000 0.0000 0.0000 4.0329 0.0000 31.8814
#
#
#
# Elastic Compliance Matrix: (Units=1/GPa)
#
#
# Indices 1 2 3 4 5 6 
#
# 1 0.010349 -0.003636 -0.003227 0.000000 0.001311 0.000000
# 2 -0.003636 0.013931 -0.002275 0.000000 -0.003520 0.000000
# 3 -0.003227 -0.002275 0.010700 0.000000 -0.005457 0.000000
# 4 0.000000 0.000000 0.000000 0.038689 0.000000 -0.004894
# 5 0.001311 -0.003520 -0.005457 0.000000 0.029586 0.000000
# 6 0.000000 0.000000 0.000000 -0.004894 0.000000 0.031985
#
#
# Mechanical properties :
#
#
# Convention : Reuss Voigt Hill
#
# Bulk Modulus (GPa) = 59.87117 70.17827 65.02472
# Shear Modulus (GPa) = 31.42983 34.06613 32.74798
#
# Velocity S-wave (km/s) = 3.80286 3.95914 3.88179
# Velocity P-wave (km/s) = 6.84330 7.29320 7.07183
#
# Compressibility (1/GPa) = 0.01670253
#
# Stress axis : x y z
#
# Youngs Moduli (GPa) = 96.63180 71.78319 93.45688
#
# Poissons Ratio (x) = 0.26097 0.30163
# Poissons Ratio (y) = 0.35131 0.21266
# Poissons Ratio (z) = 0.31187 0.16334
#
# Static dielectric constant tensor:
#      x y z
#    x 4.110830 0.000000 0.214150 
#    y 0.000000 3.700990 0.000000 
#    z 0.214150 0.000000 4.220310 
# 
# 
# High freq. dielectric constant tensor:
#      x y z
#    x 1.865310 0.000000 0.004660 
#    y 0.000000 1.829420 0.000000 
#    z 0.004660 0.000000 1.875780 
# 
# From -- ./inp_files/222081.got.cif
#   From: 2010.06.25/outbox.cif.g09.slc.cpg/sg15_112_cif.got.tgz:222081.got - 2010.06.28 07:06:18.
