data_PCOD8144766
_publ_section_title
;
Structure prediction by ZEFSAII (Michael W. Deem and Ramdas Pophale) SiO2 
 PCOD8144766
Probable space group: C 2/C
;
_chemical_formula_sum "Si O2"
_cell_formula_units_Z 40
_cell_length_a 29.425584
_cell_length_b 4.847962
_cell_length_c 12.571427
_cell_angle_alpha 90.000000
_cell_angle_beta 81.210370
_cell_angle_gamma 90.000000
_cell_volume 1772.304578
_symmetry_space_group_name_H-M "C 2/C"
_symmetry_group_IT_number 15
_symmetry_cell_setting 'monoclinic'
loop_
_space_group_symop_operation_xyz
x,y,z
-x,y,1/2-z
-x,-y,-z
x,-y,1/2+z
1/2+x,1/2+y,z
1/2-x,1/2+y,1/2-z
1/2-x,1/2-y,-z
1/2+x,1/2-y,1/2+z
loop_
_atom_site_type_symbol
_atom_site_label
_atom_site_fract_x
_atom_site_fract_y
_atom_site_fract_z
Si Si1 0.692512 0.609124 0.722547
Si Si2 0.472147 0.717635 0.583342
Si Si3 0.241285 0.380114 0.116966
Si Si4 0.439429 0.010083 0.905656
Si Si5 0.089883 0.974726 0.208223
O O1 0.710894 0.654528 0.835784
O O2 0.702360 0.296693 0.687728
O O3 0.637843 0.620058 0.741861
O O4 0.719376 0.811723 0.628957
O O5 0.500000 0.500000 0.500000
O O6 0.432049 0.864886 0.526601
O O7 0.449491 0.570412 0.691226
O O8 0.505324 0.956761 0.619762
O O9 0.250000 0.250000 0.000000
O O10 0.417075 0.210121 0.824920
O O11 0.416127 0.713070 0.895420
#
# Coordination Sequence:
#
# PCOD8144766 Si02
#       5
#     8   8   8   8   8
#     4  10  23  41  65 103 127 168 221 265 330 402
#     4  11  26  44  66  94 131 182 233 267 337 400
#     4  10  21  44  70  93 134 173 207 267 338 402
#     4  11  26  43  65  94 131 181 226 272 337 389
#     4  12  26  41  68  97 137 171 226 288 325 390
#
# _framework density 22.569483000000002
#
# number of rings (size 3 to 8) (size 9 to 14) (size 15 to 20)
#    0.000    1.200    2.000    2.400    8.400    3.200 
#    0.000    0.000    0.000    0.000    0.000    0.000 
#    0.000    0.000    0.000    0.000    0.000    0.000 
#
# Total GULP energy -247794.449648 kJ/mol
# GULP energy per Si atom -12389.722482 kJ/mol
# Density = 2.251811 g / cm^3
# Si number density = 22.569483 Si / 1000 Ang^3
#
#
#
# Elastic Constant Matrix: (Units=GPa)
#
#
# Indices 1 2 3 4 5 6 
#
# 1 114.8256 30.6824 39.1769 0.0000 22.9031 0.0000
# 2 30.6824 91.8696 13.9801 0.0000 9.1519 0.0000
# 3 39.1769 13.9801 77.2962 0.0000 18.4583 0.0000
# 4 0.0000 0.0000 0.0000 30.1544 0.0000 16.9810
# 5 22.9031 9.1519 18.4583 0.0000 21.9803 0.0000
# 6 0.0000 0.0000 0.0000 16.9810 0.0000 29.9665
#
#
#
# Elastic Compliance Matrix: (Units=1/GPa)
#
#
# Indices 1 2 3 4 5 6 
#
# 1 0.012446 -0.002722 -0.003740 0.000000 -0.008695 0.000000
# 2 -0.002722 0.012034 -0.000348 0.000000 -0.001883 0.000000
# 3 -0.003740 -0.000348 0.017425 0.000000 -0.010591 0.000000
# 4 0.000000 0.000000 0.000000 0.048705 0.000000 -0.027599
# 5 -0.008695 -0.001883 -0.010591 0.000000 0.064234 0.000000
# 6 0.000000 0.000000 0.000000 -0.027599 0.000000 0.049010
#
#
# Mechanical properties :
#
#
# Convention : Reuss Voigt Hill
#
# Bulk Modulus (GPa) = 35.35055 50.18558 42.76807
# Shear Modulus (GPa) = 22.03600 29.76370 25.89985
#
# Velocity S-wave (km/s) = 3.12807 3.63541 3.39124
# Velocity P-wave (km/s) = 5.36129 6.31711 5.85873
#
# Compressibility (1/GPa) = 0.02828810
#
# Stress axis : x y z
#
# Youngs Moduli (GPa) = 80.34488 83.09509 57.38968
#
# Poissons Ratio (x) = 0.22614 0.21462
# Poissons Ratio (y) = 0.21866 0.01994
# Poissons Ratio (z) = 0.30046 0.02888
#
# Static dielectric constant tensor:
#      x y z
#    x 3.996650 0.000000 0.596920 
#    y 0.000000 4.461020 0.000000 
#    z 0.596920 0.000000 4.215810 
# 
# 
# High freq. dielectric constant tensor:
#      x y z
#    x 1.869630 0.000000 0.033040 
#    y 0.000000 1.912980 0.000000 
#    z 0.033040 0.000000 1.881370 
# 
# From -- ./inp_files/124784.got.cif
#   From: 2010.06.25/outbox.cif.g09.slc.cpg/sg15_63_cif.got.tgz:124784.got - 2010.06.28 07:06:18.
