data_PCOD8144350
_publ_section_title
;
Structure prediction by ZEFSAII (Michael W. Deem and Ramdas Pophale) SiO2 
 PCOD8144350
Probable space group: C 2/C
;
_chemical_formula_sum "Si O2"
_cell_formula_units_Z 64
_cell_length_a 8.770797
_cell_length_b 13.944047
_cell_length_c 30.926390
_cell_angle_alpha 90.000000
_cell_angle_beta 130.044573
_cell_angle_gamma 90.000000
_cell_volume 2895.525354
_symmetry_space_group_name_H-M "C 2/C"
_symmetry_group_IT_number 15
_symmetry_cell_setting 'monoclinic'
loop_
_space_group_symop_operation_xyz
x,y,z
-x,y,1/2-z
-x,-y,-z
x,-y,1/2+z
1/2+x,1/2+y,z
1/2-x,1/2+y,1/2-z
1/2-x,1/2-y,-z
1/2+x,1/2-y,1/2+z
loop_
_atom_site_type_symbol
_atom_site_label
_atom_site_fract_x
_atom_site_fract_y
_atom_site_fract_z
Si Si1 0.796489 0.641553 0.611156
Si Si2 0.590770 0.225290 0.007155
Si Si3 0.755806 0.565122 0.413572
Si Si4 0.192942 0.463636 0.755797
Si Si5 0.902468 0.796757 0.833362
Si Si6 0.486396 0.038427 0.368201
Si Si7 0.532420 0.407732 0.140358
Si Si8 0.797406 0.271431 0.614314
O O1 0.638319 0.705926 0.556443
O O2 0.892736 0.558949 0.598319
O O3 0.684721 0.586206 0.628690
O O4 0.974698 0.707105 0.663986
O O5 0.599959 0.112877 0.023923
O O6 0.750000 0.250000 0.000000
O O7 0.370373 0.243938 0.950756
O O8 0.557299 0.627982 0.380836
O O9 0.680873 0.457599 0.410448
O O10 0.855896 0.570443 0.384894
O O11 0.264011 0.352194 0.773577
O O12 0.367338 0.537361 0.800997
O O13 0.000000 0.481883 0.750000
O O14 0.153911 0.482628 0.698457
O O15 0.772907 0.758119 0.849566
O O16 0.641889 0.120233 0.383893
O O17 0.488033 0.297551 0.143547
#
# Coordination Sequence:
#
# PCOD8144350 Si02
#       8
#     8   8   8   8   8   8   8   8
#     4  11  23  43  66 100 133 176 225 281 334 404
#     4  11  24  45  72  97 138 185 226 280 353 403
#     4  10  23  44  66 100 137 173 227 283 330 403
#     4  11  22  47  70  98 134 185 221 279 351 404
#     4  10  21  42  68  96 136 170 226 279 334 401
#     4  12  25  43  71  99 140 175 229 285 339 407
#     4  11  25  43  70 100 141 175 230 282 333 411
#     4  12  23  43  69 102 137 181 227 286 336 408
#
# _framework density 22.103069999999999
#
# number of rings (size 3 to 8) (size 9 to 14) (size 15 to 20)
#    0.000    1.000    5.000    3.000    0.000    6.000 
#    0.000    0.000    0.000    0.000    0.000    0.000 
#    0.000    0.000    0.000    0.000    0.000    0.000 
#
# Total GULP energy -396823.411763 kJ/mol
# GULP energy per Si atom -12400.731618 kJ/mol
# Density = 2.205276 g / cm^3
# Si number density = 22.103070 Si / 1000 Ang^3
#
#
#
# Elastic Constant Matrix: (Units=GPa)
#
#
# Indices 1 2 3 4 5 6 
#
# 1 96.5728 16.1333 24.3961 0.0000 -9.3873 0.0000
# 2 16.1333 95.7985 21.1523 0.0000 12.1089 0.0000
# 3 24.3961 21.1523 53.1543 0.0000 6.4278 0.0000
# 4 0.0000 0.0000 0.0000 25.7362 0.0000 1.9661
# 5 -9.3873 12.1089 6.4278 0.0000 32.8760 0.0000
# 6 0.0000 0.0000 0.0000 1.9661 0.0000 42.6220
#
#
#
# Elastic Compliance Matrix: (Units=1/GPa)
#
#
# Indices 1 2 3 4 5 6 
#
# 1 0.012590 -0.001504 -0.005819 0.000000 0.005286 0.000000
# 2 -0.001504 0.012008 -0.003587 0.000000 -0.004151 0.000000
# 3 -0.005819 -0.003587 0.023508 0.000000 -0.004937 0.000000
# 4 0.000000 0.000000 0.000000 0.038993 0.000000 -0.001799
# 5 0.005286 -0.004151 -0.004937 0.000000 0.034421 0.000000
# 6 0.000000 0.000000 0.000000 -0.001799 0.000000 0.023545
#
#
# Mechanical properties :
#
#
# Convention : Reuss Voigt Hill
#
# Bulk Modulus (GPa) = 38.04057 40.98764 39.51410
# Shear Modulus (GPa) = 28.46612 32.50311 30.48461
#
# Velocity S-wave (km/s) = 3.59260 3.83890 3.71779
# Velocity P-wave (km/s) = 5.87000 6.18334 6.02871
#
# Compressibility (1/GPa) = 0.02628773
#
# Stress axis : x y z
#
# Youngs Moduli (GPa) = 79.42806 83.27512 42.53816
#
# Poissons Ratio (x) = 0.12521 0.24754
# Poissons Ratio (y) = 0.11942 0.15257
# Poissons Ratio (z) = 0.46222 0.29867
#
# Static dielectric constant tensor:
#      x y z
#    x 3.919910 0.000000 0.053960 
#    y 0.000000 4.361920 0.000000 
#    z 0.053960 0.000000 4.357930 
# 
# 
# High freq. dielectric constant tensor:
#      x y z
#    x 1.873920 0.000000 0.010290 
#    y 0.000000 1.885490 0.000000 
#    z 0.010290 0.000000 1.853260 
# 
# From -- ./inp_files/308285.got.cif
#   From: 2010.06.25/outbox.cif.g09.slc.cpg/sg15_155_cif.got.tgz:308285.got - 2010.06.28 07:06:18.
