data_PCOD8144675
_publ_section_title
;
Structure prediction by ZEFSAII (Michael W. Deem and Ramdas Pophale) SiO2 
 PCOD8144675
Probable space group: C 2/C
;
_chemical_formula_sum "Si O2"
_cell_formula_units_Z 40
_cell_length_a 9.736288
_cell_length_b 14.119180
_cell_length_c 15.273839
_cell_angle_alpha 90.000000
_cell_angle_beta 59.281228
_cell_angle_gamma 90.000000
_cell_volume 1805.054925
_symmetry_space_group_name_H-M "C 2/C"
_symmetry_group_IT_number 15
_symmetry_cell_setting 'monoclinic'
loop_
_space_group_symop_operation_xyz
x,y,z
-x,y,1/2-z
-x,-y,-z
x,-y,1/2+z
1/2+x,1/2+y,z
1/2-x,1/2+y,1/2-z
1/2-x,1/2-y,-z
1/2+x,1/2-y,1/2+z
loop_
_atom_site_type_symbol
_atom_site_label
_atom_site_fract_x
_atom_site_fract_y
_atom_site_fract_z
Si Si1 0.371936 0.152549 0.212897
Si Si2 0.300958 0.484983 0.158169
Si Si3 0.372172 0.395447 0.472530
Si Si4 0.119831 0.689840 0.778111
Si Si5 0.423028 0.810858 0.017897
O O1 0.500000 0.148792 0.250000
O O2 0.245683 0.067114 0.258364
O O3 0.275896 0.250048 0.251625
O O4 0.455432 0.145012 0.091446
O O5 0.475820 0.443488 0.123933
O O6 0.169545 0.403687 0.208946
O O7 0.293606 0.527284 0.062511
O O8 0.421762 0.303102 0.512153
O O9 0.249923 0.359456 0.439004
O O10 0.000000 0.743817 0.750000
O O11 0.027523 0.664728 0.898698
#
# Coordination Sequence:
#
# PCOD8144675 Si02
#       5
#     8   8   8   8   8
#     4  12  23  47  78 103 138 188 242 292 348 427
#     4  11  23  43  71 106 144 176 231 303 353 413
#     4  10  21  43  76 106 131 183 243 296 347 423
#     4  12  28  45  66 104 149 186 230 303 353 407
#     4  11  22  45  76 100 134 193 242 281 353 427
#
# _framework density 22.159991000000002
#
# number of rings (size 3 to 8) (size 9 to 14) (size 15 to 20)
#    0.000    0.800    6.000    1.800    0.000    1.600 
#    3.600    0.000    0.000    0.000    0.000    0.000 
#    0.000    0.000    0.000    0.000    0.000    0.000 
#
# Total GULP energy -248003.154495 kJ/mol
# GULP energy per Si atom -12400.157725 kJ/mol
# Density = 2.210955 g / cm^3
# Si number density = 22.159991 Si / 1000 Ang^3
#
#
#
# Elastic Constant Matrix: (Units=GPa)
#
#
# Indices 1 2 3 4 5 6 
#
# 1 86.4718 49.1237 88.0163 0.0000 4.4321 0.0000
# 2 49.1237 121.3368 48.3838 0.0000 -7.6880 0.0000
# 3 88.0163 48.3838 168.6520 0.0000 -2.5649 0.0000
# 4 0.0000 0.0000 0.0000 44.4985 0.0000 -16.1982
# 5 4.4321 -7.6880 -2.5649 0.0000 26.6128 0.0000
# 6 0.0000 0.0000 0.0000 -16.1982 0.0000 38.1761
#
#
#
# Elastic Compliance Matrix: (Units=1/GPa)
#
#
# Indices 1 2 3 4 5 6 
#
# 1 0.030134 -0.007241 -0.013777 0.000000 -0.008438 0.000000
# 2 -0.007241 0.011206 0.000632 0.000000 0.004504 0.000000
# 3 -0.013777 0.000632 0.012995 0.000000 0.003730 0.000000
# 4 0.000000 0.000000 0.000000 0.026578 0.000000 0.011277
# 5 -0.008438 0.004504 0.003730 0.000000 0.040642 0.000000
# 6 0.000000 0.000000 0.000000 0.011277 0.000000 0.030979
#
#
# Mechanical properties :
#
#
# Convention : Reuss Voigt Hill
#
# Bulk Modulus (GPa) = 73.72727 83.05645 78.39186
# Shear Modulus (GPa) = 25.27483 34.58662 29.93072
#
# Velocity S-wave (km/s) = 3.38088 3.95494 3.67913
# Velocity P-wave (km/s) = 6.97016 7.64311 7.31438
#
# Compressibility (1/GPa) = 0.01356350
#
# Stress axis : x y z
#
# Youngs Moduli (GPa) = 33.18554 89.23688 76.95395
#
# Poissons Ratio (x) = 0.64613 1.06022
# Poissons Ratio (y) = 0.24028 -0.04866
# Poissons Ratio (z) = 0.45721 -0.05643
#
# Static dielectric constant tensor:
#      x y z
#    x 3.732550 0.000000 -0.277430 
#    y 0.000000 4.095590 0.000000 
#    z -0.277430 0.000000 4.161690 
# 
# 
# High freq. dielectric constant tensor:
#      x y z
#    x 1.849860 0.000000 -0.018400 
#    y 0.000000 1.875750 0.000000 
#    z -0.018400 0.000000 1.884510 
# 
# From -- ./inp_files/133093.got.cif
#   From: 2010.06.25/outbox.cif.g09.slc.cpg/sg15_67_cif.got.tgz:133093.got - 2010.06.28 07:06:18.
