data_PCOD8144953
_publ_section_title
;
Structure prediction by ZEFSAII (Michael W. Deem and Ramdas Pophale) SiO2 
 PCOD8144953
Probable space group: C 2/C
;
_chemical_formula_sum "Si O2"
_cell_formula_units_Z 48
_cell_length_a 29.487752
_cell_length_b 5.379726
_cell_length_c 17.468074
_cell_angle_alpha 90.000000
_cell_angle_beta 127.595952
_cell_angle_gamma 90.000000
_cell_volume 2195.606216
_symmetry_space_group_name_H-M "C 2/C"
_symmetry_group_IT_number 15
_symmetry_cell_setting 'monoclinic'
loop_
_space_group_symop_operation_xyz
x,y,z
-x,y,1/2-z
-x,-y,-z
x,-y,1/2+z
1/2+x,1/2+y,z
1/2-x,1/2+y,1/2-z
1/2-x,1/2-y,-z
1/2+x,1/2-y,1/2+z
loop_
_atom_site_type_symbol
_atom_site_label
_atom_site_fract_x
_atom_site_fract_y
_atom_site_fract_z
Si Si1 0.858677 0.147788 0.491144
Si Si2 0.208231 0.529803 0.474756
Si Si3 0.610214 0.998317 0.772136
Si Si4 0.156958 0.582481 0.664177
Si Si5 0.434243 0.508986 0.199110
Si Si6 0.231767 0.227136 0.637934
O O1 0.846803 0.385149 0.531962
O O2 0.881293 0.240527 0.431460
O O3 0.901400 0.968414 0.582624
O O4 0.795311 0.039961 0.407432
O O5 0.250000 0.750000 0.500000
O O6 0.176396 0.442279 0.364504
O O7 0.241219 0.326484 0.559951
O O8 0.612729 0.982869 0.682218
O O9 0.572360 0.232375 0.761560
O O10 0.587464 0.729409 0.775424
O O11 0.184886 0.368094 0.641281
O O12 0.208481 0.736134 0.756565
O O13 0.500000 0.463702 0.250000
#
# Coordination Sequence:
#
# PCOD8144953 Si02
#       6
#     8   8   8   8   8   8
#     4  10  22  40  59  90 128 175 209 270 319 389
#     4  10  22  35  59  94 131 173 218 257 317 396
#     4  11  25  42  68  98 128 168 221 278 315 393
#     4  11  24  35  60  95 136 174 208 253 329 399
#     4  11  25  49  72  92 121 170 229 286 334 369
#     4  11  21  37  57  90 138 178 207 250 324 397
#
# _framework density 21.861844999999999
#
# number of rings (size 3 to 8) (size 9 to 14) (size 15 to 20)
#    0.000    1.333    3.333    1.500    9.333    1.333 
#    0.000    1.667    0.000    0.000    0.000    0.000 
#    0.000    0.000    0.000    0.000    0.000    0.000 
#
# Total GULP energy -297361.771121 kJ/mol
# GULP energy per Si atom -12390.073797 kJ/mol
# Density = 2.181209 g / cm^3
# Si number density = 21.861845 Si / 1000 Ang^3
#
#
#
# Elastic Constant Matrix: (Units=GPa)
#
#
# Indices 1 2 3 4 5 6 
#
# 1 69.7299 9.7146 31.4523 -0.0001 -13.4919 0.0002
# 2 9.7146 76.0709 5.1304 -0.0014 -14.0918 0.0045
# 3 31.4523 5.1304 87.0567 0.0006 -28.2456 0.0000
# 4 -0.0001 -0.0014 0.0006 25.7938 0.0000 -2.9431
# 5 -13.4919 -14.0918 -28.2456 0.0000 38.2636 0.0000
# 6 0.0002 0.0045 0.0000 -2.9431 0.0000 33.7617
#
#
#
# Elastic Compliance Matrix: (Units=1/GPa)
#
#
# Indices 1 2 3 4 5 6 
#
# 1 0.017421 -0.001596 -0.005782 0.000000 0.001286 0.000000
# 2 -0.001596 0.014338 0.001660 0.000001 0.005943 -0.000002
# 3 -0.005782 0.001660 0.017114 0.000000 0.011205 0.000000
# 4 0.000000 0.000001 0.000000 0.039159 0.000000 0.003414
# 5 0.001286 0.005943 0.011205 0.000000 0.037048 -0.000001
# 6 0.000000 -0.000002 0.000000 0.003414 -0.000001 0.029917
#
#
# Mechanical properties :
#
#
# Convention : Reuss Voigt Hill
#
# Bulk Modulus (GPa) = 26.71297 36.16134 31.43715
# Shear Modulus (GPa) = 27.94662 32.00115 29.97388
#
# Velocity S-wave (km/s) = 3.57925 3.83010 3.70680
# Velocity P-wave (km/s) = 5.41543 6.01135 5.72115
#
# Compressibility (1/GPa) = 0.03743500
#
# Stress axis : x y z
#
# Youngs Moduli (GPa) = 57.40361 69.74237 58.43292
#
# Poissons Ratio (x) = 0.11134 0.33788
# Poissons Ratio (y) = 0.09164 -0.09700
# Poissons Ratio (z) = 0.33193 -0.11577
#
# Static dielectric constant tensor:
#      x y z
#    x 3.741020 0.000000 -0.360710 
#    y 0.000000 3.978230 0.000000 
#    z -0.360710 0.000000 4.579620 
# 
# 
# High freq. dielectric constant tensor:
#      x y z
#    x 1.832390 0.000000 -0.034840 
#    y 0.000000 1.863000 0.000000 
#    z -0.034840 0.000000 1.870020 
# 
# From -- ./inp_files/180199.got.cif
#   From: 2010.06.25/outbox.cif.g09.slc.cpg/sg15_91_cif.got.tgz:180199.got - 2010.06.28 07:06:18.
