data_PCOD8144029
_publ_section_title
;
Structure prediction by ZEFSAII (Michael W. Deem and Ramdas Pophale) SiO2 
 PCOD8144029
Probable space group: C 2/C
;
_chemical_formula_sum "Si O2"
_cell_formula_units_Z 32
_cell_length_a 8.401016
_cell_length_b 18.202317
_cell_length_c 7.381085
_cell_angle_alpha 90.000000
_cell_angle_beta 89.464281
_cell_angle_gamma 90.000000
_cell_volume 1128.651097
_symmetry_space_group_name_H-M "C 2/C"
_symmetry_group_IT_number 15
_symmetry_cell_setting 'monoclinic'
loop_
_space_group_symop_operation_xyz
x,y,z
-x,y,1/2-z
-x,-y,-z
x,-y,1/2+z
1/2+x,1/2+y,z
1/2-x,1/2+y,1/2-z
1/2-x,1/2-y,-z
1/2+x,1/2-y,1/2+z
loop_
_atom_site_type_symbol
_atom_site_label
_atom_site_fract_x
_atom_site_fract_y
_atom_site_fract_z
Si Si1 0.190030 0.866910 0.956070
Si Si2 0.679084 0.993865 0.732141
Si Si3 0.171956 0.890998 0.478932
Si Si4 0.811525 0.244248 0.732199
O O1 0.298836 0.940808 0.949191
O O2 0.213646 0.820404 0.762279
O O3 0.244735 0.811675 0.109818
O O4 0.010496 0.895024 0.964960
O O5 0.500000 0.021869 0.750000
O O6 0.798147 0.064571 0.713961
O O7 0.717627 0.936707 0.889622
O O8 0.225830 0.804772 0.450034
O O9 0.000000 0.259203 0.750000
#
# Coordination Sequence:
#
# PCOD8144029 Si02
#       4
#     8   8   8   8
#     4  10  21  41  69  98 132 172 216 270 328 395
#     4  12  25  43  65  95 134 175 223 277 330 389
#     4  11  24  43  69  97 130 175 223 272 331 395
#     4   9  20  41  69 101 135 172 216 270 330 393
#
# _framework density 28.352428
#
# number of rings (size 3 to 8) (size 9 to 14) (size 15 to 20)
#    0.000    1.500    0.000    4.500    0.000    5.000 
#    0.000    7.500    0.000    0.000    0.000    0.000 
#    0.000    0.000    0.000    0.000    0.000    0.000 
#
# Total GULP energy -198362.519875 kJ/mol
# GULP energy per Si atom -12397.657492 kJ/mol
# Density = 2.828790 g / cm^3
# Si number density = 28.352428 Si / 1000 Ang^3
#
#
#
# Elastic Constant Matrix: (Units=GPa)
#
#
# Indices 1 2 3 4 5 6 
#
# 1 168.2857 88.0816 31.0372 0.0000 -32.3537 0.0000
# 2 88.0816 216.9719 25.2864 0.0000 -26.4246 0.0000
# 3 31.0372 25.2864 40.8669 0.0000 -20.5823 0.0000
# 4 0.0000 0.0000 0.0000 43.0699 0.0000 -24.1446
# 5 -32.3537 -26.4246 -20.5823 0.0000 42.4437 0.0000
# 6 0.0000 0.0000 0.0000 -24.1446 0.0000 58.1851
#
#
#
# Elastic Compliance Matrix: (Units=1/GPa)
#
#
# Indices 1 2 3 4 5 6 
#
# 1 0.008584 -0.002711 -0.003171 0.000000 0.003318 0.000000
# 2 -0.002711 0.005972 -0.001064 0.000000 0.001135 0.000000
# 3 -0.003171 -0.001064 0.034383 0.000000 0.013594 0.000000
# 4 0.000000 0.000000 0.000000 0.030256 0.000000 0.012555
# 5 0.003318 0.001135 0.013594 0.000000 0.033388 0.000000
# 6 0.000000 0.000000 0.000000 0.012555 0.000000 0.022396
#
#
# Mechanical properties :
#
#
# Convention : Reuss Voigt Hill
#
# Bulk Modulus (GPa) = 28.53390 79.43720 53.98555
# Shear Modulus (GPa) = 31.14214 47.52102 39.33158
#
# Velocity S-wave (km/s) = 3.31780 4.09844 3.72861
# Velocity P-wave (km/s) = 4.97623 7.10457 6.13342
#
# Compressibility (1/GPa) = 0.03504604
#
# Stress axis : x y z
#
# Youngs Moduli (GPa) = 116.49650 167.45409 29.08444
#
# Poissons Ratio (x) = 0.45399 0.09222
# Poissons Ratio (y) = 0.31584 0.03095
# Poissons Ratio (z) = 0.36938 0.17822
#
# Static dielectric constant tensor:
#      x y z
#    x 4.387210 0.000000 -0.836670 
#    y 0.000000 6.344970 0.000000 
#    z -0.836670 0.000000 6.926260 
# 
# 
# High freq. dielectric constant tensor:
#      x y z
#    x 2.096220 0.000000 -0.027960 
#    y 0.000000 2.202270 0.000000 
#    z -0.027960 0.000000 2.214500 
# 
# From -- ./inp_files/22245.got.cif
#   From: 2010.06.25/outbox.cif.g09.slc.cpg/sg15_12_cif.got.tgz:22245.got - 2010.06.28 07:06:18.
