data_PCOD8144136
_publ_section_title
;
Structure prediction by ZEFSAII (Michael W. Deem and Ramdas Pophale) SiO2 
 PCOD8144136
Probable space group: C 2/C
;
_chemical_formula_sum "Si O2"
_cell_formula_units_Z 44
_cell_length_a 7.872834
_cell_length_b 15.316775
_cell_length_c 16.252296
_cell_angle_alpha 90.000000
_cell_angle_beta 94.200540
_cell_angle_gamma 90.000000
_cell_volume 1954.541848
_symmetry_space_group_name_H-M "C 2/C"
_symmetry_group_IT_number 15
_symmetry_cell_setting 'monoclinic'
loop_
_space_group_symop_operation_xyz
x,y,z
-x,y,1/2-z
-x,-y,-z
x,-y,1/2+z
1/2+x,1/2+y,z
1/2-x,1/2+y,1/2-z
1/2-x,1/2-y,-z
1/2+x,1/2-y,1/2+z
loop_
_atom_site_type_symbol
_atom_site_label
_atom_site_fract_x
_atom_site_fract_y
_atom_site_fract_z
Si Si1 0.145584 0.235118 0.902118
Si Si2 0.979958 0.381341 0.495689
Si Si3 0.857827 0.962213 0.055472
Si Si4 0.994978 0.280723 0.156582
Si Si5 0.000000 0.330052 0.750000
Si Si6 0.243323 0.886477 0.853926
O O1 0.130598 0.293402 0.984994
O O2 0.094560 0.135129 0.915835
O O3 0.318599 0.252143 0.859684
O O4 0.007874 0.271868 0.832365
O O5 0.837875 0.459549 0.490328
O O6 0.054881 0.360685 0.406861
O O7 0.128323 0.393702 0.564752
O O8 0.864183 0.024569 0.136712
O O9 0.000000 0.000000 0.000000
O O10 0.000000 0.316405 0.250000
O O11 0.869676 0.199401 0.142293
O O12 0.836829 0.390646 0.767903
#
# Coordination Sequence:
#
# PCOD8144136 Si02
#       6
#     8   8   8   8   4   8
#     4  10  21  42  63  89 127 166 216 256 313 396
#     4  10  22  40  67  90 125 171 209 261 315 394
#     4  11  22  40  63  97 123 163 217 268 325 377
#     4  11  20  37  64  93 122 165 217 257 317 388
#     4  10  22  42  58  90 124 170 208 260 316 388
#     4  11  22  40  63  92 128 163 212 269 328 376
#
# _framework density 22.511668
#
# number of rings (size 3 to 8) (size 9 to 14) (size 15 to 20)
#    0.000    1.455    1.818    5.455    0.000    1.455 
#    8.182    0.000    0.000    0.000    0.000    0.000 
#    0.000    0.000    0.000    0.000    0.000    0.000 
#
# Total GULP energy -272601.539358 kJ/mol
# GULP energy per Si atom -12390.979062 kJ/mol
# Density = 2.246043 g / cm^3
# Si number density = 22.511668 Si / 1000 Ang^3
#
#
#
# Elastic Constant Matrix: (Units=GPa)
#
#
# Indices 1 2 3 4 5 6 
#
# 1 83.0250 43.9620 32.5731 0.0000 -29.0575 0.0000
# 2 43.9620 117.1694 57.5248 0.0000 -29.8313 0.0000
# 3 32.5731 57.5248 138.5408 0.0000 -27.4009 0.0000
# 4 0.0000 0.0000 0.0000 29.2786 0.0000 -11.3779
# 5 -29.0575 -29.8313 -27.4009 0.0000 43.6036 0.0000
# 6 0.0000 0.0000 0.0000 -11.3779 0.0000 26.2916
#
#
#
# Elastic Compliance Matrix: (Units=1/GPa)
#
#
# Indices 1 2 3 4 5 6 
#
# 1 0.017403 -0.004024 -0.000767 0.000000 0.008362 0.000000
# 2 -0.004024 0.012784 -0.003611 0.000000 0.003795 0.000000
# 3 -0.000767 -0.003611 0.009487 0.000000 0.002980 0.000000
# 4 0.000000 0.000000 0.000000 0.041060 0.000000 0.017769
# 5 0.008362 0.003795 0.002980 0.000000 0.032976 0.000000
# 6 0.000000 0.000000 0.000000 0.017769 0.000000 0.045725
#
#
# Mechanical properties :
#
#
# Convention : Reuss Voigt Hill
#
# Bulk Modulus (GPa) = 43.72672 67.42834 55.57753
# Shear Modulus (GPa) = 27.19438 33.47978 30.33708
#
# Velocity S-wave (km/s) = 3.47942 3.86063 3.67497
# Velocity P-wave (km/s) = 5.96724 7.06331 6.53828
#
# Compressibility (1/GPa) = 0.02286931
#
# Stress axis : x y z
#
# Youngs Moduli (GPa) = 57.46185 78.22491 105.40375
#
# Poissons Ratio (x) = 0.31478 0.08084
# Poissons Ratio (y) = 0.23123 0.38065
# Poissons Ratio (z) = 0.04407 0.28250
#
# Static dielectric constant tensor:
#      x y z
#    x 4.284260 0.000000 -0.195710 
#    y 0.000000 4.302260 0.000000 
#    z -0.195710 0.000000 4.245580 
# 
# 
# High freq. dielectric constant tensor:
#      x y z
#    x 1.897400 0.000000 -0.009780 
#    y 0.000000 1.886560 0.000000 
#    z -0.009780 0.000000 1.888740 
# 
# From -- ./inp_files/188902.got.cif
#   From: 2010.06.25/outbox.cif.g09.slc.cpg/sg15_95_cif.got.tgz:188902.got - 2010.06.28 07:06:18.
