data_PCOD8144477
_publ_section_title
;
Structure prediction by ZEFSAII (Michael W. Deem and Ramdas Pophale) SiO2 
 PCOD8144477
Probable space group: C 2/C
;
_chemical_formula_sum "Si O2"
_cell_formula_units_Z 52
_cell_length_a 18.945234
_cell_length_b 19.026244
_cell_length_c 14.205036
_cell_angle_alpha 90.000000
_cell_angle_beta 27.908492
_cell_angle_gamma 90.000000
_cell_volume 2396.611508
_symmetry_space_group_name_H-M "C 2/C"
_symmetry_group_IT_number 15
_symmetry_cell_setting 'monoclinic'
loop_
_space_group_symop_operation_xyz
x,y,z
-x,y,1/2-z
-x,-y,-z
x,-y,1/2+z
1/2+x,1/2+y,z
1/2-x,1/2+y,1/2-z
1/2-x,1/2-y,-z
1/2+x,1/2-y,1/2+z
loop_
_atom_site_type_symbol
_atom_site_label
_atom_site_fract_x
_atom_site_fract_y
_atom_site_fract_z
Si Si1 0.000000 0.345702 0.750000
Si Si2 0.023429 0.255669 0.909582
Si Si3 0.198755 0.125158 0.895503
Si Si4 0.209961 0.882744 0.177501
Si Si5 0.554117 0.491153 0.785623
Si Si6 0.298397 0.219307 0.131482
Si Si7 0.833401 0.398086 0.433702
O O1 0.002136 0.298562 0.654701
O O2 0.153405 0.392467 0.559585
O O3 0.134646 0.192555 0.750946
O O4 0.099765 0.305749 0.899687
O O5 0.872112 0.223952 0.132016
O O6 0.284001 0.114531 0.695267
O O7 0.133892 0.204286 0.977715
O O8 0.312111 0.118305 0.848507
O O9 0.062990 0.069574 0.050575
O O10 0.075849 0.941204 0.326835
O O11 0.500000 0.522116 0.750000
O O12 0.719255 0.458396 0.595750
O O13 0.312059 0.169753 0.024913
O O14 0.000000 0.428711 0.250000
#
# Coordination Sequence:
#
# PCOD8144477 Si02
#       7
#     4   8   8   8   8   8   8
#     4  12  24  42  66 100 134 164 226 286 332 382
#     4  11  23  41  65 100 130 173 224 275 329 400
#     4  10  21  43  63  97 133 172 224 269 325 404
#     4  11  24  41  70  93 138 175 225 272 339 390
#     4  10  24  43  66  94 134 182 223 267 329 409
#     4  11  22  39  66  97 133 172 219 272 340 382
#     4  11  23  38  65  96 135 168 222 273 335 392
#
# _framework density 21.697301
#
# number of rings (size 3 to 8) (size 9 to 14) (size 15 to 20)
#    0.000    1.231    3.077    4.154    2.154    1.846 
#    0.000    2.308    0.000    0.000    0.000    0.000 
#    0.000    0.000    0.000    0.000    0.000    0.000 
#
# Total GULP energy -322163.686522 kJ/mol
# GULP energy per Si atom -12390.911020 kJ/mol
# Density = 2.164792 g / cm^3
# Si number density = 21.697301 Si / 1000 Ang^3
#
#
#
# Elastic Constant Matrix: (Units=GPa)
#
#
# Indices 1 2 3 4 5 6 
#
# 1 138.7473 41.3589 39.0587 0.0012 -5.6507 -0.0019
# 2 41.3589 77.3380 15.7298 0.0039 1.4133 -0.0032
# 3 39.0587 15.7298 114.1016 -0.0015 -10.0402 0.0037
# 4 0.0012 0.0039 -0.0015 -9.4912 0.0034 20.8791
# 5 -5.6507 1.4133 -10.0402 0.0034 32.8915 -0.0077
# 6 -0.0019 -0.0032 0.0037 20.8791 -0.0077 1.9564
#
#
#
# Elastic Compliance Matrix: (Units=1/GPa)
#
#
# Indices 1 2 3 4 5 6 
#
# 1 0.009279 -0.004479 -0.002468 0.000001 0.001033 0.000000
# 2 -0.004479 0.015509 -0.000751 0.000002 -0.001665 -0.000002
# 3 -0.002468 -0.000751 0.009945 -0.000001 0.002644 0.000000
# 4 0.000001 0.000002 -0.000001 -0.004304 0.000011 0.045938
# 5 0.001033 -0.001665 0.002644 0.000011 0.031459 0.000000
# 6 0.000000 -0.000002 0.000000 0.045938 0.000000 0.020882
#
#
# Mechanical properties :
#
#
# Convention : Reuss Voigt Hill
#
# Bulk Modulus (GPa) = 51.71611 58.05351 54.88481
# Shear Modulus (GPa) = 47.79493 20.67396 34.23444
#
# Velocity S-wave (km/s) = 4.69850 3.09015 3.97649
# Velocity P-wave (km/s) = 7.30216 6.28858 6.81424
#
# Compressibility (1/GPa) = 0.01933633
#
# Stress axis : x y z
#
# Youngs Moduli (GPa) = 107.76490 64.47881 100.55109
#
# Poissons Ratio (x) = 0.28883 0.24817
# Poissons Ratio (y) = 0.48272 0.07553
# Poissons Ratio (z) = 0.26597 0.04844
#
# Static dielectric constant tensor:
#      x y z
#    x 4.266400 -0.000010 -0.006870 
#    y -0.000010 3.812600 0.000010 
#    z -0.006870 0.000010 3.977110 
# 
# 
# High freq. dielectric constant tensor:
#      x y z
#    x 1.872380 0.000000 -0.003780 
#    y 0.000000 1.837870 0.000000 
#    z -0.003780 0.000000 1.852860 
# 
# From -- ./inp_files/163609.got.cif
#   From: 2010.06.25/outbox.cif.g09.slc.cpg/sg15_82_cif.got.tgz:163609.got - 2010.06.28 07:06:18.
