data_PCOD8144890
_publ_section_title
;
Structure prediction by ZEFSAII (Michael W. Deem and Ramdas Pophale) SiO2 
 PCOD8144890
Probable space group: C 2/C
;
_chemical_formula_sum "Si O2"
_cell_formula_units_Z 52
_cell_length_a 16.944665
_cell_length_b 6.472023
_cell_length_c 26.469826
_cell_angle_alpha 90.000000
_cell_angle_beta 57.995235
_cell_angle_gamma 90.000000
_cell_volume 2461.625816
_symmetry_space_group_name_H-M "C 2/C"
_symmetry_group_IT_number 15
_symmetry_cell_setting 'monoclinic'
loop_
_space_group_symop_operation_xyz
x,y,z
-x,y,1/2-z
-x,-y,-z
x,-y,1/2+z
1/2+x,1/2+y,z
1/2-x,1/2+y,1/2-z
1/2-x,1/2-y,-z
1/2+x,1/2-y,1/2+z
loop_
_atom_site_type_symbol
_atom_site_label
_atom_site_fract_x
_atom_site_fract_y
_atom_site_fract_z
Si Si1 0.000000 0.421007 0.250000
Si Si2 0.749990 0.097489 0.926291
Si Si3 0.686304 0.736023 0.341817
Si Si4 0.954007 0.082632 0.632416
Si Si5 0.594321 0.283155 0.632355
Si Si6 0.856887 0.585497 0.224198
Si Si7 0.112071 0.385345 0.561337
O O1 0.079796 0.287160 0.195107
O O2 0.048849 0.557940 0.275856
O O3 0.717440 0.146852 0.881181
O O4 0.816153 0.278594 0.924411
O O5 0.802877 0.878355 0.907990
O O6 0.659581 0.071339 0.991650
O O7 0.601220 0.579565 0.384671
O O8 0.770559 0.601980 0.291043
O O9 0.653580 0.896602 0.310627
O O10 0.872202 0.201114 0.689635
O O11 0.021325 0.243673 0.580290
O O12 0.016869 0.956538 0.650087
O O13 0.580869 0.100444 0.596396
#
# Coordination Sequence:
#
# PCOD8144890 Si02
#       7
#     4   8   8   8   8   8   8
#     4  12  24  40  68  96 128 178 220 272 332 416
#     4  10  25  40  73  96 135 176 227 275 335 395
#     4  12  25  43  64 102 132 180 215 284 341 401
#     4  11  23  43  65  91 138 172 216 274 335 394
#     4  11  23  40  67  99 130 176 221 277 334 399
#     4  12  26  42  62  97 139 166 223 270 339 401
#     4  10  21  48  66 101 131 177 229 276 323 411
#
# _framework density 21.124251000000001
#
# number of rings (size 3 to 8) (size 9 to 14) (size 15 to 20)
#    0.000    0.923    4.615    1.385    6.462    1.846 
#    0.000    3.077    0.000    0.000    0.000    0.000 
#    0.000    0.000    0.000    0.000    0.000    0.000 
#
# Total GULP energy -322440.735495 kJ/mol
# GULP energy per Si atom -12401.566750 kJ/mol
# Density = 2.107617 g / cm^3
# Si number density = 21.124251 Si / 1000 Ang^3
#
#
#
# Elastic Constant Matrix: (Units=GPa)
#
#
# Indices 1 2 3 4 5 6 
#
# 1 96.1875 37.5503 36.4050 -0.0008 -0.0196 0.0005
# 2 37.5503 110.9598 48.7878 -0.0061 -5.8931 0.0036
# 3 36.4050 48.7878 121.7642 0.0015 -13.7848 -0.0003
# 4 -0.0008 -0.0061 0.0015 30.8329 -0.0010 -13.1998
# 5 -0.0196 -5.8931 -13.7848 -0.0010 30.2729 -0.0010
# 6 0.0005 0.0036 -0.0003 -13.1998 -0.0010 37.4959
#
#
#
# Elastic Compliance Matrix: (Units=1/GPa)
#
#
# Indices 1 2 3 4 5 6 
#
# 1 0.012671 -0.003191 -0.002720 0.000000 -0.001851 0.000000
# 2 -0.003191 0.011743 -0.003683 0.000002 0.000607 0.000000
# 3 -0.002720 -0.003683 0.010986 -0.000001 0.004284 0.000000
# 4 0.000000 0.000002 -0.000001 0.038188 0.000002 0.013443
# 5 -0.001851 0.000607 0.004284 0.000002 0.035101 0.000002
# 6 0.000000 0.000000 0.000000 0.013443 0.000002 0.031402
#
#
# Mechanical properties :
#
#
# Convention : Reuss Voigt Hill
#
# Bulk Modulus (GPa) = 61.67126 63.82196 62.74661
# Shear Modulus (GPa) = 30.36160 33.46491 31.91325
#
# Velocity S-wave (km/s) = 3.79527 3.98451 3.89104
# Velocity P-wave (km/s) = 6.96156 7.17263 7.06789
#
# Compressibility (1/GPa) = 0.01621501
#
# Stress axis : x y z
#
# Youngs Moduli (GPa) = 78.92148 85.15375 91.02328
#
# Poissons Ratio (x) = 0.27169 0.24754
# Poissons Ratio (y) = 0.25180 0.33521
# Poissons Ratio (z) = 0.21463 0.31359
#
# Static dielectric constant tensor:
#      x y z
#    x 3.761170 -0.000020 -0.282050 
#    y -0.000020 3.949800 -0.000020 
#    z -0.282050 -0.000020 3.837960 
# 
# 
# High freq. dielectric constant tensor:
#      x y z
#    x 1.826120 0.000000 -0.020060 
#    y 0.000000 1.839420 0.000000 
#    z -0.020060 0.000000 1.823250 
# 
# From -- ./inp_files/297674.got.cif
#   From: 2010.06.25/outbox.cif.g09.slc.cpg/sg15_149_cif.got.tgz:297674.got - 2010.06.28 07:06:18.
