data_PCOD8144777
_publ_section_title
;
Structure prediction by ZEFSAII (Michael W. Deem and Ramdas Pophale) SiO2 
 PCOD8144777
Probable space group: C 2/C
;
_chemical_formula_sum "Si O2"
_cell_formula_units_Z 48
_cell_length_a 14.320395
_cell_length_b 18.061287
_cell_length_c 8.926382
_cell_angle_alpha 90.000000
_cell_angle_beta 75.484753
_cell_angle_gamma 90.000000
_cell_volume 2235.068541
_symmetry_space_group_name_H-M "C 2/C"
_symmetry_group_IT_number 15
_symmetry_cell_setting 'monoclinic'
loop_
_space_group_symop_operation_xyz
x,y,z
-x,y,1/2-z
-x,-y,-z
x,-y,1/2+z
1/2+x,1/2+y,z
1/2-x,1/2+y,1/2-z
1/2-x,1/2-y,-z
1/2+x,1/2-y,1/2+z
loop_
_atom_site_type_symbol
_atom_site_label
_atom_site_fract_x
_atom_site_fract_y
_atom_site_fract_z
Si Si1 0.433462 0.665313 0.412312
Si Si2 0.597499 0.814970 0.908852
Si Si3 0.571713 0.652464 0.595583
Si Si4 0.120472 0.311230 0.559599
Si Si5 0.244555 0.926062 0.152095
Si Si6 0.244187 0.580348 0.498650
O O1 0.500000 0.694368 0.250000
O O2 0.391469 0.733179 0.525987
O O3 0.506513 0.618152 0.488816
O O4 0.343989 0.615006 0.394605
O O5 0.645543 0.820943 0.725210
O O6 0.486351 0.839115 0.941052
O O7 0.653246 0.868592 0.999228
O O8 0.500000 0.686899 0.750000
O O9 0.632446 0.723924 0.513039
O O10 0.635711 0.587524 0.638945
O O11 0.192042 0.357951 0.429527
O O12 0.247413 0.930736 0.328326
O O13 0.279636 0.002866 0.069845
#
# Coordination Sequence:
#
# PCOD8144777 Si02
#       6
#     8   8   8   8   8   8
#     4  11  25  41  70 100 130 168 214 270 322 376
#     4  10  22  44  69  97 130 160 222 269 323 380
#     4  11  21  45  68  97 130 164 215 268 322 384
#     4  10  21  44  71  97 123 170 212 275 324 377
#     4  12  27  42  67  94 134 176 213 261 327 384
#     4  12  27  44  62  98 133 174 216 263 320 391
#
# _framework density 21.475850999999999
#
# number of rings (size 3 to 8) (size 9 to 14) (size 15 to 20)
#    0.000    1.000    5.000    2.000    9.333    2.000 
#    0.000    0.000    0.000    0.000    0.000    0.000 
#    0.000    0.000    0.000    0.000    0.000    0.000 
#
# Total GULP energy -297629.704062 kJ/mol
# GULP energy per Si atom -12401.237669 kJ/mol
# Density = 2.142697 g / cm^3
# Si number density = 21.475851 Si / 1000 Ang^3
#
#
#
# Elastic Constant Matrix: (Units=GPa)
#
#
# Indices 1 2 3 4 5 6 
#
# 1 76.8384 25.4691 34.5904 0.0000 19.9186 0.0000
# 2 25.4691 59.4178 19.6197 0.0000 2.2743 0.0000
# 3 34.5904 19.6197 87.9290 0.0000 5.7011 0.0000
# 4 0.0000 0.0000 0.0000 22.6161 0.0000 6.7951
# 5 19.9186 2.2743 5.7011 0.0000 42.7661 0.0000
# 6 0.0000 0.0000 0.0000 6.7951 0.0000 19.6840
#
#
#
# Elastic Compliance Matrix: (Units=1/GPa)
#
#
# Indices 1 2 3 4 5 6 
#
# 1 0.019841 -0.006251 -0.005884 0.000000 -0.008124 0.000000
# 2 -0.006251 0.020146 -0.002174 0.000000 0.002130 0.000000
# 3 -0.005884 -0.002174 0.014109 0.000000 0.000975 0.000000
# 4 0.000000 0.000000 0.000000 0.049333 0.000000 -0.017030
# 5 -0.008124 0.002130 0.000975 0.000000 0.026924 0.000000
# 6 0.000000 0.000000 0.000000 -0.017030 0.000000 0.056682
#
#
# Mechanical properties :
#
#
# Convention : Reuss Voigt Hill
#
# Bulk Modulus (GPa) = 39.24894 42.61595 40.93244
# Shear Modulus (GPa) = 22.30696 26.64696 24.47696
#
# Velocity S-wave (km/s) = 3.22638 3.52630 3.37967
# Velocity P-wave (km/s) = 5.67406 6.03875 5.85924
#
# Compressibility (1/GPa) = 0.02547840
#
# Stress axis : x y z
#
# Youngs Moduli (GPa) = 50.40063 49.63812 70.87520
#
# Poissons Ratio (x) = 0.31029 0.41701
# Poissons Ratio (y) = 0.31505 0.15409
# Poissons Ratio (z) = 0.29654 0.10792
#
# Static dielectric constant tensor:
#      x y z
#    x 4.003210 0.000000 0.226310 
#    y 0.000000 3.610150 0.000000 
#    z 0.226310 0.000000 3.974100 
# 
# 
# High freq. dielectric constant tensor:
#      x y z
#    x 1.852500 0.000000 0.013200 
#    y 0.000000 1.823080 0.000000 
#    z 0.013200 0.000000 1.852210 
# 
# From -- ./inp_files/39656.got.cif
#   From: 2010.06.25/outbox.cif.g09.slc.cpg/sg15_20_cif.got.tgz:39656.got - 2010.06.28 07:06:18.
