data_PCOD8144825
_publ_section_title
;
Structure prediction by ZEFSAII (Michael W. Deem and Ramdas Pophale) SiO2 
 PCOD8144825
Probable space group: C 2/C
;
_chemical_formula_sum "Si O2"
_cell_formula_units_Z 36
_cell_length_a 7.121288
_cell_length_b 13.802372
_cell_length_c 16.591997
_cell_angle_alpha 90.000000
_cell_angle_beta 72.824226
_cell_angle_gamma 90.000000
_cell_volume 1558.108439
_symmetry_space_group_name_H-M "C 2/C"
_symmetry_group_IT_number 15
_symmetry_cell_setting 'monoclinic'
loop_
_space_group_symop_operation_xyz
x,y,z
-x,y,1/2-z
-x,-y,-z
x,-y,1/2+z
1/2+x,1/2+y,z
1/2-x,1/2+y,1/2-z
1/2-x,1/2-y,-z
1/2+x,1/2-y,1/2+z
loop_
_atom_site_type_symbol
_atom_site_label
_atom_site_fract_x
_atom_site_fract_y
_atom_site_fract_z
Si Si1 0.445502 0.880782 0.427060
Si Si2 0.633734 0.585802 0.302539
Si Si3 0.611240 0.304002 0.955532
Si Si4 0.000000 0.538440 0.750000
Si Si5 0.669835 0.524020 0.553791
O O1 0.430791 0.766948 0.454617
O O2 0.424925 0.895664 0.333506
O O3 0.273771 0.934695 0.495649
O O4 0.662871 0.914548 0.423585
O O5 0.500000 0.635738 0.250000
O O6 0.711113 0.665867 0.357229
O O7 0.488120 0.508614 0.361688
O O8 0.822057 0.530532 0.242613
O O9 0.750000 0.250000 0.000000
O O10 0.551818 0.406787 0.004548
#
# Coordination Sequence:
#
# PCOD8144825 Si02
#       5
#     8   8   8   4   8
#     4  10  22  41  70  99 134 179 236 288 353 427
#     4  12  25  44  69 101 137 184 232 292 366 420
#     4  10  23  42  69 102 135 185 240 287 351 436
#     4  12  24  44  66  96 142 180 226 304 362 424
#     4  10  21  45  69  95 134 186 231 284 358 427
#
# _framework density 23.104938000000001
#
# number of rings (size 3 to 8) (size 9 to 14) (size 15 to 20)
#    0.000    1.333    4.444    0.667    1.556    0.889 
#    0.000    4.444    0.000    0.000    0.000    0.000 
#    0.000    0.000    0.000    0.000    0.000    0.000 
#
# Total GULP energy -223038.380267 kJ/mol
# GULP energy per Si atom -12391.021126 kJ/mol
# Density = 2.305235 g / cm^3
# Si number density = 23.104938 Si / 1000 Ang^3
#
#
#
# Elastic Constant Matrix: (Units=GPa)
#
#
# Indices 1 2 3 4 5 6 
#
# 1 101.3363 18.5217 26.3377 0.0000 4.9222 0.0000
# 2 18.5217 136.4372 30.7424 0.0000 5.1484 0.0000
# 3 26.3377 30.7424 93.8861 0.0000 14.6343 0.0000
# 4 0.0000 0.0000 0.0000 32.8901 0.0000 25.5658
# 5 4.9222 5.1484 14.6343 0.0000 48.4941 0.0000
# 6 0.0000 0.0000 0.0000 25.5658 0.0000 13.5321
#
#
#
# Elastic Compliance Matrix: (Units=1/GPa)
#
#
# Indices 1 2 3 4 5 6 
#
# 1 0.010734 -0.000840 -0.002708 0.000000 -0.000183 0.000000
# 2 -0.000840 0.007979 -0.002370 0.000000 -0.000047 0.000000
# 3 -0.002708 -0.002370 0.012702 0.000000 -0.003307 0.000000
# 4 0.000000 0.000000 0.000000 -0.064891 0.000000 0.122596
# 5 -0.000183 -0.000047 -0.003307 0.000000 0.021643 0.000000
# 6 0.000000 0.000000 0.000000 0.122596 0.000000 -0.157719
#
#
# Mechanical properties :
#
#
# Convention : Reuss Voigt Hill
#
# Bulk Modulus (GPa) = 51.07113 53.65148 52.36130
# Shear Modulus (GPa) = -33.07105 36.05379 1.49137
#
# Velocity S-wave (km/s) = -3.78741 3.95452 0.80429
# Velocity P-wave (km/s) = 1.73954 6.64245 4.85532
#
# Compressibility (1/GPa) = 0.01958053
#
# Stress axis : x y z
#
# Youngs Moduli (GPa) = 93.15921 125.32645 78.72684
#
# Poissons Ratio (x) = 0.10530 0.21316
# Poissons Ratio (y) = 0.07827 0.18656
# Poissons Ratio (z) = 0.25224 0.29699
#
# Static dielectric constant tensor:
#      x y z
#    x 4.367330 0.000000 0.470710 
#    y 0.000000 4.654250 0.000000 
#    z 0.470710 0.000000 4.127840 
# 
# 
# High freq. dielectric constant tensor:
#      x y z
#    x 1.927370 0.000000 0.023810 
#    y 0.000000 1.911330 0.000000 
#    z 0.023810 0.000000 1.909990 
# 
# From -- ./inp_files/187728.got.cif
#   From: 2010.06.25/outbox.cif.g09.slc.cpg/sg15_94_cif.got.tgz:187728.got - 2010.06.28 07:06:18.
