data_PCOD8144604
_publ_section_title
;
Structure prediction by ZEFSAII (Michael W. Deem and Ramdas Pophale) SiO2 
 PCOD8144604
Probable space group: C 2/C
;
_chemical_formula_sum "Si O2"
_cell_formula_units_Z 48
_cell_length_a 11.985944
_cell_length_b 8.374566
_cell_length_c 25.936965
_cell_angle_alpha 90.000000
_cell_angle_beta 123.047236
_cell_angle_gamma 90.000000
_cell_volume 2182.289618
_symmetry_space_group_name_H-M "C 2/C"
_symmetry_group_IT_number 15
_symmetry_cell_setting 'monoclinic'
loop_
_space_group_symop_operation_xyz
x,y,z
-x,y,1/2-z
-x,-y,-z
x,-y,1/2+z
1/2+x,1/2+y,z
1/2-x,1/2+y,1/2-z
1/2-x,1/2-y,-z
1/2+x,1/2-y,1/2+z
loop_
_atom_site_type_symbol
_atom_site_label
_atom_site_fract_x
_atom_site_fract_y
_atom_site_fract_z
Si Si1 0.862575 0.557983 0.319380
Si Si2 0.621588 0.058064 0.563759
Si Si3 0.316475 0.565789 0.809555
Si Si4 0.354506 0.078199 0.141690
Si Si5 0.626057 0.603850 0.018339
Si Si6 0.107134 0.911237 0.395853
O O1 0.898054 0.478993 0.382106
O O2 0.736687 0.473215 0.260951
O O3 0.828892 0.744167 0.320470
O O4 0.994476 0.513820 0.319618
O O5 0.626848 0.247058 0.557032
O O6 0.762923 0.977192 0.581027
O O7 0.500000 0.000000 0.500000
O O8 0.218371 0.476527 0.824343
O O9 0.467273 0.495865 0.853318
O O10 0.264164 0.015211 0.070204
O O11 0.379676 0.268981 0.142513
O O12 0.500000 0.500000 0.000000
O O13 0.620755 0.656919 0.957595
#
# Coordination Sequence:
#
# PCOD8144604 Si02
#       6
#     8   8   8   8   8   8
#     4  11  26  44  68  99 137 181 224 287 345 407
#     4  11  23  43  66  98 141 169 222 289 345 400
#     4  11  24  45  67  96 134 178 237 270 343 413
#     4  10  21  43  69  91 135 176 223 276 341 396
#     4  11  21  40  73  98 128 179 231 274 338 415
#     4  10  22  42  71  96 130 181 220 275 344 409
#
# _framework density 21.995246999999999
#
# number of rings (size 3 to 8) (size 9 to 14) (size 15 to 20)
#    0.000    1.333    1.667    5.500    4.667    0.667 
#    9.000    1.667    0.000    0.000    0.000    0.000 
#    0.000    0.000    0.000    0.000    0.000    0.000 
#
# Total GULP energy -297318.001625 kJ/mol
# GULP energy per Si atom -12388.250068 kJ/mol
# Density = 2.194518 g / cm^3
# Si number density = 21.995247 Si / 1000 Ang^3
#
#
#
# Elastic Constant Matrix: (Units=GPa)
#
#
# Indices 1 2 3 4 5 6 
#
# 1 167.8688 37.6355 65.2156 0.0000 20.4054 0.0000
# 2 37.6355 47.7689 27.1419 0.0000 -4.4906 0.0000
# 3 65.2156 27.1419 160.8420 0.0000 21.5027 0.0000
# 4 0.0000 0.0000 0.0000 34.0191 0.0000 -0.0422
# 5 20.4054 -4.4906 21.5027 0.0000 46.3969 0.0000
# 6 0.0000 0.0000 0.0000 -0.0422 0.0000 30.6605
#
#
#
# Elastic Compliance Matrix: (Units=1/GPa)
#
#
# Indices 1 2 3 4 5 6 
#
# 1 0.008448 -0.005840 -0.001991 0.000000 -0.003358 0.000000
# 2 -0.005840 0.028033 -0.003271 0.000000 0.006798 0.000000
# 3 -0.001991 -0.003271 0.007997 0.000000 -0.003147 0.000000
# 4 0.000000 0.000000 0.000000 0.029395 0.000000 0.000040
# 5 -0.003358 0.006798 -0.003147 0.000000 0.025147 0.000000
# 6 0.000000 0.000000 0.000000 0.000040 0.000000 0.032615
#
#
# Mechanical properties :
#
#
# Convention : Reuss Voigt Hill
#
# Bulk Modulus (GPa) = 44.89638 70.71839 57.80739
# Shear Modulus (GPa) = 31.00470 38.64775 34.82623
#
# Velocity S-wave (km/s) = 3.75855 4.19632 3.98345
# Velocity P-wave (km/s) = 6.26831 7.46326 6.89174
#
# Compressibility (1/GPa) = 0.02227351
#
# Stress axis : x y z
#
# Youngs Moduli (GPa) = 118.37034 35.67172 125.04194
#
# Poissons Ratio (x) = 0.20834 0.24894
# Poissons Ratio (y) = 0.69133 0.40905
# Poissons Ratio (z) = 0.23566 0.11669
#
# Static dielectric constant tensor:
#      x y z
#    x 5.627040 0.000000 1.003730 
#    y 0.000000 3.733350 0.000000 
#    z 1.003730 0.000000 4.568030 
# 
# 
# High freq. dielectric constant tensor:
#      x y z
#    x 1.887990 0.000000 0.024050 
#    y 0.000000 1.821180 0.000000 
#    z 0.024050 0.000000 1.884200 
# 
# From -- ./inp_files/268101.got.cif
#   From: 2010.06.25/outbox.cif.g09.slc.cpg/sg15_135_cif.got.tgz:268101.got - 2010.06.28 07:06:18.
