data_PCOD8144466
_publ_section_title
;
Structure prediction by ZEFSAII (Michael W. Deem and Ramdas Pophale) SiO2 
 PCOD8144466
Probable space group: C 2/C
;
_chemical_formula_sum "Si O2"
_cell_formula_units_Z 64
_cell_length_a 26.659025
_cell_length_b 14.177725
_cell_length_c 8.948902
_cell_angle_alpha 90.000000
_cell_angle_beta 79.441469
_cell_angle_gamma 90.000000
_cell_volume 3325.096269
_symmetry_space_group_name_H-M "C 2/C"
_symmetry_group_IT_number 15
_symmetry_cell_setting 'monoclinic'
loop_
_space_group_symop_operation_xyz
x,y,z
-x,y,1/2-z
-x,-y,-z
x,-y,1/2+z
1/2+x,1/2+y,z
1/2-x,1/2+y,1/2-z
1/2-x,1/2-y,-z
1/2+x,1/2-y,1/2+z
loop_
_atom_site_type_symbol
_atom_site_label
_atom_site_fract_x
_atom_site_fract_y
_atom_site_fract_z
Si Si1 0.814087 0.955095 0.124406
Si Si2 0.616712 0.529326 0.170555
Si Si3 0.970984 0.922129 0.418423
Si Si4 0.050531 0.204739 0.315392
Si Si5 0.867726 0.633231 0.741473
Si Si6 0.663914 0.003773 0.996237
Si Si7 0.757270 0.282806 0.327454
Si Si8 0.228280 0.406467 0.713929
O O1 0.775917 0.873646 0.195767
O O2 0.863115 0.966716 0.203474
O O3 0.783167 0.052228 0.141172
O O4 0.834761 0.931096 0.947642
O O5 0.585730 0.458204 0.082631
O O6 0.580941 0.615380 0.235611
O O7 0.966554 0.822707 0.507627
O O8 0.000000 0.901751 0.250000
O O9 0.000000 0.000000 0.500000
O O10 0.084093 0.298503 0.292566
O O11 0.000000 0.225254 0.250000
O O12 0.871462 0.563029 0.597270
O O13 0.815910 0.693470 0.762125
O O14 0.869454 0.573663 0.895165
O O15 0.708326 0.950138 0.881037
O O16 0.688757 0.074710 0.102312
O O17 0.750000 0.250000 0.500000
O O18 0.736622 0.204445 0.225511
#
# Coordination Sequence:
#
# PCOD8144466 Si02
#       8
#     8   8   8   8   8   8   8   8
#     4  12  23  36  59  94 133 173 217 248 309 387
#     4  12  23  37  61  96 134 171 207 254 315 393
#     4  12  21  43  65  93 136 176 205 262 335 392
#     4  12  25  45  69  97 129 168 222 278 334 401
#     4  11  24  43  67  94 122 176 225 275 340 385
#     4  10  21  43  63  83 129 173 219 273 330 366
#     4  12  22  37  60  90 134 174 220 260 309 390
#     4  11  21  39  57  87 134 181 211 262 311 374
#
# _framework density 19.247564000000001
#
# number of rings (size 3 to 8) (size 9 to 14) (size 15 to 20)
#    0.000    0.500    7.500    3.000    0.000    1.500 
#    0.000    3.125    0.000    0.000    0.000    0.000 
#    0.000    0.000    0.000    0.000    0.000    0.000 
#
# Total GULP energy -396896.240256 kJ/mol
# GULP energy per Si atom -12403.007508 kJ/mol
# Density = 1.920376 g / cm^3
# Si number density = 19.247564 Si / 1000 Ang^3
#
#
#
# Elastic Constant Matrix: (Units=GPa)
#
#
# Indices 1 2 3 4 5 6 
#
# 1 105.5619 52.5052 45.3420 0.0000 -2.0235 0.0000
# 2 52.5052 96.5745 47.8174 0.0000 -0.9811 0.0000
# 3 45.3420 47.8174 123.8896 0.0000 -7.8707 0.0000
# 4 0.0000 0.0000 0.0000 30.2564 0.0000 -4.1644
# 5 -2.0235 -0.9811 -7.8707 0.0000 25.7485 0.0000
# 6 0.0000 0.0000 0.0000 -4.1644 0.0000 43.6761
#
#
#
# Elastic Compliance Matrix: (Units=1/GPa)
#
#
# Indices 1 2 3 4 5 6 
#
# 1 0.013646 -0.006116 -0.002632 0.000000 0.000035 0.000000
# 2 -0.006116 0.015569 -0.003838 0.000000 -0.001061 0.000000
# 3 -0.002632 -0.003838 0.010702 0.000000 0.002918 0.000000
# 4 0.000000 0.000000 0.000000 0.033490 0.000000 0.003193
# 5 0.000035 -0.001061 0.002918 0.000000 0.039692 0.000000
# 6 0.000000 0.000000 0.000000 0.003193 0.000000 0.023200
#
#
# Mechanical properties :
#
#
# Convention : Reuss Voigt Hill
#
# Bulk Modulus (GPa) = 67.81599 68.59504 68.20552
# Shear Modulus (GPa) = 30.05064 31.96030 31.00547
#
# Velocity S-wave (km/s) = 3.95558 4.07933 4.01793
# Velocity P-wave (km/s) = 7.49481 7.60944 7.55234
#
# Compressibility (1/GPa) = 0.01474578
#
# Stress axis : x y z
#
# Youngs Moduli (GPa) = 73.28167 64.22864 93.44288
#
# Poissons Ratio (x) = 0.39280 0.24590
# Poissons Ratio (y) = 0.44816 0.35867
# Poissons Ratio (z) = 0.19285 0.24654
#
# Static dielectric constant tensor:
#      x y z
#    x 3.410210 0.000000 -0.006250 
#    y 0.000000 3.623690 0.000000 
#    z -0.006250 0.000000 3.839880 
# 
# 
# High freq. dielectric constant tensor:
#      x y z
#    x 1.738770 0.000000 0.001820 
#    y 0.000000 1.738210 0.000000 
#    z 0.001820 0.000000 1.765350 
# 
# From -- ./inp_files/66212.got.cif
#   From: 2010.06.25/outbox.cif.g09.slc.cpg/sg15_34_cif.got.tgz:66212.got - 2010.06.28 07:06:18.
