data_PCOD8144109
_publ_section_title
;
Structure prediction by ZEFSAII (Michael W. Deem and Ramdas Pophale) SiO2 
 PCOD8144109
Probable space group: C 2/C
;
_chemical_formula_sum "Si O2"
_cell_formula_units_Z 48
_cell_length_a 19.637251
_cell_length_b 12.404649
_cell_length_c 12.892156
_cell_angle_alpha 90.000000
_cell_angle_beta 50.105982
_cell_angle_gamma 90.000000
_cell_volume 2409.447671
_symmetry_space_group_name_H-M "C 2/C"
_symmetry_group_IT_number 15
_symmetry_cell_setting 'monoclinic'
loop_
_space_group_symop_operation_xyz
x,y,z
-x,y,1/2-z
-x,-y,-z
x,-y,1/2+z
1/2+x,1/2+y,z
1/2-x,1/2+y,1/2-z
1/2-x,1/2-y,-z
1/2+x,1/2-y,1/2+z
loop_
_atom_site_type_symbol
_atom_site_label
_atom_site_fract_x
_atom_site_fract_y
_atom_site_fract_z
Si Si1 0.079618 0.580417 0.902766
Si Si2 0.227490 0.526087 0.126362
Si Si3 0.096024 0.124340 0.532468
Si Si4 0.029581 0.194268 0.379328
Si Si5 0.384576 0.405488 0.898805
Si Si6 0.406257 0.151494 0.384211
O O1 0.163118 0.517841 0.776273
O O2 0.050004 0.678065 0.856944
O O3 0.111584 0.627235 0.979343
O O4 0.000000 0.500000 0.000000
O O5 0.301579 0.604499 0.104901
O O6 0.173489 0.597632 0.098476
O O7 0.278871 0.424750 0.019964
O O8 0.036377 0.147941 0.489422
O O9 0.093321 0.218628 0.621987
O O10 0.063238 0.017425 0.624985
O O11 0.097894 0.132672 0.235802
O O12 0.928517 0.180690 0.436093
O O13 0.500000 0.105467 0.250000
#
# Coordination Sequence:
#
# PCOD8144109 Si02
#       6
#     8   8   8   8   8   8
#     4  11  24  44  62  90 125 171 211 261 322 383
#     4  10  23  40  63  96 125 164 219 258 321 365
#     4   9  22  39  62  95 127 163 218 255 321 376
#     4  10  21  42  61  94 129 167 213 255 329 387
#     4   9  22  39  66  94 128 166 203 271 316 375
#     4  11  22  40  65  91 129 171 212 264 312 388
#
# _framework density 19.921576999999999
#
# number of rings (size 3 to 8) (size 9 to 14) (size 15 to 20)
#    1.000    1.000    1.667    1.000    4.667    3.333 
#    6.000    0.000    0.000    0.000    0.000    0.000 
#    0.000    0.000    0.000    0.000    0.000    0.000 
#
# Total GULP energy -297381.265528 kJ/mol
# GULP energy per Si atom -12390.886064 kJ/mol
# Density = 1.987623 g / cm^3
# Si number density = 19.921577 Si / 1000 Ang^3
#
#
#
# Elastic Constant Matrix: (Units=GPa)
#
#
# Indices 1 2 3 4 5 6 
#
# 1 78.0177 28.8546 27.0261 0.0000 1.3647 0.0000
# 2 28.8546 83.9523 36.4094 0.0000 6.0903 0.0000
# 3 27.0261 36.4094 102.9908 0.0000 -8.1034 0.0000
# 4 0.0000 0.0000 0.0000 37.8003 0.0000 -2.4277
# 5 1.3647 6.0903 -8.1034 0.0000 33.1207 0.0000
# 6 0.0000 0.0000 0.0000 -2.4277 0.0000 29.3454
#
#
#
# Elastic Compliance Matrix: (Units=1/GPa)
#
#
# Indices 1 2 3 4 5 6 
#
# 1 0.015232 -0.004071 -0.002598 0.000000 -0.000515 0.000000
# 2 -0.004071 0.015663 -0.004774 0.000000 -0.003880 0.000000
# 3 -0.002598 -0.004774 0.012395 0.000000 0.004018 0.000000
# 4 0.000000 0.000000 0.000000 0.026596 0.000000 0.002200
# 5 -0.000515 -0.003880 0.004018 0.000000 0.031910 0.000000
# 6 0.000000 0.000000 0.000000 0.002200 0.000000 0.034259
#
#
# Mechanical properties :
#
#
# Convention : Reuss Voigt Hill
#
# Bulk Modulus (GPa) = 49.01211 49.94900 49.48055
# Shear Modulus (GPa) = 30.16693 31.56465 30.86579
#
# Velocity S-wave (km/s) = 3.89560 3.98483 3.94047
# Velocity P-wave (km/s) = 6.70002 6.80434 6.75238
#
# Compressibility (1/GPa) = 0.02040312
#
# Stress axis : x y z
#
# Youngs Moduli (GPa) = 65.64932 63.84560 80.67548
#
# Poissons Ratio (x) = 0.25993 0.20963
# Poissons Ratio (y) = 0.26727 0.38515
# Poissons Ratio (z) = 0.17059 0.30481
#
# Static dielectric constant tensor:
#      x y z
#    x 3.572750 0.000000 -0.250040 
#    y 0.000000 3.905320 0.000000 
#    z -0.250040 0.000000 4.157810 
# 
# 
# High freq. dielectric constant tensor:
#      x y z
#    x 1.770010 0.000000 -0.000850 
#    y 0.000000 1.782240 0.000000 
#    z -0.000850 0.000000 1.772350 
# 
# From -- ./inp_files/110864.got.cif
#   From: 2010.06.25/outbox.cif.g09.slc.cpg/sg15_56_cif.got.tgz:110864.got - 2010.06.28 07:06:18.
