data_PCOD8144934
_publ_section_title
;
Structure prediction by ZEFSAII (Michael W. Deem and Ramdas Pophale) SiO2 
 PCOD8144934
Probable space group: C 2/C
;
_chemical_formula_sum "Si O2"
_cell_formula_units_Z 40
_cell_length_a 11.224619
_cell_length_b 27.524621
_cell_length_c 9.334303
_cell_angle_alpha 90.000000
_cell_angle_beta 40.754612
_cell_angle_gamma 90.000000
_cell_volume 1882.646527
_symmetry_space_group_name_H-M "C 2/C"
_symmetry_group_IT_number 15
_symmetry_cell_setting 'monoclinic'
loop_
_space_group_symop_operation_xyz
x,y,z
-x,y,1/2-z
-x,-y,-z
x,-y,1/2+z
1/2+x,1/2+y,z
1/2-x,1/2+y,1/2-z
1/2-x,1/2-y,-z
1/2+x,1/2-y,1/2+z
loop_
_atom_site_type_symbol
_atom_site_label
_atom_site_fract_x
_atom_site_fract_y
_atom_site_fract_z
Si Si1 0.500000 0.241595 0.750000
Si Si2 0.319506 0.684593 0.570957
Si Si3 0.195451 0.919866 0.533046
Si Si4 0.012934 0.443683 0.458152
Si Si5 0.290420 0.305228 0.420825
Si Si6 0.000000 0.378985 0.750000
O O1 0.510312 0.277738 0.600365
O O2 0.670050 0.206155 0.599731
O O3 0.367618 0.632891 0.462613
O O4 0.239178 0.684086 0.803141
O O5 0.334798 0.922205 0.539905
O O6 0.000000 0.946028 0.750000
O O7 0.300913 0.942350 0.302446
O O8 0.035389 0.413268 0.582329
O O9 0.000000 0.500000 0.500000
O O10 0.500000 0.318508 0.250000
O O11 0.250000 0.250000 0.500000
O O12 0.172290 0.343212 0.621686
#
# Coordination Sequence:
#
# PCOD8144934 Si02
#       6
#     4   8   8   8   8   4
#     4  10  22  34  65  88 134 175 234 274 324 398
#     4  11  22  40  60  98 130 184 229 281 332 401
#     4  11  24  45  74 101 140 178 232 287 350 415
#     4  11  26  49  74 103 138 182 235 299 365 421
#     4  12  26  42  64  98 146 192 235 282 352 424
#     4  12  26  42  73 102 144 187 234 296 358 424
#
# _framework density 21.246687999999999
#
# number of rings (size 3 to 8) (size 9 to 14) (size 15 to 20)
#    0.000    0.800    4.000    3.600    2.800    2.400 
#    0.000    2.000    0.000    0.000    0.000    0.000 
#    0.000    0.000    0.000    0.000    0.000    0.000 
#
# Total GULP energy -247844.290885 kJ/mol
# GULP energy per Si atom -12392.214544 kJ/mol
# Density = 2.119833 g / cm^3
# Si number density = 21.246688 Si / 1000 Ang^3
#
#
#
# Elastic Constant Matrix: (Units=GPa)
#
#
# Indices 1 2 3 4 5 6 
#
# 1 78.8054 38.8697 50.9745 0.0000 -3.8766 0.0000
# 2 38.8697 121.6471 53.6645 0.0000 -1.1706 0.0000
# 3 50.9745 53.6645 156.7803 0.0000 -16.6046 0.0000
# 4 0.0000 0.0000 0.0000 0.0374 0.0000 -6.0241
# 5 -3.8766 -1.1706 -16.6046 0.0000 44.6457 0.0000
# 6 0.0000 0.0000 0.0000 -6.0241 0.0000 17.5403
#
#
#
# Elastic Compliance Matrix: (Units=1/GPa)
#
#
# Indices 1 2 3 4 5 6 
#
# 1 0.017307 -0.003579 -0.004427 0.000000 -0.000238 0.000000
# 2 -0.003579 0.010468 -0.002522 0.000000 -0.000974 0.000000
# 3 -0.004427 -0.002522 0.008987 0.000000 0.002892 0.000000
# 4 0.000000 0.000000 0.000000 -0.492232 0.000000 -0.169053
# 5 -0.000238 -0.000974 0.002892 0.000000 0.023428 0.000000
# 6 0.000000 0.000000 0.000000 -0.169053 0.000000 -0.001048
#
#
# Mechanical properties :
#
#
# Convention : Reuss Voigt Hill
#
# Bulk Modulus (GPa) = 63.67675 71.58335 67.63005
# Shear Modulus (GPa) = -12.29110 26.69293 7.20092
#
# Velocity S-wave (km/s) = -2.40780 3.54833 1.84297
# Velocity P-wave (km/s) = 4.72284 7.11000 6.03562
#
# Compressibility (1/GPa) = 0.01570432
#
# Stress axis : x y z
#
# Youngs Moduli (GPa) = 57.78069 95.53308 111.26666
#
# Poissons Ratio (x) = 0.34194 0.49258
# Poissons Ratio (y) = 0.20682 0.28066
# Poissons Ratio (z) = 0.25580 0.24097
#
# Static dielectric constant tensor:
#      x y z
#    x 3.699300 0.000000 -0.060020 
#    y 0.000000 3.844650 0.000000 
#    z -0.060020 0.000000 4.366930 
# 
# 
# High freq. dielectric constant tensor:
#      x y z
#    x 1.813720 0.000000 -0.002460 
#    y 0.000000 1.834680 0.000000 
#    z -0.002460 0.000000 1.862610 
# 
# From -- ./inp_files/35025.got.cif
#   From: 2010.06.25/outbox.cif.g09.slc.cpg/sg15_18_cif.got.tgz:35025.got - 2010.06.28 07:06:18.
