data_PCOD8144815
_publ_section_title
;
Structure prediction by ZEFSAII (Michael W. Deem and Ramdas Pophale) SiO2 
 PCOD8144815
Probable space group: C 2/C
;
_chemical_formula_sum "Si O2"
_cell_formula_units_Z 52
_cell_length_a 12.169846
_cell_length_b 21.372930
_cell_length_c 12.632390
_cell_angle_alpha 90.000000
_cell_angle_beta 136.677567
_cell_angle_gamma 90.000000
_cell_volume 2254.364540
_symmetry_space_group_name_H-M "C 2/C"
_symmetry_group_IT_number 15
_symmetry_cell_setting 'monoclinic'
loop_
_space_group_symop_operation_xyz
x,y,z
-x,y,1/2-z
-x,-y,-z
x,-y,1/2+z
1/2+x,1/2+y,z
1/2-x,1/2+y,1/2-z
1/2-x,1/2-y,-z
1/2+x,1/2-y,1/2+z
loop_
_atom_site_type_symbol
_atom_site_label
_atom_site_fract_x
_atom_site_fract_y
_atom_site_fract_z
Si Si1 0.109739 0.592202 0.006049
Si Si2 0.676813 0.954112 0.073791
Si Si3 0.504193 0.688691 0.561630
Si Si4 0.000000 0.403396 0.750000
Si Si5 0.000000 0.108810 0.750000
Si Si6 0.756662 0.834601 0.428248
Si Si7 0.683482 0.813466 0.732218
Si Si8 0.000000 0.234948 0.250000
O O1 0.191064 0.528364 0.104020
O O2 0.179140 0.651985 0.116165
O O3 0.157335 0.609460 0.917372
O O4 0.919279 0.582315 0.898389
O O5 0.857677 0.932124 0.196765
O O6 0.584797 0.946262 0.897656
O O7 0.429327 0.651553 0.607402
O O8 0.644266 0.645126 0.607101
O O9 0.570617 0.753806 0.651863
O O10 0.365491 0.705959 0.381426
O O11 0.868218 0.360496 0.712202
O O12 0.904708 0.806840 0.599728
O O13 0.636500 0.781545 0.298972
#
# Coordination Sequence:
#
# PCOD8144815 Si02
#       8
#     8   8   8   4   4   8   8   4
#     4  10  24  45  73  93 139 180 226 280 345 402
#     4  10  24  48  69  98 133 181 236 287 332 407
#     4  12  26  41  67 104 141 176 228 280 349 414
#     4  10  21  45  68  92 137 187 234 272 344 404
#     4  12  27  45  68 102 135 181 234 294 330 404
#     4  11  22  40  63  96 134 174 214 271 338 408
#     4  11  24  42  69 102 140 183 220 284 349 412
#     4  10  22  38  62  98 138 162 214 268 334 414
#
# _framework density 23.066367
#
# number of rings (size 3 to 8) (size 9 to 14) (size 15 to 20)
#    0.000    1.231    1.538    4.154    6.462    3.692 
#    5.538    1.538    0.000    0.000    0.000    0.000 
#    0.000    0.000    0.000    0.000    0.000    0.000 
#
# Total GULP energy -322202.793974 kJ/mol
# GULP energy per Si atom -12392.415153 kJ/mol
# Density = 2.301387 g / cm^3
# Si number density = 23.066367 Si / 1000 Ang^3
#
#
#
# Elastic Constant Matrix: (Units=GPa)
#
#
# Indices 1 2 3 4 5 6 
#
# 1 96.4247 30.6007 9.8176 0.0000 14.9161 0.0000
# 2 30.6007 89.7972 26.7778 0.0000 16.1331 0.0000
# 3 9.8176 26.7778 95.5698 0.0000 33.2330 0.0000
# 4 0.0000 0.0000 0.0000 18.2288 0.0000 2.7633
# 5 14.9161 16.1331 33.2330 0.0000 27.4058 0.0000
# 6 0.0000 0.0000 0.0000 2.7633 0.0000 17.8281
#
#
#
# Elastic Compliance Matrix: (Units=1/GPa)
#
#
# Indices 1 2 3 4 5 6 
#
# 1 0.012428 -0.003586 0.002328 0.000000 -0.007476 0.000000
# 2 -0.003586 0.013636 -0.002316 0.000000 -0.003266 0.000000
# 3 0.002328 -0.002316 0.018743 0.000000 -0.022632 0.000000
# 4 0.000000 0.000000 0.000000 0.056178 0.000000 -0.008707
# 5 -0.007476 -0.003266 -0.022632 0.000000 0.069924 0.000000
# 6 0.000000 0.000000 0.000000 -0.008707 0.000000 0.057441
#
#
# Mechanical properties :
#
#
# Convention : Reuss Voigt Hill
#
# Bulk Modulus (GPa) = 26.55503 46.24267 36.39885
# Shear Modulus (GPa) = 20.15693 26.99892 23.57793
#
# Velocity S-wave (km/s) = 2.95933 3.42495 3.20062
# Velocity P-wave (km/s) = 4.81812 5.97759 5.42890
#
# Compressibility (1/GPa) = 0.03765765
#
# Stress axis : x y z
#
# Youngs Moduli (GPa) = 80.46107 73.33571 53.35206
#
# Poissons Ratio (x) = 0.26300 -0.12419
# Poissons Ratio (y) = 0.28856 0.12359
# Poissons Ratio (z) = -0.18729 0.16988
#
# Static dielectric constant tensor:
#      x y z
#    x 4.528040 0.000000 0.031410 
#    y 0.000000 3.884290 0.000000 
#    z 0.031410 0.000000 4.004960 
# 
# 
# High freq. dielectric constant tensor:
#      x y z
#    x 1.935440 0.000000 0.008230 
#    y 0.000000 1.893690 0.000000 
#    z 0.008230 0.000000 1.907900 
# 
# From -- ./inp_files/148149.got.cif
#   From: 2010.06.25/outbox.cif.g09.slc.cpg/sg15_75_cif.got.tgz:148149.got - 2010.06.28 07:06:18.
