data_PCOD8144353
_publ_section_title
;
Structure prediction by ZEFSAII (Michael W. Deem and Ramdas Pophale) SiO2 
 PCOD8144353
Probable space group: C 2/C
;
_chemical_formula_sum "Si O2"
_cell_formula_units_Z 64
_cell_length_a 15.467412
_cell_length_b 12.023283
_cell_length_c 29.313545
_cell_angle_alpha 90.000000
_cell_angle_beta 146.279421
_cell_angle_gamma 90.000000
_cell_volume 3026.314752
_symmetry_space_group_name_H-M "C 2/C"
_symmetry_group_IT_number 15
_symmetry_cell_setting 'monoclinic'
loop_
_space_group_symop_operation_xyz
x,y,z
-x,y,1/2-z
-x,-y,-z
x,-y,1/2+z
1/2+x,1/2+y,z
1/2-x,1/2+y,1/2-z
1/2-x,1/2-y,-z
1/2+x,1/2-y,1/2+z
loop_
_atom_site_type_symbol
_atom_site_label
_atom_site_fract_x
_atom_site_fract_y
_atom_site_fract_z
Si Si1 0.328076 0.368874 0.661102
Si Si2 0.291775 0.737678 0.303513
Si Si3 0.315956 0.616344 0.661729
Si Si4 0.285763 0.514479 0.943980
Si Si5 0.295949 0.731832 0.468837
Si Si6 0.128677 0.273855 0.407793
Si Si7 0.125616 0.988115 0.619014
Si Si8 0.141566 0.775639 0.148359
O O1 0.500000 0.399197 0.750000
O O2 0.247463 0.490958 0.625959
O O3 0.322251 0.313672 0.609228
O O4 0.267597 0.285094 0.672757
O O5 0.269862 0.831687 0.332065
O O6 0.452468 0.758955 0.347167
O O7 0.282702 0.620009 0.324987
O O8 0.152180 0.730534 0.204946
O O9 0.500000 0.624718 0.750000
O O10 0.273456 0.678789 0.596240
O O11 0.229823 0.388367 0.925894
O O12 0.150294 0.599714 0.899218
O O13 0.326067 0.531297 0.909238
O O14 0.441479 0.538665 0.041797
O O15 0.250000 0.750000 0.500000
O O16 0.482540 0.739936 0.550417
O O17 0.250000 0.250000 0.500000
O O18 0.172666 0.093049 0.670645
#
# Coordination Sequence:
#
# PCOD8144353 Si02
#       8
#     8   8   8   8   8   8   8   8
#     4  11  25  47  67  98 143 186 220 282 348 412
#     4  12  25  44  70 106 136 181 233 287 339 412
#     4  11  27  48  70  97 141 184 228 284 352 411
#     4  10  21  42  68  97 132 177 224 283 337 404
#     4  11  25  45  69  98 137 183 227 278 347 412
#     4  12  25  41  72 105 136 175 238 282 336 406
#     4  10  21  42  69  92 136 179 221 277 351 398
#     4  11  25  43  70  99 138 179 231 277 347 409
#
# _framework density 21.147832999999999
#
# number of rings (size 3 to 8) (size 9 to 14) (size 15 to 20)
#    0.000    1.000    5.000    0.750    5.250    1.500 
#    2.250    1.250    0.000    0.000    0.000    0.000 
#    0.000    0.000    0.000    0.000    0.000    0.000 
#
# Total GULP energy -396740.570544 kJ/mol
# GULP energy per Si atom -12398.142829 kJ/mol
# Density = 2.109970 g / cm^3
# Si number density = 21.147833 Si / 1000 Ang^3
#
#
#
# Elastic Constant Matrix: (Units=GPa)
#
#
# Indices 1 2 3 4 5 6 
#
# 1 98.2193 43.8216 20.1615 0.0000 -16.5456 0.0001
# 2 43.8216 156.2934 53.8049 0.0000 -5.4928 0.0000
# 3 20.1615 53.8049 89.0278 0.0002 -23.5679 0.0003
# 4 0.0000 0.0000 0.0002 34.5859 0.0000 -3.3224
# 5 -16.5456 -5.4928 -23.5679 0.0000 32.2122 0.0001
# 6 0.0001 0.0000 0.0003 -3.3224 0.0001 41.7998
#
#
#
# Elastic Compliance Matrix: (Units=1/GPa)
#
#
# Indices 1 2 3 4 5 6 
#
# 1 0.012749 -0.003737 0.001161 0.000000 0.006761 0.000000
# 2 -0.003737 0.009371 -0.006080 0.000000 -0.004770 0.000000
# 3 0.001161 -0.006080 0.018017 0.000000 0.012742 0.000000
# 4 0.000000 0.000000 0.000000 0.029136 0.000000 0.002316
# 5 0.006761 -0.004770 0.012742 0.000000 0.043026 0.000000
# 6 0.000000 0.000000 0.000000 0.002316 0.000000 0.024108
#
#
# Mechanical properties :
#
#
# Convention : Reuss Voigt Hill
#
# Bulk Modulus (GPa) = 43.81052 64.34628 54.07840
# Shear Modulus (GPa) = 30.99290 36.76976 33.88133
#
# Velocity S-wave (km/s) = 3.83238 4.17430 4.00699
# Velocity P-wave (km/s) = 6.35171 7.32980 6.85821
#
# Compressibility (1/GPa) = 0.02282557
#
# Stress axis : x y z
#
# Youngs Moduli (GPa) = 78.43762 106.70778 55.50247
#
# Poissons Ratio (x) = 0.39872 -0.06442
# Poissons Ratio (y) = 0.29309 0.33747
# Poissons Ratio (z) = -0.09104 0.64880
#
# Static dielectric constant tensor:
#      x y z
#    x 3.789360 0.000000 -0.035340 
#    y 0.000000 3.980530 0.000000 
#    z -0.035340 0.000000 4.233920 
# 
# 
# High freq. dielectric constant tensor:
#      x y z
#    x 1.829760 0.000000 -0.013710 
#    y 0.000000 1.844880 0.000000 
#    z -0.013710 0.000000 1.830010 
# 
# From -- ./inp_files/296146.got.cif
#   From: 2010.06.25/outbox.cif.g09.slc.cpg/sg15_149_cif.got.tgz:296146.got - 2010.06.28 07:06:18.
