data_PCOD8144271
_publ_section_title
;
Structure prediction by ZEFSAII (Michael W. Deem and Ramdas Pophale) SiO2 
 PCOD8144271
Probable space group: C 2/C
;
_chemical_formula_sum "Si O2"
_cell_formula_units_Z 64
_cell_length_a 15.608766
_cell_length_b 16.281059
_cell_length_c 16.326356
_cell_angle_alpha 90.000000
_cell_angle_beta 135.928620
_cell_angle_gamma 90.000000
_cell_volume 2885.833910
_symmetry_space_group_name_H-M "C 2/C"
_symmetry_group_IT_number 15
_symmetry_cell_setting 'monoclinic'
loop_
_space_group_symop_operation_xyz
x,y,z
-x,y,1/2-z
-x,-y,-z
x,-y,1/2+z
1/2+x,1/2+y,z
1/2-x,1/2+y,1/2-z
1/2-x,1/2-y,-z
1/2+x,1/2-y,1/2+z
loop_
_atom_site_type_symbol
_atom_site_label
_atom_site_fract_x
_atom_site_fract_y
_atom_site_fract_z
Si Si1 0.258221 0.799471 0.311920
Si Si2 0.686658 0.638447 0.058874
Si Si3 0.983645 0.632349 0.881757
Si Si4 0.785491 0.527885 0.659992
Si Si5 0.144604 0.922485 0.353715
Si Si6 0.917605 0.151142 0.940456
Si Si7 0.229696 0.585633 0.029724
Si Si8 0.580404 0.712332 0.377660
O O1 0.252257 0.723598 0.370378
O O2 0.402256 0.812790 0.387665
O O3 0.207552 0.881484 0.318816
O O4 0.172389 0.785346 0.171936
O O5 0.765634 0.569004 0.159906
O O6 0.700542 0.623191 0.971551
O O7 0.542052 0.632977 0.977776
O O8 0.900348 0.559164 0.790922
O O9 0.047396 0.690537 0.855134
O O10 0.108419 0.591673 0.005739
O O11 0.657572 0.567333 0.601637
O O12 0.815174 0.549318 0.587197
O O13 0.000000 0.909472 0.250000
O O14 0.173060 0.020093 0.367795
O O15 0.954002 0.182740 0.055088
O O16 0.283229 0.678896 0.052678
O O17 0.500000 0.671133 0.250000
#
# Coordination Sequence:
#
# PCOD8144271 Si02
#       8
#     8   8   8   8   8   8   8   8
#     4  11  24  43  67 102 133 175 218 279 342 387
#     4  11  21  44  69  94 128 178 229 268 330 400
#     4  11  22  42  63  95 142 170 213 284 337 399
#     4   9  21  38  66  94 128 179 220 272 332 391
#     4  11  23  44  69  93 133 176 228 279 321 394
#     4  10  21  42  66  96 134 169 218 277 327 397
#     4  10  22  39  65  97 130 177 225 267 336 399
#     4  11  22  41  68  98 133 175 221 267 332 400
#
# _framework density 22.177299000000001
#
# number of rings (size 3 to 8) (size 9 to 14) (size 15 to 20)
#    0.000    1.500    2.500    2.625    0.000    2.500 
#    6.750    1.250    0.000    0.000    0.000    0.000 
#    0.000    0.000    0.000    0.000    0.000    0.000 
#
# Total GULP energy -396499.648441 kJ/mol
# GULP energy per Si atom -12390.614014 kJ/mol
# Density = 2.212682 g / cm^3
# Si number density = 22.177299 Si / 1000 Ang^3
#
#
#
# Elastic Constant Matrix: (Units=GPa)
#
#
# Indices 1 2 3 4 5 6 
#
# 1 97.1876 31.3557 37.5874 0.0000 24.2474 0.0000
# 2 31.3557 119.9060 37.4309 0.0000 11.9457 0.0000
# 3 37.5874 37.4309 84.5387 0.0000 -6.9128 0.0000
# 4 0.0000 0.0000 0.0000 22.5156 0.0000 3.2846
# 5 24.2474 11.9457 -6.9128 0.0000 29.7690 0.0000
# 6 0.0000 0.0000 0.0000 3.2846 0.0000 19.4620
#
#
#
# Elastic Compliance Matrix: (Units=1/GPa)
#
#
# Indices 1 2 3 4 5 6 
#
# 1 0.018211 -0.000128 -0.009428 0.000000 -0.016971 0.000000
# 2 -0.000128 0.010459 -0.005003 0.000000 -0.005254 0.000000
# 3 -0.009428 -0.005003 0.019396 0.000000 0.014191 0.000000
# 4 0.000000 0.000000 0.000000 0.045535 0.000000 -0.007685
# 5 -0.016971 -0.005254 0.014191 0.000000 0.052819 0.000000
# 6 0.000000 0.000000 0.000000 -0.007685 0.000000 0.052679
#
#
# Mechanical properties :
#
#
# Convention : Reuss Voigt Hill
#
# Bulk Modulus (GPa) = 52.77853 57.15336 54.96594
# Shear Modulus (GPa) = 21.31885 27.36654 24.34270
#
# Velocity S-wave (km/s) = 3.10383 3.51663 3.31666
# Velocity P-wave (km/s) = 6.05765 6.50507 6.28534
#
# Compressibility (1/GPa) = 0.01894710
#
# Stress axis : x y z
#
# Youngs Moduli (GPa) = 54.91134 95.61344 51.55590
#
# Poissons Ratio (x) = 0.01228 0.48606
# Poissons Ratio (y) = 0.00705 0.25795
# Poissons Ratio (z) = 0.51770 0.47839
#
# Static dielectric constant tensor:
#      x y z
#    x 3.962970 0.000000 0.101000 
#    y 0.000000 3.991940 0.000000 
#    z 0.101000 0.000000 4.038730 
# 
# 
# High freq. dielectric constant tensor:
#      x y z
#    x 1.872080 0.000000 0.011540 
#    y 0.000000 1.867250 0.000000 
#    z 0.011540 0.000000 1.868140 
# 
# From -- ./inp_files/155505.got.cif
#   From: 2010.06.25/outbox.cif.g09.slc.cpg/sg15_78_cif.got.tgz:155505.got - 2010.06.28 07:06:18.
