data_PCOD8144553
_publ_section_title
;
Structure prediction by ZEFSAII (Michael W. Deem and Ramdas Pophale) SiO2 
 PCOD8144553
Probable space group: C 2/C
;
_chemical_formula_sum "Si O2"
_cell_formula_units_Z 60
_cell_length_a 10.460118
_cell_length_b 16.222743
_cell_length_c 17.870673
_cell_angle_alpha 90.000000
_cell_angle_beta 74.389787
_cell_angle_gamma 90.000000
_cell_volume 2920.651601
_symmetry_space_group_name_H-M "C 2/C"
_symmetry_group_IT_number 15
_symmetry_cell_setting 'monoclinic'
loop_
_space_group_symop_operation_xyz
x,y,z
-x,y,1/2-z
-x,-y,-z
x,-y,1/2+z
1/2+x,1/2+y,z
1/2-x,1/2+y,1/2-z
1/2-x,1/2-y,-z
1/2+x,1/2-y,1/2+z
loop_
_atom_site_type_symbol
_atom_site_label
_atom_site_fract_x
_atom_site_fract_y
_atom_site_fract_z
Si Si1 0.314047 0.647084 0.687759
Si Si2 0.287890 0.474775 0.065648
Si Si3 0.074743 0.762657 0.582328
Si Si4 0.537199 0.561345 0.099775
Si Si5 0.500000 0.528050 0.750000
Si Si6 0.566018 0.881924 0.312455
Si Si7 0.000755 0.529745 0.416588
Si Si8 0.128320 0.706227 0.414818
O O1 0.258154 0.608117 0.618329
O O2 0.408772 0.584577 0.714234
O O3 0.200067 0.664713 0.766690
O O4 0.388835 0.731525 0.652937
O O5 0.407211 0.519550 0.087506
O O6 0.153322 0.529322 0.086644
O O7 0.333752 0.450977 0.974207
O O8 0.988774 0.843927 0.611495
O O9 0.050226 0.738403 0.499820
O O10 0.219453 0.795615 0.583700
O O11 0.030912 0.686042 0.638205
O O12 0.575829 0.528923 0.176867
O O13 0.500000 0.921376 0.250000
O O14 0.590253 0.961108 0.360697
O O15 0.000000 0.500000 0.500000
O O16 0.069030 0.618874 0.396992
#
# Coordination Sequence:
#
# PCOD8144553 Si02
#       8
#     8   8   8   8   4   8   8   8
#     4  11  23  47  64  94 133 180 211 283 333 399
#     4  10  21  43  67  90 130 171 216 258 341 390
#     4  11  22  41  64  97 121 173 219 269 317 403
#     4  10  22  40  69  92 125 172 218 269 315 408
#     4  10  26  40  66  98 130 170 226 270 338 386
#     4  12  24  43  67  93 133 168 227 278 333 382
#     4  12  24  41  67 101 126 172 220 277 326 404
#     4  11  23  40  68  90 133 169 220 263 338 394
#
# _framework density 20.543361999999998
#
# number of rings (size 3 to 8) (size 9 to 14) (size 15 to 20)
#    0.000    1.067    5.333    0.800    4.667    0.000 
#    6.000    0.667    0.000    0.000    0.000    0.000 
#    0.000    0.000    0.000    0.000    0.000    0.000 
#
# Total GULP energy -371769.992961 kJ/mol
# GULP energy per Si atom -12392.333099 kJ/mol
# Density = 2.049660 g / cm^3
# Si number density = 20.543362 Si / 1000 Ang^3
#
#
#
# Elastic Constant Matrix: (Units=GPa)
#
#
# Indices 1 2 3 4 5 6 
#
# 1 58.0393 40.8407 37.2921 0.0000 -11.5806 0.0000
# 2 40.8407 177.6680 79.4019 0.0000 -2.6169 0.0000
# 3 37.2921 79.4019 154.2789 0.0000 -1.0857 0.0000
# 4 0.0000 0.0000 0.0000 -69.5919 0.0000 -50.1805
# 5 -11.5806 -2.6169 -1.0857 0.0000 25.7966 0.0000
# 6 0.0000 0.0000 0.0000 -50.1805 0.0000 8.9123
#
#
#
# Elastic Compliance Matrix: (Units=1/GPa)
#
#
# Indices 1 2 3 4 5 6 
#
# 1 0.024445 -0.003711 -0.003925 0.000000 0.010432 0.000000
# 2 -0.003711 0.007882 -0.003167 0.000000 -0.001000 0.000000
# 3 -0.003925 -0.003167 0.009048 0.000000 -0.001703 0.000000
# 4 0.000000 0.000000 0.000000 -0.002840 0.000000 -0.015990
# 5 0.010432 -0.001000 -0.001703 0.000000 0.043275 0.000000
# 6 0.000000 0.000000 0.000000 -0.015990 0.000000 0.022175
#
#
# Mechanical properties :
#
#
# Convention : Reuss Voigt Hill
#
# Bulk Modulus (GPa) = 50.58426 78.33950 64.46188
# Shear Modulus (GPa) = 37.82682 8.52016 23.17349
#
# Velocity S-wave (km/s) = 4.29571 2.03873 3.36226
# Velocity P-wave (km/s) = 7.02003 6.61501 6.82053
#
# Compressibility (1/GPa) = 0.01976900
#
# Stress axis : x y z
#
# Youngs Moduli (GPa) = 40.90832 126.87094 110.51758
#
# Poissons Ratio (x) = 0.47085 0.43382
# Poissons Ratio (y) = 0.15182 0.34996
# Poissons Ratio (z) = 0.16058 0.40174
#
# Static dielectric constant tensor:
#      x y z
#    x 3.373300 0.000000 0.004910 
#    y 0.000000 4.003460 0.000000 
#    z 0.004910 0.000000 4.308760 
# 
# 
# High freq. dielectric constant tensor:
#      x y z
#    x 1.784210 0.000000 -0.002470 
#    y 0.000000 1.808210 0.000000 
#    z -0.002470 0.000000 1.818230 
# 
# From -- ./inp_files/198297.got.cif
#   From: 2010.06.25/outbox.cif.g09.slc.cpg/sg15_100_cif.got.tgz:198297.got - 2010.06.28 07:06:18.
