data_PCOD8144346
_publ_section_title
;
Structure prediction by ZEFSAII (Michael W. Deem and Ramdas Pophale) SiO2 
 PCOD8144346
Probable space group: C 2/C
;
_chemical_formula_sum "Si O2"
_cell_formula_units_Z 32
_cell_length_a 36.067122
_cell_length_b 6.761345
_cell_length_c 5.321011
_cell_angle_alpha 90.000000
_cell_angle_beta 90.059696
_cell_angle_gamma 90.000000
_cell_volume 1297.593037
_symmetry_space_group_name_H-M "C 2/C"
_symmetry_group_IT_number 15
_symmetry_cell_setting 'monoclinic'
loop_
_space_group_symop_operation_xyz
x,y,z
-x,y,1/2-z
-x,-y,-z
x,-y,1/2+z
1/2+x,1/2+y,z
1/2-x,1/2+y,1/2-z
1/2-x,1/2-y,-z
1/2+x,1/2-y,1/2+z
loop_
_atom_site_type_symbol
_atom_site_label
_atom_site_fract_x
_atom_site_fract_y
_atom_site_fract_z
Si Si1 0.015759 0.720999 0.000155
Si Si2 0.825022 0.283378 0.009769
Si Si3 0.793659 0.726687 0.009697
Si Si4 0.095768 0.868317 0.009202
O O1 0.000000 0.829737 0.750000
O O2 0.060154 0.726004 0.000008
O O3 0.000000 0.829829 0.250000
O O4 0.000000 0.500000 0.000000
O O5 0.808057 0.501948 0.020167
O O6 0.811214 0.170678 0.262196
O O7 0.808611 0.170162 0.764906
O O8 0.869485 0.280981 0.999691
O O9 0.750000 0.750000 0.000000
O O10 0.096234 0.988524 0.269084
#
# Coordination Sequence:
#
# PCOD8144346 Si02
#       4
#     8   8   8   8
#     4  10  23  42  70 104 133 181 236 277 337 406
#     4  10  23  43  65  96 132 178 225 273 349 410
#     4  10  21  42  68  96 125 168 227 294 334 399
#     4  12  26  45  66  99 146 184 224 284 344 417
#
# _framework density 24.661044
#
# number of rings (size 3 to 8) (size 9 to 14) (size 15 to 20)
#    0.000    1.500    0.000    3.750    0.000   11.000 
#   27.000    0.000    0.000    0.000    0.000    0.000 
#    0.000    0.000    0.000    0.000    0.000    0.000 
#
# Total GULP energy -198265.985045 kJ/mol
# GULP energy per Si atom -12391.624065 kJ/mol
# Density = 2.460491 g / cm^3
# Si number density = 24.661044 Si / 1000 Ang^3
#
#
#
# Elastic Constant Matrix: (Units=GPa)
#
#
# Indices 1 2 3 4 5 6 
#
# 1 234.8964 25.9386 31.7972 0.0000 -11.1985 0.0000
# 2 25.9386 83.0674 -31.9232 0.0000 -5.4315 0.0000
# 3 31.7972 -31.9232 247.3053 0.0000 -9.8402 0.0000
# 4 0.0000 0.0000 0.0000 -27.6599 0.0000 2.8687
# 5 -11.1985 -5.4315 -9.8402 0.0000 45.9661 0.0000
# 6 0.0000 0.0000 0.0000 2.8687 0.0000 58.5797
#
#
#
# Elastic Compliance Matrix: (Units=1/GPa)
#
#
# Indices 1 2 3 4 5 6 
#
# 1 0.004584 -0.001680 -0.000776 0.000000 0.000752 0.000000
# 2 -0.001680 0.013443 0.002015 0.000000 0.001611 0.000000
# 3 -0.000776 0.002015 0.004443 0.000000 0.001000 0.000000
# 4 0.000000 0.000000 0.000000 -0.035971 0.000000 0.001762
# 5 0.000752 0.001611 0.001000 0.000000 0.022343 0.000000
# 6 0.000000 0.000000 0.000000 0.001762 0.000000 0.016985
#
#
# Mechanical properties :
#
#
# Convention : Reuss Voigt Hill
#
# Bulk Modulus (GPa) = 46.32363 68.54380 57.43372
# Shear Modulus (GPa) = 147.46960 51.34093 99.40526
#
# Velocity S-wave (km/s) = 7.74134 4.56769 6.35579
# Velocity P-wave (km/s) = 9.93627 7.46144 8.78643
#
# Compressibility (1/GPa) = 0.02158725
#
# Stress axis : x y z
#
# Youngs Moduli (GPa) = 218.16403 74.38804 225.05472
#
# Poissons Ratio (x) = 0.12501 0.17472
# Poissons Ratio (y) = 0.36662 -0.45358
# Poissons Ratio (z) = 0.16937 -0.14992
#
# Static dielectric constant tensor:
#      x y z
#    x 4.465920 0.000000 -0.166070 
#    y 0.000000 4.112760 0.000000 
#    z -0.166070 0.000000 -7.648340 
# 
# 
# High freq. dielectric constant tensor:
#      x y z
#    x 1.984600 0.000000 -0.000110 
#    y 0.000000 1.970920 0.000000 
#    z -0.000110 0.000000 2.030080 
# 
# From -- ./inp_files/17901.got.cif
#   From: 2010.06.25/outbox.cif.g09.slc.cpg/sg15_9_cif.got.tgz:17901.got - 2010.06.28 07:06:18.
