data_PCOD8144088
_publ_section_title
;
Structure prediction by ZEFSAII (Michael W. Deem and Ramdas Pophale) SiO2 
 PCOD8144088
Probable space group: C 2/C
;
_chemical_formula_sum "Si O2"
_cell_formula_units_Z 40
_cell_length_a 7.812847
_cell_length_b 16.953848
_cell_length_c 21.033447
_cell_angle_alpha 90.000000
_cell_angle_beta 47.609626
_cell_angle_gamma 90.000000
_cell_volume 2057.685067
_symmetry_space_group_name_H-M "C 2/C"
_symmetry_group_IT_number 15
_symmetry_cell_setting 'monoclinic'
loop_
_space_group_symop_operation_xyz
x,y,z
-x,y,1/2-z
-x,-y,-z
x,-y,1/2+z
1/2+x,1/2+y,z
1/2-x,1/2+y,1/2-z
1/2-x,1/2-y,-z
1/2+x,1/2-y,1/2+z
loop_
_atom_site_type_symbol
_atom_site_label
_atom_site_fract_x
_atom_site_fract_y
_atom_site_fract_z
Si Si1 0.772909 0.334462 0.686928
Si Si2 0.286468 0.970347 0.593741
Si Si3 0.727234 0.342964 0.311246
Si Si4 0.590153 0.502037 0.906700
Si Si5 0.000000 0.912902 0.250000
Si Si6 0.500000 0.907653 0.750000
O O1 0.500000 0.346521 0.750000
O O2 0.878490 0.392908 0.607605
O O3 0.846421 0.245487 0.650673
O O4 0.854189 0.353787 0.738178
O O5 0.193899 0.033687 0.667602
O O6 0.080308 0.952323 0.596026
O O7 0.500000 0.000000 0.500000
O O8 0.594521 0.405295 0.388624
O O9 0.647388 0.357259 0.259178
O O10 0.000000 0.354495 0.250000
O O11 0.841317 0.463351 0.834100
O O12 0.500000 0.500000 0.000000
#
# Coordination Sequence:
#
# PCOD8144088 Si02
#       6
#     8   8   8   8   4   4
#     4  11  21  40  61  93 121 158 198 251 309 350
#     4  11  22  39  64  90 125 160 206 250 294 365
#     4  10  22  38  63  89 123 156 198 253 303 355
#     4  11  23  39  63  93 119 165 207 245 299 362
#     4  10  21  42  59  90 118 162 206 236 307 358
#     4  12  21  40  65  88 124 158 208 244 297 370
#
# _framework density 19.439322000000001
#
# number of rings (size 3 to 8) (size 9 to 14) (size 15 to 20)
#    0.000    1.200    4.000    3.000    2.800    0.000 
#    0.000   12.000    0.000    0.000    0.000    0.000 
#    0.000    0.000    0.000    0.000    0.000    0.000 
#
# Total GULP energy -247990.076506 kJ/mol
# GULP energy per Si atom -12399.503825 kJ/mol
# Density = 1.939508 g / cm^3
# Si number density = 19.439322 Si / 1000 Ang^3
#
#
#
# Elastic Constant Matrix: (Units=GPa)
#
#
# Indices 1 2 3 4 5 6 
#
# 1 137.4866 58.6977 43.8656 0.0035 19.1525 -0.0070
# 2 58.6977 130.0541 55.4719 0.0023 13.9409 -0.0064
# 3 43.8656 55.4719 132.5226 0.0046 5.3578 -0.0101
# 4 0.0035 0.0023 0.0046 16.5033 -0.0031 -1.1662
# 5 19.1525 13.9409 5.3578 -0.0031 34.8522 0.0069
# 6 -0.0070 -0.0064 -0.0101 -1.1662 0.0069 23.0073
#
#
#
# Elastic Compliance Matrix: (Units=1/GPa)
#
#
# Indices 1 2 3 4 5 6 
#
# 1 0.009737 -0.003262 -0.001705 -0.000002 -0.003784 0.000002
# 2 -0.003262 0.010813 -0.003365 0.000000 -0.002015 0.000001
# 3 -0.001705 -0.003365 0.009485 -0.000002 0.000825 0.000002
# 4 -0.000002 0.000000 -0.000002 0.060812 0.000006 0.003082
# 5 -0.003784 -0.002015 0.000825 0.000006 0.031451 -0.000010
# 6 0.000002 0.000001 0.000002 0.003082 -0.000010 0.043621
#
#
# Mechanical properties :
#
#
# Convention : Reuss Voigt Hill
#
# Bulk Modulus (GPa) = 74.78240 79.57040 77.17640
# Shear Modulus (GPa) = 26.73243 31.00776 28.87010
#
# Velocity S-wave (km/s) = 3.71236 3.99821 3.85793
# Velocity P-wave (km/s) = 7.54511 7.89530 7.72219
#
# Compressibility (1/GPa) = 0.01337213
#
# Stress axis : x y z
#
# Youngs Moduli (GPa) = 102.70016 92.48533 105.42712
#
# Poissons Ratio (x) = 0.30168 0.17971
# Poissons Ratio (y) = 0.33500 0.35474
# Poissons Ratio (z) = 0.17507 0.31119
#
# Static dielectric constant tensor:
#      x y z
#    x 3.892650 0.000000 0.056220 
#    y 0.000000 3.669610 0.000000 
#    z 0.056220 0.000000 3.418890 
# 
# 
# High freq. dielectric constant tensor:
#      x y z
#    x 1.780670 0.000000 0.006440 
#    y 0.000000 1.754690 0.000000 
#    z 0.006440 0.000000 1.742250 
# 
# From -- ./inp_files/133121.got.cif
#   From: 2010.06.25/outbox.cif.g09.slc.cpg/sg15_67_cif.got.tgz:133121.got - 2010.06.28 07:06:18.
