data_PCOD8144149
_publ_section_title
;
Structure prediction by ZEFSAII (Michael W. Deem and Ramdas Pophale) SiO2 
 PCOD8144149
Probable space group: C 2/C
;
_chemical_formula_sum "Si O2"
_cell_formula_units_Z 56
_cell_length_a 24.592897
_cell_length_b 13.849099
_cell_length_c 15.614064
_cell_angle_alpha 90.000000
_cell_angle_beta 30.481850
_cell_angle_gamma 90.000000
_cell_volume 2697.630110
_symmetry_space_group_name_H-M "C 2/C"
_symmetry_group_IT_number 15
_symmetry_cell_setting 'monoclinic'
loop_
_space_group_symop_operation_xyz
x,y,z
-x,y,1/2-z
-x,-y,-z
x,-y,1/2+z
1/2+x,1/2+y,z
1/2-x,1/2+y,1/2-z
1/2-x,1/2-y,-z
1/2+x,1/2-y,1/2+z
loop_
_atom_site_type_symbol
_atom_site_label
_atom_site_fract_x
_atom_site_fract_y
_atom_site_fract_z
Si Si1 0.514903 0.070722 0.864121
Si Si2 0.613613 0.492150 0.441971
Si Si3 0.123077 0.244024 0.182063
Si Si4 0.500000 0.089514 0.250000
Si Si5 0.354017 0.801173 0.827676
Si Si6 0.500000 0.406887 0.750000
Si Si7 0.002224 0.835695 0.486239
Si Si8 0.333917 0.958254 0.723163
O O1 0.568498 0.153089 0.731599
O O2 0.473422 0.978697 0.866592
O O3 0.600296 0.045176 0.822538
O O4 0.406709 0.104463 0.058459
O O5 0.537264 0.478140 0.626167
O O6 0.595378 0.401576 0.402765
O O7 0.582514 0.594682 0.444800
O O8 0.735877 0.494520 0.305632
O O9 0.095714 0.161708 0.151152
O O10 0.072378 0.220706 0.344162
O O11 0.250000 0.250000 0.000000
O O12 0.595552 0.157514 0.152932
O O13 0.440772 0.736518 0.658081
O O14 0.301597 0.884950 0.841284
O O15 0.250000 0.750000 0.000000
#
# Coordination Sequence:
#
# PCOD8144149 Si02
#       8
#     8   8   8   4   8   4   8   8
#     4  10  21  42  63  94 132 158 218 270 308 400
#     4  10  23  42  65  89 128 173 207 268 322 377
#     4  11  22  42  67  93 125 168 210 270 319 377
#     4  10  25  41  66  96 128 170 214 265 323 380
#     4  11  25  43  65  98 127 169 214 265 323 390
#     4  10  23  39  62  96 122 162 224 257 313 382
#     4  10  24  44  62  96 130 162 223 262 314 390
#     4  10  22  41  65  91 126 174 204 259 337 365
#
# _framework density 20.758962
#
# number of rings (size 3 to 8) (size 9 to 14) (size 15 to 20)
#    0.000    1.714    1.429    1.286    6.000    2.286 
#    7.714    0.000    0.000    0.000    0.000    0.000 
#    0.000    0.000    0.000    0.000    0.000    0.000 
#
# Total GULP energy -347024.510036 kJ/mol
# GULP energy per Si atom -12393.732501 kJ/mol
# Density = 2.071171 g / cm^3
# Si number density = 20.758962 Si / 1000 Ang^3
#
#
#
# Elastic Constant Matrix: (Units=GPa)
#
#
# Indices 1 2 3 4 5 6 
#
# 1 130.9090 37.6708 47.1350 0.0000 -18.4441 0.0000
# 2 37.6708 85.6290 38.4512 0.0000 -10.2258 0.0000
# 3 47.1350 38.4512 102.3773 0.0000 -17.2857 0.0000
# 4 0.0000 0.0000 0.0000 22.7173 0.0000 -5.1790
# 5 -18.4441 -10.2258 -17.2857 0.0000 28.7645 0.0000
# 6 0.0000 0.0000 0.0000 -5.1790 0.0000 26.6370
#
#
#
# Elastic Compliance Matrix: (Units=1/GPa)
#
#
# Indices 1 2 3 4 5 6 
#
# 1 0.009987 -0.002608 -0.002998 0.000000 0.003675 0.000000
# 2 -0.002608 0.014836 -0.004188 0.000000 0.001085 0.000000
# 3 -0.002998 -0.004188 0.013516 0.000000 0.004712 0.000000
# 4 0.000000 0.000000 0.000000 0.046061 0.000000 0.008956
# 5 0.003675 0.001085 0.004712 0.000000 0.040338 0.000000
# 6 0.000000 0.000000 0.000000 0.008956 0.000000 0.039283
#
#
# Mechanical properties :
#
#
# Convention : Reuss Voigt Hill
#
# Bulk Modulus (GPa) = 53.33164 62.82546 58.07855
# Shear Modulus (GPa) = 26.33520 28.66766 27.50143
#
# Velocity S-wave (km/s) = 3.56563 3.72018 3.64373
# Velocity P-wave (km/s) = 6.53439 6.98448 6.76318
#
# Compressibility (1/GPa) = 0.01875060
#
# Stress axis : x y z
#
# Youngs Moduli (GPa) = 100.13391 67.40372 73.98410
#
# Poissons Ratio (x) = 0.17582 0.22178
# Poissons Ratio (y) = 0.26120 0.30985
# Poissons Ratio (z) = 0.30018 0.28229
#
# Static dielectric constant tensor:
#      x y z
#    x 4.030790 0.000000 0.155280 
#    y 0.000000 3.909690 0.000000 
#    z 0.155280 0.000000 3.703040 
# 
# 
# High freq. dielectric constant tensor:
#      x y z
#    x 1.821640 0.000000 0.005490 
#    y 0.000000 1.821750 0.000000 
#    z 0.005490 0.000000 1.805630 
# 
# From -- ./inp_files/127024.got.cif
#   From: 2010.06.25/outbox.cif.g09.slc.cpg/sg15_64_cif.got.tgz:127024.got - 2010.06.28 07:06:18.
