data_PCOD8144464
_publ_section_title
;
Structure prediction by ZEFSAII (Michael W. Deem and Ramdas Pophale) SiO2 
 PCOD8144464
Probable space group: C 2/C
;
_chemical_formula_sum "Si O2"
_cell_formula_units_Z 44
_cell_length_a 5.083158
_cell_length_b 25.669631
_cell_length_c 15.892076
_cell_angle_alpha 90.000000
_cell_angle_beta 104.358670
_cell_angle_gamma 90.000000
_cell_volume 2008.866599
_symmetry_space_group_name_H-M "C 2/C"
_symmetry_group_IT_number 15
_symmetry_cell_setting 'monoclinic'
loop_
_space_group_symop_operation_xyz
x,y,z
-x,y,1/2-z
-x,-y,-z
x,-y,1/2+z
1/2+x,1/2+y,z
1/2-x,1/2+y,1/2-z
1/2-x,1/2-y,-z
1/2+x,1/2-y,1/2+z
loop_
_atom_site_type_symbol
_atom_site_label
_atom_site_fract_x
_atom_site_fract_y
_atom_site_fract_z
Si Si1 0.198735 0.056563 0.456838
Si Si2 0.285210 0.559019 0.561879
Si Si3 0.609700 0.221447 0.910109
Si Si4 0.500000 0.703673 0.250000
Si Si5 0.780211 0.604032 0.294077
Si Si6 0.569138 0.662443 0.851553
O O1 0.458622 0.055243 0.538750
O O2 0.314610 0.096166 0.395974
O O3 0.930376 0.076849 0.484794
O O4 0.118368 0.000053 0.411661
O O5 0.386801 0.600066 0.639779
O O6 0.509142 0.263095 0.834667
O O7 0.336717 0.190040 0.911796
O O8 0.817533 0.180031 0.888076
O O9 0.750000 0.250000 0.000000
O O10 0.764286 0.665856 0.271093
O O11 0.500000 0.574749 0.250000
O O12 0.000000 0.577940 0.250000
O O13 0.500000 0.677986 0.750000
#
# Coordination Sequence:
#
# PCOD8144464 Si02
#       6
#     8   8   8   4   8   8
#     4  10  21  43  62  98 126 166 218 270 324 401
#     4  10  23  39  68  89 132 169 212 268 330 402
#     4  12  27  45  69  96 133 181 226 278 339 398
#     4  10  26  42  66  94 136 164 226 276 328 384
#     4  10  23  36  64  91 124 163 203 275 320 379
#     4  12  25  45  65  99 135 175 225 281 333 408
#
# _framework density 21.902899000000001
#
# number of rings (size 3 to 8) (size 9 to 14) (size 15 to 20)
#    0.545    0.727    1.818    2.727    7.636    0.727 
#    0.000    1.818    0.000    0.000    0.000    0.000 
#    0.000    0.000    0.000    0.000    0.000    0.000 
#
# Total GULP energy -272553.067552 kJ/mol
# GULP energy per Si atom -12388.775798 kJ/mol
# Density = 2.185305 g / cm^3
# Si number density = 21.902899 Si / 1000 Ang^3
#
#
#
# Elastic Constant Matrix: (Units=GPa)
#
#
# Indices 1 2 3 4 5 6 
#
# 1 128.7806 22.5323 3.6210 0.0000 -4.5968 0.0000
# 2 22.5323 93.8057 41.5477 0.0000 10.6297 0.0000
# 3 3.6210 41.5477 80.0632 0.0000 -0.0620 0.0000
# 4 0.0000 0.0000 0.0000 38.7626 0.0000 -7.0070
# 5 -4.5968 10.6297 -0.0620 0.0000 26.8780 0.0000
# 6 0.0000 0.0000 0.0000 -7.0070 0.0000 -16.3503
#
#
#
# Elastic Compliance Matrix: (Units=1/GPa)
#
#
# Indices 1 2 3 4 5 6 
#
# 1 0.008305 -0.002744 0.001051 0.000000 0.002508 0.000000
# 2 -0.002744 0.015609 -0.007981 0.000000 -0.006661 0.000000
# 3 0.001051 -0.007981 0.016587 0.000000 0.003374 0.000000
# 4 0.000000 0.000000 0.000000 0.023943 0.000000 -0.010261
# 5 0.002508 -0.006661 0.003374 0.000000 0.040276 0.000000
# 6 0.000000 0.000000 0.000000 -0.010261 0.000000 -0.056764
#
#
# Mechanical properties :
#
#
# Convention : Reuss Voigt Hill
#
# Bulk Modulus (GPa) = 47.27858 48.67238 47.97548
# Shear Modulus (GPa) = 67.24192 25.52130 46.38161
#
# Velocity S-wave (km/s) = 5.54677 3.41721 4.60673
# Velocity P-wave (km/s) = 7.91547 6.15141 7.08853
#
# Compressibility (1/GPa) = 0.02115123
#
# Stress axis : x y z
#
# Youngs Moduli (GPa) = 120.40462 64.06403 60.28807
#
# Poissons Ratio (x) = 0.17582 -0.06333
# Poissons Ratio (y) = 0.33045 0.48118
# Poissons Ratio (z) = -0.12649 0.51131
#
# Static dielectric constant tensor:
#      x y z
#    x 4.071520 0.000000 0.151390 
#    y 0.000000 3.940720 0.000000 
#    z 0.151390 0.000000 3.841380 
# 
# 
# High freq. dielectric constant tensor:
#      x y z
#    x 1.877110 0.000000 0.002420 
#    y 0.000000 1.858170 0.000000 
#    z 0.002420 0.000000 1.837860 
# 
# From -- ./inp_files/185375.got.cif
#   From: 2010.06.25/outbox.cif.g09.slc.cpg/sg15_93_cif.got.tgz:185375.got - 2010.06.28 07:06:18.
