data_PCOD8144080
_publ_section_title
;
Structure prediction by ZEFSAII (Michael W. Deem and Ramdas Pophale) SiO2 
 PCOD8144080
Probable space group: C 2/C
;
_chemical_formula_sum "Si O2"
_cell_formula_units_Z 56
_cell_length_a 13.560912
_cell_length_b 7.932162
_cell_length_c 23.182374
_cell_angle_alpha 90.000000
_cell_angle_beta 58.512739
_cell_angle_gamma 90.000000
_cell_volume 2126.489903
_symmetry_space_group_name_H-M "C 2/C"
_symmetry_group_IT_number 15
_symmetry_cell_setting 'monoclinic'
loop_
_space_group_symop_operation_xyz
x,y,z
-x,y,1/2-z
-x,-y,-z
x,-y,1/2+z
1/2+x,1/2+y,z
1/2-x,1/2+y,1/2-z
1/2-x,1/2-y,-z
1/2+x,1/2-y,1/2+z
loop_
_atom_site_type_symbol
_atom_site_label
_atom_site_fract_x
_atom_site_fract_y
_atom_site_fract_z
Si Si1 0.442816 0.318271 0.516657
Si Si2 0.697878 0.532422 0.534302
Si Si3 0.689544 0.564695 0.777281
Si Si4 0.861007 0.324877 0.417667
Si Si5 0.842572 0.268830 0.606315
Si Si6 0.762498 0.370061 0.137459
Si Si7 0.924904 0.289352 0.217354
O O1 0.500000 0.500000 0.500000
O O2 0.348025 0.323329 0.494182
O O3 0.547456 0.194095 0.468667
O O4 0.371717 0.258150 0.595208
O O5 0.825785 0.468972 0.474940
O O6 0.623288 0.358040 0.556161
O O7 0.692346 0.611585 0.599796
O O8 0.618862 0.653001 0.851067
O O9 0.684978 0.674010 0.717641
O O10 0.824475 0.572045 0.757824
O O11 0.637832 0.379785 0.785697
O O12 0.762301 0.315425 0.397980
O O13 0.986362 0.371644 0.355191
O O14 0.806484 0.446395 0.643382
O O15 0.000000 0.242021 0.250000
#
# Coordination Sequence:
#
# PCOD8144080 Si02
#       7
#     8   8   8   8   8   8   8
#     4  12  25  41  74 111 151 201 265 318 385 478
#     4  10  22  44  68 111 150 200 251 321 394 472
#     4  12  26  47  78 111 150 210 267 318 409 474
#     4  10  21  41  77 103 149 200 248 316 401 458
#     4  11  23  46  71 111 150 205 258 318 398 467
#     4  11  26  46  70 107 159 200 254 333 390 465
#     4  12  25  49  77 108 154 205 258 336 392 475
#
# _framework density 26.334477
#
# number of rings (size 3 to 8) (size 9 to 14) (size 15 to 20)
#    0.000    0.857    4.286    2.571    4.000    1.143 
#    0.000    0.714    0.000    0.000    0.000    0.000 
#    0.000    0.000    0.000    0.000    0.000    0.000 
#
# Total GULP energy -346880.860445 kJ/mol
# GULP energy per Si atom -12388.602159 kJ/mol
# Density = 2.627454 g / cm^3
# Si number density = 26.334477 Si / 1000 Ang^3
#
#
#
# Elastic Constant Matrix: (Units=GPa)
#
#
# Indices 1 2 3 4 5 6 
#
# 1 100.4010 22.3198 9.7884 0.0000 11.5136 0.0000
# 2 22.3198 26.3767 -23.8057 0.0000 15.0963 0.0000
# 3 9.7884 -23.8057 85.5295 0.0000 1.4510 0.0000
# 4 0.0000 0.0000 0.0000 30.7247 0.0000 4.4025
# 5 11.5136 15.0963 1.4510 0.0000 54.0007 0.0000
# 6 0.0000 0.0000 0.0000 4.4025 0.0000 34.7447
#
#
#
# Elastic Compliance Matrix: (Units=1/GPa)
#
#
# Indices 1 2 3 4 5 6 
#
# 1 0.015180 -0.021616 -0.007805 0.000000 0.003016 0.000000
# 2 -0.021616 0.096141 0.029624 0.000000 -0.023064 0.000000
# 3 -0.007805 0.029624 0.020952 0.000000 -0.007181 0.000000
# 4 0.000000 0.000000 0.000000 0.033149 0.000000 -0.004200
# 5 0.003016 -0.023064 -0.007181 0.000000 0.024516 0.000000
# 6 0.000000 0.000000 0.000000 -0.004200 0.000000 0.029314
#
#
# Mechanical properties :
#
#
# Convention : Reuss Voigt Hill
#
# Bulk Modulus (GPa) = 7.53691 25.43468 16.48580
# Shear Modulus (GPa) = 19.00621 37.49433 28.25027
#
# Velocity S-wave (km/s) = 2.68941 3.77739 3.27884
# Velocity P-wave (km/s) = 3.53724 5.35762 4.53962
#
# Compressibility (1/GPa) = 0.13268033
#
# Stress axis : x y z
#
# Youngs Moduli (GPa) = 65.87407 10.40142 47.72736
#
# Poissons Ratio (x) = 0.22484 0.37251
# Poissons Ratio (y) = 1.42393 -1.41389
# Poissons Ratio (z) = 0.51414 -0.30813
#
# Static dielectric constant tensor:
#      x y z
#    x 5.024140 0.000000 -0.136570 
#    y 0.000000 4.515730 0.000000 
#    z -0.136570 0.000000 5.559250 
# 
# 
# High freq. dielectric constant tensor:
#      x y z
#    x 2.048080 0.000000 0.013430 
#    y 0.000000 2.034170 0.000000 
#    z 0.013430 0.000000 2.079560 
# 
# From -- ./inp_files/273042.got.cif
#   From: 2010.06.25/outbox.cif.g09.slc.cpg/sg15_137_cif.got.tgz:273042.got - 2010.06.28 07:06:18.
