data_PCOD8144873
_publ_section_title
;
Structure prediction by ZEFSAII (Michael W. Deem and Ramdas Pophale) SiO2 
 PCOD8144873
Probable space group: C 2/C
;
_chemical_formula_sum "Si O2"
_cell_formula_units_Z 44
_cell_length_a 17.787451
_cell_length_b 5.447039
_cell_length_c 21.067756
_cell_angle_alpha 90.000000
_cell_angle_beta 113.933313
_cell_angle_gamma 90.000000
_cell_volume 1865.723772
_symmetry_space_group_name_H-M "C 2/C"
_symmetry_group_IT_number 15
_symmetry_cell_setting 'monoclinic'
loop_
_space_group_symop_operation_xyz
x,y,z
-x,y,1/2-z
-x,-y,-z
x,-y,1/2+z
1/2+x,1/2+y,z
1/2-x,1/2+y,1/2-z
1/2-x,1/2-y,-z
1/2+x,1/2-y,1/2+z
loop_
_atom_site_type_symbol
_atom_site_label
_atom_site_fract_x
_atom_site_fract_y
_atom_site_fract_z
Si Si1 0.500000 0.316027 0.750000
Si Si2 0.192576 0.997528 0.109006
Si Si3 0.446577 0.638490 0.847095
Si Si4 0.623791 0.272175 0.411368
Si Si5 0.865473 0.441062 0.715113
Si Si6 0.784841 0.502039 0.460619
O O1 0.478996 0.458602 0.805434
O O2 0.419544 0.160362 0.706453
O O3 0.109737 0.998361 0.121656
O O4 0.191174 0.754135 0.064976
O O5 0.269626 0.983195 0.184113
O O6 0.193429 0.255973 0.072463
O O7 0.532287 0.716782 0.910506
O O8 0.395678 0.858100 0.795454
O O9 0.619718 0.267756 0.332988
O O10 0.687410 0.498732 0.446461
O O11 0.664861 0.025528 0.455903
#
# Coordination Sequence:
#
# PCOD8144873 Si02
#       6
#     4   8   8   8   8   8
#     4  12  22  40  68  96 128 178 222 268 346 398
#     4  11  28  43  68 100 142 172 227 274 346 394
#     4  12  25  42  66 103 132 179 219 289 335 407
#     4  10  21  46  71  95 139 172 242 264 334 402
#     4  11  24  42  65 100 132 178 219 285 336 402
#     4  10  25  47  70 100 132 189 218 283 326 400
#
# _framework density 23.583341000000001
#
# number of rings (size 3 to 8) (size 9 to 14) (size 15 to 20)
#    0.000    1.091    3.636    1.091    7.636    9.455 
#    0.000    0.000    0.000    0.000    0.000    0.000 
#    0.000    0.000    0.000    0.000    0.000    0.000 
#
# Total GULP energy -272563.052243 kJ/mol
# GULP energy per Si atom -12389.229647 kJ/mol
# Density = 2.352966 g / cm^3
# Si number density = 23.583341 Si / 1000 Ang^3
#
#
#
# Elastic Constant Matrix: (Units=GPa)
#
#
# Indices 1 2 3 4 5 6 
#
# 1 116.1582 46.0202 17.8695 0.0000 24.8888 -0.0003
# 2 46.0202 108.3798 22.5495 -0.0002 -14.1305 -0.0003
# 3 17.8695 22.5495 76.0650 0.0000 16.4875 -0.0001
# 4 0.0000 -0.0002 0.0000 21.0484 0.0000 3.2834
# 5 24.8888 -14.1305 16.4875 0.0000 36.5032 0.0000
# 6 -0.0003 -0.0003 -0.0001 3.2834 0.0000 25.8255
#
#
#
# Elastic Compliance Matrix: (Units=1/GPa)
#
#
# Indices 1 2 3 4 5 6 
#
# 1 0.014761 -0.008602 0.002201 0.000000 -0.014389 0.000000
# 2 -0.008602 0.016037 -0.005931 0.000000 0.014751 0.000000
# 3 0.002201 -0.005931 0.016861 0.000000 -0.011412 0.000000
# 4 0.000000 0.000000 0.000000 0.048471 0.000000 -0.006163
# 5 -0.014389 0.014751 -0.011412 0.000000 0.048070 0.000000
# 6 0.000000 0.000000 0.000000 -0.006163 0.000000 0.039505
#
#
# Mechanical properties :
#
#
# Convention : Reuss Voigt Hill
#
# Bulk Modulus (GPa) = 43.48546 52.60905 48.04726
# Shear Modulus (GPa) = 23.14453 30.95300 27.04877
#
# Velocity S-wave (km/s) = 3.13612 3.62677 3.39033
# Velocity P-wave (km/s) = 5.62074 6.31617 5.97858
#
# Compressibility (1/GPa) = 0.02299619
#
# Stress axis : x y z
#
# Youngs Moduli (GPa) = 67.74492 62.35756 59.30694
#
# Poissons Ratio (x) = 0.53639 -0.13054
# Poissons Ratio (y) = 0.58273 0.35173
# Poissons Ratio (z) = -0.14911 0.36983
#
# Static dielectric constant tensor:
#      x y z
#    x 3.744820 0.000000 -0.269940 
#    y 0.000000 4.348290 0.000000 
#    z -0.269940 0.000000 4.407310 
# 
# 
# High freq. dielectric constant tensor:
#      x y z
#    x 1.936330 0.000000 0.019450 
#    y 0.000000 1.925950 0.000000 
#    z 0.019450 0.000000 1.940900 
# 
# From -- ./inp_files/246385.got.cif
#   From: 2010.06.25/outbox.cif.g09.slc.cpg/sg15_124_cif.got.tgz:246385.got - 2010.06.28 07:06:18.
