data_PCOD8144292
_publ_section_title
;
Structure prediction by ZEFSAII (Michael W. Deem and Ramdas Pophale) SiO2 
 PCOD8144292
Probable space group: C 2/C
;
_chemical_formula_sum "Si O2"
_cell_formula_units_Z 48
_cell_length_a 30.406774
_cell_length_b 10.768245
_cell_length_c 15.043290
_cell_angle_alpha 90.000000
_cell_angle_beta 154.578529
_cell_angle_gamma 90.000000
_cell_volume 2114.425081
_symmetry_space_group_name_H-M "C 2/C"
_symmetry_group_IT_number 15
_symmetry_cell_setting 'monoclinic'
loop_
_space_group_symop_operation_xyz
x,y,z
-x,y,1/2-z
-x,-y,-z
x,-y,1/2+z
1/2+x,1/2+y,z
1/2-x,1/2+y,1/2-z
1/2-x,1/2-y,-z
1/2+x,1/2-y,1/2+z
loop_
_atom_site_type_symbol
_atom_site_label
_atom_site_fract_x
_atom_site_fract_y
_atom_site_fract_z
Si Si1 0.372742 0.353468 0.581155
Si Si2 0.856311 0.587128 0.867871
Si Si3 0.356796 0.296765 0.004689
Si Si4 0.015760 0.075887 0.897003
Si Si5 0.445647 0.258028 0.881943
Si Si6 0.376579 0.190377 0.414605
O O1 0.265816 0.423997 0.373798
O O2 0.465698 0.443502 0.783777
O O3 0.402083 0.271062 0.548892
O O4 0.365298 0.261353 0.652768
O O5 0.877236 0.667927 0.993011
O O6 0.903551 0.454076 0.978047
O O7 0.911836 0.646253 0.883992
O O8 0.241691 0.301309 0.828369
O O9 0.385598 0.411327 0.989120
O O10 0.434489 0.311839 0.228739
O O11 0.053467 0.106857 0.065616
O O12 0.559921 0.238310 0.053203
#
# Coordination Sequence:
#
# PCOD8144292 Si02
#       6
#     8   8   8   8   8   8
#     4  11  23  43  68  97 122 169 223 262 307 376
#     4  10  22  45  62  93 134 164 211 260 320 377
#     4   9  21  39  67  90 120 175 210 259 311 372
#     4  10  21  42  67  90 130 160 219 261 312 369
#     4  11  24  40  63  99 131 168 204 261 326 372
#     4  11  23  40  65  95 128 167 213 258 316 379
#
# _framework density 22.701205999999999
#
# number of rings (size 3 to 8) (size 9 to 14) (size 15 to 20)
#    0.000    1.667    1.667    2.000    4.667    0.667 
#   15.000    1.667    0.000    0.000    0.000    0.000 
#    0.000    0.000    0.000    0.000    0.000    0.000 
#
# Total GULP energy -297420.416704 kJ/mol
# GULP energy per Si atom -12392.517363 kJ/mol
# Density = 2.264954 g / cm^3
# Si number density = 22.701206 Si / 1000 Ang^3
#
#
#
# Elastic Constant Matrix: (Units=GPa)
#
#
# Indices 1 2 3 4 5 6 
#
# 1 119.9630 39.0295 25.2952 0.0000 5.7944 0.0000
# 2 39.0295 103.0019 13.9562 0.0000 -0.1274 0.0000
# 3 25.2952 13.9562 70.7525 0.0000 8.2997 0.0000
# 4 0.0000 0.0000 0.0000 38.0417 0.0000 0.1381
# 5 5.7944 -0.1274 8.2997 0.0000 35.5816 0.0000
# 6 0.0000 0.0000 0.0000 0.1381 0.0000 25.4977
#
#
#
# Elastic Compliance Matrix: (Units=1/GPa)
#
#
# Indices 1 2 3 4 5 6 
#
# 1 0.010099 -0.003447 -0.002813 0.000000 -0.001001 0.000000
# 2 -0.003447 0.011160 -0.001069 0.000000 0.000851 0.000000
# 3 -0.002813 -0.001069 0.015727 0.000000 -0.003214 0.000000
# 4 0.000000 0.000000 0.000000 0.026287 0.000000 -0.000142
# 5 -0.001001 0.000851 -0.003214 0.000000 0.029020 0.000000
# 6 0.000000 0.000000 0.000000 -0.000142 0.000000 0.039220
#
#
# Mechanical properties :
#
#
# Convention : Reuss Voigt Hill
#
# Bulk Modulus (GPa) = 44.78492 50.03102 47.40797
# Shear Modulus (GPa) = 32.54888 34.18664 33.36776
#
# Velocity S-wave (km/s) = 3.79066 3.88485 3.83804
# Velocity P-wave (km/s) = 6.23936 6.49689 6.36942
#
# Compressibility (1/GPa) = 0.02232894
#
# Stress axis : x y z
#
# Youngs Moduli (GPa) = 99.02164 89.60187 63.58304
#
# Poissons Ratio (x) = 0.30883 0.17887
# Poissons Ratio (y) = 0.34130 0.06797
# Poissons Ratio (z) = 0.27857 0.09578
#
# Static dielectric constant tensor:
#      x y z
#    x 4.203440 0.000000 -0.008970 
#    y 0.000000 4.140440 0.000000 
#    z -0.008970 0.000000 4.067900 
# 
# 
# High freq. dielectric constant tensor:
#      x y z
#    x 1.903130 0.000000 0.005610 
#    y 0.000000 1.894760 0.000000 
#    z 0.005610 0.000000 1.889210 
# 
# From -- ./inp_files/181797.got.cif
#   From: 2010.06.25/outbox.cif.g09.slc.cpg/sg15_91_cif.got.tgz:181797.got - 2010.06.28 07:06:18.
