data_PCOD8144135
_publ_section_title
;
Structure prediction by ZEFSAII (Michael W. Deem and Ramdas Pophale) SiO2 
 PCOD8144135
Probable space group: C 2/C
;
_chemical_formula_sum "Si O2"
_cell_formula_units_Z 48
_cell_length_a 15.305307
_cell_length_b 13.623731
_cell_length_c 14.628883
_cell_angle_alpha 90.000000
_cell_angle_beta 52.394260
_cell_angle_gamma 90.000000
_cell_volume 2416.572011
_symmetry_space_group_name_H-M "C 2/C"
_symmetry_group_IT_number 15
_symmetry_cell_setting 'monoclinic'
loop_
_space_group_symop_operation_xyz
x,y,z
-x,y,1/2-z
-x,-y,-z
x,-y,1/2+z
1/2+x,1/2+y,z
1/2-x,1/2+y,1/2-z
1/2-x,1/2-y,-z
1/2+x,1/2-y,1/2+z
loop_
_atom_site_type_symbol
_atom_site_label
_atom_site_fract_x
_atom_site_fract_y
_atom_site_fract_z
Si Si1 0.192032 0.109542 0.959398
Si Si2 0.514586 0.244787 0.338354
Si Si3 0.034583 0.388771 0.461098
Si Si4 0.605108 0.554110 0.637587
Si Si5 0.715317 0.368734 0.239150
Si Si6 0.911890 0.710849 0.883765
O O1 0.174834 0.088872 0.862661
O O2 0.309643 0.158440 0.901017
O O3 0.105116 0.183773 0.058820
O O4 0.172152 0.004738 0.018820
O O5 0.500000 0.190027 0.250000
O O6 0.470890 0.172282 0.442376
O O7 0.441052 0.344988 0.378970
O O8 0.644924 0.267807 0.271981
O O9 0.153023 0.362456 0.342251
O O10 0.000000 0.500000 0.500000
O O11 0.945722 0.359081 0.443816
O O12 0.500000 0.498251 0.750000
O O13 0.689508 0.565074 0.667812
O O14 0.000000 0.727902 0.750000
#
# Coordination Sequence:
#
# PCOD8144135 Si02
#       6
#     8   8   8   8   8   8
#     4  11  21  40  65  89 126 165 203 257 311 367
#     4   9  22  44  65  91 122 159 213 261 302 369
#     4  12  24  42  63  92 127 164 206 256 313 376
#     4   9  21  40  63  93 122 155 213 259 303 369
#     4  10  21  42  63  89 125 160 209 247 308 369
#     4  11  23  39  60  92 128 162 205 256 311 371
#
# _framework density 19.862848
#
# number of rings (size 3 to 8) (size 9 to 14) (size 15 to 20)
#    0.000    2.000    3.333    1.500    0.000    6.000 
#    9.000    0.000    0.000    0.000    0.000    0.000 
#    0.000    0.000    0.000    0.000    0.000    0.000 
#
# Total GULP energy -297326.141839 kJ/mol
# GULP energy per Si atom -12388.589243 kJ/mol
# Density = 1.981764 g / cm^3
# Si number density = 19.862848 Si / 1000 Ang^3
#
#
#
# Elastic Constant Matrix: (Units=GPa)
#
#
# Indices 1 2 3 4 5 6 
#
# 1 58.5739 37.6123 28.8300 0.0000 30.9900 0.0000
# 2 37.6123 96.2714 63.6961 0.0000 13.3905 0.0000
# 3 28.8300 63.6961 142.3764 0.0000 26.2042 0.0000
# 4 0.0000 0.0000 0.0000 32.6177 0.0000 12.3294
# 5 30.9900 13.3905 26.2042 0.0000 37.6490 0.0000
# 6 0.0000 0.0000 0.0000 12.3294 0.0000 22.9071
#
#
#
# Elastic Compliance Matrix: (Units=1/GPa)
#
#
# Indices 1 2 3 4 5 6 
#
# 1 0.040742 -0.014090 0.003789 0.000000 -0.031162 0.000000
# 2 -0.014090 0.019646 -0.007781 0.000000 0.010027 0.000000
# 3 0.003789 -0.007781 0.011242 0.000000 -0.008176 0.000000
# 4 0.000000 0.000000 0.000000 0.038489 0.000000 -0.020716
# 5 -0.031162 0.010027 -0.008176 0.000000 0.054336 0.000000
# 6 0.000000 0.000000 0.000000 -0.020716 0.000000 0.054805
#
#
# Mechanical properties :
#
#
# Convention : Reuss Voigt Hill
#
# Bulk Modulus (GPa) = 28.19640 61.94427 45.07034
# Shear Modulus (GPa) = 18.70926 29.77365 24.24146
#
# Velocity S-wave (km/s) = 3.07240 3.87584 3.49727
# Velocity P-wave (km/s) = 5.17809 7.16123 6.24883
#
# Compressibility (1/GPa) = 0.03546552
#
# Stress axis : x y z
#
# Youngs Moduli (GPa) = 24.54446 50.90076 88.94862
#
# Poissons Ratio (x) = 0.71720 -0.33703
# Poissons Ratio (y) = 0.34584 0.69215
# Poissons Ratio (z) = -0.09300 0.39608
#
# Static dielectric constant tensor:
#      x y z
#    x 4.088770 0.000000 0.019960 
#    y 0.000000 3.341380 0.000000 
#    z 0.019960 0.000000 3.717340 
# 
# 
# High freq. dielectric constant tensor:
#      x y z
#    x 1.795160 0.000000 0.010710 
#    y 0.000000 1.746940 0.000000 
#    z 0.010710 0.000000 1.789010 
# 
# From -- ./inp_files/153808.got.cif
#   From: 2010.06.25/outbox.cif.g09.slc.cpg/sg15_77_cif.got.tgz:153808.got - 2010.06.28 07:06:18.
