data_PCOD8144293
_publ_section_title
;
Structure prediction by ZEFSAII (Michael W. Deem and Ramdas Pophale) SiO2 
 PCOD8144293
Probable space group: C 2/C
;
_chemical_formula_sum "Si O2"
_cell_formula_units_Z 48
_cell_length_a 8.567350
_cell_length_b 26.037286
_cell_length_c 13.373456
_cell_angle_alpha 90.000000
_cell_angle_beta 130.398106
_cell_angle_gamma 90.000000
_cell_volume 2271.903331
_symmetry_space_group_name_H-M "C 2/C"
_symmetry_group_IT_number 15
_symmetry_cell_setting 'monoclinic'
loop_
_space_group_symop_operation_xyz
x,y,z
-x,y,1/2-z
-x,-y,-z
x,-y,1/2+z
1/2+x,1/2+y,z
1/2-x,1/2+y,1/2-z
1/2-x,1/2-y,-z
1/2+x,1/2-y,1/2+z
loop_
_atom_site_type_symbol
_atom_site_label
_atom_site_fract_x
_atom_site_fract_y
_atom_site_fract_z
Si Si1 0.000000 0.574690 0.250000
Si Si2 0.218827 0.591138 0.788442
Si Si3 0.326306 0.993057 0.851164
Si Si4 0.918824 0.876168 0.929525
Si Si5 0.656095 0.206020 0.723968
Si Si6 0.053997 0.238307 0.985295
Si Si7 0.500000 0.583414 0.250000
O O1 0.094903 0.537870 0.209319
O O2 0.189160 0.608812 0.369770
O O3 0.264449 0.547584 0.724292
O O4 0.219234 0.646627 0.734999
O O5 0.000000 0.580450 0.750000
O O6 0.406761 0.589068 0.945325
O O7 0.176587 0.956642 0.851394
O O8 0.500000 0.000000 0.000000
O O9 0.948452 0.817641 0.968905
O O10 0.945616 0.880752 0.821233
O O11 0.500000 0.211456 0.750000
O O12 0.548154 0.222336 0.575681
O O13 0.852693 0.242202 0.830873
O O14 0.250000 0.250000 0.000000
#
# Coordination Sequence:
#
# PCOD8144293 Si02
#       7
#     4   8   8   8   8   8   4
#     4  10  24  40  62  94 130 176 210 274 332 380
#     4  10  21  42  67  91 132 174 221 274 325 394
#     4  11  23  39  63  95 128 172 219 267 327 388
#     4  10  24  43  66  95 134 175 218 277 333 395
#     4  10  23  43  68  99 128 180 223 279 339 402
#     4  11  24  43  68  98 137 172 224 279 345 402
#     4  10  24  40  62  96 126 172 222 262 324 394
#
# _framework density 21.127659999999999
#
# number of rings (size 3 to 8) (size 9 to 14) (size 15 to 20)
#    0.000    1.667    0.833    2.000    5.833    2.667 
#    6.000    0.000    0.000    0.000    0.000    0.000 
#    0.000    0.000    0.000    0.000    0.000    0.000 
#
# Total GULP energy -297528.430130 kJ/mol
# GULP energy per Si atom -12397.017922 kJ/mol
# Density = 2.107957 g / cm^3
# Si number density = 21.127660 Si / 1000 Ang^3
#
#
#
# Elastic Constant Matrix: (Units=GPa)
#
#
# Indices 1 2 3 4 5 6 
#
# 1 67.2480 18.9534 5.7350 0.0000 11.9039 0.0000
# 2 18.9534 70.9799 19.7350 0.0000 -9.2369 0.0000
# 3 5.7350 19.7350 97.8002 0.0000 11.8900 0.0000
# 4 0.0000 0.0000 0.0000 33.8355 0.0000 -1.2966
# 5 11.9039 -9.2369 11.8900 0.0000 39.8424 0.0000
# 6 0.0000 0.0000 0.0000 -1.2966 0.0000 41.8943
#
#
#
# Elastic Compliance Matrix: (Units=1/GPa)
#
#
# Indices 1 2 3 4 5 6 
#
# 1 0.017679 -0.005903 0.000999 0.000000 -0.006949 0.000000
# 2 -0.005903 0.017726 -0.004093 0.000000 0.007095 0.000000
# 3 0.000999 -0.004093 0.011564 0.000000 -0.004698 0.000000
# 4 0.000000 0.000000 0.000000 0.029590 0.000000 0.000916
# 5 -0.006949 0.007095 -0.004698 0.000000 0.030222 0.000000
# 6 0.000000 0.000000 0.000000 0.000916 0.000000 0.023898
#
#
# Mechanical properties :
#
#
# Convention : Reuss Voigt Hill
#
# Bulk Modulus (GPa) = 34.51299 36.09723 35.30511
# Shear Modulus (GPa) = 31.57967 35.88810 33.73388
#
# Velocity S-wave (km/s) = 3.87034 4.12592 4.00017
# Velocity P-wave (km/s) = 6.02857 6.31031 6.17104
#
# Compressibility (1/GPa) = 0.02897459
#
# Stress axis : x y z
#
# Youngs Moduli (GPa) = 56.56509 56.41431 86.47895
#
# Poissons Ratio (x) = 0.33300 -0.08641
# Poissons Ratio (y) = 0.33389 0.35398
# Poissons Ratio (z) = -0.05652 0.23092
#
# Static dielectric constant tensor:
#      x y z
#    x 3.541810 0.000000 -0.015840 
#    y 0.000000 3.911640 0.000000 
#    z -0.015840 0.000000 3.888830 
# 
# 
# High freq. dielectric constant tensor:
#      x y z
#    x 1.828000 0.000000 0.009630 
#    y 0.000000 1.834400 0.000000 
#    z 0.009630 0.000000 1.839590 
# 
# From -- ./inp_files/139068.got.cif
#   From: 2010.06.25/outbox.cif.g09.slc.cpg/sg15_70_cif.got.tgz:139068.got - 2010.06.28 07:06:18.
