data_PCOD8144289
_publ_section_title
;
Structure prediction by ZEFSAII (Michael W. Deem and Ramdas Pophale) SiO2 
 PCOD8144289
Probable space group: C 2/C
;
_chemical_formula_sum "Si O2"
_cell_formula_units_Z 36
_cell_length_a 21.761071
_cell_length_b 9.927612
_cell_length_c 16.280593
_cell_angle_alpha 90.000000
_cell_angle_beta 153.055872
_cell_angle_gamma 90.000000
_cell_volume 1593.712108
_symmetry_space_group_name_H-M "C 2/C"
_symmetry_group_IT_number 15
_symmetry_cell_setting 'monoclinic'
loop_
_space_group_symop_operation_xyz
x,y,z
-x,y,1/2-z
-x,-y,-z
x,-y,1/2+z
1/2+x,1/2+y,z
1/2-x,1/2+y,1/2-z
1/2-x,1/2-y,-z
1/2+x,1/2-y,1/2+z
loop_
_atom_site_type_symbol
_atom_site_label
_atom_site_fract_x
_atom_site_fract_y
_atom_site_fract_z
Si Si1 0.807082 0.262904 0.694727
Si Si2 0.500000 0.824478 0.250000
Si Si3 0.976555 0.099509 0.344684
Si Si4 0.730319 0.034305 0.486268
Si Si5 0.101929 0.144285 0.073753
O O1 0.720404 0.151339 0.542584
O O2 0.803742 0.404481 0.642921
O O3 0.731676 0.278202 0.692230
O O4 0.962082 0.223190 0.891381
O O5 0.535089 0.733338 0.371883
O O6 0.629253 0.914630 0.386162
O O7 0.877344 0.132451 0.303934
O O8 0.882939 0.024677 0.165209
O O9 0.094503 0.002591 0.520704
#
# Coordination Sequence:
#
# PCOD8144289 Si02
#       5
#     8   4   8   8   8
#     4  10  21  42  67  89 124 167 220 261 310 387
#     4  12  22  38  62  96 124 162 214 270 306 386
#     4  10  23  39  59  89 133 168 201 260 333 383
#     4  10  22  39  62  93 122 168 214 261 320 379
#     4  10  22  41  64  91 124 172 209 263 318 378
#
# _framework density 22.588771999999999
#
# number of rings (size 3 to 8) (size 9 to 14) (size 15 to 20)
#    0.000    1.778    0.000    3.333    3.111    6.222 
#    8.000    2.222    0.000    0.000    0.000    0.000 
#    0.000    0.000    0.000    0.000    0.000    0.000 
#
# Total GULP energy -223222.816794 kJ/mol
# GULP energy per Si atom -12401.267600 kJ/mol
# Density = 2.253736 g / cm^3
# Si number density = 22.588772 Si / 1000 Ang^3
#
#
#
# Elastic Constant Matrix: (Units=GPa)
#
#
# Indices 1 2 3 4 5 6 
#
# 1 75.7827 51.6940 16.1329 0.0000 15.2611 0.0000
# 2 51.6940 122.6850 25.1183 0.0000 6.3776 0.0000
# 3 16.1329 25.1183 48.5302 0.0000 2.2091 0.0000
# 4 0.0000 0.0000 0.0000 19.5755 0.0000 5.9719
# 5 15.2611 6.3776 2.2091 0.0000 33.0975 0.0000
# 6 0.0000 0.0000 0.0000 5.9719 0.0000 38.9603
#
#
#
# Elastic Compliance Matrix: (Units=1/GPa)
#
#
# Indices 1 2 3 4 5 6 
#
# 1 0.020597 -0.007765 -0.002471 0.000000 -0.007836 0.000000
# 2 -0.007765 0.012114 -0.003757 0.000000 0.001497 0.000000
# 3 -0.002471 -0.003757 0.023358 0.000000 0.000304 0.000000
# 4 0.000000 0.000000 0.000000 0.053590 0.000000 -0.008214
# 5 -0.007836 0.001497 0.000304 0.000000 0.033518 0.000000
# 6 0.000000 0.000000 0.000000 -0.008214 0.000000 0.026926
#
#
# Mechanical properties :
#
#
# Convention : Reuss Voigt Hill
#
# Bulk Modulus (GPa) = 35.60965 48.09871 41.85418
# Shear Modulus (GPa) = 24.10217 28.59685 26.34951
#
# Velocity S-wave (km/s) = 3.27004 3.56192 3.41909
# Velocity P-wave (km/s) = 5.48234 6.18512 5.84431
#
# Compressibility (1/GPa) = 0.02808227
#
# Stress axis : x y z
#
# Youngs Moduli (GPa) = 48.55171 82.54752 42.81224
#
# Poissons Ratio (x) = 0.64100 0.10579
# Poissons Ratio (y) = 0.37702 0.16084
# Poissons Ratio (z) = 0.11998 0.31012
#
# Static dielectric constant tensor:
#      x y z
#    x 4.141230 0.000000 -0.174080 
#    y 0.000000 4.250480 0.000000 
#    z -0.174080 0.000000 3.747630 
# 
# 
# High freq. dielectric constant tensor:
#      x y z
#    x 1.899390 0.000000 -0.003350 
#    y 0.000000 1.897740 0.000000 
#    z -0.003350 0.000000 1.868470 
# 
# From -- ./inp_files/102628.got.cif
#   From: 2010.06.25/outbox.cif.g09.slc.cpg/sg15_52_cif.got.tgz:102628.got - 2010.06.28 07:06:18.
