data_PCOD8144470
_publ_section_title
;
Structure prediction by ZEFSAII (Michael W. Deem and Ramdas Pophale) SiO2 
 PCOD8144470
Probable space group: C 2/C
;
_chemical_formula_sum "Si O2"
_cell_formula_units_Z 52
_cell_length_a 18.865912
_cell_length_b 16.168427
_cell_length_c 14.152826
_cell_angle_alpha 90.000000
_cell_angle_beta 145.177627
_cell_angle_gamma 90.000000
_cell_volume 2465.192498
_symmetry_space_group_name_H-M "C 2/C"
_symmetry_group_IT_number 15
_symmetry_cell_setting 'monoclinic'
loop_
_space_group_symop_operation_xyz
x,y,z
-x,y,1/2-z
-x,-y,-z
x,-y,1/2+z
1/2+x,1/2+y,z
1/2-x,1/2+y,1/2-z
1/2-x,1/2-y,-z
1/2+x,1/2-y,1/2+z
loop_
_atom_site_type_symbol
_atom_site_label
_atom_site_fract_x
_atom_site_fract_y
_atom_site_fract_z
Si Si1 0.793134 0.800858 0.139700
Si Si2 0.193283 0.978225 0.656639
Si Si3 0.352066 0.869921 0.350429
Si Si4 0.191510 0.224277 0.534948
Si Si5 0.936347 0.960933 0.300807
Si Si6 0.000000 0.900866 0.750000
Si Si7 0.625259 0.168175 0.122095
O O1 0.683012 0.846134 0.079042
O O2 0.885687 0.873655 0.205267
O O3 0.865092 0.740689 0.289864
O O4 0.750000 0.750000 0.000000
O O5 0.256694 0.891355 0.746301
O O6 0.087865 0.959084 0.463579
O O7 0.298431 0.045085 0.747322
O O8 0.120606 0.023285 0.660612
O O9 0.304062 0.798458 0.228079
O O10 0.499355 0.880264 0.506458
O O11 0.250000 0.250000 0.500000
O O12 0.119455 0.298703 0.508095
O O13 0.087969 0.153256 0.413310
O O14 0.903366 0.041061 0.201871
#
# Coordination Sequence:
#
# PCOD8144470 Si02
#       7
#     8   8   8   8   8   4   8
#     4  10  25  41  63  95 128 168 218 267 324 381
#     4  10  21  43  63  90 125 170 213 263 319 386
#     4  10  22  42  60  94 127 168 215 260 321 390
#     4  11  23  39  62  97 130 164 214 261 325 379
#     4  10  23  39  67  91 125 164 222 265 310 390
#     4  12  22  38  66  92 122 168 212 264 314 386
#     4  11  24  39  66  90 133 168 207 270 326 379
#
# _framework density 21.093688
#
# number of rings (size 3 to 8) (size 9 to 14) (size 15 to 20)
#    0.000    1.538    1.538    2.308    8.615    0.615 
#    0.000    0.000    0.000    3.692    0.000    0.000 
#    0.000    0.000    0.000    0.000    0.000    0.000 
#
# Total GULP energy -322217.841470 kJ/mol
# GULP energy per Si atom -12392.993903 kJ/mol
# Density = 2.104568 g / cm^3
# Si number density = 21.093688 Si / 1000 Ang^3
#
#
#
# Elastic Constant Matrix: (Units=GPa)
#
#
# Indices 1 2 3 4 5 6 
#
# 1 93.5592 41.2715 41.0262 0.0000 -5.8953 0.0000
# 2 41.2715 114.7318 27.0565 0.0000 13.5460 0.0000
# 3 41.0262 27.0565 67.6219 0.0000 17.8759 0.0000
# 4 0.0000 0.0000 0.0000 47.1071 0.0000 -0.1767
# 5 -5.8953 13.5460 17.8759 0.0000 32.3578 0.0000
# 6 0.0000 0.0000 0.0000 -0.1767 0.0000 27.5574
#
#
#
# Elastic Compliance Matrix: (Units=1/GPa)
#
#
# Indices 1 2 3 4 5 6 
#
# 1 0.019814 -0.005558 -0.013311 0.000000 0.013290 0.000000
# 2 -0.005558 0.011322 0.000424 0.000000 -0.005987 0.000000
# 3 -0.013311 0.000424 0.027381 0.000000 -0.017729 0.000000
# 4 0.000000 0.000000 0.000000 0.021229 0.000000 0.000136
# 5 0.013290 -0.005987 -0.017729 0.000000 0.045626 0.000000
# 6 0.000000 0.000000 0.000000 0.000136 0.000000 0.036289
#
#
# Mechanical properties :
#
#
# Convention : Reuss Voigt Hill
#
# Bulk Modulus (GPa) = 46.23515 54.95792 50.59653
# Shear Modulus (GPa) = 24.30025 32.50837 28.40431
#
# Velocity S-wave (km/s) = 3.39782 3.93000 3.67356
# Velocity P-wave (km/s) = 6.11229 6.83403 6.48321
#
# Compressibility (1/GPa) = 0.02162857
#
# Stress axis : x y z
#
# Youngs Moduli (GPa) = 50.46823 88.32376 36.52203
#
# Poissons Ratio (x) = 0.49088 0.48614
# Poissons Ratio (y) = 0.28049 -0.01550
# Poissons Ratio (z) = 0.67178 -0.03749
#
# Static dielectric constant tensor:
#      x y z
#    x 3.824220 0.000000 0.028180 
#    y 0.000000 3.936290 0.000000 
#    z 0.028180 0.000000 3.781590 
# 
# 
# High freq. dielectric constant tensor:
#      x y z
#    x 1.824470 0.000000 -0.000800 
#    y 0.000000 1.838590 0.000000 
#    z -0.000800 0.000000 1.818730 
# 
# From -- ./inp_files/162608.got.cif
#   From: 2010.06.25/outbox.cif.g09.slc.cpg/sg15_82_cif.got.tgz:162608.got - 2010.06.28 07:06:18.
