data_PCOD8144848
_publ_section_title
;
Structure prediction by ZEFSAII (Michael W. Deem and Ramdas Pophale) SiO2 
 PCOD8144848
Probable space group: C 2/C
;
_chemical_formula_sum "Si O2"
_cell_formula_units_Z 56
_cell_length_a 13.142046
_cell_length_b 16.945759
_cell_length_c 19.243863
_cell_angle_alpha 90.000000
_cell_angle_beta 146.153855
_cell_angle_gamma 90.000000
_cell_volume 2386.953354
_symmetry_space_group_name_H-M "C 2/C"
_symmetry_group_IT_number 15
_symmetry_cell_setting 'monoclinic'
loop_
_space_group_symop_operation_xyz
x,y,z
-x,y,1/2-z
-x,-y,-z
x,-y,1/2+z
1/2+x,1/2+y,z
1/2-x,1/2+y,1/2-z
1/2-x,1/2-y,-z
1/2+x,1/2-y,1/2+z
loop_
_atom_site_type_symbol
_atom_site_label
_atom_site_fract_x
_atom_site_fract_y
_atom_site_fract_z
Si Si1 0.093014 0.730213 0.028909
Si Si2 0.558670 0.107963 0.658149
Si Si3 0.469754 0.443877 0.383781
Si Si4 0.903212 0.110308 0.404528
Si Si5 0.500000 0.617261 0.750000
Si Si6 0.332151 0.809453 0.493428
Si Si7 0.990142 0.561722 0.325799
Si Si8 0.000000 0.281205 0.250000
O O1 0.314246 0.728971 0.151531
O O2 0.011255 0.649189 0.951507
O O3 0.009227 0.808808 0.943942
O O4 0.017349 0.726029 0.065035
O O5 0.774952 0.096630 0.788738
O O6 0.477713 0.163403 0.671553
O O7 0.478697 0.020498 0.617040
O O8 0.494342 0.536296 0.416569
O O9 0.599645 0.399513 0.512921
O O10 0.515559 0.435001 0.328587
O O11 0.694481 0.109945 0.260849
O O12 0.319406 0.672213 0.652070
O O13 0.250000 0.750000 0.500000
O O14 0.351920 0.886858 0.551709
O O15 0.000000 0.545599 0.250000
#
# Coordination Sequence:
#
# PCOD8144848 Si02
#       8
#     8   8   8   8   4   8   8   4
#     4  12  26  47  71 109 152 187 254 309 371 445
#     4  11  24  47  71 101 146 192 247 315 359 443
#     4  10  21  45  73 109 145 190 252 306 382 445
#     4  10  23  42  77 103 143 198 241 305 375 458
#     4  12  24  46  74 110 148 190 236 328 373 446
#     4  12  29  45  76 112 152 188 241 311 392 447
#     4  11  24  46  74 105 143 197 248 298 379 463
#     4  12  26  46  74 100 142 206 250 306 357 438
#
# _framework density 23.46087
#
# number of rings (size 3 to 8) (size 9 to 14) (size 15 to 20)
#    0.000    0.857    3.571    3.000    5.000    1.714 
#    0.000    1.429    0.000    0.000    0.000    0.000 
#    0.000    0.000    0.000    0.000    0.000    0.000 
#
# Total GULP energy -347023.639222 kJ/mol
# GULP energy per Si atom -12393.701401 kJ/mol
# Density = 2.340747 g / cm^3
# Si number density = 23.460870 Si / 1000 Ang^3
#
#
#
# Elastic Constant Matrix: (Units=GPa)
#
#
# Indices 1 2 3 4 5 6 
#
# 1 122.9602 42.9687 38.1871 0.0002 4.7922 0.0000
# 2 42.9687 144.3215 69.6385 0.0007 4.9082 0.0002
# 3 38.1871 69.6385 114.5308 0.0014 7.2874 0.0004
# 4 0.0002 0.0007 0.0014 38.4155 0.0004 -0.0629
# 5 4.7922 4.9082 7.2874 0.0004 36.8608 0.0001
# 6 0.0000 0.0002 0.0004 -0.0629 0.0001 37.2400
#
#
#
# Elastic Compliance Matrix: (Units=1/GPa)
#
#
# Indices 1 2 3 4 5 6 
#
# 1 0.009411 -0.001820 -0.001994 0.000000 -0.000587 0.000000
# 2 -0.001820 0.010158 -0.005569 0.000000 -0.000015 0.000000
# 3 -0.001994 -0.005569 0.012881 0.000000 -0.001546 0.000000
# 4 0.000000 0.000000 0.000000 0.026031 0.000000 0.000044
# 5 -0.000587 -0.000015 -0.001546 0.000000 0.027513 0.000000
# 6 0.000000 0.000000 0.000000 0.000044 0.000000 0.026853
#
#
# Mechanical properties :
#
#
# Convention : Reuss Voigt Hill
#
# Bulk Modulus (GPa) = 73.07569 75.93346 74.50458
# Shear Modulus (GPa) = 36.71783 37.90448 37.31115
#
# Velocity S-wave (km/s) = 3.96038 4.02387 3.99225
# Velocity P-wave (km/s) = 7.22000 7.35017 7.28537
#
# Compressibility (1/GPa) = 0.01368444
#
# Stress axis : x y z
#
# Youngs Moduli (GPa) = 106.26142 98.44035 77.63647
#
# Poissons Ratio (x) = 0.17914 0.15480
# Poissons Ratio (y) = 0.19337 0.43235
# Poissons Ratio (z) = 0.21188 0.54821
#
# Static dielectric constant tensor:
#      x y z
#    x 4.389330 0.000000 0.147360 
#    y 0.000000 4.293030 0.000000 
#    z 0.147360 0.000000 4.254050 
# 
# 
# High freq. dielectric constant tensor:
#      x y z
#    x 1.928570 0.000000 0.007850 
#    y 0.000000 1.927850 0.000000 
#    z 0.007850 0.000000 1.933080 
# 
# From -- ./inp_files/245198.got.cif
#   From: 2010.06.25/outbox.cif.g09.slc.cpg/sg15_123_cif.got.tgz:245198.got - 2010.06.28 07:06:18.
