data_PCOD8144740
_publ_section_title
;
Structure prediction by ZEFSAII (Michael W. Deem and Ramdas Pophale) SiO2 
 PCOD8144740
Probable space group: C 2/C
;
_chemical_formula_sum "Si O2"
_cell_formula_units_Z 52
_cell_length_a 15.764188
_cell_length_b 10.769248
_cell_length_c 14.826245
_cell_angle_alpha 90.000000
_cell_angle_beta 75.928171
_cell_angle_gamma 90.000000
_cell_volume 2441.496828
_symmetry_space_group_name_H-M "C 2/C"
_symmetry_group_IT_number 15
_symmetry_cell_setting 'monoclinic'
loop_
_space_group_symop_operation_xyz
x,y,z
-x,y,1/2-z
-x,-y,-z
x,-y,1/2+z
1/2+x,1/2+y,z
1/2-x,1/2+y,1/2-z
1/2-x,1/2-y,-z
1/2+x,1/2-y,1/2+z
loop_
_atom_site_type_symbol
_atom_site_label
_atom_site_fract_x
_atom_site_fract_y
_atom_site_fract_z
Si Si1 0.591061 0.331991 0.770178
Si Si2 0.000000 0.362664 0.750000
Si Si3 0.227566 0.606953 0.524254
Si Si4 0.863805 0.437912 0.271783
Si Si5 0.730027 0.497490 0.662544
Si Si6 0.648326 0.740108 0.612376
Si Si7 0.818921 0.888957 0.574509
O O1 0.500000 0.376867 0.750000
O O2 0.593511 0.184589 0.781664
O O3 0.668572 0.376593 0.684756
O O4 0.610678 0.390970 0.863272
O O5 0.072452 0.451769 0.774464
O O6 0.049345 0.279237 0.662924
O O7 0.250000 0.750000 0.500000
O O8 0.150009 0.588342 0.617368
O O9 0.202261 0.537223 0.436153
O O10 0.313181 0.530008 0.537668
O O11 0.773005 0.470960 0.247142
O O12 0.670203 0.615252 0.658957
O O13 0.718378 0.846670 0.625208
O O14 0.649179 0.714435 0.505376
#
# Coordination Sequence:
#
# PCOD8144740 Si02
#       7
#     8   4   8   8   8   8   8
#     4  12  24  42  65  99 142 179 223 288 349 405
#     4  12  24  42  66 104 134 176 232 298 338 402
#     4  11  22  41  71 102 131 177 238 280 337 423
#     4  12  24  43  67  99 138 178 229 285 345 406
#     4  11  24  43  69  96 131 189 230 274 344 422
#     4  10  22  41  71  95 132 179 239 281 346 412
#     4  10  21  44  68  95 137 188 227 282 348 429
#
# _framework density 21.298410000000001
#
# number of rings (size 3 to 8) (size 9 to 14) (size 15 to 20)
#    0.000    0.923    6.923    0.000    1.077    0.000 
#    2.769    6.154    0.000    0.000    0.000    0.000 
#    0.000    0.000    0.000    0.000    0.000    0.000 
#
# Total GULP energy -322236.305832 kJ/mol
# GULP energy per Si atom -12393.704070 kJ/mol
# Density = 2.124993 g / cm^3
# Si number density = 21.298410 Si / 1000 Ang^3
#
#
#
# Elastic Constant Matrix: (Units=GPa)
#
#
# Indices 1 2 3 4 5 6 
#
# 1 109.6882 31.5880 58.3341 0.0000 4.3102 0.0000
# 2 31.5880 123.7647 38.7695 0.0000 0.2437 0.0000
# 3 58.3341 38.7695 115.7247 0.0000 3.1777 0.0000
# 4 0.0000 0.0000 0.0000 27.8383 0.0000 -1.4669
# 5 4.3102 0.2437 3.1777 0.0000 36.2255 0.0000
# 6 0.0000 0.0000 0.0000 -1.4669 0.0000 19.9368
#
#
#
# Elastic Compliance Matrix: (Units=1/GPa)
#
#
# Indices 1 2 3 4 5 6 
#
# 1 0.012697 -0.001388 -0.005908 0.000000 -0.000983 0.000000
# 2 -0.001388 0.009180 -0.002385 0.000000 0.000313 0.000000
# 3 -0.005908 -0.002385 0.012429 0.000000 -0.000371 0.000000
# 4 0.000000 0.000000 0.000000 0.036062 0.000000 0.002653
# 5 -0.000983 0.000313 -0.000371 0.000000 0.027752 0.000000
# 6 0.000000 0.000000 0.000000 0.002653 0.000000 0.050354
#
#
# Mechanical properties :
#
#
# Convention : Reuss Voigt Hill
#
# Bulk Modulus (GPa) = 66.91437 67.39564 67.15500
# Shear Modulus (GPa) = 28.93232 31.49920 30.21576
#
# Velocity S-wave (km/s) = 3.68968 3.84988 3.77063
# Velocity P-wave (km/s) = 7.04538 7.17456 7.11026
#
# Compressibility (1/GPa) = 0.01494447
#
# Stress axis : x y z
#
# Youngs Moduli (GPa) = 78.75703 108.92738 80.45997
#
# Poissons Ratio (x) = 0.15118 0.47539
# Poissons Ratio (y) = 0.10931 0.19186
# Poissons Ratio (z) = 0.46533 0.25974
#
# Static dielectric constant tensor:
#      x y z
#    x 3.528640 0.000000 0.001960 
#    y 0.000000 4.121970 0.000000 
#    z 0.001960 0.000000 3.952920 
# 
# 
# High freq. dielectric constant tensor:
#      x y z
#    x 1.792710 0.000000 0.001550 
#    y 0.000000 1.859720 0.000000 
#    z 0.001550 0.000000 1.841050 
# 
# From -- ./inp_files/203530.got.cif
#   From: 2010.06.25/outbox.cif.g09.slc.cpg/sg15_102_cif.got.tgz:203530.got - 2010.06.28 07:06:18.
