data_PCOD8144608
_publ_section_title
;
Structure prediction by ZEFSAII (Michael W. Deem and Ramdas Pophale) SiO2 
 PCOD8144608
Probable space group: C 2/C
;
_chemical_formula_sum "Si O2"
_cell_formula_units_Z 60
_cell_length_a 20.945360
_cell_length_b 14.756430
_cell_length_c 11.181165
_cell_angle_alpha 90.000000
_cell_angle_beta 128.950099
_cell_angle_gamma 90.000000
_cell_volume 2687.601066
_symmetry_space_group_name_H-M "C 2/C"
_symmetry_group_IT_number 15
_symmetry_cell_setting 'monoclinic'
loop_
_space_group_symop_operation_xyz
x,y,z
-x,y,1/2-z
-x,-y,-z
x,-y,1/2+z
1/2+x,1/2+y,z
1/2-x,1/2+y,1/2-z
1/2-x,1/2-y,-z
1/2+x,1/2-y,1/2+z
loop_
_atom_site_type_symbol
_atom_site_label
_atom_site_fract_x
_atom_site_fract_y
_atom_site_fract_z
Si Si1 0.338533 0.255925 0.962231
Si Si2 0.852466 0.330068 0.965700
Si Si3 0.223140 0.481555 0.489673
Si Si4 0.500000 0.737764 0.250000
Si Si5 0.241126 0.151977 0.671765
Si Si6 0.966253 0.860018 0.962308
Si Si7 0.171033 0.655896 0.317339
Si Si8 0.625040 0.541346 0.692502
O O1 0.306644 0.165001 0.856387
O O2 0.420347 0.287731 0.991336
O O3 0.265103 0.329301 0.882696
O O4 0.359729 0.230057 0.123793
O O5 0.815668 0.431535 0.940771
O O6 0.784650 0.251793 0.901542
O O7 0.885601 0.331470 0.866931
O O8 0.924755 0.305780 0.141698
O O9 0.222651 0.397840 0.398665
O O10 0.162720 0.556639 0.364416
O O11 0.311112 0.528802 0.622422
O O12 0.513737 0.676159 0.147952
O O13 0.166887 0.089885 0.629367
O O14 0.903480 0.942395 0.877581
O O15 0.046959 0.894360 0.129744
#
# Coordination Sequence:
#
# PCOD8144608 Si02
#       8
#     8   8   8   4   8   8   8   8
#     4  10  21  43  69  95 137 191 228 278 348 415
#     4  11  24  42  66  96 133 185 232 288 343 412
#     4  12  22  40  71  99 133 181 235 288 341 408
#     4  12  24  48  66  98 146 186 232 288 346 422
#     4  11  20  40  66 100 135 180 237 282 335 420
#     4  11  24  42  66 103 146 185 225 283 362 409
#     4  10  23  41  66  98 132 172 243 286 334 414
#     4  11  23  40  62 108 143 176 225 287 347 411
#
# _framework density 22.324739999999998
#
# number of rings (size 3 to 8) (size 9 to 14) (size 15 to 20)
#    0.000    1.067    2.667    5.200    0.000    0.000 
#    0.000    4.000    0.000    0.000    0.000    0.000 
#    0.000    0.000    0.000    0.000    0.000    0.000 
#
# Total GULP energy -371886.853592 kJ/mol
# GULP energy per Si atom -12396.228453 kJ/mol
# Density = 2.227393 g / cm^3
# Si number density = 22.324740 Si / 1000 Ang^3
#
#
#
# Elastic Constant Matrix: (Units=GPa)
#
#
# Indices 1 2 3 4 5 6 
#
# 1 95.1096 35.5897 22.5796 0.0000 -12.9551 0.0000
# 2 35.5897 104.3885 34.6301 0.0000 -4.3106 0.0000
# 3 22.5796 34.6301 100.8608 0.0000 -8.8010 0.0000
# 4 0.0000 0.0000 0.0000 37.4466 0.0000 -3.7916
# 5 -12.9551 -4.3106 -8.8010 0.0000 30.6138 0.0000
# 6 0.0000 0.0000 0.0000 -3.7916 0.0000 39.6904
#
#
#
# Elastic Compliance Matrix: (Units=1/GPa)
#
#
# Indices 1 2 3 4 5 6 
#
# 1 0.012835 -0.003799 -0.001171 0.000000 0.004560 0.000000
# 2 -0.003799 0.011942 -0.003327 0.000000 -0.000883 0.000000
# 3 -0.001171 -0.003327 0.011524 0.000000 0.002349 0.000000
# 4 0.000000 0.000000 0.000000 0.026966 0.000000 0.002576
# 5 0.004560 -0.000883 0.002349 0.000000 0.035146 0.000000
# 6 0.000000 0.000000 0.000000 0.002576 0.000000 0.025441
#
#
# Mechanical properties :
#
#
# Convention : Reuss Voigt Hill
#
# Bulk Modulus (GPa) = 50.74297 53.99528 52.36913
# Shear Modulus (GPa) = 34.00990 35.38747 34.69868
#
# Velocity S-wave (km/s) = 3.90733 3.98568 3.94670
# Velocity P-wave (km/s) = 6.56774 6.73941 6.65413
#
# Compressibility (1/GPa) = 0.01970716
#
# Stress axis : x y z
#
# Youngs Moduli (GPa) = 77.91253 83.73798 86.77532
#
# Poissons Ratio (x) = 0.31813 0.10162
# Poissons Ratio (y) = 0.29600 0.28868
# Poissons Ratio (z) = 0.09124 0.27858
#
# Static dielectric constant tensor:
#      x y z
#    x 3.778220 0.000000 -0.137400 
#    y 0.000000 4.043030 0.000000 
#    z -0.137400 0.000000 4.143270 
# 
# 
# High freq. dielectric constant tensor:
#      x y z
#    x 1.855730 0.000000 -0.020910 
#    y 0.000000 1.887430 0.000000 
#    z -0.020910 0.000000 1.879870 
# 
# From -- ./inp_files/118800.got.cif
#   From: 2010.06.25/outbox.cif.g09.slc.cpg/sg15_60_cif.got.tgz:118800.got - 2010.06.28 07:06:18.
