data_PCOD8144469
_publ_section_title
;
Structure prediction by ZEFSAII (Michael W. Deem and Ramdas Pophale) SiO2 
 PCOD8144469
Probable space group: C 2/C
;
_chemical_formula_sum "Si O2"
_cell_formula_units_Z 44
_cell_length_a 15.207369
_cell_length_b 13.977368
_cell_length_c 11.727127
_cell_angle_alpha 90.000000
_cell_angle_beta 60.866422
_cell_angle_gamma 90.000000
_cell_volume 2177.346695
_symmetry_space_group_name_H-M "C 2/C"
_symmetry_group_IT_number 15
_symmetry_cell_setting 'monoclinic'
loop_
_space_group_symop_operation_xyz
x,y,z
-x,y,1/2-z
-x,-y,-z
x,-y,1/2+z
1/2+x,1/2+y,z
1/2-x,1/2+y,1/2-z
1/2-x,1/2-y,-z
1/2+x,1/2-y,1/2+z
loop_
_atom_site_type_symbol
_atom_site_label
_atom_site_fract_x
_atom_site_fract_y
_atom_site_fract_z
Si Si1 0.467378 0.617250 0.399351
Si Si2 0.000000 0.443628 0.250000
Si Si3 0.140020 0.602379 0.238721
Si Si4 0.520710 0.179695 0.513470
Si Si5 0.369188 0.250536 0.432336
Si Si6 0.366928 0.440064 0.538013
O O1 0.500000 0.637864 0.250000
O O2 0.435891 0.716097 0.480347
O O3 0.372725 0.544023 0.473440
O O4 0.561425 0.564399 0.397922
O O5 0.902589 0.510245 0.299694
O O6 0.001561 0.378369 0.138857
O O7 0.096360 0.698571 0.205251
O O8 0.258938 0.588565 0.156671
O O9 0.102472 0.617085 0.391613
O O10 0.415280 0.191700 0.511197
O O11 0.250000 0.250000 0.500000
O O12 0.402654 0.361310 0.421150
#
# Coordination Sequence:
#
# PCOD8144469 Si02
#       6
#     8   4   8   8   8   8
#     4  10  21  43  63  89 129 166 211 268 327 387
#     4  12  24  40  62  90 134 172 210 276 324 392
#     4  11  22  40  63  96 124 171 219 263 326 389
#     4  11  22  41  63  91 131 171 214 267 330 381
#     4   9  19  39  65  91 125 164 217 262 311 392
#     4   9  22  40  64  95 121 165 215 264 325 388
#
# _framework density 20.208082000000001
#
# number of rings (size 3 to 8) (size 9 to 14) (size 15 to 20)
#    0.000    1.818    2.727    0.545    0.000    5.818 
#   13.091    1.818    0.000    0.000    0.000    0.000 
#    0.000    0.000    0.000    0.000    0.000    0.000 
#
# Total GULP energy -272624.700680 kJ/mol
# GULP energy per Si atom -12392.031849 kJ/mol
# Density = 2.016209 g / cm^3
# Si number density = 20.208082 Si / 1000 Ang^3
#
#
#
# Elastic Constant Matrix: (Units=GPa)
#
#
# Indices 1 2 3 4 5 6 
#
# 1 73.6191 42.4877 45.0269 0.0000 -2.1226 0.0000
# 2 42.4877 105.5476 27.8825 0.0000 -1.3452 0.0000
# 3 45.0269 27.8825 86.9958 0.0000 5.4940 0.0000
# 4 0.0000 0.0000 0.0000 40.9874 0.0000 0.9181
# 5 -2.1226 -1.3452 5.4940 0.0000 27.6211 0.0000
# 6 0.0000 0.0000 0.0000 0.9181 0.0000 23.7798
#
#
#
# Elastic Compliance Matrix: (Units=1/GPa)
#
#
# Indices 1 2 3 4 5 6 
#
# 1 0.024062 -0.006872 -0.010479 0.000000 0.003599 0.000000
# 2 -0.006872 0.012351 -0.000412 0.000000 0.000155 0.000000
# 3 -0.010479 -0.000412 0.017320 0.000000 -0.004270 0.000000
# 4 0.000000 0.000000 0.000000 0.024419 0.000000 -0.000943
# 5 0.003599 0.000155 -0.004270 0.000000 0.037338 0.000000
# 6 0.000000 0.000000 0.000000 -0.000943 0.000000 0.042089
#
#
# Mechanical properties :
#
#
# Convention : Reuss Voigt Hill
#
# Bulk Modulus (GPa) = 54.91900 55.21740 55.06820
# Shear Modulus (GPa) = 25.10368 28.52868 26.81618
#
# Velocity S-wave (km/s) = 3.52839 3.76140 3.64676
# Velocity P-wave (km/s) = 6.62081 6.80058 6.71130
#
# Compressibility (1/GPa) = 0.01820863
#
# Stress axis : x y z
#
# Youngs Moduli (GPa) = 41.55872 80.96200 57.73674
#
# Poissons Ratio (x) = 0.55638 0.60501
# Poissons Ratio (y) = 0.28560 0.02377
# Poissons Ratio (z) = 0.43549 0.03333
#
# Static dielectric constant tensor:
#      x y z
#    x 3.714170 0.000000 0.192060 
#    y 0.000000 4.128980 0.000000 
#    z 0.192060 0.000000 3.617310 
# 
# 
# High freq. dielectric constant tensor:
#      x y z
#    x 1.787010 0.000000 0.010350 
#    y 0.000000 1.805010 0.000000 
#    z 0.010350 0.000000 1.777320 
# 
# From -- ./inp_files/104070.got.cif
#   From: 2010.06.25/outbox.cif.g09.slc.cpg/sg15_53_cif.got.tgz:104070.got - 2010.06.28 07:06:18.
