data_PCOD8145909
_publ_section_title
;
Structure prediction by ZEFSAII (Michael W. Deem and Ramdas Pophale) SiO2 
 PCOD8145909
Probable space group: C 2/C
;
_chemical_formula_sum "Si O2"
_cell_formula_units_Z 60
_cell_length_a 23.852498
_cell_length_b 14.957447
_cell_length_c 17.224640
_cell_angle_alpha 90.000000
_cell_angle_beta 154.009701
_cell_angle_gamma 90.000000
_cell_volume 2692.977098
_symmetry_space_group_name_H-M "C 2/C"
_symmetry_group_IT_number 15
_symmetry_cell_setting 'monoclinic'
loop_
_space_group_symop_operation_xyz
x,y,z
-x,y,1/2-z
-x,-y,-z
x,-y,1/2+z
1/2+x,1/2+y,z
1/2-x,1/2+y,1/2-z
1/2-x,1/2-y,-z
1/2+x,1/2-y,1/2+z
loop_
_atom_site_type_symbol
_atom_site_label
_atom_site_fract_x
_atom_site_fract_y
_atom_site_fract_z
Si Si1 0.284223 0.931606 0.342028
Si Si2 0.276265 0.944458 0.513331
Si Si3 0.892806 0.794389 0.180417
Si Si4 0.872378 0.374064 0.193606
Si Si5 0.450992 0.148333 0.352333
Si Si6 0.193922 0.812397 0.105705
Si Si7 0.146941 0.620038 0.103145
Si Si8 0.500000 0.737405 0.250000
O O1 0.291303 0.918328 0.442195
O O2 0.411618 0.893046 0.460380
O O3 0.177932 0.873406 0.163265
O O4 0.260148 0.035707 0.293381
O O5 0.136756 0.901224 0.360471
O O6 0.391758 0.899438 0.703397
O O7 0.285339 0.049497 0.544486
O O8 0.955227 0.755155 0.337875
O O9 0.000000 0.770055 0.250000
O O10 0.750000 0.750000 0.000000
O O11 0.811116 0.340537 0.196993
O O12 0.886091 0.296625 0.146212
O O13 0.015192 0.405506 0.394628
O O14 0.365191 0.132359 0.320311
O O15 0.211751 0.708444 0.149631
O O16 0.062297 0.824355 0.893750
#
# Coordination Sequence:
#
# PCOD8145909 Si02
#       8
#     8   8   8   8   8   8   8   4
#     4  12  22  39  68 105 135 180 229 295 357 422
#     4  11  22  37  65  97 139 179 227 285 348 424
#     4  10  22  40  62  99 141 189 234 284 349 425
#     4  11  21  43  68  99 127 179 235 295 348 415
#     4  11  20  37  64  98 139 179 232 283 349 421
#     4  11  24  42  68  97 135 172 227 295 355 413
#     4  11  23  40  67 105 132 176 240 300 344 421
#     4  10  24  42  70  94 126 174 242 292 350 416
#
# _framework density 22.280173999999999
#
# number of rings (size 3 to 8) (size 9 to 14) (size 15 to 20)
#    0.000    1.067    2.667    6.000    0.000    1.067 
#    1.200    0.000    0.000    4.000    0.000    0.000 
#    0.000    0.000    0.000    0.000    0.000    0.000 
#
# Total GULP energy -371709.906169 kJ/mol
# GULP energy per Si atom -12390.330206 kJ/mol
# Density = 2.222946 g / cm^3
# Si number density = 22.280174 Si / 1000 Ang^3
#
#
#
# Elastic Constant Matrix: (Units=GPa)
#
#
# Indices 1 2 3 4 5 6 
#
# 1 116.2191 25.4866 39.9898 0.0000 -18.2127 0.0000
# 2 25.4866 110.4052 56.3480 0.0000 -11.7655 0.0000
# 3 39.9898 56.3480 74.2745 0.0001 -22.3290 0.0001
# 4 0.0000 0.0000 0.0001 38.7677 0.0001 0.0616
# 5 -18.2127 -11.7655 -22.3290 0.0001 45.3172 0.0001
# 6 0.0000 0.0000 0.0001 0.0616 0.0001 27.1271
#
#
#
# Elastic Compliance Matrix: (Units=1/GPa)
#
#
# Indices 1 2 3 4 5 6 
#
# 1 0.010700 0.000643 -0.005759 0.000000 0.001630 0.000000
# 2 0.000643 0.014972 -0.012277 0.000000 -0.001904 0.000000
# 3 -0.005759 -0.012277 0.028436 0.000000 0.008509 0.000000
# 4 0.000000 0.000000 0.000000 0.025795 0.000000 -0.000059
# 5 0.001630 -0.001904 0.008509 0.000000 0.026420 0.000000
# 6 0.000000 0.000000 0.000000 -0.000059 0.000000 0.036864
#
#
# Mechanical properties :
#
#
# Convention : Reuss Voigt Hill
#
# Bulk Modulus (GPa) = 51.75257 60.50528 56.12893
# Shear Modulus (GPa) = 27.11294 34.18070 30.64682
#
# Velocity S-wave (km/s) = 3.49221 3.92105 3.71282
# Velocity P-wave (km/s) = 6.28802 6.90760 6.60508
#
# Compressibility (1/GPa) = 0.01932271
#
# Stress axis : x y z
#
# Youngs Moduli (GPa) = 93.45412 66.79100 35.16671
#
# Poissons Ratio (x) = -0.04292 0.20252
# Poissons Ratio (y) = -0.06006 0.43173
# Poissons Ratio (z) = 0.53818 0.81998
#
# Static dielectric constant tensor:
#      x y z
#    x 3.991330 0.000000 -0.218540 
#    y 0.000000 4.464220 0.000000 
#    z -0.218540 0.000000 4.042150 
# 
# 
# High freq. dielectric constant tensor:
#      x y z
#    x 1.882930 0.000000 -0.025670 
#    y 0.000000 1.876770 0.000000 
#    z -0.025670 0.000000 1.855090 
# 
# From -- ./inp_files/219607.got.cif
#   From: 2010.06.25/outbox.cif.g09.slc.cpg/sg15_110_cif.got.tgz:219607.got - 2010.06.28 07:06:18.
