data_PCOD8145203
_publ_section_title
;
Structure prediction by ZEFSAII (Michael W. Deem and Ramdas Pophale) SiO2 
 PCOD8145203
Probable space group: C 2/C
;
_chemical_formula_sum "Si O2"
_cell_formula_units_Z 44
_cell_length_a 23.673689
_cell_length_b 8.785225
_cell_length_c 9.754915
_cell_angle_alpha 90.000000
_cell_angle_beta 65.141687
_cell_angle_gamma 90.000000
_cell_volume 1840.844958
_symmetry_space_group_name_H-M "C 2/C"
_symmetry_group_IT_number 15
_symmetry_cell_setting 'monoclinic'
loop_
_space_group_symop_operation_xyz
x,y,z
-x,y,1/2-z
-x,-y,-z
x,-y,1/2+z
1/2+x,1/2+y,z
1/2-x,1/2+y,1/2-z
1/2-x,1/2-y,-z
1/2+x,1/2-y,1/2+z
loop_
_atom_site_type_symbol
_atom_site_label
_atom_site_fract_x
_atom_site_fract_y
_atom_site_fract_z
Si Si1 0.095701 0.542786 0.677870
Si Si2 0.000000 0.964235 0.750000
Si Si3 0.491532 0.193812 0.942480
Si Si4 0.232542 0.509756 0.095610
Si Si5 0.919001 0.216320 0.763376
Si Si6 0.290915 0.341632 0.277295
O O1 0.071109 0.640774 0.575170
O O2 0.166284 0.579264 0.649966
O O3 0.100072 0.363862 0.628534
O O4 0.048232 0.574605 0.856114
O O5 0.988659 0.860719 0.629440
O O6 0.059729 0.074395 0.666158
O O7 0.477383 0.217639 0.115675
O O8 0.275652 0.395284 0.138855
O O9 0.231517 0.668967 0.178245
O O10 0.259900 0.541498 0.917181
O O11 0.865078 0.156365 0.719209
#
# Coordination Sequence:
#
# PCOD8145203 Si02
#       6
#     8   4   8   8   8   8
#     4   9  21  39  64  89 122 162 218 266 312 387
#     4  10  22  38  58  92 126 162 202 266 324 384
#     4  10  22  40  62  94 122 163 214 264 327 382
#     4  10  23  45  63  98 128 172 220 266 326 383
#     4  11  22  40  63  92 127 166 209 268 327 384
#     4  10  25  42  67  95 131 172 218 269 320 394
#
# _framework density 23.902066999999999
#
# number of rings (size 3 to 8) (size 9 to 14) (size 15 to 20)
#    0.000    2.182    0.000    2.182    7.636    3.636 
#    6.545    0.000    0.000    0.000    0.000    0.000 
#    0.000    0.000    0.000    0.000    0.000    0.000 
#
# Total GULP energy -272649.859367 kJ/mol
# GULP energy per Si atom -12393.175426 kJ/mol
# Density = 2.384766 g / cm^3
# Si number density = 23.902067 Si / 1000 Ang^3
#
#
#
# Elastic Constant Matrix: (Units=GPa)
#
#
# Indices 1 2 3 4 5 6 
#
# 1 106.9962 45.9896 -8.8181 0.0000 -11.8026 0.0000
# 2 45.9896 112.9939 -0.2411 0.0000 2.1418 0.0000
# 3 -8.8181 -0.2411 45.1043 0.0000 -5.3834 0.0000
# 4 0.0000 0.0000 0.0000 28.5187 0.0000 3.4828
# 5 -11.8026 2.1418 -5.3834 0.0000 27.6509 0.0000
# 6 0.0000 0.0000 0.0000 3.4828 0.0000 45.5766
#
#
#
# Elastic Compliance Matrix: (Units=1/GPa)
#
#
# Indices 1 2 3 4 5 6 
#
# 1 0.012560 -0.005226 0.003190 0.000000 0.006387 0.000000
# 2 -0.005226 0.011038 -0.001363 0.000000 -0.003351 0.000000
# 3 0.003190 -0.001363 0.023509 0.000000 0.006044 0.000000
# 4 0.000000 0.000000 0.000000 0.035395 0.000000 -0.002705
# 5 0.006387 -0.003351 0.006044 0.000000 0.040328 0.000000
# 6 0.000000 0.000000 0.000000 -0.002705 0.000000 0.022148
#
#
# Mechanical properties :
#
#
# Convention : Reuss Voigt Hill
#
# Bulk Modulus (GPa) = 24.80886 37.66168 31.23527
# Shear Modulus (GPa) = 30.26430 35.56017 32.91224
#
# Velocity S-wave (km/s) = 3.56220 3.86131 3.71477
# Velocity P-wave (km/s) = 5.22694 5.97248 5.61211
#
# Compressibility (1/GPa) = 0.04030818
#
# Stress axis : x y z
#
# Youngs Moduli (GPa) = 79.61813 90.59780 42.53762
#
# Poissons Ratio (x) = 0.47349 -0.13569
# Poissons Ratio (y) = 0.41611 0.05797
# Poissons Ratio (z) = -0.25398 0.12346
#
# Static dielectric constant tensor:
#      x y z
#    x 4.245840 0.000000 -0.174870 
#    y 0.000000 4.420920 0.000000 
#    z -0.174870 0.000000 3.964120 
# 
# 
# High freq. dielectric constant tensor:
#      x y z
#    x 1.945960 0.000000 0.001620 
#    y 0.000000 1.963280 0.000000 
#    z 0.001620 0.000000 1.916570 
# 
# From -- ./inp_files/116234.got.cif
#   From: 2010.06.25/outbox.cif.g09.slc.cpg/sg15_59_cif.got.tgz:116234.got - 2010.06.28 07:06:18.
