data_PCOD8145338
_publ_section_title
;
Structure prediction by ZEFSAII (Michael W. Deem and Ramdas Pophale) SiO2 
 PCOD8145338
Probable space group: C 2/C
;
_chemical_formula_sum "Si O2"
_cell_formula_units_Z 36
_cell_length_a 27.520323
_cell_length_b 5.017087
_cell_length_c 16.529181
_cell_angle_alpha 90.000000
_cell_angle_beta 131.942258
_cell_angle_gamma 90.000000
_cell_volume 1697.554160
_symmetry_space_group_name_H-M "C 2/C"
_symmetry_group_IT_number 15
_symmetry_cell_setting 'monoclinic'
loop_
_space_group_symop_operation_xyz
x,y,z
-x,y,1/2-z
-x,-y,-z
x,-y,1/2+z
1/2+x,1/2+y,z
1/2-x,1/2+y,1/2-z
1/2-x,1/2-y,-z
1/2+x,1/2-y,1/2+z
loop_
_atom_site_type_symbol
_atom_site_label
_atom_site_fract_x
_atom_site_fract_y
_atom_site_fract_z
Si Si1 0.500000 0.351102 0.250000
Si Si2 0.117694 0.407759 0.792981
Si Si3 0.601638 0.496096 0.989542
Si Si4 0.182141 0.903966 0.934435
Si Si5 0.576720 0.001421 0.070029
O O1 0.452862 0.175762 0.253297
O O2 0.457752 0.524127 0.140555
O O3 0.129211 0.684995 0.850932
O O4 0.116331 0.478730 0.697236
O O5 0.172696 0.176195 0.870830
O O6 0.669281 0.487661 0.013607
O O7 0.600147 0.752838 0.044138
O O8 0.597941 0.252818 0.043977
O O9 0.250000 0.750000 0.000000
O O10 0.500000 0.000000 0.000000
#
# Coordination Sequence:
#
# PCOD8145338 Si02
#       5
#     4   8   8   8   8
#     4  10  22  38  64 100 126 170 212 266 332 398
#     4  11  24  40  68  96 134 170 220 273 336 394
#     4  11  24  39  65  94 135 169 217 267 334 396
#     4  11  25  46  68  92 127 181 236 270 311 386
#     4  12  24  39  62 103 140 165 203 271 352 407
#
# _framework density 21.206980999999999
#
# number of rings (size 3 to 8) (size 9 to 14) (size 15 to 20)
#    0.000    0.889    2.222    5.333    6.222    1.778 
#    0.000    4.444    0.000    0.000    0.000    0.000 
#    0.000    0.000    0.000    0.000    0.000    0.000 
#
# Total GULP energy -223129.657053 kJ/mol
# GULP energy per Si atom -12396.092058 kJ/mol
# Density = 2.115871 g / cm^3
# Si number density = 21.206981 Si / 1000 Ang^3
#
#
#
# Elastic Constant Matrix: (Units=GPa)
#
#
# Indices 1 2 3 4 5 6 
#
# 1 131.4375 45.0620 67.1309 -0.0024 -28.8630 -0.0039
# 2 45.0620 153.3033 49.2120 -0.0039 -30.1236 -0.0043
# 3 67.1309 49.2120 92.5709 0.0004 -26.2441 0.0000
# 4 -0.0024 -0.0039 0.0004 47.8717 -0.0018 -11.9138
# 5 -28.8630 -30.1236 -26.2441 -0.0018 27.3667 -0.0027
# 6 -0.0039 -0.0043 0.0000 -11.9138 -0.0027 39.8417
#
#
#
# Elastic Compliance Matrix: (Units=1/GPa)
#
#
# Indices 1 2 3 4 5 6 
#
# 1 0.012839 -0.000157 -0.007467 0.000001 0.006207 0.000002
# 2 -0.000157 0.008773 -0.002553 0.000001 0.007042 0.000002
# 3 -0.007467 -0.002553 0.019977 -0.000001 0.008471 -0.000001
# 4 0.000001 0.000001 -0.000001 0.022569 0.000005 0.006749
# 5 0.006207 0.007042 0.008471 0.000005 0.058962 0.000007
# 6 0.000002 0.000002 -0.000001 0.006749 0.000007 0.027117
#
#
# Mechanical properties :
#
#
# Convention : Reuss Voigt Hill
#
# Bulk Modulus (GPa) = 47.09713 77.79129 62.44421
# Shear Modulus (GPa) = 28.14212 37.40979 32.77596
#
# Velocity S-wave (km/s) = 3.64678 4.20459 3.93558
# Velocity P-wave (km/s) = 6.32365 7.76743 7.08243
#
# Compressibility (1/GPa) = 0.02123272
#
# Stress axis : x y z
#
# Youngs Moduli (GPa) = 77.88766 113.99173 50.05838
#
# Poissons Ratio (x) = 0.01791 0.37381
# Poissons Ratio (y) = 0.01224 0.12781
# Poissons Ratio (z) = 0.58162 0.29104
#
# Static dielectric constant tensor:
#      x y z
#    x 3.919870 -0.000010 -0.292880 
#    y -0.000010 3.913390 0.000010 
#    z -0.292880 0.000010 3.984370 
# 
# 
# High freq. dielectric constant tensor:
#      x y z
#    x 1.833160 0.000000 -0.020160 
#    y 0.000000 1.853950 0.000000 
#    z -0.020160 0.000000 1.825630 
# 
# From -- ./inp_files/170660.got.cif
#   From: 2010.06.25/outbox.cif.g09.slc.cpg/sg15_86_cif.got.tgz:170660.got - 2010.06.28 07:06:18.
