data_PCOD8145104
_publ_section_title
;
Structure prediction by ZEFSAII (Michael W. Deem and Ramdas Pophale) SiO2 
 PCOD8145104
Probable space group: C 2/C
;
_chemical_formula_sum "Si O2"
_cell_formula_units_Z 52
_cell_length_a 13.710822
_cell_length_b 10.876328
_cell_length_c 23.571042
_cell_angle_alpha 90.000000
_cell_angle_beta 128.538335
_cell_angle_gamma 90.000000
_cell_volume 2749.398230
_symmetry_space_group_name_H-M "C 2/C"
_symmetry_group_IT_number 15
_symmetry_cell_setting 'monoclinic'
loop_
_space_group_symop_operation_xyz
x,y,z
-x,y,1/2-z
-x,-y,-z
x,-y,1/2+z
1/2+x,1/2+y,z
1/2-x,1/2+y,1/2-z
1/2-x,1/2-y,-z
1/2+x,1/2-y,1/2+z
loop_
_atom_site_type_symbol
_atom_site_label
_atom_site_fract_x
_atom_site_fract_y
_atom_site_fract_z
Si Si1 0.124338 0.392503 0.452107
Si Si2 0.150353 0.404286 0.114873
Si Si3 0.615334 0.186214 0.130603
Si Si4 0.346653 0.153476 0.010237
Si Si5 0.000000 0.046375 0.250000
Si Si6 0.193491 0.210453 0.387692
Si Si7 0.108528 0.187857 0.748818
O O1 0.138604 0.536917 0.442537
O O2 0.131257 0.328645 0.393560
O O3 0.231643 0.358360 0.535488
O O4 0.990575 0.356238 0.430205
O O5 0.155927 0.542573 0.141832
O O6 0.247958 0.308893 0.178040
O O7 0.191613 0.403231 0.064122
O O8 0.481781 0.215928 0.054483
O O9 0.715949 0.259322 0.129358
O O10 0.610582 0.237053 0.192004
O O11 0.250000 0.250000 0.000000
O O12 0.912271 0.125992 0.178050
O O13 0.923385 0.958515 0.266190
O O14 0.000000 0.248431 0.750000
#
# Coordination Sequence:
#
# PCOD8145104 Si02
#       7
#     8   8   8   8   4   8   8
#     4  10  22  38  62  93 117 157 204 248 294 364
#     4  11  20  41  61  87 119 165 198 238 313 353
#     4  11  20  38  63  88 119 161 196 253 294 363
#     4  11  21  38  66  88 119 161 201 245 302 359
#     4  10  22  40  62  84 118 170 190 246 308 358
#     4  11  21  40  63  88 123 155 200 248 301 356
#     4  10  22  37  60  91 120 155 207 242 298 366
#
# _framework density 18.913229999999999
#
# number of rings (size 3 to 8) (size 9 to 14) (size 15 to 20)
#    0.462    0.923    4.615    1.846    4.308    0.000 
#    0.000    6.923    0.000    0.000    0.000    0.000 
#    0.000    0.000    0.000    0.000    0.000    0.000 
#
# Total GULP energy -322119.552009 kJ/mol
# GULP energy per Si atom -12389.213539 kJ/mol
# Density = 1.887018 g / cm^3
# Si number density = 18.913230 Si / 1000 Ang^3
#
#
#
# Elastic Constant Matrix: (Units=GPa)
#
#
# Indices 1 2 3 4 5 6 
#
# 1 119.4269 60.6397 46.5715 0.0000 -13.2572 0.0000
# 2 60.6397 84.1824 50.2799 0.0000 -15.9858 0.0000
# 3 46.5715 50.2799 110.3789 0.0000 -4.9395 0.0000
# 4 0.0000 0.0000 0.0000 30.5610 0.0000 -11.3091
# 5 -13.2572 -15.9858 -4.9395 0.0000 42.4489 0.0000
# 6 0.0000 0.0000 0.0000 -11.3091 0.0000 29.4945
#
#
#
# Elastic Compliance Matrix: (Units=1/GPa)
#
#
# Indices 1 2 3 4 5 6 
#
# 1 0.013464 -0.008482 -0.001781 0.000000 0.000803 0.000000
# 2 -0.008482 0.022946 -0.006640 0.000000 0.005220 0.000000
# 3 -0.001781 -0.006640 0.012765 0.000000 -0.001571 0.000000
# 4 0.000000 0.000000 0.000000 0.038132 0.000000 0.014621
# 5 0.000803 0.005220 -0.001571 0.000000 0.025591 0.000000
# 6 0.000000 0.000000 0.000000 0.014621 0.000000 0.039511
#
#
# Mechanical properties :
#
#
# Convention : Reuss Voigt Hill
#
# Bulk Modulus (GPa) = 65.06575 69.88561 67.47568
# Shear Modulus (GPa) = 26.13160 30.93401 28.53280
#
# Velocity S-wave (km/s) = 3.72110 4.04861 3.88830
# Velocity P-wave (km/s) = 7.27592 7.67371 7.47746
#
# Compressibility (1/GPa) = 0.01536907
#
# Stress axis : x y z
#
# Youngs Moduli (GPa) = 74.27255 43.58032 78.33645
#
# Poissons Ratio (x) = 0.36966 0.13951
# Poissons Ratio (y) = 0.63000 0.52015
# Poissons Ratio (z) = 0.13227 0.28937
#
# Static dielectric constant tensor:
#      x y z
#    x 3.747830 0.000000 0.169870 
#    y 0.000000 3.314590 0.000000 
#    z 0.169870 0.000000 3.503520 
# 
# 
# High freq. dielectric constant tensor:
#      x y z
#    x 1.746550 0.000000 0.017170 
#    y 0.000000 1.709180 0.000000 
#    z 0.017170 0.000000 1.735900 
# 
# From -- ./inp_files/237695.got.cif
#   From: 2010.06.25/outbox.cif.g09.slc.cpg/sg15_119_cif.got.tgz:237695.got - 2010.06.28 07:06:18.
