data_PCOD8145397
_publ_section_title
;
Structure prediction by ZEFSAII (Michael W. Deem and Ramdas Pophale) SiO2 
 PCOD8145397
Probable space group: C 2/C
;
_chemical_formula_sum "Si O2"
_cell_formula_units_Z 40
_cell_length_a 14.171187
_cell_length_b 19.597839
_cell_length_c 9.000012
_cell_angle_alpha 90.000000
_cell_angle_beta 47.009656
_cell_angle_gamma 90.000000
_cell_volume 1828.324198
_symmetry_space_group_name_H-M "C 2/C"
_symmetry_group_IT_number 15
_symmetry_cell_setting 'monoclinic'
loop_
_space_group_symop_operation_xyz
x,y,z
-x,y,1/2-z
-x,-y,-z
x,-y,1/2+z
1/2+x,1/2+y,z
1/2-x,1/2+y,1/2-z
1/2-x,1/2-y,-z
1/2+x,1/2-y,1/2+z
loop_
_atom_site_type_symbol
_atom_site_label
_atom_site_fract_x
_atom_site_fract_y
_atom_site_fract_z
Si Si1 0.000000 0.319127 0.750000
Si Si2 0.685968 0.217932 0.297233
Si Si3 0.144679 0.917091 0.917288
Si Si4 0.644486 0.550106 0.740226
Si Si5 0.332555 0.856872 0.180921
Si Si6 0.500000 0.178095 0.750000
O O1 0.889968 0.275004 0.779824
O O2 0.062375 0.368614 0.560941
O O3 0.777539 0.150994 0.210044
O O4 0.781298 0.280300 0.216607
O O5 0.580209 0.222186 0.543400
O O6 0.151841 0.970733 0.774265
O O7 0.203436 0.943190 0.011390
O O8 0.991740 0.910258 0.107288
O O9 0.723991 0.587307 0.783011
O O10 0.398455 0.868468 0.269836
#
# Coordination Sequence:
#
# PCOD8145397 Si02
#       6
#     4   8   8   8   8   4
#     4  10  22  38  65  98 119 156 218 256 322 368
#     4  11  23  42  66  92 130 166 211 264 309 377
#     4  10  23  42  66  96 126 165 212 261 315 371
#     4  10  23  42  66  96 126 165 212 261 315 371
#     4  11  23  42  66  92 130 166 211 264 309 377
#     4  10  26  42  57  98 129 166 216 246 330 372
#
# _framework density 21.877959000000001
#
# number of rings (size 3 to 8) (size 9 to 14) (size 15 to 20)
#    0.000    1.600    2.000    1.200    8.400    0.000 
#    0.000    6.000    0.000    0.000    0.000    0.000 
#    0.000    0.000    0.000    0.000    0.000    0.000 
#
# Total GULP energy -247816.704413 kJ/mol
# GULP energy per Si atom -12390.835221 kJ/mol
# Density = 2.182816 g / cm^3
# Si number density = 21.877959 Si / 1000 Ang^3
#
#
#
# Elastic Constant Matrix: (Units=GPa)
#
#
# Indices 1 2 3 4 5 6 
#
# 1 160.1250 21.7148 8.6361 0.0000 10.1186 0.0000
# 2 21.7148 56.0078 7.9861 0.0000 -15.2282 0.0000
# 3 8.6361 7.9861 69.6945 0.0000 9.9629 0.0000
# 4 0.0000 0.0000 0.0000 9.5031 0.0000 -1.5787
# 5 10.1186 -15.2282 9.9629 0.0000 34.4578 0.0000
# 6 0.0000 0.0000 0.0000 -1.5787 0.0000 22.4638
#
#
#
# Elastic Compliance Matrix: (Units=1/GPa)
#
#
# Indices 1 2 3 4 5 6 
#
# 1 0.006982 -0.003734 0.000096 0.000000 -0.003728 0.000000
# 2 -0.003734 0.023283 -0.003998 0.000000 0.012542 0.000000
# 3 0.000096 -0.003998 0.015700 0.000000 -0.006334 0.000000
# 4 0.000000 0.000000 0.000000 0.106472 0.000000 0.007483
# 5 -0.003728 0.012542 -0.006334 0.000000 0.037490 0.000000
# 6 0.000000 0.000000 0.000000 0.007483 0.000000 0.045042
#
#
# Mechanical properties :
#
#
# Convention : Reuss Voigt Hill
#
# Bulk Modulus (GPa) = 32.58241 40.27792 36.43017
# Shear Modulus (GPa) = 19.19585 29.78428 24.49006
#
# Velocity S-wave (km/s) = 2.96532 3.69370 3.34936
# Velocity P-wave (km/s) = 5.16229 6.05322 5.62542
#
# Compressibility (1/GPa) = 0.03069140
#
# Stress axis : x y z
#
# Youngs Moduli (GPa) = 143.22594 42.95040 63.69376
#
# Poissons Ratio (x) = 0.16039 -0.00610
# Poissons Ratio (y) = 0.53485 0.25465
# Poissons Ratio (z) = -0.01371 0.17172
#
# Static dielectric constant tensor:
#      x y z
#    x 4.431550 0.000000 0.098560 
#    y 0.000000 3.412670 0.000000 
#    z 0.098560 0.000000 4.110790 
# 
# 
# High freq. dielectric constant tensor:
#      x y z
#    x 1.885420 0.000000 0.004680 
#    y 0.000000 1.815950 0.000000 
#    z 0.004680 0.000000 1.871120 
# 
# From -- ./inp_files/40595.got.cif
#   From: 2010.06.25/outbox.cif.g09.slc.cpg/sg15_21_cif.got.tgz:40595.got - 2010.06.28 07:06:18.
