data_PCOD8145341
_publ_section_title
;
Structure prediction by ZEFSAII (Michael W. Deem and Ramdas Pophale) SiO2 
 PCOD8145341
Probable space group: C 2/C
;
_chemical_formula_sum "Si O2"
_cell_formula_units_Z 48
_cell_length_a 10.914672
_cell_length_b 26.158340
_cell_length_c 8.776726
_cell_angle_alpha 90.000000
_cell_angle_beta 64.302009
_cell_angle_gamma 90.000000
_cell_volume 2257.993321
_symmetry_space_group_name_H-M "C 2/C"
_symmetry_group_IT_number 15
_symmetry_cell_setting 'monoclinic'
loop_
_space_group_symop_operation_xyz
x,y,z
-x,y,1/2-z
-x,-y,-z
x,-y,1/2+z
1/2+x,1/2+y,z
1/2-x,1/2+y,1/2-z
1/2-x,1/2-y,-z
1/2+x,1/2-y,1/2+z
loop_
_atom_site_type_symbol
_atom_site_label
_atom_site_fract_x
_atom_site_fract_y
_atom_site_fract_z
Si Si1 0.850913 0.059261 0.900121
Si Si2 0.878418 0.692297 0.140575
Si Si3 0.145607 0.854061 0.599184
Si Si4 0.832192 0.342032 0.999346
Si Si5 0.111489 0.193566 0.808287
Si Si6 0.852795 0.041763 0.259680
O O1 0.000000 0.072306 0.750000
O O2 0.779830 0.010832 0.851182
O O3 0.743160 0.104360 0.932558
O O4 0.860946 0.047951 0.074647
O O5 0.760182 0.687367 0.079844
O O6 0.815380 0.676309 0.335715
O O7 0.930644 0.750723 0.107343
O O8 0.009366 0.656271 0.036953
O O9 0.121563 0.850125 0.432077
O O10 0.207990 0.908082 0.623747
O O11 0.000000 0.841969 0.750000
O O12 0.756614 0.300805 0.146716
O O13 0.000000 0.172925 0.750000
O O14 0.000000 0.034149 0.250000
#
# Coordination Sequence:
#
# PCOD8145341 Si02
#       6
#     8   8   8   8   8   8
#     4  11  22  40  69  99 132 173 225 275 336 395
#     4  11  24  47  62  95 139 174 220 278 324 400
#     4  11  25  42  68  98 134 171 221 284 328 387
#     4  11  24  40  70  91 133 177 218 264 337 394
#     4  12  25  40  70  96 130 178 229 264 330 399
#     4  10  22  38  64 100 134 165 223 282 329 383
#
# _framework density 21.257814
#
# number of rings (size 3 to 8) (size 9 to 14) (size 15 to 20)
#    0.000    1.000    3.333    4.500   11.667    0.667 
#    0.000    0.833    0.000    0.000    0.000    0.000 
#    0.000    0.000    0.000    0.000    0.000    0.000 
#
# Total GULP energy -297488.209775 kJ/mol
# GULP energy per Si atom -12395.342074 kJ/mol
# Density = 2.120943 g / cm^3
# Si number density = 21.257814 Si / 1000 Ang^3
#
#
#
# Elastic Constant Matrix: (Units=GPa)
#
#
# Indices 1 2 3 4 5 6 
#
# 1 110.2037 36.3361 55.3229 0.0000 7.3236 0.0000
# 2 36.3361 117.2811 56.7807 0.0000 3.0267 0.0000
# 3 55.3229 56.7807 132.0755 0.0000 2.0027 0.0000
# 4 0.0000 0.0000 0.0000 40.1398 0.0000 -0.3752
# 5 7.3236 3.0267 2.0027 0.0000 32.2086 0.0000
# 6 0.0000 0.0000 0.0000 -0.3752 0.0000 27.7203
#
#
#
# Elastic Compliance Matrix: (Units=1/GPa)
#
#
# Indices 1 2 3 4 5 6 
#
# 1 0.011885 -0.001553 -0.004276 0.000000 -0.002291 0.000000
# 2 -0.001553 0.010988 -0.004067 0.000000 -0.000427 0.000000
# 3 -0.004276 -0.004067 0.011101 0.000000 0.000664 0.000000
# 4 0.000000 0.000000 0.000000 0.024916 0.000000 0.000337
# 5 -0.002291 -0.000427 0.000664 0.000000 0.031567 0.000000
# 6 0.000000 0.000000 0.000000 0.000337 0.000000 0.036079
#
#
# Mechanical properties :
#
#
# Convention : Reuss Voigt Hill
#
# Bulk Modulus (GPa) = 70.51156 72.93773 71.72465
# Shear Modulus (GPa) = 33.10072 34.08845 33.59458
#
# Velocity S-wave (km/s) = 3.95030 4.00881 3.97966
# Velocity P-wave (km/s) = 7.35175 7.47080 7.41152
#
# Compressibility (1/GPa) = 0.01418207
#
# Stress axis : x y z
#
# Youngs Moduli (GPa) = 84.14049 91.01236 90.08407
#
# Poissons Ratio (x) = 0.14133 0.38519
# Poissons Ratio (y) = 0.13066 0.36635
# Poissons Ratio (z) = 0.35978 0.37012
#
# Static dielectric constant tensor:
#      x y z
#    x 3.657780 0.000000 0.069190 
#    y 0.000000 4.509770 0.000000 
#    z 0.069190 0.000000 3.988330 
# 
# 
# High freq. dielectric constant tensor:
#      x y z
#    x 1.814740 0.000000 0.011990 
#    y 0.000000 1.845400 0.000000 
#    z 0.011990 0.000000 1.835130 
# 
# From -- ./inp_files/33391.got.cif
#   From: 2010.06.25/outbox.cif.g09.slc.cpg/sg15_17_cif.got.tgz:33391.got - 2010.06.28 07:06:18.
