data_PCOD8145072
_publ_section_title
;
Structure prediction by ZEFSAII (Michael W. Deem and Ramdas Pophale) SiO2 
 PCOD8145072
Probable space group: C 2/C
;
_chemical_formula_sum "Si O2"
_cell_formula_units_Z 56
_cell_length_a 23.865638
_cell_length_b 14.525564
_cell_length_c 9.114812
_cell_angle_alpha 90.000000
_cell_angle_beta 73.670516
_cell_angle_gamma 90.000000
_cell_volume 3032.295313
_symmetry_space_group_name_H-M "C 2/C"
_symmetry_group_IT_number 15
_symmetry_cell_setting 'monoclinic'
loop_
_space_group_symop_operation_xyz
x,y,z
-x,y,1/2-z
-x,-y,-z
x,-y,1/2+z
1/2+x,1/2+y,z
1/2-x,1/2+y,1/2-z
1/2-x,1/2-y,-z
1/2+x,1/2-y,1/2+z
loop_
_atom_site_type_symbol
_atom_site_label
_atom_site_fract_x
_atom_site_fract_y
_atom_site_fract_z
Si Si1 0.249651 0.901365 0.241533
Si Si2 0.957232 0.002231 0.165460
Si Si3 0.128888 0.149341 0.373265
Si Si4 0.745220 0.588984 0.409625
Si Si5 0.813978 0.279235 0.396294
Si Si6 0.333907 0.228596 0.196318
Si Si7 0.935744 0.800000 0.305490
O O1 0.306605 0.861928 0.284777
O O2 0.197044 0.828310 0.284458
O O3 0.233135 0.993925 0.336439
O O4 0.265051 0.925329 0.062381
O O5 0.897963 0.055556 0.171204
O O6 0.000000 0.052906 0.250000
O O7 0.936626 0.903188 0.239864
O O8 0.000000 0.000000 0.000000
O O9 0.182706 0.138461 0.446662
O O10 0.150075 0.200661 0.212283
O O11 0.081477 0.201037 0.509153
O O12 0.792980 0.651579 0.296668
O O13 0.750000 0.250000 0.500000
O O14 0.849249 0.304444 0.518625
O O15 0.393429 0.234889 0.242856
O O16 0.000000 0.755774 0.250000
#
# Coordination Sequence:
#
# PCOD8145072 Si02
#       7
#     8   8   8   8   8   8   8
#     4  11  22  37  57  88 124 156 204 244 317 377
#     4  11  23  39  54  86 126 167 218 250 294 373
#     4  12  22  36  58  81 122 165 201 255 306 362
#     4  12  23  36  61  90 120 167 198 258 324 364
#     4  10  22  37  57  85 120 156 208 249 317 370
#     4  11  22  41  59  85 129 155 207 260 305 379
#     4  11  23  39  56  84 118 168 209 249 303 368
#
# _framework density 18.467858
#
# number of rings (size 3 to 8) (size 9 to 14) (size 15 to 20)
#    0.000    0.857    7.143    3.000    4.000    0.000 
#    0.000    0.000    0.000    0.000    0.000   10.000 
#    0.000    0.000    0.000    0.000    0.000    0.000 
#
# Total GULP energy -347037.283848 kJ/mol
# GULP energy per Si atom -12394.188709 kJ/mol
# Density = 1.842582 g / cm^3
# Si number density = 18.467858 Si / 1000 Ang^3
#
#
#
# Elastic Constant Matrix: (Units=GPa)
#
#
# Indices 1 2 3 4 5 6 
#
# 1 95.3197 13.9763 31.3942 0.0000 12.3585 0.0000
# 2 13.9763 32.6952 21.8519 0.0000 3.7754 0.0000
# 3 31.3942 21.8519 145.3526 0.0000 17.1100 0.0000
# 4 0.0000 0.0000 0.0000 31.8434 0.0000 1.9227
# 5 12.3585 3.7754 17.1100 0.0000 36.4949 0.0000
# 6 0.0000 0.0000 0.0000 1.9227 0.0000 36.2978
#
#
#
# Elastic Compliance Matrix: (Units=1/GPa)
#
#
# Indices 1 2 3 4 5 6 
#
# 1 0.011957 -0.003646 -0.001696 0.000000 -0.002877 0.000000
# 2 -0.003646 0.035162 -0.004462 0.000000 -0.000311 0.000000
# 3 -0.001696 -0.004462 0.008250 0.000000 -0.002832 0.000000
# 4 0.000000 0.000000 0.000000 0.031504 0.000000 -0.001669
# 5 -0.002877 -0.000311 -0.002832 0.000000 0.029735 0.000000
# 6 0.000000 0.000000 0.000000 -0.001669 0.000000 0.027638
#
#
# Mechanical properties :
#
#
# Convention : Reuss Voigt Hill
#
# Bulk Modulus (GPa) = 27.96254 45.31248 36.63751
# Shear Modulus (GPa) = 28.44536 34.67024 31.55780
#
# Velocity S-wave (km/s) = 3.92888 4.33752 4.13824
# Velocity P-wave (km/s) = 5.97959 7.04802 6.53567
#
# Compressibility (1/GPa) = 0.03576213
#
# Stress axis : x y z
#
# Youngs Moduli (GPa) = 83.63231 28.43969 121.20770
#
# Poissons Ratio (x) = 0.10368 0.20555
# Poissons Ratio (y) = 0.30490 0.54085
# Poissons Ratio (z) = 0.14183 0.12690
#
# Static dielectric constant tensor:
#      x y z
#    x 3.728340 0.000000 0.329320 
#    y 0.000000 2.583160 0.000000 
#    z 0.329320 0.000000 3.686690 
# 
# 
# High freq. dielectric constant tensor:
#      x y z
#    x 1.710230 0.000000 0.021080 
#    y 0.000000 1.680920 0.000000 
#    z 0.021080 0.000000 1.739000 
# 
# From -- ./inp_files/61820.got.cif
#   From: 2010.06.25/outbox.cif.g09.slc.cpg/sg15_31_cif.got.tgz:61820.got - 2010.06.28 07:06:18.
