data_PCOD8145144
_publ_section_title
;
Structure prediction by ZEFSAII (Michael W. Deem and Ramdas Pophale) SiO2 
 PCOD8145144
Probable space group: C 2/C
;
_chemical_formula_sum "Si O2"
_cell_formula_units_Z 64
_cell_length_a 18.155625
_cell_length_b 11.668468
_cell_length_c 14.199489
_cell_angle_alpha 90.000000
_cell_angle_beta 97.286853
_cell_angle_gamma 90.000000
_cell_volume 2983.843013
_symmetry_space_group_name_H-M "C 2/C"
_symmetry_group_IT_number 15
_symmetry_cell_setting 'monoclinic'
loop_
_space_group_symop_operation_xyz
x,y,z
-x,y,1/2-z
-x,-y,-z
x,-y,1/2+z
1/2+x,1/2+y,z
1/2-x,1/2+y,1/2-z
1/2-x,1/2-y,-z
1/2+x,1/2-y,1/2+z
loop_
_atom_site_type_symbol
_atom_site_label
_atom_site_fract_x
_atom_site_fract_y
_atom_site_fract_z
Si Si1 0.493281 0.403128 0.639346
Si Si2 0.818579 0.598234 0.496399
Si Si3 0.055390 0.245525 0.528695
Si Si4 0.848077 0.899271 0.813789
Si Si5 0.423531 0.353812 0.102941
Si Si6 0.140503 0.153811 0.717423
Si Si7 0.269345 0.620607 0.483822
Si Si8 0.278194 0.748484 0.156125
O O1 0.500000 0.370713 0.750000
O O2 0.438528 0.320650 0.570937
O O3 0.576641 0.379374 0.613349
O O4 0.476756 0.536523 0.621401
O O5 0.903972 0.629406 0.477407
O O6 0.797813 0.462915 0.492166
O O7 0.759574 0.656019 0.417854
O O8 0.808629 0.645470 0.600576
O O9 0.103234 0.174296 0.610785
O O10 0.969701 0.244622 0.552033
O O11 0.843477 0.808998 0.727352
O O12 0.852812 0.019497 0.760641
O O13 0.778610 0.897429 0.873354
O O14 0.406256 0.295967 0.202052
O O15 0.347456 0.401711 0.046997
O O16 0.221795 0.208140 0.727317
O O17 0.250000 0.750000 0.500000
#
# Coordination Sequence:
#
# PCOD8145144 Si02
#       8
#     8   8   8   8   8   8   8   8
#     4  12  22  34  62  98 133 168 214 287 346 403
#     4  10  23  41  64  93 132 175 226 270 356 408
#     4  11  22  38  60  96 133 175 217 280 347 419
#     4  12  21  38  59  97 133 167 225 278 344 396
#     4  12  22  38  63  98 135 175 226 279 344 400
#     4  11  21  37  60  96 135 176 220 277 340 405
#     4  12  26  44  66  94 133 180 230 287 343 419
#     4  10  22  37  64  93 132 174 214 279 332 415
#
# _framework density 21.44885
#
# number of rings (size 3 to 8) (size 9 to 14) (size 15 to 20)
#    0.000    0.750    5.000    3.750    3.500    0.000 
#    0.000    0.625    0.000    0.000    0.000    0.875 
#    0.000    0.000    0.000    0.000    0.000    0.000 
#
# Total GULP energy -396555.844733 kJ/mol
# GULP energy per Si atom -12392.370148 kJ/mol
# Density = 2.140003 g / cm^3
# Si number density = 21.448850 Si / 1000 Ang^3
#
#
#
# Elastic Constant Matrix: (Units=GPa)
#
#
# Indices 1 2 3 4 5 6 
#
# 1 101.2989 56.9371 47.6169 0.0000 -10.5687 0.0000
# 2 56.9371 112.0899 34.8038 0.0000 -6.4012 0.0000
# 3 47.6169 34.8038 102.5499 0.0000 -6.0738 0.0000
# 4 0.0000 0.0000 0.0000 21.9805 0.0000 0.1684
# 5 -10.5687 -6.4012 -6.0738 0.0000 37.3649 0.0000
# 6 0.0000 0.0000 0.0000 0.1684 0.0000 38.4887
#
#
#
# Elastic Compliance Matrix: (Units=1/GPa)
#
#
# Indices 1 2 3 4 5 6 
#
# 1 0.016225 -0.006483 -0.005177 0.000000 0.002637 0.000000
# 2 -0.006483 0.012614 -0.001263 0.000000 0.000122 0.000000
# 3 -0.005177 -0.001263 0.012606 0.000000 0.000368 0.000000
# 4 0.000000 0.000000 0.000000 0.045496 0.000000 -0.000199
# 5 0.002637 0.000122 0.000368 0.000000 0.027590 0.000000
# 6 0.000000 0.000000 0.000000 -0.000199 0.000000 0.025983
#
#
# Mechanical properties :
#
#
# Convention : Reuss Voigt Hill
#
# Bulk Modulus (GPa) = 64.11570 66.07272 65.09421
# Shear Modulus (GPa) = 29.14450 31.33888 30.24169
#
# Velocity S-wave (km/s) = 3.69018 3.82658 3.75900
# Velocity P-wave (km/s) = 6.93641 7.09896 7.01816
#
# Compressibility (1/GPa) = 0.01559680
#
# Stress axis : x y z
#
# Youngs Moduli (GPa) = 61.63515 79.27755 79.32890
#
# Poissons Ratio (x) = 0.51398 0.41068
# Poissons Ratio (y) = 0.39960 0.10022
# Poissons Ratio (z) = 0.31908 0.10015
#
# Static dielectric constant tensor:
#      x y z
#    x 4.571290 0.000000 -0.158590 
#    y 0.000000 3.507200 0.000000 
#    z -0.158590 0.000000 4.130630 
# 
# 
# High freq. dielectric constant tensor:
#      x y z
#    x 1.844950 0.000000 -0.008030 
#    y 0.000000 1.793880 0.000000 
#    z -0.008030 0.000000 1.861980 
# 
# From -- ./inp_files/161355.got.cif
#   From: 2010.06.25/outbox.cif.g09.slc.cpg/sg15_81_cif.got.tgz:161355.got - 2010.06.28 07:06:18.
