data_PCOD8145295
_publ_section_title
;
Structure prediction by ZEFSAII (Michael W. Deem and Ramdas Pophale) SiO2 
 PCOD8145295
Probable space group: C 2/C
;
_chemical_formula_sum "Si O2"
_cell_formula_units_Z 52
_cell_length_a 31.142853
_cell_length_b 13.341446
_cell_length_c 8.888452
_cell_angle_alpha 90.000000
_cell_angle_beta 142.479659
_cell_angle_gamma 90.000000
_cell_volume 2249.238031
_symmetry_space_group_name_H-M "C 2/C"
_symmetry_group_IT_number 15
_symmetry_cell_setting 'monoclinic'
loop_
_space_group_symop_operation_xyz
x,y,z
-x,y,1/2-z
-x,-y,-z
x,-y,1/2+z
1/2+x,1/2+y,z
1/2-x,1/2+y,1/2-z
1/2-x,1/2-y,-z
1/2+x,1/2-y,1/2+z
loop_
_atom_site_type_symbol
_atom_site_label
_atom_site_fract_x
_atom_site_fract_y
_atom_site_fract_z
Si Si1 0.576552 0.710950 0.526967
Si Si2 0.411510 0.901039 0.761270
Si Si3 0.054627 0.013826 0.022133
Si Si4 0.726956 0.034073 0.106962
Si Si5 0.706876 0.769529 0.725665
Si Si6 0.500000 0.017698 0.250000
Si Si7 0.199017 0.101360 0.485362
O O1 0.593923 0.781316 0.720588
O O2 0.591448 0.594115 0.599342
O O3 0.626118 0.743072 0.528533
O O4 0.500000 0.729009 0.250000
O O5 0.442457 0.914052 0.678415
O O6 0.336413 0.954183 0.575653
O O7 0.463604 0.946865 0.028441
O O8 0.116273 0.097167 0.210785
O O9 0.000000 0.055483 0.750000
O O10 0.000000 0.000000 0.000000
O O11 0.709318 0.116207 0.183357
O O12 0.747230 0.078312 0.001426
O O13 0.795252 0.978785 0.363259
O O14 0.727825 0.705249 0.636066
O O15 0.750000 0.750000 0.000000
#
# Coordination Sequence:
#
# PCOD8145295 Si02
#       7
#     8   8   8   8   8   4   8
#     4  11  22  41  69  96 132 181 226 279 347 407
#     4  11  22  41  63  98 135 180 224 277 343 417
#     4  11  24  45  69  98 131 180 232 288 350 413
#     4  12  25  42  70 103 139 183 231 291 353 424
#     4  12  26  45  71 100 137 186 236 291 357 425
#     4  10  22  38  62  88 140 178 220 272 338 400
#     4  12  24  45  70 102 141 180 236 295 351 420
#
# _framework density 23.118939999999998
#
# number of rings (size 3 to 8) (size 9 to 14) (size 15 to 20)
#    0.000    0.615    0.769    9.692    2.154    0.000 
#    1.385    3.077    0.000    0.000    0.000    0.000 
#    0.000    0.000    0.000    0.000    0.000    0.000 
#
# Total GULP energy -322240.336385 kJ/mol
# GULP energy per Si atom -12393.859092 kJ/mol
# Density = 2.306632 g / cm^3
# Si number density = 23.118940 Si / 1000 Ang^3
#
#
#
# Elastic Constant Matrix: (Units=GPa)
#
#
# Indices 1 2 3 4 5 6 
#
# 1 109.7284 -16.1620 26.6218 0.0000 2.6507 0.0000
# 2 -16.1620 73.2830 29.8435 0.0000 -1.8490 0.0000
# 3 26.6218 29.8435 131.0189 0.0000 4.3386 0.0000
# 4 0.0000 0.0000 0.0000 30.0206 0.0000 -3.0863
# 5 2.6507 -1.8490 4.3386 0.0000 37.5984 0.0000
# 6 0.0000 0.0000 0.0000 -3.0863 0.0000 39.9789
#
#
#
# Elastic Compliance Matrix: (Units=1/GPa)
#
#
# Indices 1 2 3 4 5 6 
#
# 1 0.010323 0.003441 -0.002874 0.000000 -0.000227 0.000000
# 2 0.003441 0.016237 -0.004433 0.000000 0.001067 0.000000
# 3 -0.002874 -0.004433 0.009262 0.000000 -0.001084 0.000000
# 4 0.000000 0.000000 0.000000 0.033577 0.000000 0.002592
# 5 -0.000227 0.001067 -0.001084 0.000000 0.026790 0.000000
# 6 0.000000 0.000000 0.000000 0.002592 0.000000 0.025213
#
#
# Mechanical properties :
#
#
# Convention : Reuss Voigt Hill
#
# Bulk Modulus (GPa) = 35.59893 43.84857 39.72375
# Shear Modulus (GPa) = 36.10170 39.76803 37.93487
#
# Velocity S-wave (km/s) = 3.95595 4.15197 4.05514
# Velocity P-wave (km/s) = 6.02475 6.48019 6.25661
#
# Compressibility (1/GPa) = 0.02809073
#
# Stress axis : x y z
#
# Youngs Moduli (GPa) = 96.87098 61.58811 107.96691
#
# Poissons Ratio (x) = -0.21194 0.31028
# Poissons Ratio (y) = -0.33336 0.47862
# Poissons Ratio (z) = 0.27840 0.27302
#
# Static dielectric constant tensor:
#      x y z
#    x 4.387280 0.000000 -0.088860 
#    y 0.000000 4.199820 0.000000 
#    z -0.088860 0.000000 4.271910 
# 
# 
# High freq. dielectric constant tensor:
#      x y z
#    x 1.927850 0.000000 0.002340 
#    y 0.000000 1.907750 0.000000 
#    z 0.002340 0.000000 1.922880 
# 
# From -- ./inp_files/70189.got.cif
#   From: 2010.06.25/outbox.cif.g09.slc.cpg/sg15_36_cif.got.tgz:70189.got - 2010.06.28 07:06:18.
