data_PCOD8145019
_publ_section_title
;
Structure prediction by ZEFSAII (Michael W. Deem and Ramdas Pophale) SiO2 
 PCOD8145019
Probable space group: C 2/C
;
_chemical_formula_sum "Si O2"
_cell_formula_units_Z 40
_cell_length_a 5.036110
_cell_length_b 19.312385
_cell_length_c 19.571151
_cell_angle_alpha 90.000000
_cell_angle_beta 84.178809
_cell_angle_gamma 90.000000
_cell_volume 1893.660630
_symmetry_space_group_name_H-M "C 2/C"
_symmetry_group_IT_number 15
_symmetry_cell_setting 'monoclinic'
loop_
_space_group_symop_operation_xyz
x,y,z
-x,y,1/2-z
-x,-y,-z
x,-y,1/2+z
1/2+x,1/2+y,z
1/2-x,1/2+y,1/2-z
1/2-x,1/2-y,-z
1/2+x,1/2-y,1/2+z
loop_
_atom_site_type_symbol
_atom_site_label
_atom_site_fract_x
_atom_site_fract_y
_atom_site_fract_z
Si Si1 0.001310 0.938858 0.904226
Si Si2 0.895543 0.672784 0.557912
Si Si3 0.375422 0.416415 0.057268
Si Si4 0.732575 0.869577 0.795467
Si Si5 0.628385 0.806897 0.595333
O O1 0.805808 0.933577 0.843899
O O2 0.212538 0.877073 0.894006
O O3 0.828355 0.933730 0.978287
O O4 0.148816 0.013118 0.898399
O O5 0.663350 0.616453 0.560834
O O6 0.811366 0.739575 0.604492
O O7 0.978762 0.697428 0.479456
O O8 0.149473 0.637398 0.587388
O O9 0.500000 0.894499 0.750000
O O10 0.621562 0.806525 0.845755
O O11 0.000000 0.843555 0.750000
#
# Coordination Sequence:
#
# PCOD8145019 Si02
#       5
#     8   8   8   8   8
#     4  10  22  38  62  92 127 159 211 251 317 374
#     4  10  22  36  61  95 130 157 192 264 329 378
#     4  10  22  36  61  95 130 157 192 264 329 378
#     4  12  24  38  60  92 122 168 220 265 297 378
#     4  10  22  38  62  92 127 159 211 251 317 374
#
# _framework density 21.12311
#
# number of rings (size 3 to 8) (size 9 to 14) (size 15 to 20)
#    0.000    1.600    4.000    0.000    5.600    4.800 
#    0.000    0.000    0.000    1.200   10.400    0.000 
#    0.000    0.000    0.000    0.000    0.000    0.000 
#
# Total GULP energy -247971.688346 kJ/mol
# GULP energy per Si atom -12398.584417 kJ/mol
# Density = 2.107503 g / cm^3
# Si number density = 21.123110 Si / 1000 Ang^3
#
#
#
# Elastic Constant Matrix: (Units=GPa)
#
#
# Indices 1 2 3 4 5 6 
#
# 1 114.3458 38.8249 48.4501 0.0000 -16.8736 0.0000
# 2 38.8249 121.6777 41.8937 0.0000 -27.3210 0.0000
# 3 48.4501 41.8937 98.5406 0.0000 -10.8839 0.0000
# 4 0.0000 0.0000 0.0000 9.8215 0.0000 3.9454
# 5 -16.8736 -27.3210 -10.8839 0.0000 21.8909 0.0000
# 6 0.0000 0.0000 0.0000 3.9454 0.0000 41.6574
#
#
#
# Elastic Compliance Matrix: (Units=1/GPa)
#
#
# Indices 1 2 3 4 5 6 
#
# 1 0.011946 -0.000845 -0.004882 0.000000 0.005726 0.000000
# 2 -0.000845 0.012722 -0.003504 0.000000 0.013484 0.000000
# 3 -0.004882 -0.003504 0.013903 0.000000 -0.001223 0.000000
# 4 0.000000 0.000000 0.000000 0.105845 0.000000 -0.010025
# 5 0.005726 0.013484 -0.001223 0.000000 0.066315 0.000000
# 6 0.000000 0.000000 0.000000 -0.010025 0.000000 0.024955
#
#
# Mechanical properties :
#
#
# Convention : Reuss Voigt Hill
#
# Bulk Modulus (GPa) = 49.72809 65.87795 57.80302
# Shear Modulus (GPa) = 19.16807 28.36698 23.76753
#
# Velocity S-wave (km/s) = 3.01565 3.66858 3.35803
# Velocity P-wave (km/s) = 5.97651 7.01427 6.51608
#
# Compressibility (1/GPa) = 0.02010936
#
# Stress axis : x y z
#
# Youngs Moduli (GPa) = 83.71158 78.60254 71.92795
#
# Poissons Ratio (x) = 0.06644 0.35113
# Poissons Ratio (y) = 0.07076 0.25202
# Poissons Ratio (z) = 0.40865 0.27541
#
# Static dielectric constant tensor:
#      x y z
#    x 3.846700 0.000000 -0.041740 
#    y 0.000000 3.793630 0.000000 
#    z -0.041740 0.000000 3.874830 
# 
# 
# High freq. dielectric constant tensor:
#      x y z
#    x 1.837470 0.000000 -0.000360 
#    y 0.000000 1.814080 0.000000 
#    z -0.000360 0.000000 1.794200 
# 
# From -- ./inp_files/226805.got.cif
#   From: 2010.06.25/outbox.cif.g09.slc.cpg/sg15_114_cif.got.tgz:226805.got - 2010.06.28 07:06:18.
