data_PCOD8145549
_publ_section_title
;
Structure prediction by ZEFSAII (Michael W. Deem and Ramdas Pophale) SiO2 
 PCOD8145549
Probable space group: C 2/C
;
_chemical_formula_sum "Si O2"
_cell_formula_units_Z 52
_cell_length_a 14.503163
_cell_length_b 14.152625
_cell_length_c 17.999506
_cell_angle_alpha 90.000000
_cell_angle_beta 43.806252
_cell_angle_gamma 90.000000
_cell_volume 2557.441247
_symmetry_space_group_name_H-M "C 2/C"
_symmetry_group_IT_number 15
_symmetry_cell_setting 'monoclinic'
loop_
_space_group_symop_operation_xyz
x,y,z
-x,y,1/2-z
-x,-y,-z
x,-y,1/2+z
1/2+x,1/2+y,z
1/2-x,1/2+y,1/2-z
1/2-x,1/2-y,-z
1/2+x,1/2-y,1/2+z
loop_
_atom_site_type_symbol
_atom_site_label
_atom_site_fract_x
_atom_site_fract_y
_atom_site_fract_z
Si Si1 0.756544 0.042826 0.414657
Si Si2 0.694877 0.150558 0.890242
Si Si3 0.151648 0.469219 0.135469
Si Si4 0.355630 0.162653 0.306041
Si Si5 0.500000 0.324629 0.750000
Si Si6 0.803556 0.311171 0.280457
Si Si7 0.601025 0.153762 0.385905
O O1 0.784011 0.934064 0.374269
O O2 0.669391 0.056548 0.539322
O O3 0.665089 0.076655 0.401181
O O4 0.889874 0.105070 0.349175
O O5 0.763002 0.248295 0.871065
O O6 0.672365 0.143200 0.814479
O O7 0.555658 0.153632 0.013070
O O8 0.209561 0.574923 0.111453
O O9 0.225077 0.392476 0.143200
O O10 0.000000 0.469603 0.250000
O O11 0.500000 0.192983 0.250000
O O12 0.364727 0.124207 0.217260
O O13 0.570591 0.256928 0.770454
O O14 0.664384 0.255995 0.364295
#
# Coordination Sequence:
#
# PCOD8145549 Si02
#       7
#     8   8   8   8   4   8   8
#     4  11  24  39  66  93 128 160 211 256 315 370
#     4  11  22  40  63  90 126 172 198 259 313 371
#     4  11  21  38  64  93 119 163 208 258 300 372
#     4  10  23  40  60  88 125 160 214 250 306 374
#     4  10  24  42  62  98 126 162 210 266 304 376
#     4  10  22  39  65  91 127 164 206 259 313 368
#     4  10  22  39  61  90 123 163 208 257 306 378
#
# _framework density 20.332823000000001
#
# number of rings (size 3 to 8) (size 9 to 14) (size 15 to 20)
#    0.000    1.538    0.769    4.154    3.231    3.692 
#    2.769    0.769    0.000    0.000    0.000    0.000 
#    0.000    0.000    0.000    0.000    0.000    0.000 
#
# Total GULP energy -322342.008474 kJ/mol
# GULP energy per Si atom -12397.769557 kJ/mol
# Density = 2.028654 g / cm^3
# Si number density = 20.332823 Si / 1000 Ang^3
#
#
#
# Elastic Constant Matrix: (Units=GPa)
#
#
# Indices 1 2 3 4 5 6 
#
# 1 63.7753 21.3239 7.5286 0.0000 -2.3626 0.0000
# 2 21.3239 87.1249 31.1176 0.0000 -2.0164 0.0000
# 3 7.5286 31.1176 66.0420 0.0000 -0.7734 0.0000
# 4 0.0000 0.0000 0.0000 0.9339 0.0000 31.0940
# 5 -2.3626 -2.0164 -0.7734 0.0000 25.3738 0.0000
# 6 0.0000 0.0000 0.0000 31.0940 0.0000 1.7653
#
#
#
# Elastic Compliance Matrix: (Units=1/GPa)
#
#
# Indices 1 2 3 4 5 6 
#
# 1 0.017118 -0.004171 0.000028 0.000000 0.001263 0.000000
# 2 -0.004171 0.014837 -0.006508 0.000000 0.000592 0.000000
# 3 0.000028 -0.006508 0.018206 0.000000 0.000040 0.000000
# 4 0.000000 0.000000 0.000000 -0.001829 0.000000 0.032215
# 5 0.001263 0.000592 0.000040 0.000000 0.039577 0.000000
# 6 0.000000 0.000000 0.000000 0.032215 0.000000 -0.000968
#
#
# Mechanical properties :
#
#
# Convention : Reuss Voigt Hill
#
# Bulk Modulus (GPa) = 34.65067 37.43137 36.04102
# Shear Modulus (GPa) = 42.42273 16.07942 29.25107
#
# Velocity S-wave (km/s) = 4.57269 2.81519 3.79702
# Velocity P-wave (km/s) = 6.70507 5.38668 6.08171
#
# Compressibility (1/GPa) = 0.02885947
#
# Stress axis : x y z
#
# Youngs Moduli (GPa) = 58.41818 67.40004 54.92776
#
# Poissons Ratio (x) = 0.28110 -0.00156
# Poissons Ratio (y) = 0.24364 0.35749
# Poissons Ratio (z) = -0.00166 0.43867
#
# Static dielectric constant tensor:
#      x y z
#    x 3.862670 0.000000 0.129960 
#    y 0.000000 4.116460 0.000000 
#    z 0.129960 0.000000 3.554240 
# 
# 
# High freq. dielectric constant tensor:
#      x y z
#    x 1.799670 0.000000 0.014490 
#    y 0.000000 1.813290 0.000000 
#    z 0.014490 0.000000 1.783550 
# 
# From -- ./inp_files/205664.got.cif
#   From: 2010.06.25/outbox.cif.g09.slc.cpg/sg15_103_cif.got.tgz:205664.got - 2010.06.28 07:06:18.
