data_PCOD8145126
_publ_section_title
;
Structure prediction by ZEFSAII (Michael W. Deem and Ramdas Pophale) SiO2 
 PCOD8145126
Probable space group: C 2/C
;
_chemical_formula_sum "Si O2"
_cell_formula_units_Z 48
_cell_length_a 31.514643
_cell_length_b 14.005594
_cell_length_c 9.739264
_cell_angle_alpha 90.000000
_cell_angle_beta 31.217928
_cell_angle_gamma 90.000000
_cell_volume 2228.008132
_symmetry_space_group_name_H-M "C 2/C"
_symmetry_group_IT_number 15
_symmetry_cell_setting 'monoclinic'
loop_
_space_group_symop_operation_xyz
x,y,z
-x,y,1/2-z
-x,-y,-z
x,-y,1/2+z
1/2+x,1/2+y,z
1/2-x,1/2+y,1/2-z
1/2-x,1/2-y,-z
1/2+x,1/2-y,1/2+z
loop_
_atom_site_type_symbol
_atom_site_label
_atom_site_fract_x
_atom_site_fract_y
_atom_site_fract_z
Si Si1 0.938847 0.332981 0.731593
Si Si2 0.838539 0.298344 0.738606
Si Si3 0.111061 0.267450 0.180684
Si Si4 0.244429 0.411434 0.899527
Si Si5 0.670864 0.008475 0.864196
Si Si6 0.413419 0.657238 0.996879
O O1 0.884666 0.294967 0.754748
O O2 0.925696 0.259737 0.891636
O O3 0.033856 0.337862 0.423564
O O4 0.913098 0.437521 0.859830
O O5 0.886479 0.238158 0.487419
O O6 0.841801 0.406564 0.671823
O O7 0.750000 0.250000 0.000000
O O8 0.106474 0.173370 0.287088
O O9 0.196824 0.318695 0.978162
O O10 0.222439 0.500383 0.862638
O O11 0.342032 0.399759 0.618841
O O12 0.221615 0.426136 0.120690
O O13 0.500000 0.599998 0.750000
#
# Coordination Sequence:
#
# PCOD8145126 Si02
#       6
#     8   8   8   8   8   8
#     4  11  21  40  57  95 129 156 207 253 316 374
#     4  11  24  40  59  89 127 168 209 254 306 371
#     4  10  22  37  63  90 122 168 196 252 311 374
#     4  11  22  39  58  91 121 161 208 246 312 373
#     4  11  23  37  61  91 124 167 199 256 311 371
#     4  10  22  40  66  88 120 160 210 255 307 371
#
# _framework density 21.543906
#
# number of rings (size 3 to 8) (size 9 to 14) (size 15 to 20)
#    0.000    1.333    3.333    3.000    2.333    2.667 
#    6.000    0.833    0.000    2.000    0.000    0.000 
#    0.000    0.000    0.000    0.000    0.000    0.000 
#
# Total GULP energy -297446.984378 kJ/mol
# GULP energy per Si atom -12393.624349 kJ/mol
# Density = 2.149487 g / cm^3
# Si number density = 21.543906 Si / 1000 Ang^3
#
#
#
# Elastic Constant Matrix: (Units=GPa)
#
#
# Indices 1 2 3 4 5 6 
#
# 1 102.8357 5.4119 45.4384 0.0000 -3.5529 0.0000
# 2 5.4119 18.4057 9.1967 0.0000 -0.6161 0.0000
# 3 45.4384 9.1967 106.7662 0.0000 -5.4085 0.0000
# 4 0.0000 0.0000 0.0000 18.3691 0.0000 -1.3134
# 5 -3.5529 -0.6161 -5.4085 0.0000 54.2950 0.0000
# 6 0.0000 0.0000 0.0000 -1.3134 0.0000 21.2666
#
#
#
# Elastic Compliance Matrix: (Units=1/GPa)
#
#
# Indices 1 2 3 4 5 6 
#
# 1 0.011999 -0.001018 -0.005005 0.000000 0.000275 0.000000
# 2 -0.001018 0.056862 -0.004458 0.000000 0.000135 0.000000
# 3 -0.005005 -0.004458 0.011921 0.000000 0.000809 0.000000
# 4 0.000000 0.000000 0.000000 0.054681 0.000000 0.003377
# 5 0.000275 0.000135 0.000809 0.000000 0.018518 0.000000
# 6 0.000000 0.000000 0.000000 0.003377 0.000000 0.047231
#
#
# Mechanical properties :
#
#
# Convention : Reuss Voigt Hill
#
# Bulk Modulus (GPa) = 16.71666 38.67796 27.69731
# Shear Modulus (GPa) = 20.65143 29.98351 25.31747
#
# Velocity S-wave (km/s) = 3.09944 3.73465 3.43177
# Velocity P-wave (km/s) = 4.53706 6.04887 5.34667
#
# Compressibility (1/GPa) = 0.05982058
#
# Stress axis : x y z
#
# Youngs Moduli (GPa) = 83.34193 17.58631 83.88355
#
# Poissons Ratio (x) = 0.01790 0.41983
# Poissons Ratio (y) = 0.08485 0.37395
# Poissons Ratio (z) = 0.41712 0.07840
#
# Static dielectric constant tensor:
#      x y z
#    x 4.485540 0.000000 0.308920 
#    y 0.000000 3.386030 0.000000 
#    z 0.308920 0.000000 4.296280 
# 
# 
# High freq. dielectric constant tensor:
#      x y z
#    x 1.866750 0.000000 0.013880 
#    y 0.000000 1.794240 0.000000 
#    z 0.013880 0.000000 1.859690 
# 
# From -- ./inp_files/70553.got.cif
#   From: 2010.06.25/outbox.cif.g09.slc.cpg/sg15_36_cif.got.tgz:70553.got - 2010.06.28 07:06:18.
