data_PCOD8145585
_publ_section_title
;
Structure prediction by ZEFSAII (Michael W. Deem and Ramdas Pophale) SiO2 
 PCOD8145585
Probable space group: C 2/C
;
_chemical_formula_sum "Si O2"
_cell_formula_units_Z 52
_cell_length_a 11.245545
_cell_length_b 24.646243
_cell_length_c 14.409807
_cell_angle_alpha 90.000000
_cell_angle_beta 37.560934
_cell_angle_gamma 90.000000
_cell_volume 2434.657006
_symmetry_space_group_name_H-M "C 2/C"
_symmetry_group_IT_number 15
_symmetry_cell_setting 'monoclinic'
loop_
_space_group_symop_operation_xyz
x,y,z
-x,y,1/2-z
-x,-y,-z
x,-y,1/2+z
1/2+x,1/2+y,z
1/2-x,1/2+y,1/2-z
1/2-x,1/2-y,-z
1/2+x,1/2-y,1/2+z
loop_
_atom_site_type_symbol
_atom_site_label
_atom_site_fract_x
_atom_site_fract_y
_atom_site_fract_z
Si Si1 0.000000 0.523023 0.250000
Si Si2 0.407320 0.474158 0.969840
Si Si3 0.412947 0.354514 0.905579
Si Si4 0.000000 0.952579 0.250000
Si Si5 0.440063 0.822971 0.484241
Si Si6 0.598639 0.105110 0.041147
Si Si7 0.290009 0.731700 0.217064
Si Si8 0.000000 0.310532 0.750000
O O1 0.970322 0.559894 0.175402
O O2 0.822160 0.484375 0.383973
O O3 0.438081 0.410001 0.946209
O O4 0.523243 0.506207 0.819573
O O5 0.500000 0.500000 0.000000
O O6 0.500000 0.362074 0.750000
O O7 0.186555 0.338683 0.028071
O O8 0.525865 0.309527 0.895769
O O9 0.811345 0.914893 0.379550
O O10 0.484039 0.876478 0.519195
O O11 0.636521 0.793970 0.326538
O O12 0.333086 0.778097 0.613984
O O13 0.620012 0.154875 0.099633
O O14 0.161191 0.725155 0.203724
#
# Coordination Sequence:
#
# PCOD8145585 Si02
#       8
#     4   8   8   4   8   8   8   4
#     4   9  22  40  58  93 129 156 212 266 327 372
#     4  11  24  40  65  94 125 171 216 262 321 387
#     4  10  22  41  63  87 128 167 210 255 319 372
#     4  10  22  39  62  97 125 162 217 264 310 394
#     4  10  22  40  63  87 125 166 207 257 314 374
#     4   9  20  37  63  89 128 165 201 266 324 372
#     4  10  22  39  62  91 121 169 206 260 310 381
#     4   9  20  37  64  88 130 162 205 254 331 364
#
# _framework density 21.358246000000001
#
# number of rings (size 3 to 8) (size 9 to 14) (size 15 to 20)
#    0.000    2.154    0.769    0.462   10.769    5.538 
#    2.769    3.077    0.000    0.000    0.000    0.000 
#    0.000    0.000    0.000    0.000    0.000    0.000 
#
# Total GULP energy -322293.171829 kJ/mol
# GULP energy per Si atom -12395.891224 kJ/mol
# Density = 2.130963 g / cm^3
# Si number density = 21.358246 Si / 1000 Ang^3
#
#
#
# Elastic Constant Matrix: (Units=GPa)
#
#
# Indices 1 2 3 4 5 6 
#
# 1 133.4900 33.8530 7.8065 -0.0002 1.0097 -0.0001
# 2 33.8530 78.2703 14.7404 -0.0001 -1.2318 -0.0001
# 3 7.8065 14.7404 68.2009 0.0003 -0.2573 0.0003
# 4 -0.0002 -0.0001 0.0003 19.3051 0.0000 -7.4272
# 5 1.0097 -1.2318 -0.2573 0.0000 23.2389 -0.0001
# 6 -0.0001 -0.0001 0.0003 -7.4272 -0.0001 29.8335
#
#
#
# Elastic Compliance Matrix: (Units=1/GPa)
#
#
# Indices 1 2 3 4 5 6 
#
# 1 0.008424 -0.003617 -0.000184 0.000000 -0.000560 0.000000
# 2 -0.003617 0.014882 -0.002799 0.000000 0.000915 0.000000
# 3 -0.000184 -0.002799 0.015289 0.000000 0.000029 0.000000
# 4 0.000000 0.000000 0.000000 0.057287 0.000000 0.014262
# 5 -0.000560 0.000915 0.000029 0.000000 0.043104 0.000000
# 6 0.000000 0.000000 0.000000 0.014262 0.000000 0.037070
#
#
# Mechanical properties :
#
#
# Convention : Reuss Voigt Hill
#
# Bulk Modulus (GPa) = 39.38110 43.64010 41.51060
# Shear Modulus (GPa) = 25.28806 29.37959 27.33382
#
# Velocity S-wave (km/s) = 3.44466 3.71288 3.58128
# Velocity P-wave (km/s) = 5.85656 6.23357 6.04800
#
# Compressibility (1/GPa) = 0.02539289
#
# Stress axis : x y z
#
# Youngs Moduli (GPa) = 118.71424 67.19374 65.40760
#
# Poissons Ratio (x) = 0.24307 0.01207
# Poissons Ratio (y) = 0.42944 0.18308
# Poissons Ratio (z) = 0.02190 0.18808
#
# Static dielectric constant tensor:
#      x y z
#    x 3.834260 0.000000 0.034760 
#    y 0.000000 3.561310 0.000000 
#    z 0.034760 0.000000 3.771430 
# 
# 
# High freq. dielectric constant tensor:
#      x y z
#    x 1.838530 0.000000 -0.000160 
#    y 0.000000 1.832740 0.000000 
#    z -0.000160 0.000000 1.836080 
# 
# From -- ./inp_files/52252.got.cif
#   From: 2010.06.25/outbox.cif.g09.slc.cpg/sg15_27_cif.got.tgz:52252.got - 2010.06.28 07:06:18.
