data_PCOD8145178
_publ_section_title
;
Structure prediction by ZEFSAII (Michael W. Deem and Ramdas Pophale) SiO2 
 PCOD8145178
Probable space group: C 2/C
;
_chemical_formula_sum "Si O2"
_cell_formula_units_Z 48
_cell_length_a 13.634310
_cell_length_b 28.585342
_cell_length_c 13.584911
_cell_angle_alpha 90.000000
_cell_angle_beta 157.701571
_cell_angle_gamma 90.000000
_cell_volume 2008.935186
_symmetry_space_group_name_H-M "C 2/C"
_symmetry_group_IT_number 15
_symmetry_cell_setting 'monoclinic'
loop_
_space_group_symop_operation_xyz
x,y,z
-x,y,1/2-z
-x,-y,-z
x,-y,1/2+z
1/2+x,1/2+y,z
1/2-x,1/2+y,1/2-z
1/2-x,1/2-y,-z
1/2+x,1/2-y,1/2+z
loop_
_atom_site_type_symbol
_atom_site_label
_atom_site_fract_x
_atom_site_fract_y
_atom_site_fract_z
Si Si1 0.469851 0.220948 0.336555
Si Si2 0.956069 0.778301 0.823266
Si Si3 0.750780 0.858225 0.752146
Si Si4 0.277491 0.596205 0.472857
Si Si5 0.749880 0.545426 0.333700
Si Si6 0.273904 0.996349 0.146988
O O1 0.500000 0.207214 0.250000
O O2 0.690375 0.254282 0.584863
O O3 0.472308 0.174944 0.408291
O O4 0.680853 0.752703 0.580080
O O5 0.952465 0.827523 0.876902
O O6 0.000000 0.789109 0.750000
O O7 0.881728 0.883821 0.966451
O O8 0.652329 0.901119 0.593143
O O9 0.260453 0.540207 0.456950
O O10 0.000000 0.616479 0.250000
O O11 0.500000 0.614454 0.750000
O O12 0.765935 0.512909 0.252682
O O13 0.939070 0.526586 0.596578
O O14 0.448839 0.541696 0.086535
#
# Coordination Sequence:
#
# PCOD8145178 Si02
#       6
#     8   8   8   8   8   8
#     4  10  22  38  56  83 125 172 209 244 300 376
#     4  10  23  44  68  92 122 163 211 264 327 388
#     4  11  23  39  65  96 129 162 211 269 318 364
#     4  11  24  39  61  93 131 174 213 248 300 380
#     4   9  19  33  58  84 111 154 203 252 301 353
#     4   9  18  37  54  78 118 159 199 244 297 352
#
# _framework density 23.893253999999999
#
# number of rings (size 3 to 8) (size 9 to 14) (size 15 to 20)
#    0.000    2.000    0.000    2.500    0.000   11.333 
#    0.000    2.500    0.000    0.000    0.000    0.000 
#    0.000    0.000    0.000    0.000    0.000    0.000 
#
# Total GULP energy -297456.440980 kJ/mol
# GULP energy per Si atom -12394.018374 kJ/mol
# Density = 2.383887 g / cm^3
# Si number density = 23.893254 Si / 1000 Ang^3
#
#
#
# Elastic Constant Matrix: (Units=GPa)
#
#
# Indices 1 2 3 4 5 6 
#
# 1 39.6607 40.0357 34.8438 -0.0006 8.2580 -0.0002
# 2 40.0357 152.9940 57.6684 -0.0008 3.7853 -0.0002
# 3 34.8438 57.6684 176.9671 -0.0039 20.4345 0.0005
# 4 -0.0006 -0.0008 -0.0039 -2.3779 -0.0027 -3.1959
# 5 8.2580 3.7853 20.4345 -0.0027 31.0916 -0.0001
# 6 -0.0002 -0.0002 0.0005 -3.1959 -0.0001 44.8540
#
#
#
# Elastic Compliance Matrix: (Units=1/GPa)
#
#
# Indices 1 2 3 4 5 6 
#
# 1 0.038684 -0.008408 -0.004121 0.000006 -0.006542 0.000001
# 2 -0.008408 0.009295 -0.001624 -0.000001 0.002169 0.000000
# 3 -0.004121 -0.001624 0.007404 -0.000006 -0.003574 -0.000001
# 4 0.000006 -0.000001 -0.000006 -0.383782 -0.000031 -0.027345
# 5 -0.006542 0.002169 -0.003574 -0.000031 0.035986 -0.000002
# 6 0.000001 0.000000 -0.000001 -0.027345 -0.000002 0.020346
#
#
# Mechanical properties :
#
#
# Convention : Reuss Voigt Hill
#
# Bulk Modulus (GPa) = 36.93158 70.52417 53.72788
# Shear Modulus (GPa) = -21.30051 30.51845 4.60897
#
# Velocity S-wave (km/s) = -2.98902 3.57779 1.39039
# Velocity P-wave (km/s) = 1.89161 6.82992 5.01129
#
# Compressibility (1/GPa) = 0.02707710
#
# Stress axis : x y z
#
# Youngs Moduli (GPa) = 25.85046 107.58756 135.05990
#
# Poissons Ratio (x) = 0.90455 0.55664
# Poissons Ratio (y) = 0.21734 0.21933
# Poissons Ratio (z) = 0.10654 0.17471
#
# Static dielectric constant tensor:
#      x y z
#    x 4.374380 0.000000 0.043630 
#    y 0.000000 4.262520 0.000000 
#    z 0.043630 0.000000 4.227890 
# 
# 
# High freq. dielectric constant tensor:
#      x y z
#    x 1.955530 0.000000 -0.003190 
#    y 0.000000 1.941000 0.000000 
#    z -0.003190 0.000000 1.934920 
# 
# From -- ./inp_files/157724.got.cif
#   From: 2010.06.25/outbox.cif.g09.slc.cpg/sg15_79_cif.got.tgz:157724.got - 2010.06.28 07:06:18.
