data_PCOD8145114
_publ_section_title
;
Structure prediction by ZEFSAII (Michael W. Deem and Ramdas Pophale) SiO2 
 PCOD8145114
Probable space group: C 2/C
;
_chemical_formula_sum "Si O2"
_cell_formula_units_Z 64
_cell_length_a 15.924879
_cell_length_b 27.793414
_cell_length_c 8.752181
_cell_angle_alpha 90.000000
_cell_angle_beta 47.365836
_cell_angle_gamma 90.000000
_cell_volume 2849.910098
_symmetry_space_group_name_H-M "C 2/C"
_symmetry_group_IT_number 15
_symmetry_cell_setting 'monoclinic'
loop_
_space_group_symop_operation_xyz
x,y,z
-x,y,1/2-z
-x,-y,-z
x,-y,1/2+z
1/2+x,1/2+y,z
1/2-x,1/2+y,1/2-z
1/2-x,1/2-y,-z
1/2+x,1/2-y,1/2+z
loop_
_atom_site_type_symbol
_atom_site_label
_atom_site_fract_x
_atom_site_fract_y
_atom_site_fract_z
Si Si1 0.552567 0.699379 0.521816
Si Si2 0.591036 0.363511 0.505461
Si Si3 0.335341 0.126982 0.824445
Si Si4 0.074040 0.032440 0.013694
Si Si5 0.006910 0.304160 0.562240
Si Si6 0.881823 0.562643 0.318828
Si Si7 0.822426 0.523915 0.710587
Si Si8 0.297155 0.149502 0.218444
O O1 0.500000 0.705538 0.750000
O O2 0.446328 0.676936 0.564785
O O3 0.570753 0.754155 0.440992
O O4 0.665839 0.666799 0.374426
O O5 0.500000 0.363487 0.750000
O O6 0.715159 0.351358 0.417883
O O7 0.597855 0.415057 0.410241
O O8 0.432160 0.154187 0.609945
O O9 0.355358 0.070884 0.766367
O O10 0.341129 0.131703 0.999710
O O11 0.000000 0.043767 0.250000
O O12 0.193094 0.007114 0.910640
O O13 0.000000 0.000000 0.000000
O O14 0.000000 0.315860 0.750000
O O15 0.874775 0.304795 0.669234
O O16 0.816809 0.535719 0.537018
O O17 0.901875 0.521410 0.163532
O O18 0.814157 0.607354 0.325678
O O19 0.000000 0.580777 0.250000
#
# Coordination Sequence:
#
# PCOD8145114 Si02
#       8
#     8   8   8   8   8   8   8   8
#     4  11  28  44  72 102 134 179 229 290 346 421
#     4  10  22  43  65  97 137 176 228 281 345 406
#     4  11  24  45  72 100 144 184 227 286 342 416
#     4  10  22  37  61  91 129 172 216 274 328 396
#     4  11  27  47  69 101 135 177 228 289 352 407
#     4  12  26  44  70 102 142 182 232 283 336 407
#     4  11  24  42  68 100 137 186 224 278 337 404
#     4  12  26  46  71 103 138 182 234 283 349 413
#
# _framework density 22.456848000000001
#
# number of rings (size 3 to 8) (size 9 to 14) (size 15 to 20)
#    0.000    1.000    1.250    4.125    8.750    4.000 
#    0.000    0.000    0.000    0.000    0.000    0.000 
#    0.000    0.000    0.000    0.000    0.000    0.000 
#
# Total GULP energy -396593.747314 kJ/mol
# GULP energy per Si atom -12393.554604 kJ/mol
# Density = 2.240573 g / cm^3
# Si number density = 22.456848 Si / 1000 Ang^3
#
#
#
# Elastic Constant Matrix: (Units=GPa)
#
#
# Indices 1 2 3 4 5 6 
#
# 1 119.7244 57.5789 12.8188 0.0000 10.3163 0.0000
# 2 57.5789 119.8639 19.5496 0.0000 13.1688 0.0000
# 3 12.8188 19.5496 46.5230 0.0000 3.4878 0.0000
# 4 0.0000 0.0000 0.0000 19.7973 0.0000 -6.2992
# 5 10.3163 13.1688 3.4878 0.0000 31.7204 0.0000
# 6 0.0000 0.0000 0.0000 -6.2992 0.0000 40.2599
#
#
#
# Elastic Compliance Matrix: (Units=1/GPa)
#
#
# Indices 1 2 3 4 5 6 
#
# 1 0.010953 -0.004973 -0.000823 0.000000 -0.001407 0.000000
# 2 -0.004973 0.011578 -0.003283 0.000000 -0.002828 0.000000
# 3 -0.000823 -0.003283 0.023170 0.000000 -0.000917 0.000000
# 4 0.000000 0.000000 0.000000 0.053159 0.000000 0.008317
# 5 -0.001407 -0.002828 -0.000917 0.000000 0.033258 0.000000
# 6 0.000000 0.000000 0.000000 0.008317 0.000000 0.026140
#
#
# Mechanical properties :
#
#
# Convention : Reuss Voigt Hill
#
# Bulk Modulus (GPa) = 36.30599 51.77844 44.04221
# Shear Modulus (GPa) = 26.94019 31.43311 29.18665
#
# Velocity S-wave (km/s) = 3.46734 3.74533 3.60901
# Velocity P-wave (km/s) = 5.67733 6.46608 6.08450
#
# Compressibility (1/GPa) = 0.02754366
#
# Stress axis : x y z
#
# Youngs Moduli (GPa) = 91.29513 86.37238 43.15966
#
# Poissons Ratio (x) = 0.42952 0.03552
# Poissons Ratio (y) = 0.45400 0.14169
# Poissons Ratio (z) = 0.07513 0.28355
#
# Static dielectric constant tensor:
#      x y z
#    x 3.648590 0.000000 0.076780 
#    y 0.000000 4.382020 0.000000 
#    z 0.076780 0.000000 4.117630 
# 
# 
# High freq. dielectric constant tensor:
#      x y z
#    x 1.895390 0.000000 -0.002600 
#    y 0.000000 1.887080 0.000000 
#    z -0.002600 0.000000 1.891470 
# 
# From -- ./inp_files/44833.got.cif
#   From: 2010.06.25/outbox.cif.g09.slc.cpg/sg15_23_cif.got.tgz:44833.got - 2010.06.28 07:06:18.
