data_PCOD8145267
_publ_section_title
;
Structure prediction by ZEFSAII (Michael W. Deem and Ramdas Pophale) SiO2 
 PCOD8145267
Probable space group: C 2/C
;
_chemical_formula_sum "Si O2"
_cell_formula_units_Z 52
_cell_length_a 8.076086
_cell_length_b 27.137233
_cell_length_c 21.353177
_cell_angle_alpha 90.000000
_cell_angle_beta 36.618301
_cell_angle_gamma 90.000000
_cell_volume 2791.424031
_symmetry_space_group_name_H-M "C 2/C"
_symmetry_group_IT_number 15
_symmetry_cell_setting 'monoclinic'
loop_
_space_group_symop_operation_xyz
x,y,z
-x,y,1/2-z
-x,-y,-z
x,-y,1/2+z
1/2+x,1/2+y,z
1/2-x,1/2+y,1/2-z
1/2-x,1/2-y,-z
1/2+x,1/2-y,1/2+z
loop_
_atom_site_type_symbol
_atom_site_label
_atom_site_fract_x
_atom_site_fract_y
_atom_site_fract_z
Si Si1 0.886630 0.849415 0.984760
Si Si2 0.077144 0.692467 0.795511
Si Si3 0.490407 0.070753 0.551371
Si Si4 0.456631 0.113241 0.336953
Si Si5 0.248648 0.796865 0.778787
Si Si6 0.173734 0.464306 0.862745
Si Si7 0.000000 0.130754 0.750000
O O1 0.143217 0.870356 0.947065
O O2 0.981810 0.817164 0.896767
O O3 0.704674 0.811826 0.080035
O O4 0.716922 0.897938 0.018814
O O5 0.167460 0.749401 0.763316
O O6 0.323001 0.662659 0.754628
O O7 0.000000 0.672322 0.750000
O O8 0.599029 0.065894 0.447714
O O9 0.193270 0.097689 0.646264
O O10 0.463054 0.017934 0.592723
O O11 0.500000 0.104066 0.250000
O O12 0.653173 0.159263 0.297905
O O13 0.529233 0.063198 0.349339
O O14 0.500000 0.783754 0.750000
O O15 0.500000 0.467614 0.750000
#
# Coordination Sequence:
#
# PCOD8145267 Si02
#       7
#     8   8   8   8   8   8   4
#     4   9  20  38  56  83 120 156 190 249 306 350
#     4  11  22  35  62  87 119 162 208 239 303 372
#     4  10  22  38  61  83 119 162 199 248 307 361
#     4   9  20  37  60  85 122 147 196 254 299 353
#     4   9  18  38  58  82 119 158 191 251 305 349
#     4  11  21  37  62  88 113 155 212 245 299 373
#     4  10  22  44  56  86 136 164 190 260 306 352
#
# _framework density 18.628485999999999
#
# number of rings (size 3 to 8) (size 9 to 14) (size 15 to 20)
#    0.000    2.462    1.538    2.308    2.154    2.462 
#    0.000    6.154    0.000    0.000    0.000    0.000 
#    0.000    0.000    0.000    0.000    0.000    0.000 
#
# Total GULP energy -322297.952285 kJ/mol
# GULP energy per Si atom -12396.075088 kJ/mol
# Density = 1.858609 g / cm^3
# Si number density = 18.628486 Si / 1000 Ang^3
#
#
#
# Elastic Constant Matrix: (Units=GPa)
#
#
# Indices 1 2 3 4 5 6 
#
# 1 77.5481 46.3366 35.7878 0.0000 -0.6262 -0.0001
# 2 46.3366 107.4787 45.5538 0.0001 3.5471 -0.0002
# 3 35.7878 45.5538 127.1632 0.0013 -8.7539 -0.0007
# 4 0.0000 0.0001 0.0013 24.6839 -0.0001 2.2065
# 5 -0.6262 3.5471 -8.7539 -0.0001 20.0892 0.0001
# 6 -0.0001 -0.0002 -0.0007 2.2065 0.0001 11.3056
#
#
#
# Elastic Compliance Matrix: (Units=1/GPa)
#
#
# Indices 1 2 3 4 5 6 
#
# 1 0.018138 -0.006712 -0.002659 0.000000 0.000592 0.000000
# 2 -0.006712 0.013736 -0.003313 0.000000 -0.004078 0.000000
# 3 -0.002659 -0.003313 0.010138 -0.000001 0.004920 0.000001
# 4 0.000000 0.000000 -0.000001 0.041232 0.000000 -0.008047
# 5 0.000592 -0.004078 0.004920 0.000000 0.052660 0.000000
# 6 0.000000 0.000000 0.000001 -0.008047 0.000000 0.090022
#
#
# Mechanical properties :
#
#
# Convention : Reuss Voigt Hill
#
# Bulk Modulus (GPa) = 60.08170 63.06074 61.57122
# Shear Modulus (GPa) = 19.46722 23.51654 21.49188
#
# Velocity S-wave (km/s) = 3.23619 3.55688 3.40032
# Velocity P-wave (km/s) = 6.80342 7.12697 6.96708
#
# Compressibility (1/GPa) = 0.01664400
#
# Stress axis : x y z
#
# Youngs Moduli (GPa) = 55.13323 72.79888 98.64190
#
# Poissons Ratio (x) = 0.48863 0.26233
# Poissons Ratio (y) = 0.37006 0.32676
# Poissons Ratio (z) = 0.14662 0.24115
#
# Static dielectric constant tensor:
#      x y z
#    x 3.139780 0.000000 -0.126290 
#    y 0.000000 3.525290 0.000000 
#    z -0.126290 0.000000 3.709540 
# 
# 
# High freq. dielectric constant tensor:
#      x y z
#    x 1.698700 0.000000 -0.013540 
#    y 0.000000 1.733520 0.000000 
#    z -0.013540 0.000000 1.739200 
# 
# From -- ./inp_files/266625.got.cif
#   From: 2010.06.25/outbox.cif.g09.slc.cpg/sg15_134_cif.got.tgz:266625.got - 2010.06.28 07:06:18.
