data_PCOD8145502
_publ_section_title
;
Structure prediction by ZEFSAII (Michael W. Deem and Ramdas Pophale) SiO2 
 PCOD8145502
Probable space group: C 2/C
;
_chemical_formula_sum "Si O2"
_cell_formula_units_Z 60
_cell_length_a 9.126304
_cell_length_b 10.776453
_cell_length_c 29.271064
_cell_angle_alpha 90.000000
_cell_angle_beta 82.919454
_cell_angle_gamma 90.000000
_cell_volume 2856.831266
_symmetry_space_group_name_H-M "C 2/C"
_symmetry_group_IT_number 15
_symmetry_cell_setting 'monoclinic'
loop_
_space_group_symop_operation_xyz
x,y,z
-x,y,1/2-z
-x,-y,-z
x,-y,1/2+z
1/2+x,1/2+y,z
1/2-x,1/2+y,1/2-z
1/2-x,1/2-y,-z
1/2+x,1/2-y,1/2+z
loop_
_atom_site_type_symbol
_atom_site_label
_atom_site_fract_x
_atom_site_fract_y
_atom_site_fract_z
Si Si1 0.208011 0.405542 0.615291
Si Si2 0.753026 0.820556 0.325902
Si Si3 0.500000 0.368195 0.250000
Si Si4 0.027487 0.215424 0.200144
Si Si5 0.797269 0.890883 0.179759
Si Si6 0.422029 0.226630 0.100391
Si Si7 0.657731 0.553080 0.123581
Si Si8 0.041981 0.963627 0.447843
O O1 0.261591 0.273261 0.631309
O O2 0.206940 0.500485 0.658030
O O3 0.311077 0.459855 0.571387
O O4 0.045597 0.380341 0.600539
O O5 0.601928 0.814855 0.303088
O O6 0.892985 0.787901 0.287523
O O7 0.758858 0.957110 0.346958
O O8 0.386596 0.443470 0.220783
O O9 0.183740 0.284265 0.198106
O O10 0.027773 0.112839 0.159804
O O11 0.000000 0.148191 0.250000
O O12 0.921777 0.827846 0.142041
O O13 0.265635 0.160746 0.102810
O O14 0.438163 0.313620 0.054790
O O15 0.592036 0.495022 0.080718
O O16 0.000000 0.000000 0.500000
#
# Coordination Sequence:
#
# PCOD8145502 Si02
#       8
#     8   8   4   8   8   8   8   8
#     4  11  21  43  65  88 129 172 206 265 332 385
#     4  12  23  39  62  90 130 175 215 262 323 375
#     4  12  22  38  56  90 132 164 224 268 298 376
#     4  11  23  41  59  92 126 172 223 263 312 377
#     4  10  22  39  59  88 125 168 215 263 311 370
#     4  10  22  44  66  92 126 165 209 261 325 386
#     4  11  24  43  68  91 132 174 212 266 325 389
#     4  11  24  44  71 100 126 163 216 273 335 399
#
# _framework density 21.002291
#
# number of rings (size 3 to 8) (size 9 to 14) (size 15 to 20)
#    0.000    1.067    5.333    1.600    0.933    1.067 
#    1.200    0.667    0.000    0.000    0.000    0.000 
#    0.000    0.000    0.000    0.000    0.000    0.000 
#
# Total GULP energy -371883.679173 kJ/mol
# GULP energy per Si atom -12396.122639 kJ/mol
# Density = 2.095449 g / cm^3
# Si number density = 21.002291 Si / 1000 Ang^3
#
#
#
# Elastic Constant Matrix: (Units=GPa)
#
#
# Indices 1 2 3 4 5 6 
#
# 1 88.0304 25.8503 42.4617 0.0000 0.0941 0.0000
# 2 25.8503 89.5002 36.3965 0.0000 -6.2056 0.0000
# 3 42.4617 36.3965 115.3379 0.0000 -4.1131 0.0000
# 4 0.0000 0.0000 0.0000 26.3061 0.0000 1.2017
# 5 0.0941 -6.2056 -4.1131 0.0000 18.3442 0.0000
# 6 0.0000 0.0000 0.0000 1.2017 0.0000 39.2744
#
#
#
# Elastic Compliance Matrix: (Units=1/GPa)
#
#
# Indices 1 2 3 4 5 6 
#
# 1 0.014267 -0.002397 -0.004564 0.000000 -0.001907 0.000000
# 2 -0.002397 0.013442 -0.003223 0.000000 0.003837 0.000000
# 3 -0.004564 -0.003223 0.011421 0.000000 0.001494 0.000000
# 4 0.000000 0.000000 0.000000 0.038067 0.000000 -0.001165
# 5 -0.001907 0.003837 0.001494 0.000000 0.056156 0.000000
# 6 0.000000 0.000000 0.000000 -0.001165 0.000000 0.025498
#
#
# Mechanical properties :
#
#
# Convention : Reuss Voigt Hill
#
# Bulk Modulus (GPa) = 53.29751 55.80950 54.55350
# Shear Modulus (GPa) = 26.95827 29.32892 28.14360
#
# Velocity S-wave (km/s) = 3.58661 3.74098 3.66461
# Velocity P-wave (km/s) = 6.52562 6.72983 6.62851
#
# Compressibility (1/GPa) = 0.01876260
#
# Stress axis : x y z
#
# Youngs Moduli (GPa) = 70.09123 74.39359 87.56076
#
# Poissons Ratio (x) = 0.17832 0.39963
# Poissons Ratio (y) = 0.16801 0.28217
# Poissons Ratio (z) = 0.31990 0.23974
#
# Static dielectric constant tensor:
#      x y z
#    x 3.895680 0.000000 -0.081650 
#    y 0.000000 3.782620 0.000000 
#    z -0.081650 0.000000 3.678110 
# 
# 
# High freq. dielectric constant tensor:
#      x y z
#    x 1.834960 0.000000 -0.001460 
#    y 0.000000 1.819220 0.000000 
#    z -0.001460 0.000000 1.801460 
# 
# From -- ./inp_files/307126.got.cif
#   From: 2010.06.25/outbox.cif.g09.slc.cpg/sg15_154_cif.got.tgz:307126.got - 2010.06.28 07:06:18.
