data_PCOD8145592
_publ_section_title
;
Structure prediction by ZEFSAII (Michael W. Deem and Ramdas Pophale) SiO2 
 PCOD8145592
Probable space group: C 2/C
;
_chemical_formula_sum "Si O2"
_cell_formula_units_Z 48
_cell_length_a 8.161643
_cell_length_b 31.680036
_cell_length_c 12.561394
_cell_angle_alpha 90.000000
_cell_angle_beta 40.193996
_cell_angle_gamma 90.000000
_cell_volume 2096.114573
_symmetry_space_group_name_H-M "C 2/C"
_symmetry_group_IT_number 15
_symmetry_cell_setting 'monoclinic'
loop_
_space_group_symop_operation_xyz
x,y,z
-x,y,1/2-z
-x,-y,-z
x,-y,1/2+z
1/2+x,1/2+y,z
1/2-x,1/2+y,1/2-z
1/2-x,1/2-y,-z
1/2+x,1/2-y,1/2+z
loop_
_atom_site_type_symbol
_atom_site_label
_atom_site_fract_x
_atom_site_fract_y
_atom_site_fract_z
Si Si1 0.139706 0.065928 0.843155
Si Si2 0.195391 0.569905 0.505493
Si Si3 0.000000 0.141469 0.250000
Si Si4 0.567042 0.802079 0.894855
Si Si5 0.429805 0.653359 0.907024
Si Si6 0.177626 0.281422 0.260609
Si Si7 0.500000 0.497191 0.750000
O O1 0.396324 0.079475 0.654001
O O2 0.938355 0.104352 0.937647
O O3 0.027618 0.025016 0.841677
O O4 0.201189 0.053341 0.932897
O O5 0.329778 0.613698 0.413173
O O6 0.256937 0.533553 0.388057
O O7 0.817272 0.169062 0.266595
O O8 0.638845 0.758099 0.802097
O O9 0.348154 0.826318 0.936675
O O10 0.491461 0.793191 0.054294
O O11 0.500000 0.658293 0.750000
O O12 0.643313 0.679650 0.865103
O O13 0.000000 0.269144 0.250000
#
# Coordination Sequence:
#
# PCOD8145592 Si02
#       7
#     8   8   4   8   8   8   4
#     4  11  22  42  70  95 128 175 217 263 328 394
#     4  10  24  41  66  98 131 172 217 267 322 396
#     4  11  24  42  64  90 138 164 224 272 334 383
#     4  11  24  42  62  93 128 174 213 278 330 384
#     4  10  22  39  62  92 126 168 216 273 325 379
#     4  11  23  39  65  91 125 168 223 269 329 392
#     4  11  22  42  68 100 136 166 212 274 328 383
#
# _framework density 22.899512000000001
#
# number of rings (size 3 to 8) (size 9 to 14) (size 15 to 20)
#    0.000    1.333    1.667    4.000    4.667    0.000 
#    0.000    2.500    0.000    0.000    0.000    0.000 
#    0.000    0.000    0.000    0.000    0.000    0.000 
#
# Total GULP energy -297698.627339 kJ/mol
# GULP energy per Si atom -12404.109472 kJ/mol
# Density = 2.284739 g / cm^3
# Si number density = 22.899512 Si / 1000 Ang^3
#
#
#
# Elastic Constant Matrix: (Units=GPa)
#
#
# Indices 1 2 3 4 5 6 
#
# 1 54.5758 18.6635 -0.1456 0.0000 -17.0534 0.0000
# 2 18.6635 139.2895 30.1177 0.0000 -11.7657 0.0000
# 3 -0.1456 30.1177 53.8245 0.0000 -15.8828 0.0000
# 4 0.0000 0.0000 0.0000 34.0684 0.0000 -1.1740
# 5 -17.0534 -11.7657 -15.8828 0.0000 30.2181 0.0000
# 6 0.0000 0.0000 0.0000 -1.1740 0.0000 38.1453
#
#
#
# Elastic Compliance Matrix: (Units=1/GPa)
#
#
# Indices 1 2 3 4 5 6 
#
# 1 0.024503 -0.003375 0.006684 0.000000 0.016027 0.000000
# 2 -0.003375 0.008654 -0.005230 0.000000 -0.001284 0.000000
# 3 0.006684 -0.005230 0.026081 0.000000 0.015444 0.000000
# 4 0.000000 0.000000 0.000000 0.029384 0.000000 0.000904
# 5 0.016027 -0.001284 0.015444 0.000000 0.049755 0.000000
# 6 0.000000 0.000000 0.000000 0.000904 0.000000 0.026243
#
#
# Mechanical properties :
#
#
# Convention : Reuss Voigt Hill
#
# Bulk Modulus (GPa) = 18.05186 38.32901 28.19044
# Shear Modulus (GPa) = 26.74832 33.75663 30.25248
#
# Velocity S-wave (km/s) = 3.42142 3.84359 3.63863
# Velocity P-wave (km/s) = 4.84854 6.03919 5.47632
#
# Compressibility (1/GPa) = 0.05539594
#
# Stress axis : x y z
#
# Youngs Moduli (GPa) = 40.81116 115.55446 38.34225
#
# Poissons Ratio (x) = 0.38995 -0.25628
# Poissons Ratio (y) = 0.13772 0.20054
# Poissons Ratio (z) = -0.27278 0.60439
#
# Static dielectric constant tensor:
#      x y z
#    x 3.933460 0.000000 -0.215730 
#    y 0.000000 4.160110 0.000000 
#    z -0.215730 0.000000 4.097370 
# 
# 
# High freq. dielectric constant tensor:
#      x y z
#    x 1.892020 0.000000 -0.008790 
#    y 0.000000 1.916100 0.000000 
#    z -0.008790 0.000000 1.901110 
# 
# From -- ./inp_files/138951.got.cif
#   From: 2010.06.25/outbox.cif.g09.slc.cpg/sg15_70_cif.got.tgz:138951.got - 2010.06.28 07:06:18.
