data_PCOD8145062
_publ_section_title
;
Structure prediction by ZEFSAII (Michael W. Deem and Ramdas Pophale) SiO2 
 PCOD8145062
Probable space group: C 2/C
;
_chemical_formula_sum "Si O2"
_cell_formula_units_Z 48
_cell_length_a 22.068693
_cell_length_b 12.358991
_cell_length_c 24.836189
_cell_angle_alpha 90.000000
_cell_angle_beta 155.759363
_cell_angle_gamma 90.000000
_cell_volume 2781.196286
_symmetry_space_group_name_H-M "C 2/C"
_symmetry_group_IT_number 15
_symmetry_cell_setting 'monoclinic'
loop_
_space_group_symop_operation_xyz
x,y,z
-x,y,1/2-z
-x,-y,-z
x,-y,1/2+z
1/2+x,1/2+y,z
1/2-x,1/2+y,1/2-z
1/2-x,1/2-y,-z
1/2+x,1/2-y,1/2+z
loop_
_atom_site_type_symbol
_atom_site_label
_atom_site_fract_x
_atom_site_fract_y
_atom_site_fract_z
Si Si1 0.909227 0.317836 0.728909
Si Si2 0.401497 0.066651 0.719595
Si Si3 0.567974 0.562540 0.453453
Si Si4 0.435831 0.287191 0.458020
Si Si5 0.563161 0.683871 0.946115
Si Si6 0.400554 0.763830 0.310526
O O1 0.937896 0.443443 0.765316
O O2 0.736754 0.296000 0.577798
O O3 0.000000 0.280747 0.750000
O O4 0.966350 0.250942 0.825943
O O5 0.500000 0.106505 0.750000
O O6 0.232773 0.078490 0.564333
O O7 0.437901 0.140992 0.799874
O O8 0.566728 0.591991 0.516877
O O9 0.515397 0.441020 0.400353
O O10 0.461684 0.648461 0.336768
O O11 0.525437 0.280856 0.475778
O O12 0.516562 0.207505 0.566233
O O13 0.270463 0.246838 0.314904
#
# Coordination Sequence:
#
# PCOD8145062 Si02
#       6
#     8   8   8   8   8   8
#     4  10  22  37  55  77 106 137 179 219 250 311
#     4   9  18  36  55  74 105 147 174 204 267 315
#     4   8  19  33  55  75 108 136 170 215 257 311
#     4   9  18  33  54  78 105 134 172 210 259 314
#     4  11  19  37  57  78 101 146 174 204 274 307
#     4   9  18  35  51  80 107 135 171 222 251 306
#
# _framework density 17.258759999999999
#
# number of rings (size 3 to 8) (size 9 to 14) (size 15 to 20)
#    1.000    1.667    0.000    2.000    0.000    0.667 
#    3.000    1.667    0.000    0.000    0.000    0.000 
#    0.000    0.000    0.000    0.000    0.000    0.000 
#
# Total GULP energy -297429.765022 kJ/mol
# GULP energy per Si atom -12392.906876 kJ/mol
# Density = 1.721948 g / cm^3
# Si number density = 17.258760 Si / 1000 Ang^3
#
#
#
# Elastic Constant Matrix: (Units=GPa)
#
#
# Indices 1 2 3 4 5 6 
#
# 1 92.2134 29.4273 21.5472 -0.0028 11.2359 -0.0006
# 2 29.4273 82.2029 32.4412 -0.0016 -2.5462 -0.0007
# 3 21.5472 32.4412 68.3994 -0.0013 5.5736 -0.0008
# 4 -0.0028 -0.0016 -0.0013 15.4858 -0.0008 -0.0398
# 5 11.2359 -2.5462 5.5736 -0.0008 23.2191 0.0002
# 6 -0.0006 -0.0007 -0.0008 -0.0398 0.0002 21.9100
#
#
#
# Elastic Compliance Matrix: (Units=1/GPa)
#
#
# Indices 1 2 3 4 5 6 
#
# 1 0.013419 -0.004369 -0.001619 0.000002 -0.006584 0.000000
# 2 -0.004369 0.016659 -0.006982 0.000001 0.005617 0.000000
# 3 -0.001619 -0.006982 0.018808 0.000000 -0.004497 0.000000
# 4 0.000002 0.000001 0.000000 0.064576 0.000001 0.000117
# 5 -0.006584 0.005617 -0.004497 0.000001 0.047950 -0.000001
# 6 0.000000 0.000000 0.000000 0.000117 -0.000001 0.045642
#
#
# Mechanical properties :
#
#
# Convention : Reuss Voigt Hill
#
# Bulk Modulus (GPa) = 43.58099 45.51634 44.54867
# Shear Modulus (GPa) = 20.77781 22.74964 21.76373
#
# Velocity S-wave (km/s) = 3.47349 3.63457 3.55494
# Velocity P-wave (km/s) = 6.43375 6.63654 6.53593
#
# Compressibility (1/GPa) = 0.02294579
#
# Stress axis : x y z
#
# Youngs Moduli (GPa) = 74.52054 60.02890 53.16861
#
# Poissons Ratio (x) = 0.26227 0.08606
# Poissons Ratio (y) = 0.32558 0.37125
# Poissons Ratio (z) = 0.12062 0.41915
#
# Static dielectric constant tensor:
#      x y z
#    x 3.190350 0.000000 0.188930 
#    y 0.000000 3.123980 0.000000 
#    z 0.188930 0.000000 3.115250 
# 
# 
# High freq. dielectric constant tensor:
#      x y z
#    x 1.668670 0.000000 0.017510 
#    y 0.000000 1.654530 0.000000 
#    z 0.017510 0.000000 1.663450 
# 
# From -- ./inp_files/279915.got.cif
#   From: 2010.06.25/outbox.cif.g09.slc.cpg/sg15_140_cif.got.tgz:279915.got - 2010.06.28 07:06:18.
