data_PCOD8145566
_publ_section_title
;
Structure prediction by ZEFSAII (Michael W. Deem and Ramdas Pophale) SiO2 
 PCOD8145566
Probable space group: C 2/C
;
_chemical_formula_sum "Si O2"
_cell_formula_units_Z 64
_cell_length_a 15.023727
_cell_length_b 25.144880
_cell_length_c 12.692807
_cell_angle_alpha 90.000000
_cell_angle_beta 39.016622
_cell_angle_gamma 90.000000
_cell_volume 3018.646604
_symmetry_space_group_name_H-M "C 2/C"
_symmetry_group_IT_number 15
_symmetry_cell_setting 'monoclinic'
loop_
_space_group_symop_operation_xyz
x,y,z
-x,y,1/2-z
-x,-y,-z
x,-y,1/2+z
1/2+x,1/2+y,z
1/2-x,1/2+y,1/2-z
1/2-x,1/2-y,-z
1/2+x,1/2-y,1/2+z
loop_
_atom_site_type_symbol
_atom_site_label
_atom_site_fract_x
_atom_site_fract_y
_atom_site_fract_z
Si Si1 0.708464 0.357410 0.779956
Si Si2 0.373814 0.148817 0.794010
Si Si3 0.632856 0.733702 0.190004
Si Si4 0.999516 0.905235 0.369976
Si Si5 0.302544 0.927697 0.176649
Si Si6 0.334883 0.411698 0.885353
Si Si7 0.555370 0.097593 0.305037
Si Si8 0.724386 0.508496 0.418283
O O1 0.688298 0.302773 0.734500
O O2 0.698906 0.407363 0.707725
O O3 0.862174 0.360624 0.694956
O O4 0.584641 0.363134 0.979997
O O5 0.500000 0.126064 0.750000
O O6 0.409484 0.208711 0.723664
O O7 0.364838 0.115439 0.697758
O O8 0.229732 0.140548 0.995856
O O9 0.500000 0.707483 0.250000
O O10 0.750000 0.750000 0.000000
O O11 0.930671 0.964289 0.442960
O O12 0.000000 0.884568 0.250000
O O13 0.161312 0.905614 0.254579
O O14 0.263273 0.982445 0.270674
O O15 0.426957 0.934295 0.977742
O O16 0.500000 0.411470 0.750000
O O17 0.268568 0.465459 0.994000
O O18 0.500000 0.127601 0.250000
O O19 0.663760 0.054014 0.160602
#
# Coordination Sequence:
#
# PCOD8145566 Si02
#       8
#     8   8   8   8   8   8   8   8
#     4  11  23  42  66  93 129 171 205 262 328 387
#     4  10  22  39  61  98 132 156 191 257 330 402
#     4  11  24  41  71 106 139 155 197 253 344 405
#     4  11  24  41  60  86 125 173 229 263 302 368
#     4  11  22  39  64  88 124 169 219 266 327 369
#     4  11  21  37  62  96 131 163 205 266 328 389
#     4  11  25  41  59  85 126 178 228 264 305 366
#     4  10  23  39  60  90 128 168 217 273 323 380
#
# _framework density 21.201554000000002
#
# number of rings (size 3 to 8) (size 9 to 14) (size 15 to 20)
#    0.000    1.250    1.250    5.250    3.500    8.000 
#    0.000    0.000    0.000    4.500    0.000    0.000 
#    0.000    0.000    0.000    0.000    0.000    0.000 
#
# Total GULP energy -396718.734762 kJ/mol
# GULP energy per Si atom -12397.460461 kJ/mol
# Density = 2.115330 g / cm^3
# Si number density = 21.201554 Si / 1000 Ang^3
#
#
#
# Elastic Constant Matrix: (Units=GPa)
#
#
# Indices 1 2 3 4 5 6 
#
# 1 166.5033 55.2475 51.7388 -0.0004 1.4828 -0.0001
# 2 55.2475 94.2698 31.5921 0.0001 6.8825 0.0000
# 3 51.7388 31.5921 110.9616 -0.0011 -4.4058 -0.0003
# 4 -0.0004 0.0001 -0.0011 8.8127 0.0008 1.9617
# 5 1.4828 6.8825 -4.4058 0.0008 41.1215 0.0002
# 6 -0.0001 0.0000 -0.0003 1.9617 0.0002 32.6878
#
#
#
# Elastic Compliance Matrix: (Units=1/GPa)
#
#
# Indices 1 2 3 4 5 6 
#
# 1 0.008122 -0.003865 -0.002684 0.000000 0.000067 0.000000
# 2 -0.003865 0.013793 -0.002220 0.000000 -0.002407 0.000000
# 3 -0.002684 -0.002220 0.010961 0.000001 0.001643 0.000000
# 4 0.000000 0.000000 0.000001 0.115010 -0.000002 -0.006902
# 5 0.000067 -0.002407 0.001643 -0.000002 0.024895 0.000000
# 6 0.000000 0.000000 0.000000 -0.006902 0.000000 0.031007
#
#
# Mechanical properties :
#
#
# Convention : Reuss Voigt Hill
#
# Bulk Modulus (GPa) = 65.20275 72.09903 68.65089
# Shear Modulus (GPa) = 22.08112 32.06814 27.07463
#
# Velocity S-wave (km/s) = 3.23071 3.89335 3.57741
# Velocity P-wave (km/s) = 6.68858 7.36826 7.03663
#
# Compressibility (1/GPa) = 0.01533678
#
# Stress axis : x y z
#
# Youngs Moduli (GPa) = 123.12520 72.50089 91.23318
#
# Poissons Ratio (x) = 0.28024 0.24486
# Poissons Ratio (y) = 0.47591 0.20256
# Poissons Ratio (z) = 0.33045 0.16097
#
# Static dielectric constant tensor:
#      x y z
#    x 3.996870 0.000000 0.012610 
#    y 0.000000 3.996870 0.000000 
#    z 0.012610 0.000000 4.117220 
# 
# 
# High freq. dielectric constant tensor:
#      x y z
#    x 1.839580 0.000000 -0.007020 
#    y 0.000000 1.802440 0.000000 
#    z -0.007020 0.000000 1.850350 
# 
# From -- ./inp_files/101295.got.cif
#   From: 2010.06.25/outbox.cif.g09.slc.cpg/sg15_51_cif.got.tgz:101295.got - 2010.06.28 07:06:18.
