data_PCOD8145877
_publ_section_title
;
Structure prediction by ZEFSAII (Michael W. Deem and Ramdas Pophale) SiO2 
 PCOD8145877
Probable space group: C 2/C
;
_chemical_formula_sum "Si O2"
_cell_formula_units_Z 52
_cell_length_a 12.135421
_cell_length_b 22.339439
_cell_length_c 11.107598
_cell_angle_alpha 90.000000
_cell_angle_beta 118.999759
_cell_angle_gamma 90.000000
_cell_volume 2633.707467
_symmetry_space_group_name_H-M "C 2/C"
_symmetry_group_IT_number 15
_symmetry_cell_setting 'monoclinic'
loop_
_space_group_symop_operation_xyz
x,y,z
-x,y,1/2-z
-x,-y,-z
x,-y,1/2+z
1/2+x,1/2+y,z
1/2-x,1/2+y,1/2-z
1/2-x,1/2-y,-z
1/2+x,1/2-y,1/2+z
loop_
_atom_site_type_symbol
_atom_site_label
_atom_site_fract_x
_atom_site_fract_y
_atom_site_fract_z
Si Si1 0.638167 0.233912 0.800654
Si Si2 0.578726 0.445934 0.904586
Si Si3 0.500000 0.351744 0.250000
Si Si4 0.711668 0.151268 0.039250
Si Si5 0.123070 0.630206 0.243142
Si Si6 0.126309 0.927184 0.521921
Si Si7 0.290862 0.259290 0.158889
O O1 0.500000 0.260073 0.750000
O O2 0.733590 0.285497 0.889391
O O3 0.667043 0.224813 0.673550
O O4 0.646113 0.170376 0.878328
O O5 0.500000 0.470466 0.750000
O O6 0.684217 0.398659 0.926890
O O7 0.478333 0.412458 0.934588
O O8 0.641578 0.502230 0.004849
O O9 0.577884 0.392506 0.381266
O O10 0.390455 0.310629 0.246598
O O11 0.618792 0.123379 0.093787
O O12 0.239896 0.594942 0.361059
O O13 0.136899 0.699864 0.269060
O O14 0.000000 0.606489 0.250000
O O15 0.250000 0.250000 0.000000
#
# Coordination Sequence:
#
# PCOD8145877 Si02
#       7
#     8   8   4   8   8   8   8
#     4  10  23  37  60  91 123 163 205 252 302 378
#     4  11  21  41  65  90 116 157 208 265 304 360
#     4  12  22  38  60  94 126 160 206 258 304 372
#     4  10  22  40  62  87 122 161 207 251 313 363
#     4  11  23  40  60  88 124 166 201 249 313 385
#     4  11  24  38  64  93 121 157 212 258 309 357
#     4  11  23  35  58  89 128 162 200 251 314 364
#
# _framework density 19.744031
#
# number of rings (size 3 to 8) (size 9 to 14) (size 15 to 20)
#    0.000    1.231    4.615    1.385    4.308    1.231 
#    0.000    1.538    0.000    0.000    0.000    0.000 
#    0.000    0.000    0.000    0.000    0.000    0.000 
#
# Total GULP energy -322164.925749 kJ/mol
# GULP energy per Si atom -12390.958683 kJ/mol
# Density = 1.969909 g / cm^3
# Si number density = 19.744031 Si / 1000 Ang^3
#
#
#
# Elastic Constant Matrix: (Units=GPa)
#
#
# Indices 1 2 3 4 5 6 
#
# 1 158.4148 44.9109 36.9841 0.0000 -21.2088 0.0000
# 2 44.9109 67.9539 23.2672 0.0000 -1.1509 0.0000
# 3 36.9841 23.2672 78.1349 0.0000 -18.5164 0.0000
# 4 0.0000 0.0000 0.0000 22.1201 0.0000 53.8126
# 5 -21.2088 -1.1509 -18.5164 0.0000 32.7128 0.0000
# 6 0.0000 0.0000 0.0000 53.8126 0.0000 -152.3398
#
#
#
# Elastic Compliance Matrix: (Units=1/GPa)
#
#
# Indices 1 2 3 4 5 6 
#
# 1 0.008757 -0.005197 -0.001496 0.000000 0.004648 0.000000
# 2 -0.005197 0.019653 -0.004651 0.000000 -0.005310 0.000000
# 3 -0.001496 -0.004651 0.016888 0.000000 0.008426 0.000000
# 4 0.000000 0.000000 0.000000 0.024314 0.000000 0.008589
# 5 0.004648 -0.005310 0.008426 0.000000 0.038165 0.000000
# 6 0.000000 0.000000 0.000000 0.008589 0.000000 -0.003530
#
#
# Mechanical properties :
#
#
# Convention : Reuss Voigt Hill
#
# Bulk Modulus (GPa) = 44.22672 57.20312 50.71492
# Shear Modulus (GPa) = 37.18254 -6.21198 15.48528
#
# Velocity S-wave (km/s) = 4.34433 -1.77569 2.80358
# Velocity P-wave (km/s) = 6.90021 4.98309 6.01847
#
# Compressibility (1/GPa) = 0.02261076
#
# Stress axis : x y z
#
# Youngs Moduli (GPa) = 114.18872 50.88292 59.21275
#
# Poissons Ratio (x) = 0.26443 0.08860
# Poissons Ratio (y) = 0.59341 0.27539
# Poissons Ratio (z) = 0.17085 0.23665
#
# Static dielectric constant tensor:
#      x y z
#    x 3.970060 0.000000 -1.242530 
#    y 0.000000 3.511310 0.000000 
#    z -1.242530 0.000000 11.409860 
# 
# 
# High freq. dielectric constant tensor:
#      x y z
#    x 1.778460 0.000000 -0.018710 
#    y 0.000000 1.759770 0.000000 
#    z -0.018710 0.000000 1.767190 
# 
# From -- ./inp_files/89721.got.cif
#   From: 2010.06.25/outbox.cif.g09.slc.cpg/sg15_45_cif.got.tgz:89721.got - 2010.06.28 07:06:18.
