data_PCOD8145227
_publ_section_title
;
Structure prediction by ZEFSAII (Michael W. Deem and Ramdas Pophale) SiO2 
 PCOD8145227
Probable space group: C 2/C
;
_chemical_formula_sum "Si O2"
_cell_formula_units_Z 56
_cell_length_a 18.815288
_cell_length_b 17.887695
_cell_length_c 7.894496
_cell_angle_alpha 90.000000
_cell_angle_beta 95.879653
_cell_angle_gamma 90.000000
_cell_volume 2643.010684
_symmetry_space_group_name_H-M "C 2/C"
_symmetry_group_IT_number 15
_symmetry_cell_setting 'monoclinic'
loop_
_space_group_symop_operation_xyz
x,y,z
-x,y,1/2-z
-x,-y,-z
x,-y,1/2+z
1/2+x,1/2+y,z
1/2-x,1/2+y,1/2-z
1/2-x,1/2-y,-z
1/2+x,1/2-y,1/2+z
loop_
_atom_site_type_symbol
_atom_site_label
_atom_site_fract_x
_atom_site_fract_y
_atom_site_fract_z
Si Si1 0.463350 0.407486 0.523772
Si Si2 0.588019 0.323098 0.676434
Si Si3 0.573661 0.845455 0.103574
Si Si4 0.080131 0.419852 0.431302
Si Si5 0.609902 0.466147 0.298706
Si Si6 0.800669 0.917895 0.892940
Si Si7 0.365092 0.924452 0.681109
O O1 0.547469 0.384631 0.542943
O O2 0.428896 0.341884 0.632107
O O3 0.429169 0.404718 0.329140
O O4 0.450689 0.490581 0.602250
O O5 0.559097 0.241852 0.621046
O O6 0.673338 0.334558 0.662330
O O7 0.615719 0.872813 0.284482
O O8 0.502069 0.895229 0.073769
O O9 0.618374 0.856175 0.942143
O O10 0.116125 0.403990 0.621239
O O11 0.089365 0.506260 0.380778
O O12 0.676099 0.426057 0.407387
O O13 0.650302 0.527192 0.200525
O O14 0.718977 0.938080 0.845208
#
# Coordination Sequence:
#
# PCOD8145227 Si02
#       7
#     8   8   8   8   8   8   8
#     4   9  18  35  61  86 122 158 208 256 301 349
#     4  10  22  41  57  87 128 165 200 251 308 378
#     4  11  25  43  65  90 128 158 210 263 309 369
#     4  11  23  41  69  97 117 156 211 269 316 349
#     4   9  19  35  60  92 118 160 205 257 299 352
#     4  10  22  38  59  90 129 158 203 247 311 381
#     4  12  23  41  67  94 124 159 202 265 316 368
#
# _framework density 21.187958999999999
#
# number of rings (size 3 to 8) (size 9 to 14) (size 15 to 20)
#    0.000    1.714    1.429    3.429    2.000   11.429 
#    7.714    0.714    0.000    0.000    0.000    0.000 
#    0.000    0.000    0.000    0.000    0.000    0.000 
#
# Total GULP energy -346934.601931 kJ/mol
# GULP energy per Si atom -12390.521498 kJ/mol
# Density = 2.113973 g / cm^3
# Si number density = 21.187959 Si / 1000 Ang^3
#
#
#
# Elastic Constant Matrix: (Units=GPa)
#
#
# Indices 1 2 3 4 5 6 
#
# 1 88.0906 39.5671 35.7940 0.0000 12.4990 0.0000
# 2 39.5671 102.4756 34.4358 0.0000 9.4092 0.0000
# 3 35.7940 34.4358 173.8838 0.0000 23.0508 0.0000
# 4 0.0000 0.0000 0.0000 17.2336 0.0000 1.2430
# 5 12.4990 9.4092 23.0508 0.0000 18.0347 0.0000
# 6 0.0000 0.0000 0.0000 1.2430 0.0000 13.8409
#
#
#
# Elastic Compliance Matrix: (Units=1/GPa)
#
#
# Indices 1 2 3 4 5 6 
#
# 1 0.014889 -0.004743 -0.001307 0.000000 -0.006174 0.000000
# 2 -0.004743 0.012139 -0.001233 0.000000 -0.001471 0.000000
# 3 -0.001307 -0.001233 0.007295 0.000000 -0.007775 0.000000
# 4 0.000000 0.000000 0.000000 0.058405 0.000000 -0.005245
# 5 -0.006174 -0.001471 -0.007775 0.000000 0.070432 0.000000
# 6 0.000000 0.000000 0.000000 -0.005245 0.000000 0.072721
#
#
# Mechanical properties :
#
#
# Convention : Reuss Voigt Hill
#
# Bulk Modulus (GPa) = 50.61366 64.89375 57.75370
# Shear Modulus (GPa) = 19.45287 26.79871 23.12579
#
# Velocity S-wave (km/s) = 3.03332 3.56027 3.30731
# Velocity P-wave (km/s) = 6.01729 6.89890 6.47313
#
# Compressibility (1/GPa) = 0.01975751
#
# Stress axis : x y z
#
# Youngs Moduli (GPa) = 67.16175 82.37946 137.08315
#
# Poissons Ratio (x) = 0.39071 0.17921
# Poissons Ratio (y) = 0.31854 0.16899
# Poissons Ratio (z) = 0.08780 0.10155
#
# Static dielectric constant tensor:
#      x y z
#    x 3.731450 0.000000 -0.130030 
#    y 0.000000 3.625820 0.000000 
#    z -0.130030 0.000000 4.527090 
# 
# 
# High freq. dielectric constant tensor:
#      x y z
#    x 1.818790 0.000000 -0.011490 
#    y 0.000000 1.807910 0.000000 
#    z -0.011490 0.000000 1.851950 
# 
# From -- ./inp_files/56166.got.cif
#   From: 2010.06.25/outbox.cif.g09.slc.cpg/sg15_29_cif.got.tgz:56166.got - 2010.06.28 07:06:18.
