data_PCOD8145171
_publ_section_title
;
Structure prediction by ZEFSAII (Michael W. Deem and Ramdas Pophale) SiO2 
 PCOD8145171
Probable space group: C 2/C
;
_chemical_formula_sum "Si O2"
_cell_formula_units_Z 44
_cell_length_a 30.246549
_cell_length_b 4.835963
_cell_length_c 9.661987
_cell_angle_alpha 90.000000
_cell_angle_beta 95.970338
_cell_angle_gamma 90.000000
_cell_volume 1405.604601
_symmetry_space_group_name_H-M "C 2/C"
_symmetry_group_IT_number 15
_symmetry_cell_setting 'monoclinic'
loop_
_space_group_symop_operation_xyz
x,y,z
-x,y,1/2-z
-x,-y,-z
x,-y,1/2+z
1/2+x,1/2+y,z
1/2-x,1/2+y,1/2-z
1/2-x,1/2-y,-z
1/2+x,1/2-y,1/2+z
loop_
_atom_site_type_symbol
_atom_site_label
_atom_site_fract_x
_atom_site_fract_y
_atom_site_fract_z
Si Si1 0.919808 0.494587 0.077561
Si Si2 0.259105 0.422203 0.661265
Si Si3 0.062223 0.007189 0.091555
Si Si4 0.500000 0.208481 0.750000
Si Si5 0.351409 0.685340 0.285255
Si Si6 0.169514 0.311883 0.535005
O O1 0.956506 0.478320 0.210270
O O2 0.919781 0.811546 0.031838
O O3 0.868860 0.385687 0.102138
O O4 0.936979 0.310732 0.953412
O O5 0.255368 0.735384 0.712774
O O6 0.312891 0.362001 0.645543
O O7 0.222385 0.388003 0.524586
O O8 0.012527 0.091757 0.124740
O O9 0.098191 0.069927 0.227958
O O10 0.332653 0.495711 0.404782
O O11 0.349586 0.993342 0.347634
#
# Coordination Sequence:
#
# PCOD8145171 Si02
#       6
#     8   8   8   4   8   8
#     4  10  22  38  55  79 108 137 175 220 262 310
#     4   8  12  20  40  67  92 125 162 194 242 301
#     4  10  22  38  55  79 108 137 175 220 262 310
#     4  12  24  38  60  78 104 142 180 218 268 314
#     4   8  14  26  44  68  98 128 162 204 248 299
#     4   8  14  26  44  68  98 128 162 204 248 299
#
# _framework density 31.303256999999999
#
# number of rings (size 3 to 8) (size 9 to 14) (size 15 to 20)
#    0.000    2.909    0.000    1.091    0.000    2.909 
#    0.000    0.000    0.000    1.091    0.000    0.000 
#    0.000   43.636    0.000    0.000    0.000    5.818 
#
# Total GULP energy -272768.074740 kJ/mol
# GULP energy per Si atom -12398.548852 kJ/mol
# Density = 3.123201 g / cm^3
# Si number density = 31.303257 Si / 1000 Ang^3
#
#
#
# Elastic Constant Matrix: (Units=GPa)
#
#
# Indices 1 2 3 4 5 6 
#
# 1 109.8419 -25.7098 10.8624 0.0000 3.5102 0.0000
# 2 -25.7098 86.5456 23.6638 0.0000 -1.7203 0.0000
# 3 10.8624 23.6638 126.5082 0.0000 36.6258 0.0000
# 4 0.0000 0.0000 0.0000 26.8238 0.0000 7.1034
# 5 3.5102 -1.7203 36.6258 0.0000 58.6053 0.0000
# 6 0.0000 0.0000 0.0000 7.1034 0.0000 34.1692
#
#
#
# Elastic Compliance Matrix: (Units=1/GPa)
#
#
# Indices 1 2 3 4 5 6 
#
# 1 0.010060 0.003455 -0.001666 0.000000 0.000540 0.000000
# 2 0.003455 0.013595 -0.003535 0.000000 0.002401 0.000000
# 3 -0.001666 -0.003535 0.010634 0.000000 -0.006650 0.000000
# 4 0.000000 0.000000 0.000000 0.039452 0.000000 -0.008202
# 5 0.000540 0.002401 -0.006650 0.000000 0.021257 0.000000
# 6 0.000000 0.000000 0.000000 -0.008202 0.000000 0.030971
#
#
# Mechanical properties :
#
#
# Convention : Reuss Voigt Hill
#
# Bulk Modulus (GPa) = 32.47102 37.83651 35.15376
# Shear Modulus (GPa) = 35.78361 44.85828 40.32095
#
# Velocity S-wave (km/s) = 3.38468 3.78964 3.59287
# Velocity P-wave (km/s) = 5.06659 5.59122 5.33536
#
# Compressibility (1/GPa) = 0.03079669
#
# Stress axis : x y z
#
# Youngs Moduli (GPa) = 99.40160 73.55532 94.03676
#
# Poissons Ratio (x) = -0.25413 0.15671
# Poissons Ratio (y) = -0.34343 0.33241
# Poissons Ratio (z) = 0.16565 0.26001
#
# Static dielectric constant tensor:
#      x y z
#    x 6.702180 0.000000 0.931330 
#    y 0.000000 5.339810 0.000000 
#    z 0.931330 0.000000 5.993540 
# 
# 
# High freq. dielectric constant tensor:
#      x y z
#    x 2.336790 0.000000 0.020860 
#    y 0.000000 2.289280 0.000000 
#    z 0.020860 0.000000 2.308720 
# 
# From -- ./inp_files/125040.got.cif
#   From: 2010.06.25/outbox.cif.g09.slc.cpg/sg15_63_cif.got.tgz:125040.got - 2010.06.28 07:06:18.
