data_PCOD8145272
_publ_section_title
;
Structure prediction by ZEFSAII (Michael W. Deem and Ramdas Pophale) SiO2 
 PCOD8145272
Probable space group: C 2/C
;
_chemical_formula_sum "Si O2"
_cell_formula_units_Z 56
_cell_length_a 18.329042
_cell_length_b 15.542102
_cell_length_c 13.703192
_cell_angle_alpha 90.000000
_cell_angle_beta 134.870624
_cell_angle_gamma 90.000000
_cell_volume 2766.525695
_symmetry_space_group_name_H-M "C 2/C"
_symmetry_group_IT_number 15
_symmetry_cell_setting 'monoclinic'
loop_
_space_group_symop_operation_xyz
x,y,z
-x,y,1/2-z
-x,-y,-z
x,-y,1/2+z
1/2+x,1/2+y,z
1/2-x,1/2+y,1/2-z
1/2-x,1/2-y,-z
1/2+x,1/2-y,1/2+z
loop_
_atom_site_type_symbol
_atom_site_label
_atom_site_fract_x
_atom_site_fract_y
_atom_site_fract_z
Si Si1 0.500000 0.481010 0.750000
Si Si2 0.093757 0.868949 0.010659
Si Si3 0.028006 0.306454 0.096177
Si Si4 0.500000 0.241754 0.250000
Si Si5 0.705759 0.831176 0.404745
Si Si6 0.355598 0.139809 0.981920
Si Si7 0.917239 0.546166 0.588486
Si Si8 0.383205 0.618925 0.750716
O O1 0.465464 0.423657 0.626289
O O2 0.405593 0.540489 0.697544
O O3 0.214332 0.865504 0.099404
O O4 0.089413 0.912269 0.113579
O O5 0.047936 0.773856 0.975007
O O6 0.100424 0.298138 0.258344
O O7 0.097861 0.310639 0.066529
O O8 0.961733 0.393265 0.045022
O O9 0.593703 0.182300 0.374945
O O10 0.543534 0.300256 0.203740
O O11 0.750000 0.750000 0.500000
O O12 0.682221 0.908094 0.457761
O O13 0.233298 0.151365 0.870694
O O14 0.381124 0.039279 0.000207
O O15 0.000000 0.523925 0.750000
#
# Coordination Sequence:
#
# PCOD8145272 Si02
#       8
#     4   8   8   4   8   8   8   8
#     4  11  26  44  69  96 128 176 213 274 330 387
#     4  12  22  43  68  95 132 169 216 269 329 385
#     4  11  23  38  64  96 130 167 209 268 320 390
#     4  11  24  44  69  90 126 172 219 270 328 393
#     4  11  21  38  64  94 128 169 214 261 322 388
#     4  12  22  43  65  93 130 171 215 263 327 387
#     4  10  22  38  61  93 130 168 209 261 318 381
#     4  11  25  45  66  96 129 166 222 273 326 391
#
# _framework density 20.241996
#
# number of rings (size 3 to 8) (size 9 to 14) (size 15 to 20)
#    0.000    0.857    5.000    3.000    1.000    0.000 
#    0.000    0.000    0.000    0.000    0.000    0.000 
#    0.000    0.000    0.000    0.000    0.000    0.000 
#
# Total GULP energy -347285.437040 kJ/mol
# GULP energy per Si atom -12403.051323 kJ/mol
# Density = 2.019592 g / cm^3
# Si number density = 20.241996 Si / 1000 Ang^3
#
#
#
# Elastic Constant Matrix: (Units=GPa)
#
#
# Indices 1 2 3 4 5 6 
#
# 1 123.9011 30.9695 34.4891 0.0000 5.9219 0.0000
# 2 30.9695 90.4016 32.9806 0.0000 2.2574 0.0000
# 3 34.4891 32.9806 95.8084 0.0000 -1.6549 0.0000
# 4 0.0000 0.0000 0.0000 34.9495 0.0000 0.1448
# 5 5.9219 2.2574 -1.6549 0.0000 36.3581 0.0000
# 6 0.0000 0.0000 0.0000 0.1448 0.0000 29.3980
#
#
#
# Elastic Compliance Matrix: (Units=1/GPa)
#
#
# Indices 1 2 3 4 5 6 
#
# 1 0.009440 -0.002226 -0.002658 0.000000 -0.001520 0.000000
# 2 -0.002226 0.013211 -0.003757 0.000000 -0.000629 0.000000
# 3 -0.002658 -0.003757 0.012709 0.000000 0.001245 0.000000
# 4 0.000000 0.000000 0.000000 0.028613 0.000000 -0.000141
# 5 -0.001520 -0.000629 0.001245 0.000000 0.027847 0.000000
# 6 0.000000 0.000000 0.000000 -0.000141 0.000000 0.034017
#
#
# Mechanical properties :
#
#
# Convention : Reuss Voigt Hill
#
# Bulk Modulus (GPa) = 55.31859 56.33218 55.82539
# Shear Modulus (GPa) = 33.52423 34.25258 33.88841
#
# Velocity S-wave (km/s) = 4.07402 4.11804 4.09609
# Velocity P-wave (km/s) = 7.03692 7.10639 7.07174
#
# Compressibility (1/GPa) = 0.01807711
#
# Stress axis : x y z
#
# Youngs Moduli (GPa) = 105.93242 75.69582 78.68325
#
# Poissons Ratio (x) = 0.16851 0.20915
# Poissons Ratio (y) = 0.23583 0.29562
# Poissons Ratio (z) = 0.28158 0.28440
#
# Static dielectric constant tensor:
#      x y z
#    x 4.144960 0.000000 0.126880 
#    y 0.000000 3.616860 0.000000 
#    z 0.126880 0.000000 3.582750 
# 
# 
# High freq. dielectric constant tensor:
#      x y z
#    x 1.806820 0.000000 0.001100 
#    y 0.000000 1.790920 0.000000 
#    z 0.001100 0.000000 1.787400 
# 
# From -- ./inp_files/162235.got.cif
#   From: 2010.06.25/outbox.cif.g09.slc.cpg/sg15_82_cif.got.tgz:162235.got - 2010.06.28 07:06:18.
