data_PCOD8145407
_publ_section_title
;
Structure prediction by ZEFSAII (Michael W. Deem and Ramdas Pophale) SiO2 
 PCOD8145407
Probable space group: C 2/C
;
_chemical_formula_sum "Si O2"
_cell_formula_units_Z 44
_cell_length_a 10.722054
_cell_length_b 11.314764
_cell_length_c 17.871617
_cell_angle_alpha 90.000000
_cell_angle_beta 68.774587
_cell_angle_gamma 90.000000
_cell_volume 2021.060648
_symmetry_space_group_name_H-M "C 2/C"
_symmetry_group_IT_number 15
_symmetry_cell_setting 'monoclinic'
loop_
_space_group_symop_operation_xyz
x,y,z
-x,y,1/2-z
-x,-y,-z
x,-y,1/2+z
1/2+x,1/2+y,z
1/2-x,1/2+y,1/2-z
1/2-x,1/2-y,-z
1/2+x,1/2-y,1/2+z
loop_
_atom_site_type_symbol
_atom_site_label
_atom_site_fract_x
_atom_site_fract_y
_atom_site_fract_z
Si Si1 0.332216 0.221700 0.187788
Si Si2 0.208105 0.534409 0.423735
Si Si3 0.000000 0.453201 0.750000
Si Si4 0.568732 0.306958 0.813033
Si Si5 0.001346 0.943475 0.162400
Si Si6 0.542183 0.089362 0.597180
O O1 0.276979 0.156881 0.125307
O O2 0.398930 0.126773 0.226919
O O3 0.206268 0.263978 0.265531
O O4 0.429780 0.328499 0.141201
O O5 0.345180 0.459503 0.397367
O O6 0.169214 0.564540 0.517478
O O7 0.092909 0.458033 0.410637
O O8 0.073300 0.535662 0.672567
O O9 0.500000 0.334437 0.750000
O O10 0.584328 0.440046 0.843042
O O11 0.478516 0.229864 0.888443
O O12 0.000000 0.915125 0.250000
#
# Coordination Sequence:
#
# PCOD8145407 Si02
#       6
#     8   8   4   8   8   8
#     4  11  22  40  65  97 125 173 227 261 326 391
#     4  10  22  43  63  93 135 166 212 278 330 374
#     4  10  22  38  66  92 120 178 220 262 318 400
#     4  11  22  38  65  92 127 173 215 268 324 385
#     4  11  21  40  64  93 130 173 211 273 321 385
#     4  10  22  41  63  92 130 171 212 272 325 390
#
# _framework density 21.770748000000001
#
# number of rings (size 3 to 8) (size 9 to 14) (size 15 to 20)
#    0.000    1.455    5.455    1.091    2.545    0.727 
#    3.273    3.636    0.000    0.000    0.000    0.000 
#    0.000    0.000    0.000    0.000    0.000    0.000 
#
# Total GULP energy -272668.686948 kJ/mol
# GULP energy per Si atom -12394.031225 kJ/mol
# Density = 2.172120 g / cm^3
# Si number density = 21.770748 Si / 1000 Ang^3
#
#
#
# Elastic Constant Matrix: (Units=GPa)
#
#
# Indices 1 2 3 4 5 6 
#
# 1 66.7103 27.6648 35.4556 0.0000 -26.9532 0.0000
# 2 27.6648 117.0669 28.8431 0.0000 -3.5160 0.0000
# 3 35.4556 28.8431 131.8906 0.0000 -12.8631 0.0000
# 4 0.0000 0.0000 0.0000 20.3571 0.0000 -5.4642
# 5 -26.9532 -3.5160 -12.8631 0.0000 38.1363 0.0000
# 6 0.0000 0.0000 0.0000 -5.4642 0.0000 34.2051
#
#
#
# Elastic Compliance Matrix: (Units=1/GPa)
#
#
# Indices 1 2 3 4 5 6 
#
# 1 0.025779 -0.004531 -0.004346 0.000000 0.016336 0.000000
# 2 -0.004531 0.009826 -0.001194 0.000000 -0.002699 0.000000
# 3 -0.004346 -0.001194 0.008997 0.000000 -0.000147 0.000000
# 4 0.000000 0.000000 0.000000 0.051324 0.000000 0.008199
# 5 0.016336 -0.002699 -0.000147 0.000000 0.037469 0.000000
# 6 0.000000 0.000000 0.000000 0.008199 0.000000 0.030545
#
#
# Mechanical properties :
#
#
# Convention : Reuss Voigt Hill
#
# Bulk Modulus (GPa) = 40.88180 55.51053 48.19616
# Shear Modulus (GPa) = 26.00976 33.45332 29.73154
#
# Velocity S-wave (km/s) = 3.46021 3.92422 3.69950
# Velocity P-wave (km/s) = 5.89772 6.78865 6.35881
#
# Compressibility (1/GPa) = 0.02446076
#
# Stress axis : x y z
#
# Youngs Moduli (GPa) = 38.79084 101.77154 111.14601
#
# Poissons Ratio (x) = 0.46109 0.48305
# Poissons Ratio (y) = 0.17575 0.13272
# Poissons Ratio (z) = 0.16859 0.12153
#
# Static dielectric constant tensor:
#      x y z
#    x 3.848080 0.000000 -0.143670 
#    y 0.000000 4.075550 0.000000 
#    z -0.143670 0.000000 4.175610 
# 
# 
# High freq. dielectric constant tensor:
#      x y z
#    x 1.845710 0.000000 -0.014870 
#    y 0.000000 1.864610 0.000000 
#    z -0.014870 0.000000 1.839500 
# 
# From -- ./inp_files/195963.got.cif
#   From: 2010.06.25/outbox.cif.g09.slc.cpg/sg15_98_cif.got.tgz:195963.got - 2010.06.28 07:06:18.
