data_PCOD8145749
_publ_section_title
;
Structure prediction by ZEFSAII (Michael W. Deem and Ramdas Pophale) SiO2 
 PCOD8145749
Probable space group: C 2/C
;
_chemical_formula_sum "Si O2"
_cell_formula_units_Z 60
_cell_length_a 18.433850
_cell_length_b 8.518977
_cell_length_c 17.736714
_cell_angle_alpha 90.000000
_cell_angle_beta 79.947249
_cell_angle_gamma 90.000000
_cell_volume 2742.568122
_symmetry_space_group_name_H-M "C 2/C"
_symmetry_group_IT_number 15
_symmetry_cell_setting 'monoclinic'
loop_
_space_group_symop_operation_xyz
x,y,z
-x,y,1/2-z
-x,-y,-z
x,-y,1/2+z
1/2+x,1/2+y,z
1/2-x,1/2+y,1/2-z
1/2-x,1/2-y,-z
1/2+x,1/2-y,1/2+z
loop_
_atom_site_type_symbol
_atom_site_label
_atom_site_fract_x
_atom_site_fract_y
_atom_site_fract_z
Si Si1 0.558127 0.773332 0.615946
Si Si2 0.586612 0.034673 0.976558
Si Si3 0.600705 0.230286 0.829184
Si Si4 0.693754 0.245316 0.441127
Si Si5 0.844655 0.826025 0.276601
Si Si6 0.076757 0.934329 0.380809
Si Si7 0.500000 0.981411 0.250000
Si Si8 0.740223 0.373101 0.721961
O O1 0.606732 0.850694 0.541420
O O2 0.616288 0.665854 0.649960
O O3 0.497057 0.663533 0.586063
O O4 0.527112 0.908283 0.676942
O O5 0.613477 0.106257 0.893043
O O6 0.631904 0.877034 0.976206
O O7 0.500000 0.000000 0.000000
O O8 0.559374 0.380021 0.875973
O O9 0.559518 0.140256 0.770249
O O10 0.673820 0.293350 0.777914
O O11 0.750000 0.250000 0.500000
O O12 0.644741 0.400546 0.427261
O O13 0.744995 0.205446 0.361036
O O14 0.905809 0.870220 0.205252
O O15 0.812599 0.653021 0.261606
O O16 0.774929 0.943529 0.286726
#
# Coordination Sequence:
#
# PCOD8145749 Si02
#       8
#     8   8   8   8   8   8   4   8
#     4  12  24  42  71  98 143 185 233 286 361 420
#     4  12  25  46  67 105 142 189 233 295 360 435
#     4  11  26  42  70 102 141 178 243 293 355 427
#     4  11  25  45  72  98 144 186 234 289 367 423
#     4  10  22  39  67  96 128 179 228 286 341 411
#     4  10  22  44  66 102 137 178 232 298 347 413
#     4  12  24  38  72 100 134 188 240 280 346 434
#     4  10  24  43  67  96 137 178 232 289 343 422
#
# _framework density 21.877305
#
# number of rings (size 3 to 8) (size 9 to 14) (size 15 to 20)
#    0.000    1.067    4.000    0.800    9.333    3.733 
#    0.000    2.000    0.000    0.000    0.000    0.000 
#    0.000    0.000    0.000    0.000    0.000    0.000 
#
# Total GULP energy -371773.467730 kJ/mol
# GULP energy per Si atom -12392.448924 kJ/mol
# Density = 2.182751 g / cm^3
# Si number density = 21.877305 Si / 1000 Ang^3
#
#
#
# Elastic Constant Matrix: (Units=GPa)
#
#
# Indices 1 2 3 4 5 6 
#
# 1 74.8072 36.5819 33.7502 0.0000 20.1047 0.0000
# 2 36.5819 89.0972 -1.4064 0.0000 10.6663 0.0000
# 3 33.7502 -1.4064 81.4823 0.0000 12.7701 0.0000
# 4 0.0000 0.0000 0.0000 26.9914 0.0000 -3.6869
# 5 20.1047 10.6663 12.7701 0.0000 43.6720 0.0000
# 6 0.0000 0.0000 0.0000 -3.6869 0.0000 25.8559
#
#
#
# Elastic Compliance Matrix: (Units=1/GPa)
#
#
# Indices 1 2 3 4 5 6 
#
# 1 0.023416 -0.009041 -0.008921 0.000000 -0.005963 0.000000
# 2 -0.009041 0.015088 0.004119 0.000000 -0.000727 0.000000
# 3 -0.008921 0.004119 0.016300 0.000000 -0.001666 0.000000
# 4 0.000000 0.000000 0.000000 0.037785 0.000000 0.005388
# 5 -0.005963 -0.000727 -0.001666 0.000000 0.026308 0.000000
# 6 0.000000 0.000000 0.000000 0.005388 0.000000 0.039444
#
#
# Mechanical properties :
#
#
# Convention : Reuss Voigt Hill
#
# Bulk Modulus (GPa) = 36.87464 42.58201 39.72833
# Shear Modulus (GPa) = 25.63243 31.06793 28.35018
#
# Velocity S-wave (km/s) = 3.42664 3.77251 3.60373
# Velocity P-wave (km/s) = 5.70505 6.20339 5.95943
#
# Compressibility (1/GPa) = 0.02711891
#
# Stress axis : x y z
#
# Youngs Moduli (GPa) = 42.70540 66.27786 61.35097
#
# Poissons Ratio (x) = 0.59924 0.54729
# Poissons Ratio (y) = 0.38611 -0.25272
# Poissons Ratio (z) = 0.38096 -0.27302
#
# Static dielectric constant tensor:
#      x y z
#    x 3.973580 0.000000 0.101990 
#    y 0.000000 4.342230 0.000000 
#    z 0.101990 0.000000 4.122510 
# 
# 
# High freq. dielectric constant tensor:
#      x y z
#    x 1.857720 0.000000 0.000210 
#    y 0.000000 1.866610 0.000000 
#    z 0.000210 0.000000 1.861480 
# 
# From -- ./inp_files/209595.got.cif
#   From: 2010.06.25/outbox.cif.g09.slc.cpg/sg15_105_cif.got.tgz:209595.got - 2010.06.28 07:06:18.
