data_PCOD8145103
_publ_section_title
;
Structure prediction by ZEFSAII (Michael W. Deem and Ramdas Pophale) SiO2 
 PCOD8145103
Probable space group: C 2/C
;
_chemical_formula_sum "Si O2"
_cell_formula_units_Z 48
_cell_length_a 14.205269
_cell_length_b 5.144849
_cell_length_c 30.417829
_cell_angle_alpha 90.000000
_cell_angle_beta 61.514053
_cell_angle_gamma 90.000000
_cell_volume 1953.919346
_symmetry_space_group_name_H-M "C 2/C"
_symmetry_group_IT_number 15
_symmetry_cell_setting 'monoclinic'
loop_
_space_group_symop_operation_xyz
x,y,z
-x,y,1/2-z
-x,-y,-z
x,-y,1/2+z
1/2+x,1/2+y,z
1/2-x,1/2+y,1/2-z
1/2-x,1/2-y,-z
1/2+x,1/2-y,1/2+z
loop_
_atom_site_type_symbol
_atom_site_label
_atom_site_fract_x
_atom_site_fract_y
_atom_site_fract_z
Si Si1 0.252862 0.189293 0.930886
Si Si2 0.098014 0.589114 0.531696
Si Si3 0.472749 0.044226 0.805644
Si Si4 0.169029 0.056377 0.655190
Si Si5 0.407086 0.313979 0.535605
Si Si6 0.708231 0.963563 0.282841
O O1 0.369604 0.104959 0.923824
O O2 0.258765 0.458321 0.902316
O O3 0.194785 0.952822 0.916592
O O4 0.169020 0.194678 0.990208
O O5 0.133179 0.324498 0.500106
O O6 0.968639 0.621342 0.556254
O O7 0.500000 0.959697 0.750000
O O8 0.416535 0.324717 0.817954
O O9 0.579381 0.052062 0.811435
O O10 0.391912 0.824838 0.842591
O O11 0.246655 0.095953 0.679053
O O12 0.500000 0.500000 0.500000
O O13 0.755335 0.751420 0.238923
#
# Coordination Sequence:
#
# PCOD8145103 Si02
#       6
#     8   8   8   8   8   8
#     4  10  22  37  60  89 125 164 212 259 319 370
#     4   9  19  39  61  84 125 171 206 255 318 378
#     4  12  24  45  70  94 132 171 219 268 336 399
#     4  12  26  43  66 104 131 170 221 278 318 396
#     4   9  18  36  61  85 115 167 210 249 307 380
#     4  12  23  43  72  92 124 172 214 264 333 393
#
# _framework density 24.566008
#
# number of rings (size 3 to 8) (size 9 to 14) (size 15 to 20)
#    0.000    1.333    3.333    2.000    2.333    1.333 
#    9.000    0.000    0.000    0.000    0.000    0.000 
#    0.000    0.000    0.000    0.000    0.000    0.000 
#
# Total GULP energy -297428.327184 kJ/mol
# GULP energy per Si atom -12392.846966 kJ/mol
# Density = 2.451009 g / cm^3
# Si number density = 24.566008 Si / 1000 Ang^3
#
#
#
# Elastic Constant Matrix: (Units=GPa)
#
#
# Indices 1 2 3 4 5 6 
#
# 1 173.8087 11.5803 21.8858 -0.0044 15.2702 0.0004
# 2 11.5803 48.3325 -22.8788 -0.0154 5.5335 -0.0365
# 3 21.8858 -22.8788 36.1917 -0.0046 4.0605 -0.0047
# 4 -0.0044 -0.0154 -0.0046 28.4276 -0.0014 -0.7405
# 5 15.2702 5.5335 4.0605 -0.0014 36.9662 0.0002
# 6 0.0004 -0.0365 -0.0047 -0.7405 0.0002 34.9967
#
#
#
# Elastic Compliance Matrix: (Units=1/GPa)
#
#
# Indices 1 2 3 4 5 6 
#
# 1 0.007133 -0.005020 -0.007331 -0.000003 -0.001390 -0.000006
# 2 -0.005020 0.034713 0.025646 0.000023 -0.005939 0.000040
# 3 -0.007331 0.025646 0.048971 0.000021 -0.006190 0.000034
# 4 -0.000003 0.000023 0.000021 0.035197 -0.000003 0.000745
# 5 -0.001390 -0.005939 -0.006190 -0.000003 0.029195 -0.000007
# 6 -0.000006 0.000040 0.000034 0.000745 -0.000007 0.028590
#
#
# Mechanical properties :
#
#
# Convention : Reuss Voigt Hill
#
# Bulk Modulus (GPa) = 8.51746 31.05639 19.78692
# Shear Modulus (GPa) = 25.46547 36.59446 31.02997
#
# Velocity S-wave (km/s) = 3.22314 3.86377 3.55790
# Velocity P-wave (km/s) = 4.16248 5.70740 4.99503
#
# Compressibility (1/GPa) = 0.11740596
#
# Stress axis : x y z
#
# Youngs Moduli (GPa) = 140.18977 28.80780 20.42033
#
# Poissons Ratio (x) = 0.14462 0.14971
# Poissons Ratio (y) = 0.70380 -0.52370
# Poissons Ratio (z) = 1.02777 -0.73881
#
# Static dielectric constant tensor:
#      x y z
#    x 5.893270 0.000010 -0.124310 
#    y 0.000010 5.110970 -0.000190 
#    z -0.124310 -0.000190 4.281430 
# 
# 
# High freq. dielectric constant tensor:
#      x y z
#    x 2.004680 0.000000 -0.007060 
#    y 0.000000 1.994820 0.000000 
#    z -0.007060 0.000000 1.943120 
# 
# From -- ./inp_files/312056.got.cif
#   From: 2010.06.25/outbox.cif.g09.slc.cpg/sg15_157_cif.got.tgz:312056.got - 2010.06.28 07:06:18.
