data_PCOD8145042
_publ_section_title
;
Structure prediction by ZEFSAII (Michael W. Deem and Ramdas Pophale) SiO2 
 PCOD8145042
Probable space group: C 2/C
;
_chemical_formula_sum "Si O2"
_cell_formula_units_Z 56
_cell_length_a 13.608110
_cell_length_b 22.405393
_cell_length_c 9.319055
_cell_angle_alpha 90.000000
_cell_angle_beta 69.779931
_cell_angle_gamma 90.000000
_cell_volume 2666.228096
_symmetry_space_group_name_H-M "C 2/C"
_symmetry_group_IT_number 15
_symmetry_cell_setting 'monoclinic'
loop_
_space_group_symop_operation_xyz
x,y,z
-x,y,1/2-z
-x,-y,-z
x,-y,1/2+z
1/2+x,1/2+y,z
1/2-x,1/2+y,1/2-z
1/2-x,1/2-y,-z
1/2+x,1/2-y,1/2+z
loop_
_atom_site_type_symbol
_atom_site_label
_atom_site_fract_x
_atom_site_fract_y
_atom_site_fract_z
Si Si1 0.147082 0.915611 0.592985
Si Si2 0.045012 0.446293 0.569154
Si Si3 0.570179 0.609910 0.423860
Si Si4 0.523069 0.722551 0.898159
Si Si5 0.276415 0.645649 0.701979
Si Si6 0.042902 0.667181 0.885945
Si Si7 0.790002 0.952624 0.424799
O O1 0.125767 0.875008 0.743870
O O2 0.236006 0.883530 0.450988
O O3 0.042520 0.919997 0.548395
O O4 0.181044 0.980168 0.633388
O O5 0.010095 0.386498 0.506092
O O6 0.168747 0.450194 0.523787
O O7 0.000000 0.447360 0.750000
O O8 0.000000 0.500000 0.500000
O O9 0.558301 0.669996 0.522478
O O10 0.642421 0.563714 0.471065
O O11 0.500000 0.746673 0.750000
O O12 0.642011 0.699880 0.845777
O O13 0.507983 0.773742 0.022873
O O14 0.168417 0.672833 0.813373
O O15 0.317992 0.592309 0.782312
O O16 0.000000 0.654910 0.750000
#
# Coordination Sequence:
#
# PCOD8145042 Si02
#       7
#     8   8   8   8   8   8   8
#     4  10  22  36  65  97 141 165 217 268 339 390
#     4  11  27  46  68  97 136 173 225 276 328 388
#     4  10  22  39  62 100 133 172 219 268 331 409
#     4  11  23  46  68  93 137 173 218 281 332 389
#     4  10  24  43  65 101 131 175 221 276 331 394
#     4  11  27  46  70  99 129 174 231 272 332 401
#     4  11  22  40  67  97 131 181 218 267 335 402
#
# _framework density 21.003454999999999
#
# number of rings (size 3 to 8) (size 9 to 14) (size 15 to 20)
#    0.000    1.429    1.429    2.143   12.000    4.571 
#    2.571    0.000    0.000    0.000    0.000    0.000 
#    0.000    0.000    0.000    0.000    0.000    0.000 
#
# Total GULP energy -347278.638973 kJ/mol
# GULP energy per Si atom -12402.808535 kJ/mol
# Density = 2.095565 g / cm^3
# Si number density = 21.003455 Si / 1000 Ang^3
#
#
#
# Elastic Constant Matrix: (Units=GPa)
#
#
# Indices 1 2 3 4 5 6 
#
# 1 60.4703 33.8526 38.6332 0.0000 -2.5566 0.0000
# 2 33.8526 104.4628 48.9797 0.0000 -13.2092 0.0000
# 3 38.6332 48.9797 157.4730 0.0000 -4.0648 0.0000
# 4 0.0000 0.0000 0.0000 38.9106 0.0000 -1.5402
# 5 -2.5566 -13.2092 -4.0648 0.0000 27.9604 0.0000
# 6 0.0000 0.0000 0.0000 -1.5402 0.0000 22.0426
#
#
#
# Elastic Compliance Matrix: (Units=1/GPa)
#
#
# Indices 1 2 3 4 5 6 
#
# 1 0.021941 -0.005522 -0.003695 0.000000 -0.001140 0.000000
# 2 -0.005522 0.013279 -0.002637 0.000000 0.005385 0.000000
# 3 -0.003695 -0.002637 0.008066 0.000000 -0.000411 0.000000
# 4 0.000000 0.000000 0.000000 0.025771 0.000000 0.001801
# 5 -0.001140 0.005385 -0.000411 0.000000 0.038145 0.000000
# 6 0.000000 0.000000 0.000000 0.001801 0.000000 0.045492
#
#
# Mechanical properties :
#
#
# Convention : Reuss Voigt Hill
#
# Bulk Modulus (GPa) = 51.07310 62.81524 56.94417
# Shear Modulus (GPa) = 27.33313 31.17876 29.25594
#
# Velocity S-wave (km/s) = 3.61136 3.85705 3.73622
# Velocity P-wave (km/s) = 6.46208 7.05746 6.76632
#
# Compressibility (1/GPa) = 0.01957978
#
# Stress axis : x y z
#
# Youngs Moduli (GPa) = 45.57758 75.30416 123.97417
#
# Poissons Ratio (x) = 0.41583 0.45804
# Poissons Ratio (y) = 0.25168 0.32688
# Poissons Ratio (z) = 0.16839 0.19855
#
# Static dielectric constant tensor:
#      x y z
#    x 3.783090 0.000000 -0.004000 
#    y 0.000000 3.710500 0.000000 
#    z -0.004000 0.000000 4.146700 
# 
# 
# High freq. dielectric constant tensor:
#      x y z
#    x 1.818520 0.000000 -0.000800 
#    y 0.000000 1.814590 0.000000 
#    z -0.000800 0.000000 1.846260 
# 
# From -- ./inp_files/42115.got.cif
#   From: 2010.06.25/outbox.cif.g09.slc.cpg/sg15_22_cif.got.tgz:42115.got - 2010.06.28 07:06:18.
