data_PCOD8145408
_publ_section_title
;
Structure prediction by ZEFSAII (Michael W. Deem and Ramdas Pophale) SiO2 
 PCOD8145408
Probable space group: C 2/C
;
_chemical_formula_sum "Si O2"
_cell_formula_units_Z 48
_cell_length_a 23.586524
_cell_length_b 16.233464
_cell_length_c 8.066713
_cell_angle_alpha 90.000000
_cell_angle_beta 134.067243
_cell_angle_gamma 90.000000
_cell_volume 2219.284895
_symmetry_space_group_name_H-M "C 2/C"
_symmetry_group_IT_number 15
_symmetry_cell_setting 'monoclinic'
loop_
_space_group_symop_operation_xyz
x,y,z
-x,y,1/2-z
-x,-y,-z
x,-y,1/2+z
1/2+x,1/2+y,z
1/2-x,1/2+y,1/2-z
1/2-x,1/2-y,-z
1/2+x,1/2-y,1/2+z
loop_
_atom_site_type_symbol
_atom_site_label
_atom_site_fract_x
_atom_site_fract_y
_atom_site_fract_z
Si Si1 0.411527 0.470156 0.849713
Si Si2 0.339661 0.886201 0.495761
Si Si3 0.930079 0.249662 0.866770
Si Si4 0.000000 0.866375 0.250000
Si Si5 0.842649 0.884175 0.389215
Si Si6 0.086537 0.494270 0.591695
Si Si7 0.000000 0.367896 0.250000
O O1 0.381516 0.413122 0.639862
O O2 0.354546 0.547240 0.769777
O O3 0.500000 0.500000 0.000000
O O4 0.421122 0.418385 0.041153
O O5 0.374760 0.799419 0.627118
O O6 0.249377 0.871061 0.267651
O O7 0.348049 0.956239 0.653636
O O8 0.384926 0.918114 0.422116
O O9 0.879593 0.203074 0.906229
O O10 0.981267 0.184514 0.874172
O O11 0.995219 0.310870 0.077905
O O12 0.076818 0.428736 0.416937
O O13 0.000000 0.500000 0.500000
#
# Coordination Sequence:
#
# PCOD8145408 Si02
#       7
#     8   8   8   4   8   8   4
#     4  12  22  41  70  93 121 170 223 266 313 375
#     4  11  25  40  66  95 132 173 206 267 330 379
#     4  11  25  39  63  95 135 165 212 263 328 383
#     4  12  24  38  66  98 120 164 222 272 308 376
#     4  12  23  44  63  96 134 166 212 267 328 385
#     4  11  21  41  66  95 123 166 228 260 305 381
#     4  10  22  38  66  92 122 170 214 270 306 366
#
# _framework density 21.628589999999999
#
# number of rings (size 3 to 8) (size 9 to 14) (size 15 to 20)
#    0.000    0.667    5.000    2.500    4.667    0.000 
#    0.000    0.833    0.000    0.000    0.000    0.000 
#    0.000    0.000    0.000    0.000    0.000    0.000 
#
# Total GULP energy -297457.965809 kJ/mol
# GULP energy per Si atom -12394.081909 kJ/mol
# Density = 2.157936 g / cm^3
# Si number density = 21.628590 Si / 1000 Ang^3
#
#
#
# Elastic Constant Matrix: (Units=GPa)
#
#
# Indices 1 2 3 4 5 6 
#
# 1 77.2569 24.6167 22.3373 0.0000 11.2948 0.0000
# 2 24.6167 96.4552 21.5280 0.0000 0.6082 0.0000
# 3 22.3373 21.5280 109.0345 0.0000 6.3058 0.0000
# 4 0.0000 0.0000 0.0000 41.6060 0.0000 -18.6030
# 5 11.2948 0.6082 6.3058 0.0000 27.1872 0.0000
# 6 0.0000 0.0000 0.0000 -18.6030 0.0000 29.4557
#
#
#
# Elastic Compliance Matrix: (Units=1/GPa)
#
#
# Indices 1 2 3 4 5 6 
#
# 1 0.015524 -0.003443 -0.002161 0.000000 -0.005871 0.000000
# 2 -0.003443 0.011611 -0.001677 0.000000 0.001560 0.000000
# 3 -0.002161 -0.001677 0.010026 0.000000 -0.001390 0.000000
# 4 0.000000 0.000000 0.000000 0.033493 0.000000 0.021153
# 5 -0.005871 0.001560 -0.001390 0.000000 0.039509 0.000000
# 6 0.000000 0.000000 0.000000 0.021153 0.000000 0.047308
#
#
# Mechanical properties :
#
#
# Convention : Reuss Voigt Hill
#
# Bulk Modulus (GPa) = 44.25110 46.63450 45.44280
# Shear Modulus (GPa) = 27.84507 33.93408 30.88957
#
# Velocity S-wave (km/s) = 3.59196 3.96529 3.78323
# Velocity P-wave (km/s) = 6.14059 6.52480 6.33561
#
# Compressibility (1/GPa) = 0.02259831
#
# Stress axis : x y z
#
# Youngs Moduli (GPa) = 64.41668 86.12793 99.74360
#
# Poissons Ratio (x) = 0.29650 0.21555
# Poissons Ratio (y) = 0.22176 0.16731
# Poissons Ratio (z) = 0.13921 0.14447
#
# Static dielectric constant tensor:
#      x y z
#    x 3.699370 0.000000 -0.258100 
#    y 0.000000 4.537890 0.000000 
#    z -0.258100 0.000000 4.252520 
# 
# 
# High freq. dielectric constant tensor:
#      x y z
#    x 1.821610 0.000000 -0.021630 
#    y 0.000000 1.864920 0.000000 
#    z -0.021630 0.000000 1.860230 
# 
# From -- ./inp_files/66517.got.cif
#   From: 2010.06.25/outbox.cif.g09.slc.cpg/sg15_34_cif.got.tgz:66517.got - 2010.06.28 07:06:18.
