data_PCOD8145735
_publ_section_title
;
Structure prediction by ZEFSAII (Michael W. Deem and Ramdas Pophale) SiO2 
 PCOD8145735
Probable space group: C 2/C
;
_chemical_formula_sum "Si O2"
_cell_formula_units_Z 44
_cell_length_a 22.481021
_cell_length_b 13.007042
_cell_length_c 16.701821
_cell_angle_alpha 90.000000
_cell_angle_beta 23.462039
_cell_angle_gamma 90.000000
_cell_volume 1944.445278
_symmetry_space_group_name_H-M "C 2/C"
_symmetry_group_IT_number 15
_symmetry_cell_setting 'monoclinic'
loop_
_space_group_symop_operation_xyz
x,y,z
-x,y,1/2-z
-x,-y,-z
x,-y,1/2+z
1/2+x,1/2+y,z
1/2-x,1/2+y,1/2-z
1/2-x,1/2-y,-z
1/2+x,1/2-y,1/2+z
loop_
_atom_site_type_symbol
_atom_site_label
_atom_site_fract_x
_atom_site_fract_y
_atom_site_fract_z
Si Si1 0.809041 0.136002 0.784173
Si Si2 0.344059 0.814536 0.321019
Si Si3 0.306512 0.037841 0.423370
Si Si4 0.000000 0.005440 0.250000
Si Si5 0.990656 0.268314 0.850903
Si Si6 0.906526 0.154536 0.494835
O O1 0.939333 0.186431 0.675868
O O2 0.879819 0.098089 0.613278
O O3 0.728736 0.048569 0.937568
O O4 0.682852 0.217923 0.913077
O O5 0.250000 0.750000 0.500000
O O6 0.250965 0.824303 0.354005
O O7 0.502505 0.761139 0.106431
O O8 0.376444 0.926680 0.318703
O O9 0.421890 0.123644 0.252420
O O10 0.153772 0.058198 0.561332
O O11 0.991158 0.077282 0.182331
O O12 0.000000 0.222452 0.750000
#
# Coordination Sequence:
#
# PCOD8145735 Si02
#       6
#     8   8   8   4   8   8
#     4  11  24  40  65  99 127 163 220 271 311 379
#     4  11  21  43  64  91 126 179 209 256 323 393
#     4  10  22  39  67  88 131 167 216 253 327 381
#     4  10  22  42  62  92 126 176 208 258 324 388
#     4  10  22  42  64  95 128 169 208 264 329 386
#     4  11  22  42  65  93 133 163 220 264 315 378
#
# _framework density 22.628561000000001
#
# number of rings (size 3 to 8) (size 9 to 14) (size 15 to 20)
#    0.000    1.455    3.636    3.273    3.818    5.091 
#    0.000   10.000    0.000    0.000    0.000    0.000 
#    0.000    0.000    0.000    0.000    0.000    0.000 
#
# Total GULP energy -272735.940161 kJ/mol
# GULP energy per Si atom -12397.088189 kJ/mol
# Density = 2.257706 g / cm^3
# Si number density = 22.628561 Si / 1000 Ang^3
#
#
#
# Elastic Constant Matrix: (Units=GPa)
#
#
# Indices 1 2 3 4 5 6 
#
# 1 131.6959 20.4741 26.9413 0.0000 0.5076 0.0000
# 2 20.4741 54.7648 -8.4232 -0.0001 5.0632 0.0001
# 3 26.9413 -8.4232 48.8023 -0.0001 3.9758 0.0001
# 4 0.0000 -0.0001 -0.0001 16.5334 0.0000 -17.2079
# 5 0.5076 5.0632 3.9758 0.0000 50.1866 0.0000
# 6 0.0000 0.0001 0.0001 -17.2079 0.0000 26.5186
#
#
#
# Elastic Compliance Matrix: (Units=1/GPa)
#
#
# Indices 1 2 3 4 5 6 
#
# 1 0.009561 -0.004598 -0.006141 0.000000 0.000854 0.000000
# 2 -0.004598 0.021205 0.006410 0.000000 -0.002601 0.000000
# 3 -0.006141 0.006410 0.025198 0.000000 -0.002581 0.000000
# 4 0.000000 0.000000 0.000000 0.186317 0.000000 0.120901
# 5 0.000854 -0.002601 -0.002581 0.000000 0.020384 0.000000
# 6 0.000000 0.000000 0.000000 0.120901 0.000000 0.116162
#
#
# Mechanical properties :
#
#
# Convention : Reuss Voigt Hill
#
# Bulk Modulus (GPa) = 21.13905 34.80526 27.97216
# Shear Modulus (GPa) = 12.39912 31.73245 22.06578
#
# Velocity S-wave (km/s) = 2.34335 3.74882 3.12609
# Velocity P-wave (km/s) = 4.08458 5.84403 5.04165
#
# Compressibility (1/GPa) = 0.04730581
#
# Stress axis : x y z
#
# Youngs Moduli (GPa) = 104.59004 47.15815 39.68601
#
# Poissons Ratio (x) = 0.21683 0.24373
# Poissons Ratio (y) = 0.48090 -0.25439
# Poissons Ratio (z) = 0.64233 -0.30229
#
# Static dielectric constant tensor:
#      x y z
#    x 4.332730 0.000000 -0.196340 
#    y 0.000000 3.998060 0.000000 
#    z -0.196340 0.000000 4.104060 
# 
# 
# High freq. dielectric constant tensor:
#      x y z
#    x 1.905360 0.000000 -0.018220 
#    y 0.000000 1.878940 0.000000 
#    z -0.018220 0.000000 1.885980 
# 
# From -- ./inp_files/168415.got.cif
#   From: 2010.06.25/outbox.cif.g09.slc.cpg/sg15_85_cif.got.tgz:168415.got - 2010.06.28 07:06:18.
