data_PCOD8145584
_publ_section_title
;
Structure prediction by ZEFSAII (Michael W. Deem and Ramdas Pophale) SiO2 
 PCOD8145584
Probable space group: C 2/C
;
_chemical_formula_sum "Si O2"
_cell_formula_units_Z 56
_cell_length_a 29.022753
_cell_length_b 12.718275
_cell_length_c 8.800639
_cell_angle_alpha 90.000000
_cell_angle_beta 55.938569
_cell_angle_gamma 90.000000
_cell_volume 2691.167916
_symmetry_space_group_name_H-M "C 2/C"
_symmetry_group_IT_number 15
_symmetry_cell_setting 'monoclinic'
loop_
_space_group_symop_operation_xyz
x,y,z
-x,y,1/2-z
-x,-y,-z
x,-y,1/2+z
1/2+x,1/2+y,z
1/2-x,1/2+y,1/2-z
1/2-x,1/2-y,-z
1/2+x,1/2-y,1/2+z
loop_
_atom_site_type_symbol
_atom_site_label
_atom_site_fract_x
_atom_site_fract_y
_atom_site_fract_z
Si Si1 0.111108 0.138474 0.317617
Si Si2 0.702460 0.995612 0.847072
Si Si3 0.511385 0.693128 0.902005
Si Si4 0.512438 0.892272 0.401111
Si Si5 0.359101 0.867183 0.281767
Si Si6 0.764880 0.870489 0.474494
Si Si7 0.880586 0.069392 0.854365
O O1 0.150609 0.241383 0.222023
O O2 0.123134 0.091267 0.460773
O O3 0.044961 0.151978 0.416600
O O4 0.127530 0.054880 0.158169
O O5 0.740132 0.926597 0.667936
O O6 0.658978 0.067929 0.834319
O O7 0.742590 0.072672 0.865313
O O8 0.670453 0.914174 0.015358
O O9 0.500000 0.722467 0.750000
O O10 0.561284 0.609802 0.825651
O O11 0.527519 0.801736 0.955931
O O12 0.500000 0.901249 0.250000
O O13 0.575723 0.869729 0.319446
O O14 0.500000 0.000000 0.500000
O O15 0.750000 0.750000 0.500000
O O16 0.831437 0.872324 0.356261
#
# Coordination Sequence:
#
# PCOD8145584 Si02
#       7
#     8   8   8   8   8   8   8
#     4  10  22  39  62  91 120 157 198 242 301 363
#     4  10  23  42  63  87 119 158 203 249 296 351
#     4   9  21  39  59  86 121 157 194 242 298 358
#     4  11  22  35  58  91 120 154 199 242 298 367
#     4  10  22  42  63  87 122 158 195 250 303 349
#     4  11  24  40  61  90 118 157 206 247 294 351
#     4  11  22  39  61  86 122 159 197 248 298 349
#
# _framework density 20.808809
#
# number of rings (size 3 to 8) (size 9 to 14) (size 15 to 20)
#    0.000    1.714    0.000    3.429    0.000   10.286 
#    0.000    4.286    0.000    0.000    0.000    0.000 
#    0.000    0.000    0.000    0.000    0.000    0.000 
#
# Total GULP energy -347179.349673 kJ/mol
# GULP energy per Si atom -12399.262488 kJ/mol
# Density = 2.076145 g / cm^3
# Si number density = 20.808809 Si / 1000 Ang^3
#
#
#
# Elastic Constant Matrix: (Units=GPa)
#
#
# Indices 1 2 3 4 5 6 
#
# 1 116.7952 59.8763 46.1825 0.0000 8.1712 0.0000
# 2 59.8763 185.0155 62.9835 0.0000 17.5877 0.0000
# 3 46.1825 62.9835 78.7815 0.0000 15.2141 0.0000
# 4 0.0000 0.0000 0.0000 41.9819 0.0000 4.5516
# 5 8.1712 17.5877 15.2141 0.0000 28.7311 0.0000
# 6 0.0000 0.0000 0.0000 4.5516 0.0000 32.1728
#
#
#
# Elastic Compliance Matrix: (Units=1/GPa)
#
#
# Indices 1 2 3 4 5 6 
#
# 1 0.011669 -0.002020 -0.005373 0.000000 0.000763 0.000000
# 2 -0.002020 0.007839 -0.004753 0.000000 -0.001707 0.000000
# 3 -0.005373 -0.004753 0.020926 0.000000 -0.006643 0.000000
# 4 0.000000 0.000000 0.000000 0.024191 0.000000 -0.003422
# 5 0.000763 -0.001707 -0.006643 0.000000 0.039151 0.000000
# 6 0.000000 0.000000 0.000000 -0.003422 0.000000 0.031566
#
#
# Mechanical properties :
#
#
# Convention : Reuss Voigt Hill
#
# Bulk Modulus (GPa) = 61.95133 79.85298 70.90215
# Shear Modulus (GPa) = 30.30033 34.68050 32.49041
#
# Velocity S-wave (km/s) = 3.82007 4.08686 3.95571
# Velocity P-wave (km/s) = 7.02094 7.79281 7.41692
#
# Compressibility (1/GPa) = 0.01614170
#
# Stress axis : x y z
#
# Youngs Moduli (GPa) = 85.70037 127.56622 47.78731
#
# Poissons Ratio (x) = 0.25766 0.25675
# Poissons Ratio (y) = 0.17310 0.22715
# Poissons Ratio (z) = 0.46045 0.60637
#
# Static dielectric constant tensor:
#      x y z
#    x 3.740810 0.000000 0.160480 
#    y 0.000000 4.146160 0.000000 
#    z 0.160480 0.000000 3.681520 
# 
# 
# High freq. dielectric constant tensor:
#      x y z
#    x 1.823870 0.000000 0.004860 
#    y 0.000000 1.831280 0.000000 
#    z 0.004860 0.000000 1.812010 
# 
# From -- ./inp_files/69310.got.cif
#   From: 2010.06.25/outbox.cif.g09.slc.cpg/sg15_35_cif.got.tgz:69310.got - 2010.06.28 07:06:18.
