data_PCOD8145410
_publ_section_title
;
Structure prediction by ZEFSAII (Michael W. Deem and Ramdas Pophale) SiO2 
 PCOD8145410
Probable space group: C 2/C
;
_chemical_formula_sum "Si O2"
_cell_formula_units_Z 56
_cell_length_a 12.371094
_cell_length_b 18.860799
_cell_length_c 11.240473
_cell_angle_alpha 90.000000
_cell_angle_beta 92.736031
_cell_angle_gamma 90.000000
_cell_volume 2619.735383
_symmetry_space_group_name_H-M "C 2/C"
_symmetry_group_IT_number 15
_symmetry_cell_setting 'monoclinic'
loop_
_space_group_symop_operation_xyz
x,y,z
-x,y,1/2-z
-x,-y,-z
x,-y,1/2+z
1/2+x,1/2+y,z
1/2-x,1/2+y,1/2-z
1/2-x,1/2-y,-z
1/2+x,1/2-y,1/2+z
loop_
_atom_site_type_symbol
_atom_site_label
_atom_site_fract_x
_atom_site_fract_y
_atom_site_fract_z
Si Si1 0.244936 0.597703 0.512990
Si Si2 0.000000 0.936587 0.750000
Si Si3 0.324771 0.316742 0.466234
Si Si4 0.052627 0.823984 0.561678
Si Si5 0.500000 0.216413 0.750000
Si Si6 0.876763 0.460630 0.706272
Si Si7 0.797842 0.044645 0.113211
Si Si8 0.818420 0.616219 0.721742
O O1 0.334676 0.659662 0.500042
O O2 0.157828 0.594852 0.400213
O O3 0.297101 0.518876 0.517674
O O4 0.186305 0.612475 0.635413
O O5 0.975763 0.894335 0.868539
O O6 0.891799 0.980173 0.712208
O O7 0.250000 0.250000 0.500000
O O8 0.453995 0.299957 0.468503
O O9 0.315021 0.377391 0.564382
O O10 0.291511 0.350746 0.337990
O O11 0.068020 0.761809 0.658387
O O12 0.412413 0.167939 0.680224
O O13 0.813523 0.446392 0.823690
O O14 0.849696 0.541088 0.664255
O O15 0.000000 0.449283 0.750000
#
# Coordination Sequence:
#
# PCOD8145410 Si02
#       8
#     8   4   8   8   4   8   8   8
#     4  11  24  40  64 102 130 168 226 284 340 385
#     4   9  18  36  62  90 120 170 211 260 335 402
#     4  11  22  41  67  95 131 181 227 262 327 413
#     4  10  22  39  66  91 129 175 219 272 336 396
#     4  11  22  44  66  90 130 182 223 266 327 416
#     4  11  23  42  65  96 136 174 223 278 346 399
#     4  10  22  38  66  93 133 169 225 279 333 397
#     4  11  24  40  67  98 133 177 223 276 332 403
#
# _framework density 21.376204000000001
#
# number of rings (size 3 to 8) (size 9 to 14) (size 15 to 20)
#    0.000    1.429    5.000    0.000    0.000    9.143 
#    0.000    0.000    0.000    0.000    0.000    0.000 
#    0.000    0.000    0.000    0.000    0.000    0.000 
#
# Total GULP energy -346929.844873 kJ/mol
# GULP energy per Si atom -12390.351603 kJ/mol
# Density = 2.132755 g / cm^3
# Si number density = 21.376204 Si / 1000 Ang^3
#
#
#
# Elastic Constant Matrix: (Units=GPa)
#
#
# Indices 1 2 3 4 5 6 
#
# 1 128.1419 34.4906 41.2462 0.0000 17.5979 0.0000
# 2 34.4906 81.6222 24.3235 0.0000 5.7763 0.0000
# 3 41.2462 24.3235 82.4549 0.0000 12.7667 0.0000
# 4 0.0000 0.0000 0.0000 6.5299 0.0000 3.6150
# 5 17.5979 5.7763 12.7667 0.0000 36.8544 0.0000
# 6 0.0000 0.0000 0.0000 3.6150 0.0000 30.6857
#
#
#
# Elastic Compliance Matrix: (Units=1/GPa)
#
#
# Indices 1 2 3 4 5 6 
#
# 1 0.010248 -0.002989 -0.003761 0.000000 -0.003122 0.000000
# 2 -0.002989 0.014325 -0.002752 0.000000 0.000135 0.000000
# 3 -0.003761 -0.002752 0.015297 0.000000 -0.003072 0.000000
# 4 0.000000 0.000000 0.000000 0.163826 0.000000 -0.019300
# 5 -0.003122 0.000135 -0.003072 0.000000 0.029667 0.000000
# 6 0.000000 0.000000 0.000000 -0.019300 0.000000 0.034862
#
#
# Mechanical properties :
#
#
# Convention : Reuss Voigt Hill
#
# Bulk Modulus (GPa) = 47.92409 54.70441 51.31425
# Shear Modulus (GPa) = 16.99624 27.62456 22.31040
#
# Velocity S-wave (km/s) = 2.82281 3.59876 3.23414
# Velocity P-wave (km/s) = 5.75260 6.55095 6.16471
#
# Compressibility (1/GPa) = 0.02086633
#
# Stress axis : x y z
#
# Youngs Moduli (GPa) = 97.58363 69.80873 65.37402
#
# Poissons Ratio (x) = 0.20862 0.24588
# Poissons Ratio (y) = 0.29163 0.17989
# Poissons Ratio (z) = 0.36703 0.19209
#
# Static dielectric constant tensor:
#      x y z
#    x 4.217060 0.000000 0.338160 
#    y 0.000000 3.906990 0.000000 
#    z 0.338160 0.000000 3.763280 
# 
# 
# High freq. dielectric constant tensor:
#      x y z
#    x 1.842280 0.000000 0.020240 
#    y 0.000000 1.829260 0.000000 
#    z 0.020240 0.000000 1.827970 
# 
# From -- ./inp_files/88925.got.cif
#   From: 2010.06.25/outbox.cif.g09.slc.cpg/sg15_45_cif.got.tgz:88925.got - 2010.06.28 07:06:18.
