data_PCOD8145851
_publ_section_title
;
Structure prediction by ZEFSAII (Michael W. Deem and Ramdas Pophale) SiO2 
 PCOD8145851
Probable space group: C 2/C
;
_chemical_formula_sum "Si O2"
_cell_formula_units_Z 32
_cell_length_a 11.946577
_cell_length_b 7.074025
_cell_length_c 19.624046
_cell_angle_alpha 90.000000
_cell_angle_beta 111.362115
_cell_angle_gamma 90.000000
_cell_volume 1544.495958
_symmetry_space_group_name_H-M "C 2/C"
_symmetry_group_IT_number 15
_symmetry_cell_setting 'monoclinic'
loop_
_space_group_symop_operation_xyz
x,y,z
-x,y,1/2-z
-x,-y,-z
x,-y,1/2+z
1/2+x,1/2+y,z
1/2-x,1/2+y,1/2-z
1/2-x,1/2-y,-z
1/2+x,1/2-y,1/2+z
loop_
_atom_site_type_symbol
_atom_site_label
_atom_site_fract_x
_atom_site_fract_y
_atom_site_fract_z
Si Si1 0.906139 0.241186 0.092023
Si Si2 0.220073 0.046886 0.023787
Si Si3 0.362570 0.523576 0.212397
Si Si4 0.323990 0.297433 0.845028
O O1 0.838726 0.418118 0.043981
O O2 0.045434 0.300326 0.125547
O O3 0.859129 0.196008 0.157901
O O4 0.887063 0.053015 0.041988
O O5 0.181822 0.056801 0.093903
O O6 0.250000 0.250000 0.000000
O O7 0.500000 0.450384 0.250000
O O8 0.305644 0.590282 0.270830
O O9 0.280736 0.354267 0.166864
#
# Coordination Sequence:
#
# PCOD8145851 Si02
#       4
#     8   8   8   8
#     4  10  23  42  61  91 126 154 206 252 293 366
#     4  11  22  41  64  91 124 159 200 252 302 358
#     4  10  22  40  61  89 124 158 206 250 295 362
#     4  11  22  40  63  90 122 165 199 249 308 350
#
# _framework density 20.718734999999999
#
# number of rings (size 3 to 8) (size 9 to 14) (size 15 to 20)
#    0.000    1.500    2.500    2.250    0.000    3.000 
#    4.500    0.000    0.000    0.000    0.000    0.000 
#    0.000    0.000    0.000    0.000    0.000    0.000 
#
# Total GULP energy -198460.141752 kJ/mol
# GULP energy per Si atom -12403.758860 kJ/mol
# Density = 2.067158 g / cm^3
# Si number density = 20.718735 Si / 1000 Ang^3
#
#
#
# Elastic Constant Matrix: (Units=GPa)
#
#
# Indices 1 2 3 4 5 6 
#
# 1 89.2624 44.4970 33.9775 0.0000 7.2251 0.0000
# 2 44.4970 100.0401 42.7915 0.0000 0.8497 0.0000
# 3 33.9775 42.7915 113.2793 0.0000 -4.7669 0.0000
# 4 0.0000 0.0000 0.0000 28.4626 0.0000 1.2364
# 5 7.2251 0.8497 -4.7669 0.0000 37.4783 0.0000
# 6 0.0000 0.0000 0.0000 1.2364 0.0000 21.7750
#
#
#
# Elastic Compliance Matrix: (Units=1/GPa)
#
#
# Indices 1 2 3 4 5 6 
#
# 1 0.015257 -0.005660 -0.002570 0.000000 -0.003140 0.000000
# 2 -0.005660 0.014049 -0.003596 0.000000 0.000315 0.000000
# 3 -0.002570 -0.003596 0.011040 0.000000 0.001981 0.000000
# 4 0.000000 0.000000 0.000000 0.035221 0.000000 -0.002000
# 5 -0.003140 0.000315 0.001981 0.000000 0.027532 0.000000
# 6 0.000000 0.000000 0.000000 -0.002000 0.000000 0.046038
#
#
# Mechanical properties :
#
#
# Convention : Reuss Voigt Hill
#
# Bulk Modulus (GPa) = 59.90305 60.56820 60.23562
# Shear Modulus (GPa) = 28.03403 29.63091 28.83247
#
# Velocity S-wave (km/s) = 3.68241 3.78584 3.73448
# Velocity P-wave (km/s) = 6.85970 6.95752 6.90878
#
# Compressibility (1/GPa) = 0.01669364
#
# Stress axis : x y z
#
# Youngs Moduli (GPa) = 65.54390 71.17913 90.57582
#
# Poissons Ratio (x) = 0.40288 0.23280
# Poissons Ratio (y) = 0.37098 0.32572
# Poissons Ratio (z) = 0.16846 0.25597
#
# Static dielectric constant tensor:
#      x y z
#    x 3.623100 0.000000 -0.028030 
#    y 0.000000 3.416790 0.000000 
#    z -0.028030 0.000000 4.126340 
# 
# 
# High freq. dielectric constant tensor:
#      x y z
#    x 1.808710 0.000000 -0.002130 
#    y 0.000000 1.791280 0.000000 
#    z -0.002130 0.000000 1.837860 
# 
# From -- ./inp_files/201821.got.cif
#   From: 2010.06.25/outbox.cif.g09.slc.cpg/sg15_101_cif.got.tgz:201821.got - 2010.06.28 07:06:18.
