data_PCOD8145956
_publ_section_title
;
Structure prediction by ZEFSAII (Michael W. Deem and Ramdas Pophale) SiO2 
 PCOD8145956
Probable space group: C 2/C
;
_chemical_formula_sum "Si O2"
_cell_formula_units_Z 56
_cell_length_a 8.780064
_cell_length_b 26.328980
_cell_length_c 13.846826
_cell_angle_alpha 90.000000
_cell_angle_beta 121.340808
_cell_angle_gamma 90.000000
_cell_volume 2733.914153
_symmetry_space_group_name_H-M "C 2/C"
_symmetry_group_IT_number 15
_symmetry_cell_setting 'monoclinic'
loop_
_space_group_symop_operation_xyz
x,y,z
-x,y,1/2-z
-x,-y,-z
x,-y,1/2+z
1/2+x,1/2+y,z
1/2-x,1/2+y,1/2-z
1/2-x,1/2-y,-z
1/2+x,1/2-y,1/2+z
loop_
_atom_site_type_symbol
_atom_site_label
_atom_site_fract_x
_atom_site_fract_y
_atom_site_fract_z
Si Si1 0.723284 0.833882 0.678966
Si Si2 0.186275 0.436969 0.760281
Si Si3 0.954376 0.907324 0.009639
Si Si4 0.470198 0.686244 0.081166
Si Si5 0.664669 0.539944 0.734130
Si Si6 0.805662 0.864232 0.148317
Si Si7 0.590138 0.777162 0.003155
O O1 0.706378 0.895156 0.681933
O O2 0.831235 0.815562 0.808228
O O3 0.530497 0.807119 0.614808
O O4 0.821247 0.817248 0.613666
O O5 0.346709 0.434688 0.889462
O O6 0.197450 0.493300 0.718784
O O7 0.000000 0.427906 0.750000
O O8 0.065414 0.860316 0.002748
O O9 0.817320 0.884745 0.042907
O O10 0.090627 0.947543 0.102470
O O11 0.462509 0.738428 0.018657
O O12 0.500000 0.526907 0.750000
O O13 0.766638 0.590066 0.807762
O O14 0.670410 0.817140 0.107074
O O15 0.000000 0.846555 0.250000
O O16 0.750000 0.750000 0.000000
#
# Coordination Sequence:
#
# PCOD8145956 Si02
#       7
#     8   8   8   8   8   8   8
#     4  10  25  41  58  95 123 157 204 262 299 367
#     4  11  22  38  63  90 123 151 207 258 311 353
#     4   9  18  38  61  88 118 165 201 239 295 384
#     4  10  22  40  64  86 128 160 207 246 306 359
#     4   9  21  39  63  85 123 161 202 242 312 367
#     4   9  20  39  58  93 123 155 206 252 296 370
#     4  12  23  37  66  89 122 166 207 249 313 361
#
# _framework density 20.483450999999999
#
# number of rings (size 3 to 8) (size 9 to 14) (size 15 to 20)
#    0.000    2.286    1.429    1.714    8.000    0.000 
#    2.571    3.571    0.000    0.000    0.000    0.000 
#    0.000    0.000    0.000    0.000    0.000    0.000 
#
# Total GULP energy -347166.025255 kJ/mol
# GULP energy per Si atom -12398.786616 kJ/mol
# Density = 2.043683 g / cm^3
# Si number density = 20.483451 Si / 1000 Ang^3
#
#
#
# Elastic Constant Matrix: (Units=GPa)
#
#
# Indices 1 2 3 4 5 6 
#
# 1 64.6844 42.9072 25.4535 0.0000 -2.4308 0.0000
# 2 42.9072 137.3883 48.0701 0.0000 4.7824 0.0000
# 3 25.4535 48.0701 78.2761 0.0000 0.4193 0.0000
# 4 0.0000 0.0000 0.0000 26.7428 0.0000 -4.8677
# 5 -2.4308 4.7824 0.4193 0.0000 28.0429 0.0000
# 6 0.0000 0.0000 0.0000 -4.8677 0.0000 20.5074
#
#
#
# Elastic Compliance Matrix: (Units=1/GPa)
#
#
# Indices 1 2 3 4 5 6 
#
# 1 0.020402 -0.005273 -0.003411 0.000000 0.002719 0.000000
# 2 -0.005273 0.010697 -0.004842 0.000000 -0.002209 0.000000
# 3 -0.003411 -0.004842 0.016857 0.000000 0.000278 0.000000
# 4 0.000000 0.000000 0.000000 0.039082 0.000000 0.009277
# 5 0.002719 -0.002209 0.000278 0.000000 0.036268 0.000000
# 6 0.000000 0.000000 0.000000 0.009277 0.000000 0.050965
#
#
# Mechanical properties :
#
#
# Convention : Reuss Voigt Hill
#
# Bulk Modulus (GPa) = 47.83985 57.02338 52.43162
# Shear Modulus (GPa) = 24.00515 25.98648 24.99582
#
# Velocity S-wave (km/s) = 3.42706 3.56569 3.49706
# Velocity P-wave (km/s) = 6.25026 6.69711 6.47754
#
# Compressibility (1/GPa) = 0.02090307
#
# Stress axis : x y z
#
# Youngs Moduli (GPa) = 49.01589 93.48785 59.32389
#
# Poissons Ratio (x) = 0.49295 0.20233
# Poissons Ratio (y) = 0.25845 0.28727
# Poissons Ratio (z) = 0.16717 0.45271
#
# Static dielectric constant tensor:
#      x y z
#    x 3.354370 0.000000 -0.045350 
#    y 0.000000 3.859190 0.000000 
#    z -0.045350 0.000000 3.728560 
# 
# 
# High freq. dielectric constant tensor:
#      x y z
#    x 1.773470 0.000000 -0.006730 
#    y 0.000000 1.812790 0.000000 
#    z -0.006730 0.000000 1.799310 
# 
# From -- ./inp_files/138688.got.cif
#   From: 2010.06.25/outbox.cif.g09.slc.cpg/sg15_70_cif.got.tgz:138688.got - 2010.06.28 07:06:18.
