data_PCOD8145398
_publ_section_title
;
Structure prediction by ZEFSAII (Michael W. Deem and Ramdas Pophale) SiO2 
 PCOD8145398
Probable space group: C 2/C
;
_chemical_formula_sum "Si O2"
_cell_formula_units_Z 48
_cell_length_a 21.670195
_cell_length_b 12.786524
_cell_length_c 8.649273
_cell_angle_alpha 90.000000
_cell_angle_beta 115.170200
_cell_angle_gamma 90.000000
_cell_volume 2169.035792
_symmetry_space_group_name_H-M "C 2/C"
_symmetry_group_IT_number 15
_symmetry_cell_setting 'monoclinic'
loop_
_space_group_symop_operation_xyz
x,y,z
-x,y,1/2-z
-x,-y,-z
x,-y,1/2+z
1/2+x,1/2+y,z
1/2-x,1/2+y,1/2-z
1/2-x,1/2-y,-z
1/2+x,1/2-y,1/2+z
loop_
_atom_site_type_symbol
_atom_site_label
_atom_site_fract_x
_atom_site_fract_y
_atom_site_fract_z
Si Si1 0.564942 0.866269 0.617803
Si Si2 0.299409 0.783780 0.233406
Si Si3 0.000000 0.810592 0.250000
Si Si4 0.286773 0.451483 0.203070
Si Si5 0.000000 0.466789 0.250000
Si Si6 0.363796 0.383395 0.986748
Si Si7 0.189584 0.376333 0.553938
O O1 0.534862 0.759224 0.653050
O O2 0.529692 0.896071 0.417689
O O3 0.643905 0.850805 0.655555
O O4 0.558341 0.958196 0.738297
O O5 0.236518 0.857238 0.213435
O O6 0.350556 0.737637 0.417277
O O7 0.262646 0.679985 0.133296
O O8 0.344429 0.841121 0.146463
O O9 0.055885 0.886722 0.387940
O O10 0.343622 0.525675 0.344150
O O11 0.213664 0.503589 0.081459
O O12 0.318524 0.400339 0.087468
#
# Coordination Sequence:
#
# PCOD8145398 Si02
#       7
#     8   8   4   8   4   8   8
#     4  10  22  39  62  90 132 171 227 271 336 391
#     4  10  22  40  65 100 131 166 218 277 341 394
#     4  11  26  46  60  95 136 194 226 263 318 405
#     4  11  22  43  69 103 131 170 220 285 342 395
#     4   9  22  38  58  95 124 174 224 275 324 403
#     4  11  25  43  69  95 138 177 227 274 333 404
#     4  10  22  38  66 100 129 166 214 283 342 389
#
# _framework density 22.129646999999999
#
# number of rings (size 3 to 8) (size 9 to 14) (size 15 to 20)
#    0.000    1.667    1.667    1.500    4.667    4.667 
#    0.000    0.000    0.000    0.000    0.000    0.000 
#    0.000    0.000    0.000    0.000    0.000    0.000 
#
# Total GULP energy -297416.254898 kJ/mol
# GULP energy per Si atom -12392.343954 kJ/mol
# Density = 2.207928 g / cm^3
# Si number density = 22.129647 Si / 1000 Ang^3
#
#
#
# Elastic Constant Matrix: (Units=GPa)
#
#
# Indices 1 2 3 4 5 6 
#
# 1 114.3197 18.2073 39.1370 0.0000 -18.1788 0.0000
# 2 18.2073 62.1501 34.5248 0.0000 0.1131 0.0000
# 3 39.1370 34.5248 105.2757 0.0000 -10.7192 0.0000
# 4 0.0000 0.0000 0.0000 10.0861 0.0000 31.3916
# 5 -18.1788 0.1131 -10.7192 0.0000 43.6173 0.0000
# 6 0.0000 0.0000 0.0000 31.3916 0.0000 -108.7889
#
#
#
# Elastic Compliance Matrix: (Units=1/GPa)
#
#
# Indices 1 2 3 4 5 6 
#
# 1 0.010619 -0.001384 -0.003121 0.000000 0.003662 0.000000
# 2 -0.001384 0.019975 -0.006257 0.000000 -0.002166 0.000000
# 3 -0.003121 -0.006257 0.012903 0.000000 0.001887 0.000000
# 4 0.000000 0.000000 0.000000 0.052235 0.000000 0.015073
# 5 0.003662 -0.002166 0.001887 0.000000 0.024922 0.000000
# 6 0.000000 0.000000 0.000000 0.015073 0.000000 -0.004843
#
#
# Mechanical properties :
#
#
# Convention : Reuss Voigt Hill
#
# Bulk Modulus (GPa) = 45.50890 51.72041 48.61465
# Shear Modulus (GPa) = 34.56411 1.64134 18.10272
#
# Velocity S-wave (km/s) = 3.95636 0.86215 2.86323
# Velocity P-wave (km/s) = 6.44048 4.94099 5.73991
#
# Compressibility (1/GPa) = 0.02197372
#
# Stress axis : x y z
#
# Youngs Moduli (GPa) = 94.17483 50.06213 77.50086
#
# Poissons Ratio (x) = 0.06928 0.24187
# Poissons Ratio (y) = 0.13032 0.48492
# Poissons Ratio (z) = 0.29390 0.31324
#
# Static dielectric constant tensor:
#      x y z
#    x 3.899980 0.000000 -0.115330 
#    y 0.000000 4.096470 0.000000 
#    z -0.115330 0.000000 4.472050 
# 
# 
# High freq. dielectric constant tensor:
#      x y z
#    x 1.862360 0.000000 -0.015890 
#    y 0.000000 1.870610 0.000000 
#    z -0.015890 0.000000 1.875540 
# 
# From -- ./inp_files/55267.got.cif
#   From: 2010.06.25/outbox.cif.g09.slc.cpg/sg15_28_cif.got.tgz:55267.got - 2010.06.28 07:06:18.
