data_PCOD8145697
_publ_section_title
;
Structure prediction by ZEFSAII (Michael W. Deem and Ramdas Pophale) SiO2 
 PCOD8145697
Probable space group: C 2/C
;
_chemical_formula_sum "Si O2"
_cell_formula_units_Z 40
_cell_length_a 18.491402
_cell_length_b 5.495624
_cell_length_c 17.714330
_cell_angle_alpha 90.000000
_cell_angle_beta 99.328354
_cell_angle_gamma 90.000000
_cell_volume 1776.355948
_symmetry_space_group_name_H-M "C 2/C"
_symmetry_group_IT_number 15
_symmetry_cell_setting 'monoclinic'
loop_
_space_group_symop_operation_xyz
x,y,z
-x,y,1/2-z
-x,-y,-z
x,-y,1/2+z
1/2+x,1/2+y,z
1/2-x,1/2+y,1/2-z
1/2-x,1/2-y,-z
1/2+x,1/2-y,1/2+z
loop_
_atom_site_type_symbol
_atom_site_label
_atom_site_fract_x
_atom_site_fract_y
_atom_site_fract_z
Si Si1 0.491138 0.972958 0.662201
Si Si2 0.619973 0.761858 0.609619
Si Si3 0.309008 0.753371 0.401179
Si Si4 0.548891 0.657303 0.452493
Si Si5 0.851715 0.762943 0.081228
O O1 0.500000 0.048221 0.750000
O O2 0.546400 0.752372 0.649875
O O3 0.405832 0.934235 0.627395
O O4 0.509926 0.195240 0.608341
O O5 0.662877 0.505707 0.628097
O O6 0.599456 0.811861 0.518393
O O7 0.665353 0.005493 0.641057
O O8 0.220983 0.759503 0.380710
O O9 0.333898 0.784337 0.491277
O O10 0.500000 0.500000 0.500000
O O11 0.603488 0.514949 0.405578
#
# Coordination Sequence:
#
# PCOD8145697 Si02
#       5
#     8   8   8   8   8
#     4  12  25  41  65 100 137 181 231 290 357 416
#     4  11  22  42  66  99 129 177 224 282 334 413
#     4  10  23  39  70  99 131 169 228 280 343 394
#     4  11  21  40  69  98 135 175 236 286 344 407
#     4  10  22  39  65  99 131 169 223 289 333 413
#
# _framework density 22.518008999999999
#
# number of rings (size 3 to 8) (size 9 to 14) (size 15 to 20)
#    0.000    1.200    4.000    3.000    2.800    3.200 
#    0.000    2.000    0.000    0.000    0.000    0.000 
#    0.000    0.000    0.000    0.000    0.000    0.000 
#
# Total GULP energy -247806.940540 kJ/mol
# GULP energy per Si atom -12390.347027 kJ/mol
# Density = 2.246676 g / cm^3
# Si number density = 22.518009 Si / 1000 Ang^3
#
#
#
# Elastic Constant Matrix: (Units=GPa)
#
#
# Indices 1 2 3 4 5 6 
#
# 1 160.9138 68.2301 23.1173 0.0000 3.9212 0.0000
# 2 68.2301 146.9038 31.6554 0.0000 -6.9363 0.0000
# 3 23.1173 31.6554 76.9232 0.0000 -2.6396 0.0000
# 4 0.0000 0.0000 0.0000 12.5777 0.0000 -8.0571
# 5 3.9212 -6.9363 -2.6396 0.0000 15.8332 0.0000
# 6 0.0000 0.0000 0.0000 -8.0571 0.0000 34.6049
#
#
#
# Elastic Compliance Matrix: (Units=1/GPa)
#
#
# Indices 1 2 3 4 5 6 
#
# 1 0.008013 -0.003679 -0.001023 0.000000 -0.003767 0.000000
# 2 -0.003679 0.009282 -0.002558 0.000000 0.004551 0.000000
# 3 -0.001023 -0.002558 0.014413 0.000000 0.001536 0.000000
# 4 0.000000 0.000000 0.000000 0.093442 0.000000 0.021756
# 5 -0.003767 0.004551 0.001536 0.000000 0.066341 0.000000
# 6 0.000000 0.000000 0.000000 0.021756 0.000000 0.033963
#
#
# Mechanical properties :
#
#
# Convention : Reuss Voigt Hill
#
# Bulk Modulus (GPa) = 58.18250 70.08292 64.13271
# Shear Modulus (GPa) = 20.34960 30.05237 25.20099
#
# Velocity S-wave (km/s) = 3.00943 3.65717 3.34900
# Velocity P-wave (km/s) = 6.16197 7.00170 6.59521
#
# Compressibility (1/GPa) = 0.01718730
#
# Stress axis : x y z
#
# Youngs Moduli (GPa) = 124.79162 107.73480 69.38250
#
# Poissons Ratio (x) = 0.39637 0.07101
# Poissons Ratio (y) = 0.45913 0.17747
# Poissons Ratio (z) = 0.12771 0.27557
#
# Static dielectric constant tensor:
#      x y z
#    x 4.506890 0.000000 0.167890 
#    y 0.000000 4.172370 0.000000 
#    z 0.167890 0.000000 3.601930 
# 
# 
# High freq. dielectric constant tensor:
#      x y z
#    x 1.900980 0.000000 0.003690 
#    y 0.000000 1.894440 0.000000 
#    z 0.003690 0.000000 1.828480 
# 
# From -- ./inp_files/246280.got.cif
#   From: 2010.06.25/outbox.cif.g09.slc.cpg/sg15_124_cif.got.tgz:246280.got - 2010.06.28 07:06:18.
