data_PCOD8145711
_publ_section_title
;
Structure prediction by ZEFSAII (Michael W. Deem and Ramdas Pophale) SiO2 
 PCOD8145711
Probable space group: C 2/C
;
_chemical_formula_sum "Si O2"
_cell_formula_units_Z 48
_cell_length_a 22.551588
_cell_length_b 21.941609
_cell_length_c 5.424210
_cell_angle_alpha 90.000000
_cell_angle_beta 129.239308
_cell_angle_gamma 90.000000
_cell_volume 2078.784727
_symmetry_space_group_name_H-M "C 2/C"
_symmetry_group_IT_number 15
_symmetry_cell_setting 'monoclinic'
loop_
_space_group_symop_operation_xyz
x,y,z
-x,y,1/2-z
-x,-y,-z
x,-y,1/2+z
1/2+x,1/2+y,z
1/2-x,1/2+y,1/2-z
1/2-x,1/2-y,-z
1/2+x,1/2-y,1/2+z
loop_
_atom_site_type_symbol
_atom_site_label
_atom_site_fract_x
_atom_site_fract_y
_atom_site_fract_z
Si Si1 0.000000 0.537280 0.250000
Si Si2 0.879859 0.151320 0.778361
Si Si3 0.833127 0.539300 0.813891
Si Si4 0.000000 0.801219 0.250000
Si Si5 0.250733 0.152820 0.423274
Si Si6 0.640365 0.745611 0.398802
Si Si7 0.911379 0.028244 0.049857
O O1 0.082025 0.571612 0.466866
O O2 0.000000 0.500000 0.500000
O O3 0.802038 0.131468 0.440226
O O4 0.954454 0.151540 0.802007
O O5 0.873920 0.220664 0.863298
O O6 0.895579 0.100803 0.030103
O O7 0.820934 0.496896 0.538666
O O8 0.773459 0.594740 0.646873
O O9 0.060237 0.756785 0.543106
O O10 0.327000 0.185986 0.515284
O O11 0.203901 0.199572 0.464463
O O12 0.000000 0.012043 0.250000
O O13 0.873927 0.997493 0.194897
#
# Coordination Sequence:
#
# PCOD8145711 Si02
#       7
#     4   8   8   4   8   8   8
#     4   8  16  35  62  90 126 166 207 262 316 374
#     4  11  23  40  65  87 131 166 215 268 329 380
#     4  10  22  41  67  98 132 172 219 265 326 389
#     4  10  22  39  66  94 116 166 217 270 324 382
#     4  10  24  40  64  93 128 169 213 265 325 393
#     4  10  22  43  63  92 125 167 215 266 326 381
#     4  10  23  37  59  91 125 166 214 262 314 373
#
# _framework density 23.090415
#
# number of rings (size 3 to 8) (size 9 to 14) (size 15 to 20)
#    0.000    2.000    0.000    2.000   10.500    2.000 
#    0.000    0.000   11.000    0.000    0.000    0.000 
#    0.000    0.000    0.000    0.000    0.000    0.000 
#
# Total GULP energy -297399.647103 kJ/mol
# GULP energy per Si atom -12391.651963 kJ/mol
# Density = 2.303786 g / cm^3
# Si number density = 23.090415 Si / 1000 Ang^3
#
#
#
# Elastic Constant Matrix: (Units=GPa)
#
#
# Indices 1 2 3 4 5 6 
#
# 1 47.4513 17.6915 63.1357 0.0000 2.2953 0.0000
# 2 17.6915 75.1170 39.8109 0.0000 7.6780 0.0000
# 3 63.1357 39.8109 115.3074 0.0000 0.3248 0.0000
# 4 0.0000 0.0000 0.0000 17.8111 0.0000 -1.9816
# 5 2.2953 7.6780 0.3248 0.0000 47.1294 0.0000
# 6 0.0000 0.0000 0.0000 -1.9816 0.0000 22.9605
#
#
#
# Elastic Compliance Matrix: (Units=1/GPa)
#
#
# Indices 1 2 3 4 5 6 
#
# 1 0.080270 0.005933 -0.045987 0.000000 -0.004559 0.000000
# 2 0.005933 0.017062 -0.009131 0.000000 -0.003006 0.000000
# 3 -0.045987 -0.009131 0.036995 0.000000 0.003472 0.000000
# 4 0.000000 0.000000 0.000000 0.056689 0.000000 0.004893
# 5 -0.004559 -0.003006 0.003472 0.000000 0.021906 0.000000
# 6 0.000000 0.000000 0.000000 0.004893 0.000000 0.043975
#
#
# Mechanical properties :
#
#
# Convention : Reuss Voigt Hill
#
# Bulk Modulus (GPa) = 27.81070 53.23912 40.52491
# Shear Modulus (GPa) = 13.61468 25.39605 19.50536
#
# Velocity S-wave (km/s) = 2.43085 3.32000 2.90959
# Velocity P-wave (km/s) = 4.46645 6.14845 5.37366
#
# Compressibility (1/GPa) = 0.03595738
#
# Stress axis : x y z
#
# Youngs Moduli (GPa) = 12.45803 58.61105 27.03080
#
# Poissons Ratio (x) = -0.34775 1.24306
# Poissons Ratio (y) = -0.07392 0.24682
# Poissons Ratio (z) = 0.57290 0.53517
#
# Static dielectric constant tensor:
#      x y z
#    x 4.367290 0.000000 0.132540 
#    y 0.000000 3.766360 0.000000 
#    z 0.132540 0.000000 4.562600 
# 
# 
# High freq. dielectric constant tensor:
#      x y z
#    x 1.916420 0.000000 0.005600 
#    y 0.000000 1.876520 0.000000 
#    z 0.005600 0.000000 1.930790 
# 
# From -- ./inp_files/10905.got.cif
#   From: 2010.06.25/outbox.cif.g09.slc.cpg/sg15_6_cif.got.tgz:10905.got - 2010.06.28 07:06:18.
