data_PCOD8145784
_publ_section_title
;
Structure prediction by ZEFSAII (Michael W. Deem and Ramdas Pophale) SiO2 
 PCOD8145784
Probable space group: C 2/C
;
_chemical_formula_sum "Si O2"
_cell_formula_units_Z 52
_cell_length_a 19.110366
_cell_length_b 9.391436
_cell_length_c 14.526307
_cell_angle_alpha 90.000000
_cell_angle_beta 111.995903
_cell_angle_gamma 90.000000
_cell_volume 2417.322711
_symmetry_space_group_name_H-M "C 2/C"
_symmetry_group_IT_number 15
_symmetry_cell_setting 'monoclinic'
loop_
_space_group_symop_operation_xyz
x,y,z
-x,y,1/2-z
-x,-y,-z
x,-y,1/2+z
1/2+x,1/2+y,z
1/2-x,1/2+y,1/2-z
1/2-x,1/2-y,-z
1/2+x,1/2-y,1/2+z
loop_
_atom_site_type_symbol
_atom_site_label
_atom_site_fract_x
_atom_site_fract_y
_atom_site_fract_z
Si Si1 0.250608 0.369035 0.350078
Si Si2 0.362391 0.859386 0.940604
Si Si3 0.000000 0.003346 0.250000
Si Si4 0.627786 0.687309 0.722765
Si Si5 0.745212 0.169562 0.403528
Si Si6 0.981257 0.723263 0.641775
Si Si7 0.137990 0.661872 0.645345
O O1 0.281953 0.224024 0.413053
O O2 0.306637 0.410308 0.291435
O O3 0.247882 0.499078 0.421005
O O4 0.167597 0.351185 0.265241
O O5 0.407749 0.785828 0.876897
O O6 0.347496 0.023043 0.910241
O O7 0.407471 0.844359 0.058522
O O8 0.934249 0.905997 0.257430
O O9 0.031312 0.106450 0.347149
O O10 0.666733 0.791729 0.815527
O O11 0.750000 0.250000 0.500000
O O12 0.817901 0.208146 0.378792
O O13 0.049895 0.698235 0.605167
O O14 0.000000 0.648967 0.750000
#
# Coordination Sequence:
#
# PCOD8145784 Si02
#       7
#     8   8   4   8   8   8   8
#     4   9  20  42  65  89 122 166 213 253 316 373
#     4  10  22  42  64  92 123 175 206 258 322 374
#     4  10  22  40  56  96 130 162 212 264 310 380
#     4   9  21  38  65  87 127 168 210 251 321 373
#     4  11  23  37  65  98 120 160 217 263 313 372
#     4  10  25  40  63  94 129 168 214 256 322 372
#     4  11  20  44  64  88 132 166 207 265 315 378
#
# _framework density 21.511400999999999
#
# number of rings (size 3 to 8) (size 9 to 14) (size 15 to 20)
#    1.385    0.615    1.538    1.385    2.154    4.308 
#    1.385    1.538    0.000    0.000    0.000    0.000 
#    0.000    0.000    0.000    0.000    0.000    0.000 
#
# Total GULP energy -322177.797842 kJ/mol
# GULP energy per Si atom -12391.453763 kJ/mol
# Density = 2.146244 g / cm^3
# Si number density = 21.511401 Si / 1000 Ang^3
#
#
#
# Elastic Constant Matrix: (Units=GPa)
#
#
# Indices 1 2 3 4 5 6 
#
# 1 20.3974 -13.5249 -4.3319 0.0000 9.0246 0.0000
# 2 -13.5249 67.1089 8.7803 0.0000 5.8710 0.0000
# 3 -4.3319 8.7803 115.8981 0.0000 16.6482 0.0000
# 4 0.0000 0.0000 0.0000 17.8172 0.0000 2.9554
# 5 9.0246 5.8710 16.6482 0.0000 29.0494 0.0000
# 6 0.0000 0.0000 0.0000 2.9554 0.0000 30.6754
#
#
#
# Elastic Compliance Matrix: (Units=1/GPa)
#
#
# Indices 1 2 3 4 5 6 
#
# 1 0.074746 0.016925 0.005817 0.000000 -0.029976 0.000000
# 2 0.016925 0.019066 0.000542 0.000000 -0.009422 0.000000
# 3 0.005817 0.000542 0.009895 0.000000 -0.007587 0.000000
# 4 0.000000 0.000000 0.000000 0.057037 0.000000 -0.005495
# 5 -0.029976 -0.009422 -0.007587 0.000000 0.049989 0.000000
# 6 0.000000 0.000000 0.000000 -0.005495 0.000000 0.033129
#
#
# Mechanical properties :
#
#
# Convention : Reuss Voigt Hill
#
# Bulk Modulus (GPa) = 6.65445 20.58348 13.61897
# Shear Modulus (GPa) = 20.21146 29.67379 24.94262
#
# Velocity S-wave (km/s) = 3.06857 3.71812 3.40885
# Velocity P-wave (km/s) = 3.95664 5.29357 4.67316
#
# Compressibility (1/GPa) = 0.15027532
#
# Stress axis : x y z
#
# Youngs Moduli (GPa) = 13.37857 52.45048 101.06570
#
# Poissons Ratio (x) = -0.88774 -0.58794
# Poissons Ratio (y) = -0.22644 -0.05474
# Poissons Ratio (z) = -0.07783 -0.02841
#
# Static dielectric constant tensor:
#      x y z
#    x 3.642240 0.000000 0.011140 
#    y 0.000000 3.894030 0.000000 
#    z 0.011140 0.000000 3.792490 
# 
# 
# High freq. dielectric constant tensor:
#      x y z
#    x 1.828020 0.000000 -0.000560 
#    y 0.000000 1.837080 0.000000 
#    z -0.000560 0.000000 1.838490 
# 
# From -- ./inp_files/172040.got.cif
#   From: 2010.06.25/outbox.cif.g09.slc.cpg/sg15_87_cif.got.tgz:172040.got - 2010.06.28 07:06:18.
