data_PCOD8145067
_publ_section_title
;
Structure prediction by ZEFSAII (Michael W. Deem and Ramdas Pophale) SiO2 
 PCOD8145067
Probable space group: C 2/C
;
_chemical_formula_sum "Si O2"
_cell_formula_units_Z 52
_cell_length_a 17.805845
_cell_length_b 17.904008
_cell_length_c 8.404999
_cell_angle_alpha 90.000000
_cell_angle_beta 72.138992
_cell_angle_gamma 90.000000
_cell_volume 2550.338033
_symmetry_space_group_name_H-M "C 2/C"
_symmetry_group_IT_number 15
_symmetry_cell_setting 'monoclinic'
loop_
_space_group_symop_operation_xyz
x,y,z
-x,y,1/2-z
-x,-y,-z
x,-y,1/2+z
1/2+x,1/2+y,z
1/2-x,1/2+y,1/2-z
1/2-x,1/2-y,-z
1/2+x,1/2-y,1/2+z
loop_
_atom_site_type_symbol
_atom_site_label
_atom_site_fract_x
_atom_site_fract_y
_atom_site_fract_z
Si Si1 0.000000 0.113431 0.750000
Si Si2 0.666564 0.539925 0.621685
Si Si3 0.162488 0.692930 0.204357
Si Si4 0.968109 0.241333 0.529383
Si Si5 0.384179 0.749132 0.265604
Si Si6 0.296671 0.395834 0.738648
Si Si7 0.267043 0.835308 0.167054
O O1 0.074689 0.058530 0.703981
O O2 0.004888 0.164615 0.904869
O O3 0.684540 0.452065 0.630114
O O4 0.690461 0.558488 0.429103
O O5 0.722284 0.585707 0.709734
O O6 0.070450 0.701874 0.315548
O O7 0.207546 0.637198 0.297285
O O8 0.197890 0.776197 0.180494
O O9 0.170145 0.662925 0.019858
O O10 0.900070 0.229988 0.439382
O O11 0.040797 0.277068 0.386041
O O12 0.355863 0.673400 0.201023
O O13 0.316710 0.813565 0.293296
#
# Coordination Sequence:
#
# PCOD8145067 Si02
#       7
#     4   8   8   8   8   8   8
#     4  12  22  36  56  84 114 168 188 226 300 350
#     4  11  23  37  57  81 123 161 194 234 288 356
#     4   9  18  35  59  79 108 148 201 242 285 338
#     4  11  21  35  59  85 113 150 193 250 290 337
#     4  10  22  37  56  86 119 142 201 249 290 343
#     4  10  23  38  53  84 117 157 195 236 281 351
#     4   9  18  37  57  81 110 153 197 244 284 348
#
# _framework density 20.389453
#
# number of rings (size 3 to 8) (size 9 to 14) (size 15 to 20)
#    0.000    1.846    3.077    1.846    2.154    5.538 
#    0.000    0.000    0.000    0.923    0.000    2.154 
#    0.000    0.000    0.000    0.000    0.000    0.000 
#
# Total GULP energy -322221.452738 kJ/mol
# GULP energy per Si atom -12393.132798 kJ/mol
# Density = 2.034305 g / cm^3
# Si number density = 20.389453 Si / 1000 Ang^3
#
#
#
# Elastic Constant Matrix: (Units=GPa)
#
#
# Indices 1 2 3 4 5 6 
#
# 1 81.9846 36.7229 11.1167 0.0000 8.5972 0.0000
# 2 36.7229 56.6979 13.8611 0.0000 -10.8421 0.0000
# 3 11.1167 13.8611 48.6889 0.0000 1.2054 0.0000
# 4 0.0000 0.0000 0.0000 23.4978 0.0000 9.7630
# 5 8.5972 -10.8421 1.2054 0.0000 33.0276 0.0000
# 6 0.0000 0.0000 0.0000 9.7630 0.0000 33.0135
#
#
#
# Elastic Compliance Matrix: (Units=1/GPa)
#
#
# Indices 1 2 3 4 5 6 
#
# 1 0.019874 -0.014767 -0.000086 0.000000 -0.010018 0.000000
# 2 -0.014767 0.031397 -0.005922 0.000000 0.014367 0.000000
# 3 -0.000086 -0.005922 0.022312 0.000000 -0.002736 0.000000
# 4 0.000000 0.000000 0.000000 0.048519 0.000000 -0.014348
# 5 -0.010018 0.014367 -0.002736 0.000000 0.037701 0.000000
# 6 0.000000 0.000000 0.000000 -0.014348 0.000000 0.034534
#
#
# Mechanical properties :
#
#
# Convention : Reuss Voigt Hill
#
# Bulk Modulus (GPa) = 31.21801 34.53033 32.87417
# Shear Modulus (GPa) = 20.27865 26.28583 23.28224
#
# Velocity S-wave (km/s) = 3.15710 3.59442 3.38283
# Velocity P-wave (km/s) = 5.35105 5.84796 5.60502
#
# Compressibility (1/GPa) = 0.03203279
#
# Stress axis : x y z
#
# Youngs Moduli (GPa) = 50.31696 31.85016 44.81911
#
# Poissons Ratio (x) = 0.47033 0.00384
# Poissons Ratio (y) = 0.74303 0.26544
# Poissons Ratio (z) = 0.00431 0.18863
#
# Static dielectric constant tensor:
#      x y z
#    x 3.902230 0.000000 0.128510 
#    y 0.000000 3.527430 0.000000 
#    z 0.128510 0.000000 3.694660 
# 
# 
# High freq. dielectric constant tensor:
#      x y z
#    x 1.801270 0.000000 0.004560 
#    y 0.000000 1.755280 0.000000 
#    z 0.004560 0.000000 1.798720 
# 
# From -- ./inp_files/48437.got.cif
#   From: 2010.06.25/outbox.cif.g09.slc.cpg/sg15_25_cif.got.tgz:48437.got - 2010.06.28 07:06:18.
