data_PCOD8145458
_publ_section_title
;
Structure prediction by ZEFSAII (Michael W. Deem and Ramdas Pophale) SiO2 
 PCOD8145458
Probable space group: C 2/C
;
_chemical_formula_sum "Si O2"
_cell_formula_units_Z 52
_cell_length_a 24.689961
_cell_length_b 15.293589
_cell_length_c 18.799101
_cell_angle_alpha 90.000000
_cell_angle_beta 19.324953
_cell_angle_gamma 90.000000
_cell_volume 2349.075632
_symmetry_space_group_name_H-M "C 2/C"
_symmetry_group_IT_number 15
_symmetry_cell_setting 'monoclinic'
loop_
_space_group_symop_operation_xyz
x,y,z
-x,y,1/2-z
-x,-y,-z
x,-y,1/2+z
1/2+x,1/2+y,z
1/2-x,1/2+y,1/2-z
1/2-x,1/2-y,-z
1/2+x,1/2-y,1/2+z
loop_
_atom_site_type_symbol
_atom_site_label
_atom_site_fract_x
_atom_site_fract_y
_atom_site_fract_z
Si Si1 0.082791 0.269638 0.247745
Si Si2 0.191707 0.978915 0.092277
Si Si3 0.316707 0.492692 0.564845
Si Si4 0.271779 0.699015 0.157525
Si Si5 0.761362 0.183536 0.662042
Si Si6 0.500000 0.085035 0.750000
Si Si7 0.364990 0.290207 0.300750
O O1 0.122573 0.281137 0.281083
O O2 0.948296 0.193929 0.401856
O O3 0.998912 0.357327 0.322601
O O4 0.250000 0.250000 0.000000
O O5 0.199304 0.888257 0.125047
O O6 0.231323 0.976206 0.958516
O O7 0.009434 0.014181 0.331293
O O8 0.330559 0.032525 0.961316
O O9 0.255503 0.407091 0.685440
O O10 0.230932 0.578648 0.706430
O O11 0.255535 0.754378 0.249154
O O12 0.138851 0.738426 0.268785
O O13 0.449190 0.713824 0.902194
O O14 0.250000 0.250000 0.500000
#
# Coordination Sequence:
#
# PCOD8145458 Si02
#       7
#     8   8   8   8   8   4   8
#     4  12  24  42  68 100 134 181 233 278 333 403
#     4  10  22  38  69 105 131 172 236 288 327 399
#     4  10  22  44  69  96 138 184 224 276 350 408
#     4  11  25  45  66 104 136 185 223 278 361 404
#     4  12  25  45  68  96 145 182 221 286 343 414
#     4  12  22  38  64 110 126 164 236 278 334 390
#     4  11  22  43  71  98 135 175 232 288 334 406
#
# _framework density 22.136365999999999
#
# number of rings (size 3 to 8) (size 9 to 14) (size 15 to 20)
#    0.000    0.923    4.615    2.308    4.308    0.000 
#    2.769    3.846    0.000    0.000    0.000    0.000 
#    0.000    0.000    0.000    0.000    0.000    0.000 
#
# Total GULP energy -322185.056818 kJ/mol
# GULP energy per Si atom -12391.732955 kJ/mol
# Density = 2.208598 g / cm^3
# Si number density = 22.136366 Si / 1000 Ang^3
#
#
#
# Elastic Constant Matrix: (Units=GPa)
#
#
# Indices 1 2 3 4 5 6 
#
# 1 95.7974 33.1831 15.1570 -0.0014 -15.7611 0.0006
# 2 33.1831 145.3236 31.3573 -0.0009 -6.1134 -0.0002
# 3 15.1570 31.3573 51.0136 -0.0026 -13.4142 -0.0008
# 4 -0.0014 -0.0009 -0.0026 35.5244 0.0010 -0.2491
# 5 -15.7611 -6.1134 -13.4142 0.0010 38.8586 -0.0006
# 6 0.0006 -0.0002 -0.0008 -0.2491 -0.0006 42.6923
#
#
#
# Elastic Compliance Matrix: (Units=1/GPa)
#
#
# Indices 1 2 3 4 5 6 
#
# 1 0.012111 -0.002364 -0.001046 0.000000 0.004179 0.000000
# 2 -0.002364 0.008403 -0.004803 0.000000 -0.001295 0.000000
# 3 -0.001046 -0.004803 0.024808 0.000001 0.007384 0.000001
# 4 0.000000 0.000000 0.000001 0.028151 0.000000 0.000164
# 5 0.004179 -0.001295 0.007384 0.000000 0.029774 0.000000
# 6 0.000000 0.000000 0.000001 0.000164 0.000000 0.023424
#
#
# Mechanical properties :
#
#
# Convention : Reuss Voigt Hill
#
# Bulk Modulus (GPa) = 34.60914 50.16993 42.38954
# Shear Modulus (GPa) = 32.73771 37.57755 35.15763
#
# Velocity S-wave (km/s) = 3.84983 4.12460 3.98958
# Velocity P-wave (km/s) = 5.95232 6.73768 6.35714
#
# Compressibility (1/GPa) = 0.02889410
#
# Stress axis : x y z
#
# Youngs Moduli (GPa) = 82.57249 119.00662 40.31017
#
# Poissons Ratio (x) = 0.28130 0.04218
# Poissons Ratio (y) = 0.19518 0.19362
# Poissons Ratio (z) = 0.08641 0.57163
#
# Static dielectric constant tensor:
#      x y z
#    x 4.301980 0.000250 -0.363290 
#    y 0.000250 3.886250 -0.000030 
#    z -0.363290 -0.000030 4.076500 
# 
# 
# High freq. dielectric constant tensor:
#      x y z
#    x 1.864760 0.000000 -0.023780 
#    y 0.000000 1.883460 0.000000 
#    z -0.023780 0.000000 1.868020 
# 
# From -- ./inp_files/249125.got.cif
#   From: 2010.06.25/outbox.cif.g09.slc.cpg/sg15_125_cif.got.tgz:249125.got - 2010.06.28 07:06:18.
