data_PCOD8145079
_publ_section_title
;
Structure prediction by ZEFSAII (Michael W. Deem and Ramdas Pophale) SiO2 
 PCOD8145079
Probable space group: C 2/C
;
_chemical_formula_sum "Si O2"
_cell_formula_units_Z 48
_cell_length_a 19.988554
_cell_length_b 19.172589
_cell_length_c 16.813320
_cell_angle_alpha 90.000000
_cell_angle_beta 158.811196
_cell_angle_gamma 90.000000
_cell_volume 2328.920657
_symmetry_space_group_name_H-M "C 2/C"
_symmetry_group_IT_number 15
_symmetry_cell_setting 'monoclinic'
loop_
_space_group_symop_operation_xyz
x,y,z
-x,y,1/2-z
-x,-y,-z
x,-y,1/2+z
1/2+x,1/2+y,z
1/2-x,1/2+y,1/2-z
1/2-x,1/2-y,-z
1/2+x,1/2-y,1/2+z
loop_
_atom_site_type_symbol
_atom_site_label
_atom_site_fract_x
_atom_site_fract_y
_atom_site_fract_z
Si Si1 0.492772 0.929429 0.941117
Si Si2 0.801834 0.798255 0.631077
Si Si3 0.028896 0.666920 0.626279
Si Si4 0.900980 0.071990 0.868429
Si Si5 0.899631 0.901890 0.540930
Si Si6 0.897280 0.936353 0.058561
O O1 0.324515 0.926200 0.691207
O O2 0.467659 0.863768 0.973029
O O3 0.683834 0.931380 0.103364
O O4 0.500000 0.000000 0.000000
O O5 0.750000 0.750000 0.500000
O O6 0.906260 0.747601 0.810349
O O7 0.633471 0.836942 0.488278
O O8 0.933911 0.856716 0.738234
O O9 0.197524 0.620137 0.848528
O O10 0.011611 0.103343 0.916118
O O11 0.909005 0.118002 0.956997
O O12 0.000000 0.000000 0.000000
O O13 0.943009 0.981780 0.606410
O O14 0.000000 0.904938 0.250000
#
# Coordination Sequence:
#
# PCOD8145079 Si02
#       6
#     8   8   8   8   8   8
#     4  11  20  38  61  83 113 156 209 251 303 364
#     4  12  25  37  54  83 129 163 200 238 288 354
#     4  11  23  37  57  80 114 163 201 241 287 353
#     4   9  18  36  58  81 114 152 197 252 302 361
#     4  10  22  37  58  82 117 164 203 237 288 363
#     4  11  23  36  59  90 121 152 202 257 313 352
#
# _framework density 20.610406999999999
#
# number of rings (size 3 to 8) (size 9 to 14) (size 15 to 20)
#    0.000    1.333    6.667    1.500    4.667    0.667 
#    0.000    0.000    0.000    0.000    0.000    4.667 
#    0.000    0.167    0.000    0.000    0.000    0.000 
#
# Total GULP energy -297389.232562 kJ/mol
# GULP energy per Si atom -12391.218023 kJ/mol
# Density = 2.056350 g / cm^3
# Si number density = 20.610407 Si / 1000 Ang^3
#
#
#
# Elastic Constant Matrix: (Units=GPa)
#
#
# Indices 1 2 3 4 5 6 
#
# 1 89.3431 7.4807 57.1986 -0.0001 15.8555 0.0000
# 2 7.4807 57.0522 15.1448 0.0000 4.0760 0.0000
# 3 57.1986 15.1448 168.9989 -0.0001 3.2550 0.0001
# 4 -0.0001 0.0000 -0.0001 30.9937 0.0000 5.6121
# 5 15.8555 4.0760 3.2550 0.0000 40.8311 0.0001
# 6 0.0000 0.0000 0.0001 5.6121 0.0001 21.6317
#
#
#
# Elastic Compliance Matrix: (Units=1/GPa)
#
#
# Indices 1 2 3 4 5 6 
#
# 1 0.015473 -0.000275 -0.005105 0.000000 -0.005574 0.000000
# 2 -0.000275 0.018074 -0.001496 0.000000 -0.001578 0.000000
# 3 -0.005105 -0.001496 0.007750 0.000000 0.001514 0.000000
# 4 0.000000 0.000000 0.000000 0.033855 0.000000 -0.008783
# 5 -0.005574 -0.001578 0.001514 0.000000 0.026693 0.000000
# 6 0.000000 0.000000 0.000000 -0.008783 0.000000 0.048507
#
#
# Mechanical properties :
#
#
# Convention : Reuss Voigt Hill
#
# Bulk Modulus (GPa) = 36.30550 52.78252 44.54401
# Shear Modulus (GPa) = 28.85400 34.39597 31.62498
#
# Velocity S-wave (km/s) = 3.74568 4.08961 3.92141
# Velocity P-wave (km/s) = 6.02994 6.92568 6.49328
#
# Compressibility (1/GPa) = 0.02754403
#
# Stress axis : x y z
#
# Youngs Moduli (GPa) = 64.62703 55.32873 129.03341
#
# Poissons Ratio (x) = 0.01524 0.65872
# Poissons Ratio (y) = 0.01780 0.19304
# Poissons Ratio (z) = 0.32992 0.08277
#
# Static dielectric constant tensor:
#      x y z
#    x 4.212680 0.000000 0.100470 
#    y 0.000000 3.678600 0.000000 
#    z 0.100470 0.000000 4.244430 
# 
# 
# High freq. dielectric constant tensor:
#      x y z
#    x 1.797980 0.000000 0.016720 
#    y 0.000000 1.764010 0.000000 
#    z 0.016720 0.000000 1.824080 
# 
# From -- ./inp_files/216569.got.cif
#   From: 2010.06.25/outbox.cif.g09.slc.cpg/sg15_109_cif.got.tgz:216569.got - 2010.06.28 07:06:18.
