data_PCOD8145928
_publ_section_title
;
Structure prediction by ZEFSAII (Michael W. Deem and Ramdas Pophale) SiO2 
 PCOD8145928
Probable space group: C 2/C
;
_chemical_formula_sum "Si O2"
_cell_formula_units_Z 48
_cell_length_a 18.893699
_cell_length_b 11.243287
_cell_length_c 11.578001
_cell_angle_alpha 90.000000
_cell_angle_beta 95.696800
_cell_angle_gamma 90.000000
_cell_volume 2447.336160
_symmetry_space_group_name_H-M "C 2/C"
_symmetry_group_IT_number 15
_symmetry_cell_setting 'monoclinic'
loop_
_space_group_symop_operation_xyz
x,y,z
-x,y,1/2-z
-x,-y,-z
x,-y,1/2+z
1/2+x,1/2+y,z
1/2-x,1/2+y,1/2-z
1/2-x,1/2-y,-z
1/2+x,1/2-y,1/2+z
loop_
_atom_site_type_symbol
_atom_site_label
_atom_site_fract_x
_atom_site_fract_y
_atom_site_fract_z
Si Si1 0.310049 0.881839 0.100525
Si Si2 0.666236 0.736376 0.618161
Si Si3 0.075139 0.055857 0.476901
Si Si4 0.346199 0.666664 0.448804
Si Si5 0.422856 0.281019 0.735609
Si Si6 0.184896 0.654644 0.363739
O O1 0.231249 0.857199 0.136510
O O2 0.364523 0.811735 0.188285
O O3 0.332347 0.017928 0.116237
O O4 0.314930 0.841374 0.968457
O O5 0.595994 0.663686 0.567578
O O6 0.652662 0.800054 0.737734
O O7 0.073434 0.103778 0.346192
O O8 0.138580 0.958618 0.485981
O O9 0.000000 0.000000 0.500000
O O10 0.406521 0.677075 0.362055
O O11 0.269414 0.672597 0.377190
O O12 0.353728 0.772111 0.541984
O O13 0.500000 0.218352 0.750000
#
# Coordination Sequence:
#
# PCOD8145928 Si02
#       6
#     8   8   8   8   8   8
#     4  10  22  40  63  92 126 169 213 258 320 382
#     4  10  22  40  63  94 127 169 212 264 323 373
#     4  11  23  41  66  95 128 164 213 268 320 379
#     4  11  24  38  62  99 122 170 214 259 330 371
#     4  11  23  42  64  90 130 172 207 263 325 382
#     4  11  24  39  66  95 131 160 217 272 309 396
#
# _framework density 19.613160000000001
#
# number of rings (size 3 to 8) (size 9 to 14) (size 15 to 20)
#    0.000    1.333    5.000    0.000    4.667    0.000 
#    0.000    2.500    0.000    0.000    0.000    0.000 
#    0.000    0.000    0.000    0.000    0.000    0.000 
#
# Total GULP energy -297675.796725 kJ/mol
# GULP energy per Si atom -12403.158197 kJ/mol
# Density = 1.956852 g / cm^3
# Si number density = 19.613160 Si / 1000 Ang^3
#
#
#
# Elastic Constant Matrix: (Units=GPa)
#
#
# Indices 1 2 3 4 5 6 
#
# 1 87.0268 28.1476 44.3930 0.0000 -4.2909 0.0000
# 2 28.1476 126.5468 55.7881 0.0000 -11.8756 0.0000
# 3 44.3930 55.7881 119.4822 0.0000 -9.4511 0.0000
# 4 0.0000 0.0000 0.0000 22.6831 0.0000 3.2722
# 5 -4.2909 -11.8756 -9.4511 0.0000 27.6817 0.0000
# 6 0.0000 0.0000 0.0000 3.2722 0.0000 32.8366
#
#
#
# Elastic Compliance Matrix: (Units=1/GPa)
#
#
# Indices 1 2 3 4 5 6 
#
# 1 0.014289 -0.001046 -0.004811 0.000000 0.000124 0.000000
# 2 -0.001046 0.010236 -0.004169 0.000000 0.002806 0.000000
# 3 -0.004811 -0.004169 0.012233 0.000000 0.001643 0.000000
# 4 0.000000 0.000000 0.000000 0.044729 0.000000 -0.004457
# 5 0.000124 0.002806 0.001643 0.000000 0.037909 0.000000
# 6 0.000000 0.000000 0.000000 -0.004457 0.000000 0.030898
#
#
# Mechanical properties :
#
#
# Convention : Reuss Voigt Hill
#
# Bulk Modulus (GPa) = 59.85410 65.52367 62.68889
# Shear Modulus (GPa) = 28.42297 30.28876 29.35587
#
# Velocity S-wave (km/s) = 3.81094 3.93403 3.87297
# Velocity P-wave (km/s) = 7.06738 7.35636 7.21332
#
# Compressibility (1/GPa) = 0.01670729
#
# Stress axis : x y z
#
# Youngs Moduli (GPa) = 69.98307 97.69479 81.74376
#
# Poissons Ratio (x) = 0.10217 0.39327
# Poissons Ratio (y) = 0.07319 0.34078
# Poissons Ratio (z) = 0.33669 0.40727
#
# Static dielectric constant tensor:
#      x y z
#    x 3.478720 0.000000 0.124340 
#    y 0.000000 3.557420 0.000000 
#    z 0.124340 0.000000 3.627440 
# 
# 
# High freq. dielectric constant tensor:
#      x y z
#    x 1.755220 0.000000 0.009170 
#    y 0.000000 1.762750 0.000000 
#    z 0.009170 0.000000 1.773390 
# 
# From -- ./inp_files/103749.got.cif
#   From: 2010.06.25/outbox.cif.g09.slc.cpg/sg15_52_cif.got.tgz:103749.got - 2010.06.28 07:06:18.
