data_PCOD8145663
_publ_section_title
;
Structure prediction by ZEFSAII (Michael W. Deem and Ramdas Pophale) SiO2 
 PCOD8145663
Probable space group: C 2/C
;
_chemical_formula_sum "Si O2"
_cell_formula_units_Z 56
_cell_length_a 10.873823
_cell_length_b 15.856861
_cell_length_c 18.574803
_cell_angle_alpha 90.000000
_cell_angle_beta 60.588135
_cell_angle_gamma 90.000000
_cell_volume 2789.958598
_symmetry_space_group_name_H-M "C 2/C"
_symmetry_group_IT_number 15
_symmetry_cell_setting 'monoclinic'
loop_
_space_group_symop_operation_xyz
x,y,z
-x,y,1/2-z
-x,-y,-z
x,-y,1/2+z
1/2+x,1/2+y,z
1/2-x,1/2+y,1/2-z
1/2-x,1/2-y,-z
1/2+x,1/2-y,1/2+z
loop_
_atom_site_type_symbol
_atom_site_label
_atom_site_fract_x
_atom_site_fract_y
_atom_site_fract_z
Si Si1 0.375401 0.425622 0.100212
Si Si2 0.842067 0.903476 0.272841
Si Si3 0.640187 0.389689 0.939814
Si Si4 0.893584 0.291991 0.091360
Si Si5 0.097772 0.395157 0.539410
Si Si6 0.800690 0.343782 0.475657
Si Si7 0.188587 0.536317 0.401304
O O1 0.325793 0.395733 0.192081
O O2 0.383489 0.526944 0.100225
O O3 0.264502 0.391614 0.073564
O O4 0.531559 0.390134 0.038249
O O5 0.744046 0.830356 0.332505
O O6 0.000000 0.882469 0.250000
O O7 0.801765 0.997696 0.312902
O O8 0.609086 0.309259 0.897576
O O9 0.801151 0.389951 0.921223
O O10 0.030497 0.339675 0.084957
O O11 0.898896 0.305369 0.002863
O O12 0.144084 0.460263 0.465084
O O13 0.940669 0.424053 0.608408
O O14 0.750000 0.250000 0.500000
O O15 0.751690 0.391810 0.562565
#
# Coordination Sequence:
#
# PCOD8145663 Si02
#       7
#     8   8   8   8   8   8   8
#     4  11  24  39  66  94 128 170 216 265 325 389
#     4  11  25  43  62  91 134 168 208 278 341 380
#     4  11  21  39  65  93 123 164 225 259 314 395
#     4  10  22  39  64  92 128 167 214 265 335 379
#     4   9  17  34  63  88 115 163 210 257 299 383
#     4  11  21  41  68  95 126 170 225 265 314 407
#     4   9  19  38  61  89 123 165 209 257 323 377
#
# _framework density 20.071984
#
# number of rings (size 3 to 8) (size 9 to 14) (size 15 to 20)
#    0.000    1.714    2.857    3.000    2.000    0.571 
#    2.571    0.000    0.000    0.000    0.000    0.000 
#    0.000    0.000    0.000    0.000    0.000    0.000 
#
# Total GULP energy -347095.212249 kJ/mol
# GULP energy per Si atom -12396.257580 kJ/mol
# Density = 2.002630 g / cm^3
# Si number density = 20.071984 Si / 1000 Ang^3
#
#
#
# Elastic Constant Matrix: (Units=GPa)
#
#
# Indices 1 2 3 4 5 6 
#
# 1 111.2223 36.2211 37.7045 0.0000 -3.6175 0.0000
# 2 36.2211 131.2497 43.3550 0.0000 -5.6893 0.0000
# 3 37.7045 43.3550 87.1957 0.0000 -5.8928 0.0000
# 4 0.0000 0.0000 0.0000 16.9856 0.0000 -3.5233
# 5 -3.6175 -5.6893 -5.8928 0.0000 27.7655 0.0000
# 6 0.0000 0.0000 0.0000 -3.5233 0.0000 30.2502
#
#
#
# Elastic Compliance Matrix: (Units=1/GPa)
#
#
# Indices 1 2 3 4 5 6 
#
# 1 0.010855 -0.001723 -0.003820 0.000000 0.000250 0.000000
# 2 -0.001723 0.009413 -0.003876 0.000000 0.000882 0.000000
# 3 -0.003820 -0.003876 0.015178 0.000000 0.001929 0.000000
# 4 0.000000 0.000000 0.000000 0.060331 0.000000 0.007027
# 5 0.000250 0.000882 0.001929 0.000000 0.036639 0.000000
# 6 0.000000 0.000000 0.000000 0.007027 0.000000 0.033876
#
#
# Mechanical properties :
#
#
# Convention : Reuss Voigt Hill
#
# Bulk Modulus (GPa) = 60.21113 62.69209 61.45161
# Shear Modulus (GPa) = 26.22385 29.15938 27.69161
#
# Velocity S-wave (km/s) = 3.61846 3.81562 3.71835
# Velocity P-wave (km/s) = 6.89350 7.12133 7.00834
#
# Compressibility (1/GPa) = 0.01660822
#
# Stress axis : x y z
#
# Youngs Moduli (GPa) = 92.12028 106.23611 65.88539
#
# Poissons Ratio (x) = 0.18304 0.25171
# Poissons Ratio (y) = 0.15872 0.25535
# Poissons Ratio (z) = 0.35194 0.41174
#
# Static dielectric constant tensor:
#      x y z
#    x 3.983830 0.000000 -0.126490 
#    y 0.000000 3.951930 0.000000 
#    z -0.126490 0.000000 3.397160 
# 
# 
# High freq. dielectric constant tensor:
#      x y z
#    x 1.795750 0.000000 -0.008990 
#    y 0.000000 1.795270 0.000000 
#    z -0.008990 0.000000 1.741660 
# 
# From -- ./inp_files/198203.got.cif
#   From: 2010.06.25/outbox.cif.g09.slc.cpg/sg15_100_cif.got.tgz:198203.got - 2010.06.28 07:06:18.
