data_PCOD8145046
_publ_section_title
;
Structure prediction by ZEFSAII (Michael W. Deem and Ramdas Pophale) SiO2 
 PCOD8145046
Probable space group: C 2/C
;
_chemical_formula_sum "Si O2"
_cell_formula_units_Z 60
_cell_length_a 19.947741
_cell_length_b 11.630034
_cell_length_c 17.700522
_cell_angle_alpha 90.000000
_cell_angle_beta 137.332270
_cell_angle_gamma 90.000000
_cell_volume 2783.091694
_symmetry_space_group_name_H-M "C 2/C"
_symmetry_group_IT_number 15
_symmetry_cell_setting 'monoclinic'
loop_
_space_group_symop_operation_xyz
x,y,z
-x,y,1/2-z
-x,-y,-z
x,-y,1/2+z
1/2+x,1/2+y,z
1/2-x,1/2+y,1/2-z
1/2-x,1/2-y,-z
1/2+x,1/2-y,1/2+z
loop_
_atom_site_type_symbol
_atom_site_label
_atom_site_fract_x
_atom_site_fract_y
_atom_site_fract_z
Si Si1 0.399070 0.332032 0.123522
Si Si2 0.168212 0.572434 0.073377
Si Si3 0.209377 0.373919 0.445770
Si Si4 0.490900 0.737943 0.078975
Si Si5 0.215523 0.666984 0.576432
Si Si6 0.629699 0.518648 0.521552
Si Si7 0.000000 0.701975 0.750000
Si Si8 0.691445 0.333747 0.683447
O O1 0.500000 0.301547 0.250000
O O2 0.315080 0.368002 0.114285
O O3 0.420753 0.436070 0.082763
O O4 0.364670 0.219180 0.048523
O O5 0.163553 0.435198 0.083644
O O6 0.236639 0.641464 0.187666
O O7 0.217332 0.560883 0.031340
O O8 0.064216 0.641252 0.985784
O O9 0.250000 0.250000 0.500000
O O10 0.269107 0.433588 0.429091
O O11 0.096986 0.376545 0.322830
O O12 0.436899 0.624002 0.004390
O O13 0.492169 0.717679 0.170178
O O14 0.600034 0.744089 0.135762
O O15 0.247319 0.763941 0.663832
O O16 0.653481 0.453818 0.618748
#
# Coordination Sequence:
#
# PCOD8145046 Si02
#       8
#     8   8   8   8   8   8   4   8
#     4  10  23  43  74  98 131 177 222 284 327 398
#     4  11  24  42  70  92 136 181 212 284 330 399
#     4  11  20  40  64  99 134 164 226 275 335 397
#     4  11  25  41  64 105 129 172 228 273 336 403
#     4  10  24  46  63 102 136 174 231 263 339 408
#     4  11  23  41  69  99 132 167 227 288 325 402
#     4  10  22  36  66  96 132 174 214 284 330 402
#     4  11  27  42  66  95 139 178 218 275 341 401
#
# _framework density 21.558758000000001
#
# number of rings (size 3 to 8) (size 9 to 14) (size 15 to 20)
#    0.000    1.333    4.000    1.200    4.667    2.667 
#    4.800    1.333    0.000    0.000    0.000    0.000 
#    0.000    0.000    0.000    0.000    0.000    0.000 
#
# Total GULP energy -371881.270293 kJ/mol
# GULP energy per Si atom -12396.042343 kJ/mol
# Density = 2.150969 g / cm^3
# Si number density = 21.558758 Si / 1000 Ang^3
#
#
#
# Elastic Constant Matrix: (Units=GPa)
#
#
# Indices 1 2 3 4 5 6 
#
# 1 63.0727 9.8046 29.6392 0.0000 6.9373 0.0000
# 2 9.8046 92.5617 35.1188 0.0000 7.3674 0.0000
# 3 29.6392 35.1188 124.9961 0.0000 19.3540 0.0000
# 4 0.0000 0.0000 0.0000 16.7488 0.0000 0.2686
# 5 6.9373 7.3674 19.3540 0.0000 15.7828 0.0000
# 6 0.0000 0.0000 0.0000 0.2686 0.0000 31.6867
#
#
#
# Elastic Compliance Matrix: (Units=1/GPa)
#
#
# Indices 1 2 3 4 5 6 
#
# 1 0.017986 -0.000245 -0.003690 0.000000 -0.003266 0.000000
# 2 -0.000245 0.012139 -0.003076 0.000000 -0.001787 0.000000
# 3 -0.003690 -0.003076 0.011438 0.000000 -0.010968 0.000000
# 4 0.000000 0.000000 0.000000 0.059714 0.000000 -0.000506
# 5 -0.003266 -0.001787 -0.010968 0.000000 0.079079 0.000000
# 6 0.000000 0.000000 0.000000 -0.000506 0.000000 0.031563
#
#
# Mechanical properties :
#
#
# Convention : Reuss Voigt Hill
#
# Bulk Modulus (GPa) = 36.31029 47.75064 42.03046
# Shear Modulus (GPa) = 21.26560 26.58152 23.92356
#
# Velocity S-wave (km/s) = 3.14411 3.51519 3.33482
# Velocity P-wave (km/s) = 5.48267 6.21873 5.86226
#
# Compressibility (1/GPa) = 0.02754040
#
# Stress axis : x y z
#
# Youngs Moduli (GPa) = 55.59808 82.38085 87.43020
#
# Poissons Ratio (x) = 0.02019 0.32265
# Poissons Ratio (y) = 0.01363 0.26891
# Poissons Ratio (z) = 0.20518 0.25338
#
# Static dielectric constant tensor:
#      x y z
#    x 3.841070 0.000000 -0.042360 
#    y 0.000000 3.306660 0.000000 
#    z -0.042360 0.000000 3.903350 
# 
# 
# High freq. dielectric constant tensor:
#      x y z
#    x 1.846060 0.000000 -0.009240 
#    y 0.000000 1.849680 0.000000 
#    z -0.009240 0.000000 1.842270 
# 
# From -- ./inp_files/215226.got.cif
#   From: 2010.06.25/outbox.cif.g09.slc.cpg/sg15_108_cif.got.tgz:215226.got - 2010.06.28 07:06:18.
