data_PCOD8145953
_publ_section_title
;
Structure prediction by ZEFSAII (Michael W. Deem and Ramdas Pophale) SiO2 
 PCOD8145953
Probable space group: C 2/C
;
_chemical_formula_sum "Si O2"
_cell_formula_units_Z 60
_cell_length_a 24.834746
_cell_length_b 9.502372
_cell_length_c 24.423405
_cell_angle_alpha 90.000000
_cell_angle_beta 31.560358
_cell_angle_gamma 90.000000
_cell_volume 3016.676663
_symmetry_space_group_name_H-M "C 2/C"
_symmetry_group_IT_number 15
_symmetry_cell_setting 'monoclinic'
loop_
_space_group_symop_operation_xyz
x,y,z
-x,y,1/2-z
-x,-y,-z
x,-y,1/2+z
1/2+x,1/2+y,z
1/2-x,1/2+y,1/2-z
1/2-x,1/2-y,-z
1/2+x,1/2-y,1/2+z
loop_
_atom_site_type_symbol
_atom_site_label
_atom_site_fract_x
_atom_site_fract_y
_atom_site_fract_z
Si Si1 0.879846 0.032902 0.447938
Si Si2 0.000000 0.823213 0.750000
Si Si3 0.981082 0.498905 0.360274
Si Si4 0.863388 0.184480 0.646356
Si Si5 0.480738 0.734121 0.440144
Si Si6 0.167854 0.137853 0.341784
Si Si7 0.640329 0.930441 0.140402
Si Si8 0.946275 0.217998 0.951338
O O1 0.897428 0.867678 0.442860
O O2 0.911495 0.109728 0.475976
O O3 0.762436 0.069267 0.536035
O O4 0.957619 0.076699 0.333342
O O5 0.906236 0.725984 0.809507
O O6 0.985437 0.361366 0.393986
O O7 0.892104 0.483370 0.391731
O O8 0.954170 0.622648 0.424687
O O9 0.089583 0.523086 0.233684
O O10 0.924824 0.268254 0.545723
O O11 0.777280 0.293414 0.737996
O O12 0.940687 0.161111 0.630373
O O13 0.821463 0.031699 0.664030
O O14 0.595367 0.679774 0.353672
O O15 0.128279 0.204044 0.432395
#
# Coordination Sequence:
#
# PCOD8145953 Si02
#       8
#     8   4   8   8   8   8   8   8
#     4  12  22  43  69  93 129 174 208 274 324 375
#     4  10  22  40  64 102 124 162 232 266 304 390
#     4  10  24  43  64  97 128 172 216 267 320 390
#     4  11  25  42  65  95 131 162 216 270 319 399
#     4  11  22  41  66  90 127 167 210 259 323 379
#     4  11  25  43  62  99 125 166 215 265 322 394
#     4  10  23  42  66  95 134 164 221 265 320 385
#     4  11  25  44  63  93 136 165 214 269 328 383
#
# _framework density 19.889437000000001
#
# number of rings (size 3 to 8) (size 9 to 14) (size 15 to 20)
#    0.000    1.333    5.333    1.200    7.467    2.667 
#    2.400    0.000    0.000    0.000    0.000    0.000 
#    0.000    0.000    0.000    0.000    0.000    0.000 
#
# Total GULP energy -371928.580701 kJ/mol
# GULP energy per Si atom -12397.619357 kJ/mol
# Density = 1.984417 g / cm^3
# Si number density = 19.889437 Si / 1000 Ang^3
#
#
#
# Elastic Constant Matrix: (Units=GPa)
#
#
# Indices 1 2 3 4 5 6 
#
# 1 86.6953 17.9898 52.6239 0.0009 -2.3136 -0.0006
# 2 17.9898 68.2023 28.4037 0.0017 13.1896 -0.0016
# 3 52.6239 28.4037 104.6921 0.0004 -8.4690 -0.0003
# 4 0.0009 0.0017 0.0004 27.9634 -0.0007 8.8007
# 5 -2.3136 13.1896 -8.4690 -0.0007 30.4048 0.0005
# 6 -0.0006 -0.0016 -0.0003 8.8007 0.0005 20.4984
#
#
#
# Elastic Compliance Matrix: (Units=1/GPa)
#
#
# Indices 1 2 3 4 5 6 
#
# 1 0.016673 -0.000859 -0.008200 -0.000001 -0.000643 0.000001
# 2 -0.000859 0.019119 -0.005557 -0.000002 -0.009907 0.000003
# 3 -0.008200 -0.005557 0.015679 0.000001 0.006154 -0.000001
# 4 -0.000001 -0.000002 0.000001 0.041348 0.000002 -0.017752
# 5 -0.000643 -0.009907 0.006154 0.000002 0.038852 -0.000003
# 6 0.000001 0.000003 -0.000001 -0.017752 -0.000003 0.056406
#
#
# Mechanical properties :
#
#
# Convention : Reuss Voigt Hill
#
# Bulk Modulus (GPa) = 44.96379 50.84716 47.90547
# Shear Modulus (GPa) = 22.24981 26.47814 24.36398
#
# Velocity S-wave (km/s) = 3.34829 3.65261 3.50376
# Velocity P-wave (km/s) = 6.13221 6.58856 6.36448
#
# Compressibility (1/GPa) = 0.02224012
#
# Stress axis : x y z
#
# Youngs Moduli (GPa) = 59.97759 52.30430 63.78007
#
# Poissons Ratio (x) = 0.04491 0.52298
# Poissons Ratio (y) = 0.05150 0.35442
# Poissons Ratio (z) = 0.49180 0.29065
#
# Static dielectric constant tensor:
#      x y z
#    x 3.751930 0.000000 0.061620 
#    y 0.000000 3.570200 0.000000 
#    z 0.061620 0.000000 3.613440 
# 
# 
# High freq. dielectric constant tensor:
#      x y z
#    x 1.782650 0.000000 0.006130 
#    y 0.000000 1.768080 0.000000 
#    z 0.006130 0.000000 1.779860 
# 
# From -- ./inp_files/283384.got.cif
#   From: 2010.06.25/outbox.cif.g09.slc.cpg/sg15_142_cif.got.tgz:283384.got - 2010.06.28 07:06:18.
