data_PCOD8145280
_publ_section_title
;
Structure prediction by ZEFSAII (Michael W. Deem and Ramdas Pophale) SiO2 
 PCOD8145280
Probable space group: C 2/C
;
_chemical_formula_sum "Si O2"
_cell_formula_units_Z 48
_cell_length_a 10.190482
_cell_length_b 15.533363
_cell_length_c 17.931327
_cell_angle_alpha 90.000000
_cell_angle_beta 45.098658
_cell_angle_gamma 90.000000
_cell_volume 2010.500469
_symmetry_space_group_name_H-M "C 2/C"
_symmetry_group_IT_number 15
_symmetry_cell_setting 'monoclinic'
loop_
_space_group_symop_operation_xyz
x,y,z
-x,y,1/2-z
-x,-y,-z
x,-y,1/2+z
1/2+x,1/2+y,z
1/2-x,1/2+y,1/2-z
1/2-x,1/2-y,-z
1/2+x,1/2-y,1/2+z
loop_
_atom_site_type_symbol
_atom_site_label
_atom_site_fract_x
_atom_site_fract_y
_atom_site_fract_z
Si Si1 0.650377 0.571826 0.005822
Si Si2 0.022328 0.696286 0.012387
Si Si3 0.614856 0.717536 0.137722
Si Si4 0.543889 0.106970 0.856484
Si Si5 0.589099 0.237772 0.137511
Si Si6 0.932115 0.914062 0.131100
O O1 0.634877 0.660740 0.056664
O O2 0.552925 0.499655 0.096072
O O3 0.867981 0.545956 0.910066
O O4 0.564663 0.592113 0.959831
O O5 0.822793 0.741499 0.080983
O O6 0.033081 0.668140 0.095905
O O7 0.060283 0.617950 0.940121
O O8 0.190209 0.765123 0.937325
O O9 0.500000 0.670552 0.250000
O O10 0.494958 0.800892 0.165716
O O11 0.728543 0.067993 0.746782
O O12 0.500000 0.208766 0.250000
O O13 0.520619 0.332412 0.137515
#
# Coordination Sequence:
#
# PCOD8145280 Si02
#       6
#     8   8   8   8   8   8
#     4  10  23  40  63  98 131 166 227 278 317 394
#     4  10  22  38  61  98 127 164 220 266 322 382
#     4  11  22  39  66  98 127 165 221 276 325 382
#     4  11  20  41  71  96 126 173 218 272 332 382
#     4  11  21  38  63  94 134 178 209 266 335 399
#     4  11  22  41  65  93 132 179 215 263 340 395
#
# _framework density 23.874652000000001
#
# number of rings (size 3 to 8) (size 9 to 14) (size 15 to 20)
#    0.000    1.333    1.667    6.500    0.000    0.667 
#    3.000    1.667    0.000    0.000    0.000    0.000 
#    0.000    0.000    0.000    0.000    0.000    0.000 
#
# Total GULP energy -297387.909187 kJ/mol
# GULP energy per Si atom -12391.162883 kJ/mol
# Density = 2.382031 g / cm^3
# Si number density = 23.874652 Si / 1000 Ang^3
#
#
#
# Elastic Constant Matrix: (Units=GPa)
#
#
# Indices 1 2 3 4 5 6 
#
# 1 117.4946 15.6951 52.4189 0.0002 1.4310 0.0000
# 2 15.6951 35.6759 22.5230 0.0004 -17.1811 -0.0005
# 3 52.4189 22.5230 179.6894 0.0002 -5.5042 -0.0013
# 4 0.0002 0.0004 0.0002 33.7352 -0.0004 -6.0788
# 5 1.4310 -17.1811 -5.5042 -0.0004 58.8198 0.0005
# 6 0.0000 -0.0005 -0.0013 -6.0788 0.0005 21.0936
#
#
#
# Elastic Compliance Matrix: (Units=1/GPa)
#
#
# Indices 1 2 3 4 5 6 
#
# 1 0.010151 -0.003590 -0.002558 0.000000 -0.001535 0.000000
# 2 -0.003590 0.036711 -0.003232 0.000000 0.010508 0.000000
# 3 -0.002558 -0.003232 0.006709 0.000000 -0.000254 0.000000
# 4 0.000000 0.000000 0.000000 0.031266 0.000000 0.009010
# 5 -0.001535 0.010508 -0.000254 0.000000 0.020084 0.000000
# 6 0.000000 0.000000 0.000000 0.009010 0.000000 0.050004
#
#
# Mechanical properties :
#
#
# Convention : Reuss Voigt Hill
#
# Bulk Modulus (GPa) = 28.72794 57.12596 42.92695
# Shear Modulus (GPa) = 26.98501 38.87793 32.93147
#
# Velocity S-wave (km/s) = 3.36561 4.03974 3.71799
# Velocity P-wave (km/s) = 5.21172 6.76305 6.03742
#
# Compressibility (1/GPa) = 0.03480932
#
# Stress axis : x y z
#
# Youngs Moduli (GPa) = 98.51687 27.24014 149.05791
#
# Poissons Ratio (x) = 0.09778 0.38132
# Poissons Ratio (y) = 0.35365 0.48181
# Poissons Ratio (z) = 0.25202 0.08805
#
# Static dielectric constant tensor:
#      x y z
#    x 4.785700 0.000000 -0.024450 
#    y 0.000000 3.769420 0.000000 
#    z -0.024450 0.000000 4.981790 
# 
# 
# High freq. dielectric constant tensor:
#      x y z
#    x 1.967580 0.000000 0.000470 
#    y 0.000000 1.884850 0.000000 
#    z 0.000470 0.000000 1.974480 
# 
# From -- ./inp_files/239467.got.cif
#   From: 2010.06.25/outbox.cif.g09.slc.cpg/sg15_120_cif.got.tgz:239467.got - 2010.06.28 07:06:18.
