data_PCOD8145533
_publ_section_title
;
Structure prediction by ZEFSAII (Michael W. Deem and Ramdas Pophale) SiO2 
 PCOD8145533
Probable space group: C 2/C
;
_chemical_formula_sum "Si O2"
_cell_formula_units_Z 52
_cell_length_a 15.852959
_cell_length_b 25.062863
_cell_length_c 8.299529
_cell_angle_alpha 90.000000
_cell_angle_beta 45.430597
_cell_angle_gamma 90.000000
_cell_volume 2349.194239
_symmetry_space_group_name_H-M "C 2/C"
_symmetry_group_IT_number 15
_symmetry_cell_setting 'monoclinic'
loop_
_space_group_symop_operation_xyz
x,y,z
-x,y,1/2-z
-x,-y,-z
x,-y,1/2+z
1/2+x,1/2+y,z
1/2-x,1/2+y,1/2-z
1/2-x,1/2-y,-z
1/2+x,1/2-y,1/2+z
loop_
_atom_site_type_symbol
_atom_site_label
_atom_site_fract_x
_atom_site_fract_y
_atom_site_fract_z
Si Si1 0.500000 0.006232 0.250000
Si Si2 0.500000 0.226134 0.250000
Si Si3 0.152626 0.445460 0.807131
Si Si4 0.385134 0.699010 0.144322
Si Si5 0.000000 0.259934 0.250000
Si Si6 0.026631 0.913762 0.895426
Si Si7 0.853532 0.321610 0.691060
Si Si8 0.619722 0.480753 0.190525
O O1 0.455441 0.044894 0.169706
O O2 0.388208 0.971617 0.467729
O O3 0.478240 0.265213 0.426670
O O4 0.610206 0.189858 0.169454
O O5 0.170415 0.383326 0.806809
O O6 0.270538 0.471142 0.573177
O O7 0.395809 0.721533 0.314354
O O8 0.420567 0.636897 0.082699
O O9 0.261972 0.709273 0.218436
O O10 0.958906 0.301099 0.439972
O O11 0.000000 0.895846 0.750000
O O12 0.127456 0.960839 0.766953
O O13 0.903767 0.933750 0.146486
O O14 0.500000 0.485246 0.250000
#
# Coordination Sequence:
#
# PCOD8145533 Si02
#       8
#     4   4   8   8   4   8   8   8
#     4  10  26  44  62  96 134 178 224 272 320 400
#     4  10  25  42  62  94 134 158 229 276 310 398
#     4  11  24  44  68  95 134 175 227 270 330 400
#     4  11  22  41  66  94 130 171 216 269 335 388
#     4  10  23  44  62  94 132 164 229 274 310 402
#     4  10  22  39  61 101 135 171 211 265 347 394
#     4  11  23  42  68  91 124 177 214 273 332 377
#     4  10  23  40  65 101 137 169 218 275 335 405
#
# _framework density 22.135249000000002
#
# number of rings (size 3 to 8) (size 9 to 14) (size 15 to 20)
#    0.000    1.538    0.769    2.769   11.846    0.000 
#    0.000    1.538    0.000    0.000    0.000    0.000 
#    0.000    0.000    0.000    0.000    0.000    0.000 
#
# Total GULP energy -322174.850013 kJ/mol
# GULP energy per Si atom -12391.340385 kJ/mol
# Density = 2.208487 g / cm^3
# Si number density = 22.135249 Si / 1000 Ang^3
#
#
#
# Elastic Constant Matrix: (Units=GPa)
#
#
# Indices 1 2 3 4 5 6 
#
# 1 98.3773 11.0303 2.2006 0.0000 1.3977 0.0000
# 2 11.0303 95.1154 24.9833 0.0000 -2.3358 0.0000
# 3 2.2006 24.9833 118.9566 0.0000 -5.2714 0.0000
# 4 0.0000 0.0000 0.0000 25.2441 0.0000 3.3115
# 5 1.3977 -2.3358 -5.2714 0.0000 32.2755 0.0000
# 6 0.0000 0.0000 0.0000 3.3115 0.0000 32.6903
#
#
#
# Elastic Compliance Matrix: (Units=1/GPa)
#
#
# Indices 1 2 3 4 5 6 
#
# 1 0.010308 -0.001219 0.000042 0.000000 -0.000528 0.000000
# 2 -0.001219 0.011277 -0.002324 0.000000 0.000489 0.000000
# 3 0.000042 -0.002324 0.008951 0.000000 0.001292 0.000000
# 4 0.000000 0.000000 0.000000 0.040147 0.000000 -0.004067
# 5 -0.000528 0.000489 0.001292 0.000000 0.031253 0.000000
# 6 0.000000 0.000000 0.000000 -0.004067 0.000000 0.031002
#
#
# Mechanical properties :
#
#
# Convention : Reuss Voigt Hill
#
# Bulk Modulus (GPa) = 42.49272 43.20863 42.85067
# Shear Modulus (GPa) = 33.83274 36.32431 35.07852
#
# Velocity S-wave (km/s) = 3.91379 4.05534 3.98519
# Velocity P-wave (km/s) = 6.29779 6.44130 6.36995
#
# Compressibility (1/GPa) = 0.02353344
#
# Stress axis : x y z
#
# Youngs Moduli (GPa) = 97.00986 88.67234 111.71882
#
# Poissons Ratio (x) = 0.10813 -0.00469
# Poissons Ratio (y) = 0.11830 0.25966
# Poissons Ratio (z) = -0.00408 0.20610
#
# Static dielectric constant tensor:
#      x y z
#    x 4.468460 0.000000 0.295480 
#    y 0.000000 3.974670 0.000000 
#    z 0.295480 0.000000 4.001830 
# 
# 
# High freq. dielectric constant tensor:
#      x y z
#    x 1.886640 0.000000 0.016330 
#    y 0.000000 1.872170 0.000000 
#    z 0.016330 0.000000 1.854210 
# 
# From -- ./inp_files/52163.got.cif
#   From: 2010.06.25/outbox.cif.g09.slc.cpg/sg15_27_cif.got.tgz:52163.got - 2010.06.28 07:06:18.
