data_PCOD8145110
_publ_section_title
;
Structure prediction by ZEFSAII (Michael W. Deem and Ramdas Pophale) SiO2 
 PCOD8145110
Probable space group: C 2/C
;
_chemical_formula_sum "Si O2"
_cell_formula_units_Z 64
_cell_length_a 14.487531
_cell_length_b 24.940837
_cell_length_c 17.278670
_cell_angle_alpha 90.000000
_cell_angle_beta 32.359992
_cell_angle_gamma 90.000000
_cell_volume 3341.657360
_symmetry_space_group_name_H-M "C 2/C"
_symmetry_group_IT_number 15
_symmetry_cell_setting 'monoclinic'
loop_
_space_group_symop_operation_xyz
x,y,z
-x,y,1/2-z
-x,-y,-z
x,-y,1/2+z
1/2+x,1/2+y,z
1/2-x,1/2+y,1/2-z
1/2-x,1/2-y,-z
1/2+x,1/2-y,1/2+z
loop_
_atom_site_type_symbol
_atom_site_label
_atom_site_fract_x
_atom_site_fract_y
_atom_site_fract_z
Si Si1 0.065613 0.298091 0.787735
Si Si2 0.333722 0.016566 0.421546
Si Si3 0.353493 0.359163 0.094828
Si Si4 0.954109 0.587745 0.129345
Si Si5 0.115798 0.949487 0.940271
Si Si6 0.827672 0.603418 0.921385
Si Si7 0.054981 0.755553 0.979537
Si Si8 0.012185 0.355160 0.428734
O O1 0.045249 0.361416 0.813798
O O2 0.262188 0.282574 0.665029
O O3 0.000000 0.281538 0.750000
O O4 0.947974 0.264845 0.930356
O O5 0.500000 0.014753 0.250000
O O6 0.381800 0.050504 0.464237
O O7 0.179656 0.044443 0.483368
O O8 0.275682 0.956498 0.484974
O O9 0.320924 0.370805 0.026873
O O10 0.188973 0.373825 0.263526
O O11 0.509295 0.395072 0.014351
O O12 0.402784 0.297337 0.070262
O O13 0.776302 0.554847 0.266822
O O14 0.974950 0.605438 0.026351
O O15 0.000000 0.000000 0.000000
O O16 0.000000 0.601628 0.750000
O O17 0.855397 0.639001 0.978642
O O18 0.022219 0.706421 0.945272
#
# Coordination Sequence:
#
# PCOD8145110 Si02
#       8
#     8   8   8   8   8   8   8   8
#     4  11  21  38  58  86 117 156 194 239 294 358
#     4   9  18  35  58  89 113 157 197 226 289 362
#     4  11  21  39  63  86 116 157 198 249 293 351
#     4  10  22  37  61  85 121 155 195 239 292 354
#     4  11  20  36  62  89 118 153 196 242 287 348
#     4   9  19  37  61  82 114 155 200 237 291 359
#     4  11  22  38  60  86 120 151 198 247 295 348
#     4  10  23  41  58  88 116 156 201 244 297 350
#
# _framework density 19.152173999999999
#
# number of rings (size 3 to 8) (size 9 to 14) (size 15 to 20)
#    0.000    1.750    3.750    1.500    1.750    1.000 
#    0.000    1.250    0.000    0.000    0.000    0.000 
#    0.000    0.000    0.000    0.000    0.000    0.000 
#
# Total GULP energy -396846.289350 kJ/mol
# GULP energy per Si atom -12401.446542 kJ/mol
# Density = 1.910858 g / cm^3
# Si number density = 19.152174 Si / 1000 Ang^3
#
#
#
# Elastic Constant Matrix: (Units=GPa)
#
#
# Indices 1 2 3 4 5 6 
#
# 1 145.2907 74.2213 36.9265 0.0179 0.4429 -0.0053
# 2 74.2213 113.7233 22.1331 -0.0262 1.3084 -0.0130
# 3 36.9265 22.1331 55.1121 0.0191 0.2646 -0.0131
# 4 0.0179 -0.0262 0.0191 20.5390 -0.0070 -6.8305
# 5 0.4429 1.3084 0.2646 -0.0070 26.9550 0.0072
# 6 -0.0053 -0.0130 -0.0131 -6.8305 0.0072 28.1962
#
#
#
# Elastic Compliance Matrix: (Units=1/GPa)
#
#
# Indices 1 2 3 4 5 6 
#
# 1 0.011508 -0.006522 -0.005092 -0.000016 0.000177 -0.000007
# 2 -0.006522 0.013240 -0.000945 0.000027 -0.000526 0.000011
# 3 -0.005092 -0.000945 0.021937 -0.000016 -0.000086 0.000005
# 4 -0.000016 0.000027 -0.000016 0.052954 0.000009 0.012828
# 5 0.000177 -0.000526 -0.000086 0.000009 0.037122 -0.000007
# 6 -0.000007 0.000011 0.000005 0.012828 -0.000007 0.038573
#
#
# Mechanical properties :
#
#
# Convention : Reuss Voigt Hill
#
# Bulk Modulus (GPa) = 46.36813 64.52089 55.44451
# Shear Modulus (GPa) = 24.08003 27.19438 25.63721
#
# Velocity S-wave (km/s) = 3.54969 3.77226 3.66267
# Velocity P-wave (km/s) = 6.40807 7.26188 6.84829
#
# Compressibility (1/GPa) = 0.02156654
#
# Stress axis : x y z
#
# Youngs Moduli (GPa) = 86.89575 75.53119 45.58559
#
# Poissons Ratio (x) = 0.49259 0.23214
# Poissons Ratio (y) = 0.56670 0.04307
# Poissons Ratio (z) = 0.44251 0.07137
#
# Static dielectric constant tensor:
#      x y z
#    x 3.648760 -0.000050 -0.078580 
#    y -0.000050 3.647150 0.000100 
#    z -0.078580 0.000100 3.308380 
# 
# 
# High freq. dielectric constant tensor:
#      x y z
#    x 1.751490 0.000000 -0.007140 
#    y 0.000000 1.755490 0.000010 
#    z -0.007140 0.000010 1.720700 
# 
# From -- ./inp_files/207323.got.cif
#   From: 2010.06.25/outbox.cif.g09.slc.cpg/sg15_104_cif.got.tgz:207323.got - 2010.06.28 07:06:18.
