data_PCOD8145906
_publ_section_title
;
Structure prediction by ZEFSAII (Michael W. Deem and Ramdas Pophale) SiO2 
 PCOD8145906
Probable space group: C 2/C
;
_chemical_formula_sum "Si O2"
_cell_formula_units_Z 52
_cell_length_a 20.328820
_cell_length_b 8.630478
_cell_length_c 20.553372
_cell_angle_alpha 90.000000
_cell_angle_beta 42.924808
_cell_angle_gamma 90.000000
_cell_volume 2455.847736
_symmetry_space_group_name_H-M "C 2/C"
_symmetry_group_IT_number 15
_symmetry_cell_setting 'monoclinic'
loop_
_space_group_symop_operation_xyz
x,y,z
-x,y,1/2-z
-x,-y,-z
x,-y,1/2+z
1/2+x,1/2+y,z
1/2-x,1/2+y,1/2-z
1/2-x,1/2-y,-z
1/2+x,1/2-y,1/2+z
loop_
_atom_site_type_symbol
_atom_site_label
_atom_site_fract_x
_atom_site_fract_y
_atom_site_fract_z
Si Si1 0.998578 0.399216 0.876508
Si Si2 0.649620 0.502217 0.372807
Si Si3 0.527345 0.453487 0.082626
Si Si4 0.693557 0.083991 0.458066
Si Si5 0.128961 0.163909 0.095786
Si Si6 0.000000 0.587851 0.750000
Si Si7 0.319293 0.856500 0.676350
O O1 0.995647 0.215104 0.873144
O O2 0.034460 0.478574 0.784018
O O3 0.078270 0.432163 0.875155
O O4 0.892020 0.463102 0.967217
O O5 0.558799 0.539944 0.392509
O O6 0.621366 0.545793 0.467303
O O7 0.674944 0.324435 0.342382
O O8 0.739134 0.611553 0.289144
O O9 0.542723 0.552537 0.136765
O O10 0.792498 0.052110 0.426031
O O11 0.667170 0.258226 0.500779
O O12 0.713920 0.066946 0.366977
O O13 0.091967 0.303331 0.168204
#
# Coordination Sequence:
#
# PCOD8145906 Si02
#       7
#     8   8   8   8   8   4   8
#     4  10  24  42  65  92 131 163 209 263 323 364
#     4  10  24  39  65  95 129 161 216 253 321 373
#     4  10  22  45  62  93 128 170 200 266 318 377
#     4  10  22  40  62  97 122 168 209 253 319 376
#     4  10  22  40  67  87 128 168 213 259 310 376
#     4  10  24  42  62  94 122 170 218 264 306 384
#     4  11  23  40  64  96 126 167 210 266 302 385
#
# _framework density 21.173953000000001
#
# number of rings (size 3 to 8) (size 9 to 14) (size 15 to 20)
#    0.000    1.846    1.538    0.462    6.462    3.692 
#    2.769    0.000    0.000    0.000    0.000    0.000 
#    0.000    0.000    0.000    0.000    0.000    0.000 
#
# Total GULP energy -322262.708287 kJ/mol
# GULP energy per Si atom -12394.719549 kJ/mol
# Density = 2.112576 g / cm^3
# Si number density = 21.173953 Si / 1000 Ang^3
#
#
#
# Elastic Constant Matrix: (Units=GPa)
#
#
# Indices 1 2 3 4 5 6 
#
# 1 108.7641 52.2565 20.6364 0.0003 2.3100 -0.0002
# 2 52.2565 65.7068 30.1632 0.0000 2.6553 -0.0001
# 3 20.6364 30.1632 84.3720 -0.0001 1.9156 0.0000
# 4 0.0003 0.0000 -0.0001 28.9171 -0.0001 -4.3221
# 5 2.3100 2.6553 1.9156 -0.0001 32.4170 0.0001
# 6 -0.0002 -0.0001 0.0000 -4.3221 0.0001 33.2515
#
#
#
# Elastic Compliance Matrix: (Units=1/GPa)
#
#
# Indices 1 2 3 4 5 6 
#
# 1 0.014916 -0.012184 0.000710 0.000000 -0.000107 0.000000
# 2 -0.012184 0.028200 -0.007078 0.000000 -0.001023 0.000000
# 3 0.000710 -0.007078 0.014216 0.000000 -0.000311 0.000000
# 4 0.000000 0.000000 0.000000 0.035267 0.000000 0.004584
# 5 -0.000107 -0.001023 -0.000311 0.000000 0.030958 0.000000
# 6 0.000000 0.000000 0.000000 0.004584 0.000000 0.030670
#
#
# Mechanical properties :
#
#
# Convention : Reuss Voigt Hill
#
# Bulk Modulus (GPa) = 49.43835 51.66165 50.55000
# Shear Modulus (GPa) = 25.24331 29.30291 27.27311
#
# Velocity S-wave (km/s) = 3.45655 3.72413 3.59283
# Velocity P-wave (km/s) = 6.27134 6.55316 6.41380
#
# Compressibility (1/GPa) = 0.02022721
#
# Stress axis : x y z
#
# Youngs Moduli (GPa) = 67.04363 35.46143 70.34274
#
# Poissons Ratio (x) = 0.43206 -0.04995
# Poissons Ratio (y) = 0.81686 0.49789
# Poissons Ratio (z) = -0.04760 0.25100
#
# Static dielectric constant tensor:
#      x y z
#    x 3.983750 0.000000 0.033650 
#    y 0.000000 3.585780 0.000000 
#    z 0.033650 0.000000 3.820850 
# 
# 
# High freq. dielectric constant tensor:
#      x y z
#    x 1.837010 0.000000 0.000300 
#    y 0.000000 1.816690 0.000000 
#    z 0.000300 0.000000 1.827950 
# 
# From -- ./inp_files/247784.got.cif
#   From: 2010.06.25/outbox.cif.g09.slc.cpg/sg15_124_cif.got.tgz:247784.got - 2010.06.28 07:06:18.
