data_PCOD8145309
_publ_section_title
;
Structure prediction by ZEFSAII (Michael W. Deem and Ramdas Pophale) SiO2 
 PCOD8145309
Probable space group: C 2/C
;
_chemical_formula_sum "Si O2"
_cell_formula_units_Z 52
_cell_length_a 16.452621
_cell_length_b 9.701045
_cell_length_c 20.009442
_cell_angle_alpha 90.000000
_cell_angle_beta 50.768237
_cell_angle_gamma 90.000000
_cell_volume 2473.789345
_symmetry_space_group_name_H-M "C 2/C"
_symmetry_group_IT_number 15
_symmetry_cell_setting 'monoclinic'
loop_
_space_group_symop_operation_xyz
x,y,z
-x,y,1/2-z
-x,-y,-z
x,-y,1/2+z
1/2+x,1/2+y,z
1/2-x,1/2+y,1/2-z
1/2-x,1/2-y,-z
1/2+x,1/2-y,1/2+z
loop_
_atom_site_type_symbol
_atom_site_label
_atom_site_fract_x
_atom_site_fract_y
_atom_site_fract_z
Si Si1 0.707277 0.118191 0.985213
Si Si2 0.886793 0.065657 0.688151
Si Si3 0.666490 0.082860 0.854983
Si Si4 0.030287 0.173773 0.432099
Si Si5 0.480607 0.828880 0.589616
Si Si6 0.659200 0.645710 0.060689
Si Si7 0.500000 0.584889 0.250000
O O1 0.715221 0.125593 0.900907
O O2 0.785287 0.001196 0.969640
O O3 0.750000 0.250000 0.000000
O O4 0.583488 0.100325 0.069947
O O5 0.761878 0.049801 0.756407
O O6 0.916040 0.227833 0.671574
O O7 0.917868 0.977542 0.605589
O O8 0.946611 0.006977 0.721078
O O9 0.600020 0.209299 0.857704
O O10 0.593587 0.947729 0.901348
O O11 0.025586 0.224466 0.510383
O O12 0.913834 0.165268 0.464963
O O13 0.591564 0.672324 0.164483
O O14 0.750000 0.750000 0.000000
#
# Coordination Sequence:
#
# PCOD8145309 Si02
#       7
#     8   8   8   8   8   8   4
#     4  11  22  40  67  91 122 170 212 255 320 383
#     4  11  22  39  65  89 130 163 212 262 327 372
#     4  11  22  41  63  92 128 163 209 262 319 372
#     4  10  22  38  62  94 124 163 210 261 313 387
#     4  11  23  40  65  95 125 164 218 264 313 388
#     4  11  21  40  67  91 131 171 211 265 324 377
#     4  10  22  38  62  96 126 170 216 264 318 394
#
# _framework density 21.020384
#
# number of rings (size 3 to 8) (size 9 to 14) (size 15 to 20)
#    0.000    1.231    1.538    6.923    0.000    1.231 
#    0.000    0.000    3.385    0.923    0.000    0.000 
#    0.000    0.000    0.000    0.000    0.000    0.000 
#
# Total GULP energy -322196.159645 kJ/mol
# GULP energy per Si atom -12392.159986 kJ/mol
# Density = 2.097254 g / cm^3
# Si number density = 21.020384 Si / 1000 Ang^3
#
#
#
# Elastic Constant Matrix: (Units=GPa)
#
#
# Indices 1 2 3 4 5 6 
#
# 1 115.5215 42.3785 31.4575 0.0000 -23.6054 0.0000
# 2 42.3785 101.1808 33.6833 0.0000 -18.8177 0.0001
# 3 31.4575 33.6833 85.3585 0.0000 -32.9804 0.0000
# 4 0.0000 0.0000 0.0000 36.5143 0.0000 -14.2508
# 5 -23.6054 -18.8177 -32.9804 0.0000 38.2268 0.0000
# 6 0.0000 0.0001 0.0000 -14.2508 0.0000 40.5619
#
#
#
# Elastic Compliance Matrix: (Units=1/GPa)
#
#
# Indices 1 2 3 4 5 6 
#
# 1 0.011094 -0.003506 -0.001087 0.000000 0.004187 0.000000
# 2 -0.003506 0.012660 -0.003198 0.000000 0.001308 0.000000
# 3 -0.001087 -0.003198 0.018766 0.000000 0.013945 0.000000
# 4 0.000000 0.000000 0.000000 0.031738 0.000000 0.011151
# 5 0.004187 0.001308 0.013945 0.000000 0.041419 0.000000
# 6 0.000000 0.000000 0.000000 0.011151 0.000000 0.028571
#
#
# Mechanical properties :
#
#
# Convention : Reuss Voigt Hill
#
# Bulk Modulus (GPa) = 37.12479 57.45550 47.29015
# Shear Modulus (GPa) = 29.61885 36.03003 32.82444
#
# Velocity S-wave (km/s) = 3.75781 4.14460 3.95594
# Velocity P-wave (km/s) = 6.04383 7.09198 6.58878
#
# Compressibility (1/GPa) = 0.02693618
#
# Stress axis : x y z
#
# Youngs Moduli (GPa) = 90.13734 78.99097 53.28795
#
# Poissons Ratio (x) = 0.27694 0.05795
# Poissons Ratio (y) = 0.31602 0.17043
# Poissons Ratio (z) = 0.09802 0.25264
#
# Static dielectric constant tensor:
#      x y z
#    x 3.966820 0.000000 -0.398880 
#    y 0.000000 4.057120 0.000000 
#    z -0.398880 0.000000 4.064440 
# 
# 
# High freq. dielectric constant tensor:
#      x y z
#    x 1.829520 0.000000 -0.027190 
#    y 0.000000 1.825650 0.000000 
#    z -0.027190 0.000000 1.819700 
# 
# From -- ./inp_files/209090.got.cif
#   From: 2010.06.25/outbox.cif.g09.slc.cpg/sg15_105_cif.got.tgz:209090.got - 2010.06.28 07:06:18.
