data_PCOD8145100
_publ_section_title
;
Structure prediction by ZEFSAII (Michael W. Deem and Ramdas Pophale) SiO2 
 PCOD8145100
Probable space group: C 2/C
;
_chemical_formula_sum "Si O2"
_cell_formula_units_Z 48
_cell_length_a 17.040481
_cell_length_b 16.264115
_cell_length_c 14.027093
_cell_angle_alpha 90.000000
_cell_angle_beta 137.832852
_cell_angle_gamma 90.000000
_cell_volume 2609.719558
_symmetry_space_group_name_H-M "C 2/C"
_symmetry_group_IT_number 15
_symmetry_cell_setting 'monoclinic'
loop_
_space_group_symop_operation_xyz
x,y,z
-x,y,1/2-z
-x,-y,-z
x,-y,1/2+z
1/2+x,1/2+y,z
1/2-x,1/2+y,1/2-z
1/2-x,1/2-y,-z
1/2+x,1/2-y,1/2+z
loop_
_atom_site_type_symbol
_atom_site_label
_atom_site_fract_x
_atom_site_fract_y
_atom_site_fract_z
Si Si1 0.878349 0.049855 0.888023
Si Si2 0.046126 0.790192 0.135377
Si Si3 0.842254 0.181130 0.566043
Si Si4 0.049514 0.600592 0.111233
Si Si5 0.778870 0.484201 0.592676
Si Si6 0.169913 0.499149 0.067404
O O1 0.905704 0.147225 0.901242
O O2 0.807673 0.041061 0.923295
O O3 0.796692 0.016419 0.728826
O O4 0.000000 0.000000 0.000000
O O5 0.082555 0.822344 0.271129
O O6 0.082164 0.696483 0.148002
O O7 0.906105 0.796653 0.022972
O O8 0.750000 0.250000 0.500000
O O9 0.788668 0.092862 0.508076
O O10 0.109742 0.546074 0.247488
O O11 0.099793 0.572786 0.054920
O O12 0.910181 0.583859 0.994967
O O13 0.818595 0.530145 0.531654
#
# Coordination Sequence:
#
# PCOD8145100 Si02
#       6
#     8   8   8   8   8   8
#     4  11  23  38  55  84 119 158 186 235 287 351
#     4  11  22  34  55  88 118 143 195 239 290 338
#     4  11  20  32  56  87 115 144 183 247 293 338
#     4  10  22  37  60  88 116 151 190 247 288 340
#     4  11  20  37  60  84 118 155 192 229 295 346
#     4  10  22  39  57  85 119 153 193 236 291 345
#
# _framework density 18.392782
#
# number of rings (size 3 to 8) (size 9 to 14) (size 15 to 20)
#    0.000    1.333    5.000    1.500    2.333    0.667 
#    0.000    0.833    0.000    0.000   13.000    0.000 
#    0.000    0.000    0.000    0.000    0.000    0.000 
#
# Total GULP energy -297436.351929 kJ/mol
# GULP energy per Si atom -12393.181330 kJ/mol
# Density = 1.835092 g / cm^3
# Si number density = 18.392782 Si / 1000 Ang^3
#
#
#
# Elastic Constant Matrix: (Units=GPa)
#
#
# Indices 1 2 3 4 5 6 
#
# 1 144.6477 52.6995 50.6716 0.0000 -13.7862 0.0000
# 2 52.6995 72.2942 32.3393 0.0000 -3.9555 0.0000
# 3 50.6716 32.3393 87.3697 0.0000 2.2806 0.0000
# 4 0.0000 0.0000 0.0000 24.5771 0.0000 -2.8336
# 5 -13.7862 -3.9555 2.2806 0.0000 34.4543 0.0000
# 6 0.0000 0.0000 0.0000 -2.8336 0.0000 27.8647
#
#
#
# Elastic Compliance Matrix: (Units=1/GPa)
#
#
# Indices 1 2 3 4 5 6 
#
# 1 0.010913 -0.005824 -0.004277 0.000000 0.003981 0.000000
# 2 -0.005824 0.019871 -0.003983 0.000000 0.000215 0.000000
# 3 -0.004277 -0.003983 0.015484 0.000000 -0.003194 0.000000
# 4 0.000000 0.000000 0.000000 0.041171 0.000000 0.004187
# 5 0.003981 0.000215 -0.003194 0.000000 0.030853 0.000000
# 6 0.000000 0.000000 0.000000 0.004187 0.000000 0.036313
#
#
# Mechanical properties :
#
#
# Convention : Reuss Voigt Hill
#
# Bulk Modulus (GPa) = 55.25041 63.97028 59.61034
# Shear Modulus (GPa) = 26.48193 28.61930 27.55062
#
# Velocity S-wave (km/s) = 3.79859 3.94891 3.87448
# Velocity P-wave (km/s) = 7.02449 7.45972 7.24537
#
# Compressibility (1/GPa) = 0.01809941
#
# Stress axis : x y z
#
# Youngs Moduli (GPa) = 91.63340 50.32389 64.58235
#
# Poissons Ratio (x) = 0.29308 0.27625
# Poissons Ratio (y) = 0.53366 0.25724
# Poissons Ratio (z) = 0.39196 0.20045
#
# Static dielectric constant tensor:
#      x y z
#    x 1.776520 0.000000 -2.857690 
#    y 0.000000 3.178480 0.000000 
#    z -2.857690 0.000000 -0.784720 
# 
# 
# High freq. dielectric constant tensor:
#      x y z
#    x 1.725300 0.000000 0.014970 
#    y 0.000000 1.689370 0.000000 
#    z 0.014970 0.000000 1.717290 
# 
# From -- ./inp_files/96836.got.cif
#   From: 2010.06.25/outbox.cif.g09.slc.cpg/sg15_49_cif.got.tgz:96836.got - 2010.06.28 07:06:18.
