data_PCOD8145863
_publ_section_title
;
Structure prediction by ZEFSAII (Michael W. Deem and Ramdas Pophale) SiO2 
 PCOD8145863
Probable space group: C 2/C
;
_chemical_formula_sum "Si O2"
_cell_formula_units_Z 60
_cell_length_a 11.837098
_cell_length_b 28.379506
_cell_length_c 8.156204
_cell_angle_alpha 90.000000
_cell_angle_beta 97.256253
_cell_angle_gamma 90.000000
_cell_volume 2717.978150
_symmetry_space_group_name_H-M "C 2/C"
_symmetry_group_IT_number 15
_symmetry_cell_setting 'monoclinic'
loop_
_space_group_symop_operation_xyz
x,y,z
-x,y,1/2-z
-x,-y,-z
x,-y,1/2+z
1/2+x,1/2+y,z
1/2-x,1/2+y,1/2-z
1/2-x,1/2-y,-z
1/2+x,1/2-y,1/2+z
loop_
_atom_site_type_symbol
_atom_site_label
_atom_site_fract_x
_atom_site_fract_y
_atom_site_fract_z
Si Si1 0.262711 0.550762 0.303818
Si Si2 0.543866 0.049179 0.440344
Si Si3 0.500000 0.248384 0.750000
Si Si4 0.536183 0.413647 0.478313
Si Si5 0.318139 0.444350 0.301635
Si Si6 0.210221 0.296942 0.402438
Si Si7 0.648100 0.894505 0.486673
Si Si8 0.041150 0.809480 0.083409
O O1 0.181972 0.553811 0.454502
O O2 0.388498 0.571897 0.351986
O O3 0.272976 0.496362 0.255885
O O4 0.208726 0.579905 0.148126
O O5 0.500000 0.054419 0.250000
O O6 0.485724 0.090593 0.538983
O O7 0.500000 0.000000 0.500000
O O8 0.386108 0.216485 0.749327
O O9 0.486271 0.276345 0.576933
O O10 0.417304 0.443151 0.461577
O O11 0.615808 0.422880 0.338057
O O12 0.514941 0.358298 0.476152
O O13 0.209308 0.412593 0.331650
O O14 0.250000 0.250000 0.500000
O O15 0.156383 0.337882 0.508344
O O16 0.325810 0.318661 0.352461
O O17 0.000000 0.788080 0.250000
#
# Coordination Sequence:
#
# PCOD8145863 Si02
#       8
#     8   8   4   8   8   8   8   8
#     4  11  24  37  63  96 135 185 233 272 343 420
#     4  10  22  40  61  91 132 177 229 273 337 405
#     4  10  26  46  78 104 128 188 236 282 386 422
#     4  11  23  38  60  99 133 177 230 271 344 417
#     4  11  21  40  59  93 139 175 227 277 331 414
#     4  10  23  47  71 101 136 174 240 298 355 434
#     4  11  22  42  66  91 133 181 220 298 341 401
#     4  11  22  46  72 103 143 174 227 300 349 427
#
# _framework density 22.075233999999998
#
# number of rings (size 3 to 8) (size 9 to 14) (size 15 to 20)
#    0.000    1.333    4.000    1.200    5.600    2.133 
#    6.000    8.000    0.000    0.000    0.000    0.000 
#    0.000    0.000    0.000    0.000    0.000    0.000 
#
# Total GULP energy -371727.249033 kJ/mol
# GULP energy per Si atom -12390.908301 kJ/mol
# Density = 2.202499 g / cm^3
# Si number density = 22.075234 Si / 1000 Ang^3
#
#
#
# Elastic Constant Matrix: (Units=GPa)
#
#
# Indices 1 2 3 4 5 6 
#
# 1 126.0586 49.1183 12.0335 0.0000 3.0463 0.0000
# 2 49.1183 150.8751 30.3991 0.0000 -2.6879 0.0000
# 3 12.0335 30.3991 50.2830 0.0000 -1.9637 0.0000
# 4 0.0000 0.0000 0.0000 -115.7150 0.0000 60.0271
# 5 3.0463 -2.6879 -1.9637 0.0000 36.5891 0.0000
# 6 0.0000 0.0000 0.0000 60.0271 0.0000 7.7843
#
#
#
# Elastic Compliance Matrix: (Units=1/GPa)
#
#
# Indices 1 2 3 4 5 6 
#
# 1 0.009130 -0.002895 -0.000474 0.000000 -0.000998 0.000000
# 2 -0.002895 0.008469 -0.004403 0.000000 0.000627 0.000000
# 3 -0.000474 -0.004403 0.022699 0.000000 0.000934 0.000000
# 4 0.000000 0.000000 0.000000 -0.001728 0.000000 0.013327
# 5 -0.000998 0.000627 0.000934 0.000000 0.027510 0.000000
# 6 0.000000 0.000000 0.000000 0.013327 0.000000 0.025692
#
#
# Mechanical properties :
#
#
# Convention : Reuss Voigt Hill
#
# Bulk Modulus (GPa) = 40.39538 56.70205 48.54871
# Shear Modulus (GPa) = 43.26579 1.44274 22.35426
#
# Velocity S-wave (km/s) = 4.43191 0.80930 3.18565
# Velocity P-wave (km/s) = 6.67291 5.15896 5.96417
#
# Compressibility (1/GPa) = 0.02475531
#
# Stress axis : x y z
#
# Youngs Moduli (GPa) = 109.52813 118.08354 44.05484
#
# Poissons Ratio (x) = 0.34181 0.02088
# Poissons Ratio (y) = 0.31704 0.19395
# Poissons Ratio (z) = 0.05191 0.51987
#
# Static dielectric constant tensor:
#      x y z
#    x 6.182970 0.000000 0.097980 
#    y 0.000000 4.012370 0.000000 
#    z 0.097980 0.000000 3.958630 
# 
# 
# High freq. dielectric constant tensor:
#      x y z
#    x 1.898860 0.000000 0.001030 
#    y 0.000000 1.862230 0.000000 
#    z 0.001030 0.000000 1.851930 
# 
# From -- ./inp_files/35250.got.cif
#   From: 2010.06.25/outbox.cif.g09.slc.cpg/sg15_18_cif.got.tgz:35250.got - 2010.06.28 07:06:18.
