data_PCOD8145107
_publ_section_title
;
Structure prediction by ZEFSAII (Michael W. Deem and Ramdas Pophale) SiO2 
 PCOD8145107
Probable space group: C 2/C
;
_chemical_formula_sum "Si O2"
_cell_formula_units_Z 48
_cell_length_a 26.153887
_cell_length_b 9.133501
_cell_length_c 8.926519
_cell_angle_alpha 90.000000
_cell_angle_beta 84.767794
_cell_angle_gamma 90.000000
_cell_volume 2123.451278
_symmetry_space_group_name_H-M "C 2/C"
_symmetry_group_IT_number 15
_symmetry_cell_setting 'monoclinic'
loop_
_space_group_symop_operation_xyz
x,y,z
-x,y,1/2-z
-x,-y,-z
x,-y,1/2+z
1/2+x,1/2+y,z
1/2-x,1/2+y,1/2-z
1/2-x,1/2-y,-z
1/2+x,1/2-y,1/2+z
loop_
_atom_site_type_symbol
_atom_site_label
_atom_site_fract_x
_atom_site_fract_y
_atom_site_fract_z
Si Si1 0.035598 0.921586 0.608449
Si Si2 0.845863 0.405652 0.029337
Si Si3 0.274572 0.010038 0.800838
Si Si4 0.374564 0.358977 0.360177
Si Si5 0.705342 0.396334 0.574151
Si Si6 0.119483 0.277511 0.964208
O O1 0.064409 0.781219 0.531887
O O2 0.000000 0.860793 0.750000
O O3 0.075538 0.040167 0.660396
O O4 0.000000 0.000000 0.500000
O O5 0.808103 0.387843 0.180862
O O6 0.882391 0.546940 0.041916
O O7 0.811661 0.409310 0.888728
O O8 0.881596 0.263691 0.989790
O O9 0.238719 0.897112 0.717134
O O10 0.242585 0.116871 0.919247
O O11 0.324881 0.450204 0.422846
O O12 0.366239 0.291295 0.198816
O O13 0.664262 0.264017 0.572789
#
# Coordination Sequence:
#
# PCOD8145107 Si02
#       6
#     8   8   8   8   8   8
#     4  11  24  46  76  98 117 155 208 266 322 393
#     4  11  24  39  60  92 136 174 203 258 318 366
#     4  10  22  37  60  92 127 178 226 251 297 366
#     4  11  23  43  65  94 132 163 211 265 320 371
#     4  10  22  38  62  91 124 177 225 266 292 347
#     4  11  23  43  65  94 131 163 213 261 324 373
#
# _framework density 22.604707000000001
#
# number of rings (size 3 to 8) (size 9 to 14) (size 15 to 20)
#    0.000    1.333    5.000    0.000    0.000   10.667 
#    0.000    1.667    0.000    0.000    0.000    0.000 
#    0.000    0.000    0.000    0.000    0.000    0.000 
#
# Total GULP energy -297633.216487 kJ/mol
# GULP energy per Si atom -12401.384020 kJ/mol
# Density = 2.255326 g / cm^3
# Si number density = 22.604707 Si / 1000 Ang^3
#
#
#
# Elastic Constant Matrix: (Units=GPa)
#
#
# Indices 1 2 3 4 5 6 
#
# 1 97.5697 21.5692 31.7183 0.0000 -18.9458 0.0000
# 2 21.5692 88.1154 1.3338 0.0000 -15.0969 0.0000
# 3 31.7183 1.3338 103.1557 0.0000 -13.5966 0.0000
# 4 0.0000 0.0000 0.0000 31.5935 0.0000 -6.9871
# 5 -18.9458 -15.0969 -13.5966 0.0000 45.8472 0.0000
# 6 0.0000 0.0000 0.0000 -6.9871 0.0000 19.3663
#
#
#
# Elastic Compliance Matrix: (Units=1/GPa)
#
#
# Indices 1 2 3 4 5 6 
#
# 1 0.012543 -0.002441 -0.003380 0.000000 0.003377 0.000000
# 2 -0.002441 0.012517 0.001040 0.000000 0.003421 0.000000
# 3 -0.003380 0.001040 0.011011 0.000000 0.002211 0.000000
# 4 0.000000 0.000000 0.000000 0.034397 0.000000 0.012410
# 5 0.003377 0.003421 0.002211 0.000000 0.024990 0.000000
# 6 0.000000 0.000000 0.000000 0.012410 0.000000 0.056113
#
#
# Mechanical properties :
#
#
# Convention : Reuss Voigt Hill
#
# Bulk Modulus (GPa) = 37.72309 44.23151 40.97730
# Shear Modulus (GPa) = 29.41705 34.97600 32.19652
#
# Velocity S-wave (km/s) = 3.61136 3.93783 3.77812
# Velocity P-wave (km/s) = 5.84069 6.34706 6.09913
#
# Compressibility (1/GPa) = 0.02650897
#
# Stress axis : x y z
#
# Youngs Moduli (GPa) = 79.72444 79.89377 90.81503
#
# Poissons Ratio (x) = 0.19499 0.30696
# Poissons Ratio (y) = 0.19457 -0.09441
# Poissons Ratio (z) = 0.26948 -0.08305
#
# Static dielectric constant tensor:
#      x y z
#    x 3.473200 0.000000 0.340920 
#    y 0.000000 3.918320 0.000000 
#    z 0.340920 0.000000 4.007470 
# 
# 
# High freq. dielectric constant tensor:
#      x y z
#    x 1.873890 0.000000 -0.007000 
#    y 0.000000 1.885940 0.000000 
#    z -0.007000 0.000000 1.909300 
# 
# From -- ./inp_files/68564.got.cif
#   From: 2010.06.25/outbox.cif.g09.slc.cpg/sg15_35_cif.got.tgz:68564.got - 2010.06.28 07:06:18.
