data_PCOD8145084
_publ_section_title
;
Structure prediction by ZEFSAII (Michael W. Deem and Ramdas Pophale) SiO2 
 PCOD8145084
Probable space group: C 2/C
;
_chemical_formula_sum "Si O2"
_cell_formula_units_Z 48
_cell_length_a 6.915009
_cell_length_b 28.385289
_cell_length_c 15.308545
_cell_angle_alpha 90.000000
_cell_angle_beta 128.050661
_cell_angle_gamma 90.000000
_cell_volume 2366.202120
_symmetry_space_group_name_H-M "C 2/C"
_symmetry_group_IT_number 15
_symmetry_cell_setting 'monoclinic'
loop_
_space_group_symop_operation_xyz
x,y,z
-x,y,1/2-z
-x,-y,-z
x,-y,1/2+z
1/2+x,1/2+y,z
1/2-x,1/2+y,1/2-z
1/2-x,1/2-y,-z
1/2+x,1/2-y,1/2+z
loop_
_atom_site_type_symbol
_atom_site_label
_atom_site_fract_x
_atom_site_fract_y
_atom_site_fract_z
Si Si1 0.500000 0.144379 0.250000
Si Si2 0.228865 0.302910 0.658605
Si Si3 0.066353 0.652891 0.936212
Si Si4 0.500000 0.787188 0.250000
Si Si5 0.960556 0.906841 0.952406
Si Si6 0.178943 0.031200 0.374285
Si Si7 0.686466 0.929482 0.046298
O O1 0.457757 0.177886 0.321202
O O2 0.266524 0.111749 0.167172
O O3 0.500000 0.326279 0.750000
O O4 0.111348 0.314219 0.532349
O O5 0.257806 0.246087 0.673172
O O6 0.962330 0.681965 0.825966
O O7 0.859894 0.613251 0.899447
O O8 0.326720 0.631486 0.982297
O O9 0.065540 0.954507 0.936671
O O10 0.889187 0.917071 0.031685
O O11 0.430249 0.059325 0.426394
O O12 0.000000 0.049305 0.250000
O O13 0.222831 0.975507 0.376758
#
# Coordination Sequence:
#
# PCOD8145084 Si02
#       7
#     4   8   8   4   8   8   8
#     4  12  20  36  66 101 112 166 209 260 310 366
#     4  10  22  40  64  90 126 153 211 263 308 358
#     4  11  22  42  62  89 124 166 204 253 309 374
#     4  10  24  44  62  87 130 170 199 260 324 360
#     4  11  21  35  63  88 123 155 209 250 308 366
#     4  10  22  37  58  87 122 160 200 256 305 359
#     4  10  22  39  58  88 122 159 206 250 304 371
#
# _framework density 20.285672000000002
#
# number of rings (size 3 to 8) (size 9 to 14) (size 15 to 20)
#    0.500    1.000    3.333    2.000    2.333    1.333 
#    3.000    1.667    0.000    0.000    0.000    0.000 
#    0.000    0.000    0.000    0.000    0.000    0.000 
#
# Total GULP energy -297607.833380 kJ/mol
# GULP energy per Si atom -12400.326391 kJ/mol
# Density = 2.023950 g / cm^3
# Si number density = 20.285672 Si / 1000 Ang^3
#
#
#
# Elastic Constant Matrix: (Units=GPa)
#
#
# Indices 1 2 3 4 5 6 
#
# 1 110.5294 37.6706 28.8096 0.0000 -11.1043 0.0000
# 2 37.6706 118.3624 36.0125 0.0000 -9.8779 0.0000
# 3 28.8096 36.0125 74.0716 0.0000 -21.2162 0.0000
# 4 0.0000 0.0000 0.0000 0.5725 0.0000 -3.2691
# 5 -11.1043 -9.8779 -21.2162 0.0000 29.7020 0.0000
# 6 0.0000 0.0000 0.0000 -3.2691 0.0000 30.4670
#
#
#
# Elastic Compliance Matrix: (Units=1/GPa)
#
#
# Indices 1 2 3 4 5 6 
#
# 1 0.010706 -0.002518 -0.002556 0.000000 0.001339 0.000000
# 2 -0.002518 0.010508 -0.004272 0.000000 -0.000498 0.000000
# 3 -0.002556 -0.004272 0.019979 0.000000 0.011894 0.000000
# 4 0.000000 0.000000 0.000000 4.510536 0.000000 0.483986
# 5 0.001339 -0.000498 0.011894 0.000000 0.042499 0.000000
# 6 0.000000 0.000000 0.000000 0.483986 0.000000 0.084755
#
#
# Mechanical properties :
#
#
# Convention : Reuss Voigt Hill
#
# Bulk Modulus (GPa) = 44.44436 56.43874 50.44155
# Shear Modulus (GPa) = 1.06266 25.51302 13.28784
#
# Velocity S-wave (km/s) = 0.72456 3.55024 2.56214
# Velocity P-wave (km/s) = 4.75991 6.68490 5.80279
#
# Compressibility (1/GPa) = 0.02250004
#
# Stress axis : x y z
#
# Youngs Moduli (GPa) = 93.40209 95.16282 50.05309
#
# Poissons Ratio (x) = 0.23961 0.12796
# Poissons Ratio (y) = 0.23518 0.21385
# Poissons Ratio (z) = 0.23877 0.40657
#
# Static dielectric constant tensor:
#      x y z
#    x 3.718950 0.000000 0.027630 
#    y 0.000000 3.692220 0.000000 
#    z 0.027630 0.000000 3.404980 
# 
# 
# High freq. dielectric constant tensor:
#      x y z
#    x 1.797110 0.000000 -0.004910 
#    y 0.000000 1.794020 0.000000 
#    z -0.004910 0.000000 1.777700 
# 
# From -- ./inp_files/130945.got.cif
#   From: 2010.06.25/outbox.cif.g09.slc.cpg/sg15_66_cif.got.tgz:130945.got - 2010.06.28 07:06:18.
