data_PCOD8145720
_publ_section_title
;
Structure prediction by ZEFSAII (Michael W. Deem and Ramdas Pophale) SiO2 
 PCOD8145720
Probable space group: C 2/C
;
_chemical_formula_sum "Si O2"
_cell_formula_units_Z 56
_cell_length_a 24.500001
_cell_length_b 13.676270
_cell_length_c 7.884981
_cell_angle_alpha 90.000000
_cell_angle_beta 109.691695
_cell_angle_gamma 90.000000
_cell_volume 2487.503446
_symmetry_space_group_name_H-M "C 2/C"
_symmetry_group_IT_number 15
_symmetry_cell_setting 'monoclinic'
loop_
_space_group_symop_operation_xyz
x,y,z
-x,y,1/2-z
-x,-y,-z
x,-y,1/2+z
1/2+x,1/2+y,z
1/2-x,1/2+y,1/2-z
1/2-x,1/2-y,-z
1/2+x,1/2-y,1/2+z
loop_
_atom_site_type_symbol
_atom_site_label
_atom_site_fract_x
_atom_site_fract_y
_atom_site_fract_z
Si Si1 0.159033 0.105357 0.811096
Si Si2 0.000000 0.232582 0.250000
Si Si3 0.711976 0.782474 0.706159
Si Si4 0.000000 0.445303 0.750000
Si Si5 0.694214 0.152385 0.832541
Si Si6 0.472607 0.401948 0.402978
Si Si7 0.067115 0.389139 0.135899
Si Si8 0.231766 0.977031 0.646324
O O1 0.169644 0.220263 0.784225
O O2 0.094711 0.076277 0.694931
O O3 0.208749 0.036319 0.782849
O O4 0.172828 0.076020 0.018126
O O5 0.019885 0.174310 0.437018
O O6 0.053118 0.299966 0.246738
O O7 0.681382 0.786450 0.489972
O O8 0.773511 0.725698 0.762873
O O9 0.720467 0.892475 0.778436
O O10 0.965788 0.377569 0.579324
O O11 0.952006 0.509638 0.797064
O O12 0.636099 0.112927 0.681271
O O13 0.735064 0.060447 0.928864
O O14 0.500000 0.368391 0.250000
O O15 0.500000 0.500000 0.500000
#
# Coordination Sequence:
#
# PCOD8145720 Si02
#       8
#     8   4   8   4   8   8   8   8
#     4  11  24  42  67  96 138 174 216 289 334 399
#     4  11  26  46  69 100 136 176 239 288 340 409
#     4  10  22  41  62 101 134 168 226 271 342 414
#     4   9  22  42  63  98 134 178 227 278 342 409
#     4  10  22  39  66  96 132 177 216 278 342 408
#     4  12  26  47  69 100 136 186 240 281 343 408
#     4  10  22  42  67  96 137 177 226 286 340 409
#     4  11  22  41  65  99 131 172 223 268 345 414
#
# _framework density 22.512532
#
# number of rings (size 3 to 8) (size 9 to 14) (size 15 to 20)
#    0.000    1.429    2.143    2.143    3.000    2.286 
#    2.571    0.000    0.000    0.000    0.000    0.000 
#    0.000    0.000    0.000    0.000    0.000    0.000 
#
# Total GULP energy -346996.803700 kJ/mol
# GULP energy per Si atom -12392.742989 kJ/mol
# Density = 2.246129 g / cm^3
# Si number density = 22.512532 Si / 1000 Ang^3
#
#
#
# Elastic Constant Matrix: (Units=GPa)
#
#
# Indices 1 2 3 4 5 6 
#
# 1 80.2845 26.8422 29.7011 0.0000 22.6472 0.0000
# 2 26.8422 112.9398 29.7349 0.0000 1.2738 0.0000
# 3 29.7011 29.7349 103.5937 0.0000 7.0748 0.0000
# 4 0.0000 0.0000 0.0000 24.6354 0.0000 3.6639
# 5 22.6472 1.2738 7.0748 0.0000 36.3318 0.0000
# 6 0.0000 0.0000 0.0000 3.6639 0.0000 12.1502
#
#
#
# Elastic Compliance Matrix: (Units=1/GPa)
#
#
# Indices 1 2 3 4 5 6 
#
# 1 0.017686 -0.003177 -0.003460 0.000000 -0.010240 0.000000
# 2 -0.003177 0.010150 -0.002142 0.000000 0.002042 0.000000
# 3 -0.003460 -0.002142 0.011257 0.000000 0.000040 0.000000
# 4 0.000000 0.000000 0.000000 0.042498 0.000000 -0.012815
# 5 -0.010240 0.002042 0.000040 0.000000 0.033828 0.000000
# 6 0.000000 0.000000 0.000000 -0.012815 0.000000 0.086168
#
#
# Mechanical properties :
#
#
# Convention : Reuss Voigt Hill
#
# Bulk Modulus (GPa) = 46.43329 52.15270 49.29300
# Shear Modulus (GPa) = 22.09233 28.65947 25.37590
#
# Velocity S-wave (km/s) = 3.13603 3.57185 3.36101
# Velocity P-wave (km/s) = 5.81233 6.34249 6.08319
#
# Compressibility (1/GPa) = 0.02153627
#
# Stress axis : x y z
#
# Youngs Moduli (GPa) = 56.54122 98.51921 88.83278
#
# Poissons Ratio (x) = 0.31301 0.30732
# Poissons Ratio (y) = 0.17964 0.19028
# Poissons Ratio (z) = 0.19561 0.21103
#
# Static dielectric constant tensor:
#      x y z
#    x 3.837450 0.000000 -0.160760 
#    y 0.000000 4.117930 0.000000 
#    z -0.160760 0.000000 4.129390 
# 
# 
# High freq. dielectric constant tensor:
#      x y z
#    x 1.870750 0.000000 0.001900 
#    y 0.000000 1.894600 0.000000 
#    z 0.001900 0.000000 1.893160 
# 
# From -- ./inp_files/65556.got.cif
#   From: 2010.06.25/outbox.cif.g09.slc.cpg/sg15_33_cif.got.tgz:65556.got - 2010.06.28 07:06:18.
