data_PCOD8145616
_publ_section_title
;
Structure prediction by ZEFSAII (Michael W. Deem and Ramdas Pophale) SiO2 
 PCOD8145616
Probable space group: C 2/C
;
_chemical_formula_sum "Si O2"
_cell_formula_units_Z 52
_cell_length_a 21.327447
_cell_length_b 8.253951
_cell_length_c 28.889506
_cell_angle_alpha 90.000000
_cell_angle_beta 151.538590
_cell_angle_gamma 90.000000
_cell_volume 2423.620464
_symmetry_space_group_name_H-M "C 2/C"
_symmetry_group_IT_number 15
_symmetry_cell_setting 'monoclinic'
loop_
_space_group_symop_operation_xyz
x,y,z
-x,y,1/2-z
-x,-y,-z
x,-y,1/2+z
1/2+x,1/2+y,z
1/2-x,1/2+y,1/2-z
1/2-x,1/2-y,-z
1/2+x,1/2-y,1/2+z
loop_
_atom_site_type_symbol
_atom_site_label
_atom_site_fract_x
_atom_site_fract_y
_atom_site_fract_z
Si Si1 0.101906 0.244476 0.144481
Si Si2 0.500000 0.246860 0.750000
Si Si3 0.763607 0.472070 0.059278
Si Si4 0.187308 0.481528 0.761137
Si Si5 0.486057 0.440268 0.652189
Si Si6 0.022984 0.706755 0.318836
Si Si7 0.890425 0.094802 0.955610
O O1 0.124652 0.428299 0.176168
O O2 0.226814 0.175351 0.197213
O O3 0.079890 0.118421 0.171966
O O4 0.966676 0.252398 0.025781
O O5 0.623627 0.144809 0.847859
O O6 0.542296 0.360125 0.735046
O O7 0.667505 0.514639 0.039991
O O8 0.830245 0.632929 0.081482
O O9 0.667965 0.393498 0.957891
O O10 0.076781 0.427740 0.725915
O O11 0.273537 0.622586 0.842788
O O12 0.492845 0.634205 0.660595
O O13 0.000000 0.743075 0.250000
O O14 0.000000 0.000000 0.000000
#
# Coordination Sequence:
#
# PCOD8145616 Si02
#       7
#     8   4   8   8   8   8   8
#     4  10  22  39  63  91 118 163 208 253 309 370
#     4  12  22  38  62  90 126 162 200 262 308 376
#     4  11  21  39  61  88 122 165 205 251 317 361
#     4  11  21  41  66  88 127 163 204 256 312 368
#     4  11  24  39  61  94 124 159 214 254 305 372
#     4  12  22  40  63  89 124 167 207 256 312 364
#     4   9  19  36  60  85 116 159 199 245 303 365
#
# _framework density 21.455506
#
# number of rings (size 3 to 8) (size 9 to 14) (size 15 to 20)
#    0.000    1.231    3.077    3.692    0.000    1.231 
#    0.000    0.769    0.000    0.000    0.000    0.000 
#    0.000    0.000    0.000    0.000    0.000    0.000 
#
# Total GULP energy -322143.401547 kJ/mol
# GULP energy per Si atom -12390.130829 kJ/mol
# Density = 2.140667 g / cm^3
# Si number density = 21.455506 Si / 1000 Ang^3
#
#
#
# Elastic Constant Matrix: (Units=GPa)
#
#
# Indices 1 2 3 4 5 6 
#
# 1 90.0893 7.6892 20.2775 -0.0001 15.1652 -0.0002
# 2 7.6892 63.7602 27.8531 -0.0010 4.4642 0.0010
# 3 20.2775 27.8531 104.0971 -0.0021 -4.1329 0.0004
# 4 -0.0001 -0.0010 -0.0021 24.9832 -0.0001 -7.9700
# 5 15.1652 4.4642 -4.1329 -0.0001 36.8218 0.0001
# 6 -0.0002 0.0010 0.0004 -7.9700 0.0001 29.5032
#
#
#
# Elastic Compliance Matrix: (Units=1/GPa)
#
#
# Indices 1 2 3 4 5 6 
#
# 1 0.012629 0.000037 -0.002689 0.000000 -0.005508 0.000000
# 2 0.000037 0.018031 -0.004941 0.000000 -0.002756 0.000000
# 3 -0.002689 -0.004941 0.011572 0.000001 0.003005 0.000000
# 4 0.000000 0.000000 0.000001 0.043802 0.000000 0.011833
# 5 -0.005508 -0.002756 0.003005 0.000000 0.030098 0.000000
# 6 0.000000 0.000000 0.000000 0.011833 0.000000 0.037091
#
#
# Mechanical properties :
#
#
# Convention : Reuss Voigt Hill
#
# Bulk Modulus (GPa) = 36.97381 41.06512 39.01946
# Shear Modulus (GPa) = 28.18131 31.73677 29.95904
#
# Velocity S-wave (km/s) = 3.62812 3.85020 3.74081
# Velocity P-wave (km/s) = 5.90095 6.24072 6.07321
#
# Compressibility (1/GPa) = 0.02704617
#
# Stress axis : x y z
#
# Youngs Moduli (GPa) = 79.18129 55.46090 86.41883
#
# Poissons Ratio (x) = -0.00206 0.23235
# Poissons Ratio (y) = -0.00294 0.42700
# Poissons Ratio (z) = 0.21289 0.27404
#
# Static dielectric constant tensor:
#      x y z
#    x 4.066860 0.000000 -0.140920 
#    y 0.000000 3.465970 0.000000 
#    z -0.140920 0.000000 4.668740 
# 
# 
# High freq. dielectric constant tensor:
#      x y z
#    x 1.858690 0.000000 0.001770 
#    y 0.000000 1.800830 0.000000 
#    z 0.001770 0.000000 1.857340 
# 
# From -- ./inp_files/317405.got.cif
#   From: 2010.06.25/outbox.cif.g09.slc.cpg/sg15_159_cif.got.tgz:317405.got - 2010.06.28 07:06:18.
