data_PCOD8145667
_publ_section_title
;
Structure prediction by ZEFSAII (Michael W. Deem and Ramdas Pophale) SiO2 
 PCOD8145667
Probable space group: C 2/C
;
_chemical_formula_sum "Si O2"
_cell_formula_units_Z 40
_cell_length_a 10.395552
_cell_length_b 16.212283
_cell_length_c 19.183883
_cell_angle_alpha 90.000000
_cell_angle_beta 34.918072
_cell_angle_gamma 90.000000
_cell_volume 1850.679922
_symmetry_space_group_name_H-M "C 2/C"
_symmetry_group_IT_number 15
_symmetry_cell_setting 'monoclinic'
loop_
_space_group_symop_operation_xyz
x,y,z
-x,y,1/2-z
-x,-y,-z
x,-y,1/2+z
1/2+x,1/2+y,z
1/2-x,1/2+y,1/2-z
1/2-x,1/2-y,-z
1/2+x,1/2-y,1/2+z
loop_
_atom_site_type_symbol
_atom_site_label
_atom_site_fract_x
_atom_site_fract_y
_atom_site_fract_z
Si Si1 0.223305 0.051996 0.069757
Si Si2 0.767405 0.595648 0.202706
Si Si3 0.053807 0.127493 0.607367
Si Si4 0.924428 0.437325 0.204236
Si Si5 0.914326 0.697323 0.360223
O O1 0.340206 0.063777 0.093331
O O2 0.999018 0.108323 0.170329
O O3 0.376328 0.085084 0.938622
O O4 0.154642 0.956156 0.094436
O O5 0.852291 0.530777 0.222655
O O6 0.901761 0.679233 0.160364
O O7 0.787550 0.122318 0.714270
O O8 0.115296 0.203750 0.631046
O O9 0.180581 0.149308 0.478657
O O10 0.000000 0.426045 0.250000
O O11 0.000000 0.661455 0.250000
#
# Coordination Sequence:
#
# PCOD8145667 Si02
#       5
#     8   8   8   8   8
#     4  10  22  41  68  91 128 172 224 266 316 391
#     4  10  22  39  64  94 124 170 218 266 323 378
#     4  10  25  41  63  96 128 174 216 260 333 384
#     4  11  23  38  65  93 128 164 220 272 319 374
#     4  11  24  41  66  93 134 169 214 271 324 389
#
# _framework density 21.613678
#
# number of rings (size 3 to 8) (size 9 to 14) (size 15 to 20)
#    0.000    1.600    2.000    1.200    8.400    3.200 
#    3.600    1.000    0.000    0.000    0.000    0.000 
#    0.000    0.000    0.000    0.000    0.000    0.000 
#
# Total GULP energy -247938.900093 kJ/mol
# GULP energy per Si atom -12396.945005 kJ/mol
# Density = 2.156448 g / cm^3
# Si number density = 21.613678 Si / 1000 Ang^3
#
#
#
# Elastic Constant Matrix: (Units=GPa)
#
#
# Indices 1 2 3 4 5 6 
#
# 1 108.4333 29.8837 69.2707 0.0056 15.8486 0.0056
# 2 29.8837 57.7237 43.6091 -0.0639 -3.6965 0.0143
# 3 69.2707 43.6091 192.4054 -0.1216 13.1457 0.0337
# 4 0.0056 -0.0639 -0.1216 28.7557 0.0042 -8.5780
# 5 15.8486 -3.6965 13.1457 0.0042 38.9991 0.0023
# 6 0.0056 0.0143 0.0337 -8.5780 0.0023 7.8983
#
#
#
# Elastic Compliance Matrix: (Units=1/GPa)
#
#
# Indices 1 2 3 4 5 6 
#
# 1 0.013391 -0.004629 -0.003450 -0.000033 -0.004718 -0.000021
# 2 -0.004629 0.023027 -0.003921 0.000041 0.005385 0.000022
# 3 -0.003450 -0.003921 0.007429 0.000025 -0.001474 0.000006
# 4 -0.000033 0.000041 0.000025 0.051442 0.000000 0.055869
# 5 -0.004718 0.005385 -0.001474 0.000000 0.028566 -0.000008
# 6 -0.000021 0.000022 0.000006 0.055869 -0.000008 0.187288
#
#
# Mechanical properties :
#
#
# Convention : Reuss Voigt Hill
#
# Bulk Modulus (GPa) = 50.38053 71.56550 60.97301
# Shear Modulus (GPa) = 14.63027 29.51720 22.07373
#
# Velocity S-wave (km/s) = 2.60455 3.69951 3.19922
# Velocity P-wave (km/s) = 5.69255 7.17158 6.47444
#
# Compressibility (1/GPa) = 0.01984894
#
# Stress axis : x y z
#
# Youngs Moduli (GPa) = 74.67548 43.42734 134.61327
#
# Poissons Ratio (x) = 0.20101 0.46439
# Poissons Ratio (y) = 0.34564 0.52777
# Poissons Ratio (z) = 0.25761 0.17026
#
# Static dielectric constant tensor:
#      x y z
#    x 3.759840 -0.000020 -0.159010 
#    y -0.000020 3.630110 0.000090 
#    z -0.159010 0.000090 4.364630 
# 
# 
# High freq. dielectric constant tensor:
#      x y z
#    x 1.836030 0.000000 -0.003780 
#    y 0.000000 1.825490 0.000000 
#    z -0.003780 0.000000 1.875120 
# 
# From -- ./inp_files/239706.got.cif
#   From: 2010.06.25/outbox.cif.g09.slc.cpg/sg15_120_cif.got.tgz:239706.got - 2010.06.28 07:06:18.
