data_PCOD8145981
_publ_section_title
;
Structure prediction by ZEFSAII (Michael W. Deem and Ramdas Pophale) SiO2 
 PCOD8145981
Probable space group: C 2/C
;
_chemical_formula_sum "Si O2"
_cell_formula_units_Z 40
_cell_length_a 13.240175
_cell_length_b 11.697868
_cell_length_c 20.691864
_cell_angle_alpha 90.000000
_cell_angle_beta 33.257119
_cell_angle_gamma 90.000000
_cell_volume 1757.499594
_symmetry_space_group_name_H-M "C 2/C"
_symmetry_group_IT_number 15
_symmetry_cell_setting 'monoclinic'
loop_
_space_group_symop_operation_xyz
x,y,z
-x,y,1/2-z
-x,-y,-z
x,-y,1/2+z
1/2+x,1/2+y,z
1/2-x,1/2+y,1/2-z
1/2-x,1/2-y,-z
1/2+x,1/2-y,1/2+z
loop_
_atom_site_type_symbol
_atom_site_label
_atom_site_fract_x
_atom_site_fract_y
_atom_site_fract_z
Si Si1 0.767603 0.455542 0.231063
Si Si2 0.308001 0.106746 0.330904
Si Si3 0.010774 0.249663 0.430668
Si Si4 0.627112 0.485813 0.543392
Si Si5 0.284831 0.581980 0.371127
O O1 0.841142 0.542117 0.245824
O O2 0.885530 0.339551 0.171639
O O3 0.550618 0.430480 0.359195
O O4 0.793613 0.508718 0.145968
O O5 0.500000 0.163996 0.250000
O O6 0.156198 0.205799 0.406553
O O7 0.248236 0.014654 0.416642
O O8 0.945607 0.144767 0.421389
O O9 0.834928 0.302702 0.560821
O O10 0.743453 0.492683 0.547718
O O11 0.500000 0.613575 0.250000
#
# Coordination Sequence:
#
# PCOD8145981 Si02
#       5
#     8   8   8   8   8
#     4  10  22  41  62  90 126 160 203 254 302 363
#     4  11  25  42  61  90 128 165 202 251 307 363
#     4  11  22  40  65  94 122 161 208 251 304 363
#     4  10  23  41  62  91 124 161 204 252 306 364
#     4  10  22  40  64  93 124 161 204 254 305 359
#
# _framework density 22.759608
#
# number of rings (size 3 to 8) (size 9 to 14) (size 15 to 20)
#    0.000    1.600    0.000    4.800    0.000   12.800 
#    0.000    3.000    0.000    0.000    0.000    0.000 
#    0.000    0.000    0.000    0.000    0.000    0.000 
#
# Total GULP energy -248017.921966 kJ/mol
# GULP energy per Si atom -12400.896098 kJ/mol
# Density = 2.270781 g / cm^3
# Si number density = 22.759608 Si / 1000 Ang^3
#
#
#
# Elastic Constant Matrix: (Units=GPa)
#
#
# Indices 1 2 3 4 5 6 
#
# 1 126.3358 5.5324 38.0969 -0.0002 9.0271 0.0001
# 2 5.5324 63.4325 42.7472 -0.0011 -2.6323 0.0001
# 3 38.0969 42.7472 89.9358 -0.0049 4.3957 0.0005
# 4 -0.0002 -0.0011 -0.0049 33.2183 0.0003 -8.1285
# 5 9.0271 -2.6323 4.3957 0.0003 34.2176 0.0001
# 6 0.0001 0.0001 0.0005 -8.1285 0.0001 18.6219
#
#
#
# Elastic Compliance Matrix: (Units=1/GPa)
#
#
# Indices 1 2 3 4 5 6 
#
# 1 0.009476 0.002585 -0.005162 -0.000001 -0.001638 0.000000
# 2 0.002585 0.024257 -0.012762 -0.000001 0.002824 0.000000
# 3 -0.005162 -0.012762 0.019476 0.000003 -0.002122 0.000001
# 4 -0.000001 -0.000001 0.000003 0.033704 -0.000001 0.014712
# 5 -0.001638 0.002824 -0.002122 -0.000001 0.030147 0.000000
# 6 0.000000 0.000000 0.000001 0.014712 0.000000 0.060122
#
#
# Mechanical properties :
#
#
# Convention : Reuss Voigt Hill
#
# Bulk Modulus (GPa) = 44.38897 50.27302 47.33099
# Shear Modulus (GPa) = 23.21574 30.10008 26.65791
#
# Velocity S-wave (km/s) = 3.19727 3.64059 3.42611
# Velocity P-wave (km/s) = 5.75985 6.30940 6.04088
#
# Compressibility (1/GPa) = 0.02252812
#
# Stress axis : x y z
#
# Youngs Moduli (GPa) = 105.52955 41.22495 51.34619
#
# Poissons Ratio (x) = -0.10655 0.26507
# Poissons Ratio (y) = -0.27274 0.65530
# Poissons Ratio (z) = 0.54479 0.52613
#
# Static dielectric constant tensor:
#      x y z
#    x 4.331440 0.000000 -0.106650 
#    y 0.000000 3.758810 0.000000 
#    z -0.106650 0.000000 4.219560 
# 
# 
# High freq. dielectric constant tensor:
#      x y z
#    x 1.913440 0.000000 -0.004780 
#    y 0.000000 1.866040 0.000000 
#    z -0.004780 0.000000 1.910670 
# 
# From -- ./inp_files/94875.got.cif
#   From: 2010.06.25/outbox.cif.g09.slc.cpg/sg15_48_cif.got.tgz:94875.got - 2010.06.28 07:06:18.
