data_PCOD8145188
_publ_section_title
;
Structure prediction by ZEFSAII (Michael W. Deem and Ramdas Pophale) SiO2 
 PCOD8145188
Probable space group: C 2/C
;
_chemical_formula_sum "Si O2"
_cell_formula_units_Z 56
_cell_length_a 29.198182
_cell_length_b 17.720102
_cell_length_c 9.620605
_cell_angle_alpha 90.000000
_cell_angle_beta 144.786940
_cell_angle_gamma 90.000000
_cell_volume 2870.205754
_symmetry_space_group_name_H-M "C 2/C"
_symmetry_group_IT_number 15
_symmetry_cell_setting 'monoclinic'
loop_
_space_group_symop_operation_xyz
x,y,z
-x,y,1/2-z
-x,-y,-z
x,-y,1/2+z
1/2+x,1/2+y,z
1/2-x,1/2+y,1/2-z
1/2-x,1/2-y,-z
1/2+x,1/2-y,1/2+z
loop_
_atom_site_type_symbol
_atom_site_label
_atom_site_fract_x
_atom_site_fract_y
_atom_site_fract_z
Si Si1 0.298648 0.220258 0.286423
Si Si2 0.814292 0.088701 0.563884
Si Si3 0.255516 0.496717 0.666949
Si Si4 0.439043 0.301617 0.480553
Si Si5 0.812268 0.351370 0.392609
Si Si6 0.349660 0.135813 0.677816
Si Si7 0.014764 0.691065 0.132420
O O1 0.374042 0.245352 0.384097
O O2 0.236193 0.288130 0.144498
O O3 0.325670 0.197878 0.506219
O O4 0.256232 0.150811 0.101655
O O5 0.815169 0.052175 0.411996
O O6 0.898677 0.126306 0.807411
O O7 0.801039 0.022710 0.642452
O O8 0.225592 0.567365 0.679947
O O9 0.179605 0.447142 0.435849
O O10 0.488800 0.259449 0.485200
O O11 0.500000 0.329839 0.750000
O O12 0.810836 0.335251 0.224732
O O13 0.901938 0.352291 0.672122
O O14 0.445253 0.131342 0.925198
O O15 0.000000 0.725073 0.250000
#
# Coordination Sequence:
#
# PCOD8145188 Si02
#       7
#     8   8   8   8   8   8   8
#     4  11  21  37  68  92 123 162 227 263 309 368
#     4  11  23  41  63  96 122 171 214 262 313 374
#     4  11  22  39  63  89 131 165 214 252 316 382
#     4  12  22  40  65  95 124 164 215 275 308 366
#     4  11  20  38  64  91 127 167 213 267 311 375
#     4  10  22  38  57  98 130 166 198 263 329 381
#     4  10  22  39  60  93 134 159 208 256 326 376
#
# _framework density 19.510797
#
# number of rings (size 3 to 8) (size 9 to 14) (size 15 to 20)
#    0.000    1.143    5.714    1.714    0.000    0.571 
#    0.000    2.143    0.000    0.000    0.000    0.000 
#    0.000    0.000    0.000    0.000    0.000    0.000 
#
# Total GULP energy -347244.338629 kJ/mol
# GULP energy per Si atom -12401.583522 kJ/mol
# Density = 1.946639 g / cm^3
# Si number density = 19.510797 Si / 1000 Ang^3
#
#
#
# Elastic Constant Matrix: (Units=GPa)
#
#
# Indices 1 2 3 4 5 6 
#
# 1 63.8246 24.6970 16.3567 0.0000 -12.9489 0.0000
# 2 24.6970 93.4760 36.2833 0.0000 -6.7740 0.0000
# 3 16.3567 36.2833 104.9014 0.0000 -19.5072 0.0000
# 4 0.0000 0.0000 0.0000 29.8876 0.0000 -3.5056
# 5 -12.9489 -6.7740 -19.5072 0.0000 28.4923 0.0000
# 6 0.0000 0.0000 0.0000 -3.5056 0.0000 31.1777
#
#
#
# Elastic Compliance Matrix: (Units=1/GPa)
#
#
# Indices 1 2 3 4 5 6 
#
# 1 0.018921 -0.004449 -0.000010 0.000000 0.007534 0.000000
# 2 -0.004449 0.013403 -0.004269 0.000000 -0.001758 0.000000
# 3 -0.000010 -0.004269 0.012400 0.000000 0.007470 0.000000
# 4 0.000000 0.000000 0.000000 0.033906 0.000000 0.003812
# 5 0.007534 -0.001758 0.007470 0.000000 0.043218 0.000000
# 6 0.000000 0.000000 0.000000 0.003812 0.000000 0.032503
#
#
# Mechanical properties :
#
#
# Convention : Reuss Voigt Hill
#
# Bulk Modulus (GPa) = 36.67445 46.31954 41.49700
# Shear Modulus (GPa) = 27.64021 30.23585 28.93803
#
# Velocity S-wave (km/s) = 3.76794 3.94089 3.85539
# Velocity P-wave (km/s) = 6.14554 6.67080 6.41355
#
# Compressibility (1/GPa) = 0.02726694
#
# Stress axis : x y z
#
# Youngs Moduli (GPa) = 52.85230 74.60994 80.64469
#
# Poissons Ratio (x) = 0.33194 0.00084
# Poissons Ratio (y) = 0.23514 0.34428
# Poissons Ratio (z) = 0.00055 0.31852
#
# Static dielectric constant tensor:
#      x y z
#    x 3.579540 0.000000 -0.220160 
#    y 0.000000 3.435950 0.000000 
#    z -0.220160 0.000000 3.804460 
# 
# 
# High freq. dielectric constant tensor:
#      x y z
#    x 1.761310 0.000000 -0.022370 
#    y 0.000000 1.743400 0.000000 
#    z -0.022370 0.000000 1.774790 
# 
# From -- ./inp_files/49016.got.cif
#   From: 2010.06.25/outbox.cif.g09.slc.cpg/sg15_25_cif.got.tgz:49016.got - 2010.06.28 07:06:18.
