data_PCOD8145990
_publ_section_title
;
Structure prediction by ZEFSAII (Michael W. Deem and Ramdas Pophale) SiO2 
 PCOD8145990
Probable space group: C 2/C
;
_chemical_formula_sum "Si O2"
_cell_formula_units_Z 40
_cell_length_a 15.072586
_cell_length_b 12.108292
_cell_length_c 10.593021
_cell_angle_alpha 90.000000
_cell_angle_beta 60.652087
_cell_angle_gamma 90.000000
_cell_volume 1685.145753
_symmetry_space_group_name_H-M "C 2/C"
_symmetry_group_IT_number 15
_symmetry_cell_setting 'monoclinic'
loop_
_space_group_symop_operation_xyz
x,y,z
-x,y,1/2-z
-x,-y,-z
x,-y,1/2+z
1/2+x,1/2+y,z
1/2-x,1/2+y,1/2-z
1/2-x,1/2-y,-z
1/2+x,1/2-y,1/2+z
loop_
_atom_site_type_symbol
_atom_site_label
_atom_site_fract_x
_atom_site_fract_y
_atom_site_fract_z
Si Si1 0.278594 0.248127 0.654324
Si Si2 0.617449 0.472021 0.931478
Si Si3 0.565674 0.121476 0.819483
Si Si4 0.769345 0.976879 0.403788
Si Si5 0.608787 0.105163 0.379700
O O1 0.360134 0.342469 0.562512
O O2 0.328901 0.187349 0.740792
O O3 0.262240 0.154003 0.556087
O O4 0.169105 0.295618 0.771879
O O5 0.669829 0.517909 0.770017
O O6 0.500000 0.500000 0.000000
O O7 0.665008 0.525577 0.025931
O O8 0.500000 0.166955 0.750000
O O9 0.592936 0.991453 0.786647
O O10 0.500042 0.144441 0.993089
O O11 0.669948 0.053781 0.457850
#
# Coordination Sequence:
#
# PCOD8145990 Si02
#       5
#     8   8   8   8   8
#     4  10  23  41  65  97 126 173 219 264 327 388
#     4  11  24  43  65  99 132 171 215 273 324 388
#     4  10  22  40  64  94 128 172 217 269 324 385
#     4  10  23  43  69  90 133 175 213 268 327 383
#     4   9  22  41  62  95 129 169 218 271 319 391
#
# _framework density 23.736819000000001
#
# number of rings (size 3 to 8) (size 9 to 14) (size 15 to 20)
#    0.000    2.000    0.000    1.200   11.200    4.000 
#    3.600    0.000    0.000    0.000    0.000    0.000 
#    0.000    0.000    0.000    0.000    0.000    0.000 
#
# Total GULP energy -247907.994231 kJ/mol
# GULP energy per Si atom -12395.399712 kJ/mol
# Density = 2.368279 g / cm^3
# Si number density = 23.736819 Si / 1000 Ang^3
#
#
#
# Elastic Constant Matrix: (Units=GPa)
#
#
# Indices 1 2 3 4 5 6 
#
# 1 118.0281 9.8674 25.4102 0.0000 6.5891 0.0000
# 2 9.8674 71.8317 13.8176 0.0000 -15.8218 0.0000
# 3 25.4102 13.8176 62.1188 0.0000 5.8731 0.0000
# 4 0.0000 0.0000 0.0000 23.5974 0.0000 -14.8682
# 5 6.5891 -15.8218 5.8731 0.0000 39.6858 0.0000
# 6 0.0000 0.0000 0.0000 -14.8682 0.0000 35.5859
#
#
#
# Elastic Compliance Matrix: (Units=1/GPa)
#
#
# Indices 1 2 3 4 5 6 
#
# 1 0.009382 -0.000926 -0.003498 0.000000 -0.001409 0.000000
# 2 -0.000926 0.016415 -0.003961 0.000000 0.007284 0.000000
# 3 -0.003498 -0.003961 0.018767 0.000000 -0.003776 0.000000
# 4 0.000000 0.000000 0.000000 0.057520 0.000000 0.024033
# 5 -0.001409 0.007284 -0.003776 0.000000 0.028895 0.000000
# 6 0.000000 0.000000 0.000000 0.024033 0.000000 0.038142
#
#
# Mechanical properties :
#
#
# Convention : Reuss Voigt Hill
#
# Bulk Modulus (GPa) = 35.98077 38.90766 37.44421
# Shear Modulus (GPa) = 25.62039 33.29939 29.45989
#
# Velocity S-wave (km/s) = 3.28891 3.74954 3.52675
# Velocity P-wave (km/s) = 5.44185 5.93062 5.69148
#
# Compressibility (1/GPa) = 0.02779262
#
# Stress axis : x y z
#
# Youngs Moduli (GPa) = 106.58892 60.91952 53.28399
#
# Poissons Ratio (x) = 0.05642 0.18641
# Poissons Ratio (y) = 0.09872 0.21107
# Poissons Ratio (z) = 0.37290 0.24131
#
# Static dielectric constant tensor:
#      x y z
#    x 4.570250 0.000000 -0.107350 
#    y 0.000000 4.221160 0.000000 
#    z -0.107350 0.000000 3.917290 
# 
# 
# High freq. dielectric constant tensor:
#      x y z
#    x 1.958850 0.000000 -0.000120 
#    y 0.000000 1.931840 0.000000 
#    z -0.000120 0.000000 1.921230 
# 
# From -- ./inp_files/94866.got.cif
#   From: 2010.06.25/outbox.cif.g09.slc.cpg/sg15_48_cif.got.tgz:94866.got - 2010.06.28 07:06:18.
