data_PCOD8145659
_publ_section_title
;
Structure prediction by ZEFSAII (Michael W. Deem and Ramdas Pophale) SiO2 
 PCOD8145659
Probable space group: C 2/C
;
_chemical_formula_sum "Si O2"
_cell_formula_units_Z 48
_cell_length_a 17.494129
_cell_length_b 9.854126
_cell_length_c 19.066886
_cell_angle_alpha 90.000000
_cell_angle_beta 135.401851
_cell_angle_gamma 90.000000
_cell_volume 2307.850999
_symmetry_space_group_name_H-M "C 2/C"
_symmetry_group_IT_number 15
_symmetry_cell_setting 'monoclinic'
loop_
_space_group_symop_operation_xyz
x,y,z
-x,y,1/2-z
-x,-y,-z
x,-y,1/2+z
1/2+x,1/2+y,z
1/2-x,1/2+y,1/2-z
1/2-x,1/2-y,-z
1/2+x,1/2-y,1/2+z
loop_
_atom_site_type_symbol
_atom_site_label
_atom_site_fract_x
_atom_site_fract_y
_atom_site_fract_z
Si Si1 0.888821 0.163668 0.644451
Si Si2 0.716685 0.167694 0.656265
Si Si3 0.924714 0.374713 0.555202
Si Si4 0.838996 0.666404 0.479355
Si Si5 0.666423 0.113772 0.181285
Si Si6 0.401984 0.642236 0.134376
O O1 0.800588 0.147397 0.647483
O O2 0.861380 0.274281 0.566948
O O3 0.000000 0.216849 0.750000
O O4 0.906368 0.017316 0.620027
O O5 0.599463 0.176032 0.540844
O O6 0.742447 0.299411 0.718749
O O7 0.716965 0.036479 0.707199
O O8 0.872540 0.521729 0.533511
O O9 0.054390 0.382545 0.652340
O O10 0.863434 0.677282 0.413177
O O11 0.710218 0.689804 0.403477
O O12 0.910872 0.779949 0.565916
O O13 0.500000 0.684996 0.250000
#
# Coordination Sequence:
#
# PCOD8145659 Si02
#       6
#     8   8   8   8   8   8
#     4  11  21  42  65  91 126 161 212 260 311 367
#     4  11  23  43  64  91 127 167 205 260 312 373
#     4  11  23  42  65  90 126 164 210 258 312 373
#     4  10  22  41  62  92 125 163 207 256 315 372
#     4  11  24  44  62  92 128 164 208 256 315 377
#     4  10  22  39  64  91 126 161 206 260 312 366
#
# _framework density 20.798570000000002
#
# number of rings (size 3 to 8) (size 9 to 14) (size 15 to 20)
#    0.000    1.333    5.000    2.500    0.000    4.667 
#    3.000    1.667    0.000    0.000    0.000    0.000 
#    0.000    0.000    0.000    0.000    0.000    0.000 
#
# Total GULP energy -297574.538098 kJ/mol
# GULP energy per Si atom -12398.939087 kJ/mol
# Density = 2.075123 g / cm^3
# Si number density = 20.798570 Si / 1000 Ang^3
#
#
#
# Elastic Constant Matrix: (Units=GPa)
#
#
# Indices 1 2 3 4 5 6 
#
# 1 68.8807 28.9918 12.6522 0.0000 6.6623 0.0000
# 2 28.9918 113.9232 60.5267 0.0000 -9.8640 0.0000
# 3 12.6522 60.5267 78.4501 0.0000 1.0543 0.0000
# 4 0.0000 0.0000 0.0000 41.2577 0.0000 -11.0195
# 5 6.6623 -9.8640 1.0543 0.0000 24.5179 0.0000
# 6 0.0000 0.0000 0.0000 -11.0195 0.0000 33.8962
#
#
#
# Elastic Compliance Matrix: (Units=1/GPa)
#
#
# Indices 1 2 3 4 5 6 
#
# 1 0.017439 -0.006148 0.002029 0.000000 -0.007299 0.000000
# 2 -0.006148 0.018149 -0.013139 0.000000 0.009537 0.000000
# 3 0.002029 -0.013139 0.022648 0.000000 -0.006811 0.000000
# 4 0.000000 0.000000 0.000000 0.026543 0.000000 0.008629
# 5 -0.007299 0.009537 -0.006811 0.000000 0.046900 0.000000
# 6 0.000000 0.000000 0.000000 0.008629 0.000000 0.032307
#
#
# Mechanical properties :
#
#
# Convention : Reuss Voigt Hill
#
# Bulk Modulus (GPa) = 42.15837 51.73281 46.94559
# Shear Modulus (GPa) = 24.22379 30.53991 27.38185
#
# Velocity S-wave (km/s) = 3.41645 3.83608 3.63233
# Velocity P-wave (km/s) = 5.98972 6.67443 6.34132
#
# Compressibility (1/GPa) = 0.02372008
#
# Stress axis : x y z
#
# Youngs Moduli (GPa) = 57.34323 55.09980 44.15306
#
# Poissons Ratio (x) = 0.33875 -0.08958
# Poissons Ratio (y) = 0.35254 0.58013
# Poissons Ratio (z) = -0.11634 0.72396
#
# Static dielectric constant tensor:
#      x y z
#    x 3.663440 0.000000 0.168030 
#    y 0.000000 3.732740 0.000000 
#    z 0.168030 0.000000 4.055240 
# 
# 
# High freq. dielectric constant tensor:
#      x y z
#    x 1.807100 0.000000 0.011290 
#    y 0.000000 1.809080 0.000000 
#    z 0.011290 0.000000 1.821580 
# 
# From -- ./inp_files/252004.got.cif
#   From: 2010.06.25/outbox.cif.g09.slc.cpg/sg15_127_cif.got.tgz:252004.got - 2010.06.28 07:06:18.
