data_PCOD8145245
_publ_section_title
;
Structure prediction by ZEFSAII (Michael W. Deem and Ramdas Pophale) SiO2 
 PCOD8145245
Probable space group: C 2/C
;
_chemical_formula_sum "Si O2"
_cell_formula_units_Z 40
_cell_length_a 20.847257
_cell_length_b 13.368579
_cell_length_c 12.563617
_cell_angle_alpha 90.000000
_cell_angle_beta 33.966845
_cell_angle_gamma 90.000000
_cell_volume 1956.310073
_symmetry_space_group_name_H-M "C 2/C"
_symmetry_group_IT_number 15
_symmetry_cell_setting 'monoclinic'
loop_
_space_group_symop_operation_xyz
x,y,z
-x,y,1/2-z
-x,-y,-z
x,-y,1/2+z
1/2+x,1/2+y,z
1/2-x,1/2+y,1/2-z
1/2-x,1/2-y,-z
1/2+x,1/2-y,1/2+z
loop_
_atom_site_type_symbol
_atom_site_label
_atom_site_fract_x
_atom_site_fract_y
_atom_site_fract_z
Si Si1 0.780776 0.654897 0.270656
Si Si2 0.807474 0.825960 0.840581
Si Si3 0.950609 0.655434 0.585416
Si Si4 0.291416 0.002275 0.914849
Si Si5 0.623616 0.833376 0.542662
O O1 0.766209 0.657570 0.164858
O O2 0.736697 0.552259 0.386854
O O3 0.719061 0.746404 0.415261
O O4 0.914763 0.650048 0.113477
O O5 0.927716 0.773080 0.646000
O O6 0.750000 0.750000 0.000000
O O7 0.814089 0.933332 0.889472
O O8 0.898813 0.576596 0.741443
O O9 0.887830 0.626880 0.561874
O O10 0.336636 0.923644 0.938378
O O11 0.500000 0.790283 0.750000
#
# Coordination Sequence:
#
# PCOD8145245 Si02
#       5
#     8   8   8   8   8
#     4  11  22  37  62  85 116 154 194 234 291 339
#     4   9  22  39  58  87 123 146 187 241 289 338
#     4  10  22  38  60  88 117 151 193 238 285 348
#     4  11  21  36  63  88 113 152 197 236 285 341
#     4  11  23  37  59  85 120 150 195 242 286 335
#
# _framework density 20.446657999999999
#
# number of rings (size 3 to 8) (size 9 to 14) (size 15 to 20)
#    0.000    1.600    2.000    2.400    2.800    2.400 
#    0.000    1.000   13.200    0.000    0.000    0.000 
#    0.000    0.000    0.000    0.000    0.000    0.000 
#
# Total GULP energy -247834.948153 kJ/mol
# GULP energy per Si atom -12391.747408 kJ/mol
# Density = 2.040012 g / cm^3
# Si number density = 20.446658 Si / 1000 Ang^3
#
#
#
# Elastic Constant Matrix: (Units=GPa)
#
#
# Indices 1 2 3 4 5 6 
#
# 1 78.8540 62.0356 28.2466 0.0000 27.7172 0.0000
# 2 62.0356 149.5758 65.7298 0.0000 12.0073 0.0000
# 3 28.2466 65.7298 72.7764 0.0000 23.6681 0.0000
# 4 0.0000 0.0000 0.0000 44.8969 0.0000 12.6622
# 5 27.7172 12.0073 23.6681 0.0000 26.6829 0.0000
# 6 0.0000 0.0000 0.0000 12.6622 0.0000 27.8967
#
#
#
# Elastic Compliance Matrix: (Units=1/GPa)
#
#
# Indices 1 2 3 4 5 6 
#
# 1 0.039316 -0.020979 0.019535 0.000000 -0.048727 0.000000
# 2 -0.020979 0.022878 -0.022852 0.000000 0.031767 0.000000
# 3 0.019535 -0.022852 0.042237 0.000000 -0.047474 0.000000
# 4 0.000000 0.000000 0.000000 0.025543 0.000000 -0.011594
# 5 -0.048727 0.031767 -0.047474 0.000000 0.115908 0.000000
# 6 0.000000 0.000000 0.000000 -0.011594 0.000000 0.041109
#
#
# Mechanical properties :
#
#
# Convention : Reuss Voigt Hill
#
# Bulk Modulus (GPa) = 17.90831 68.13670 43.02250
# Shear Modulus (GPa) = 14.11646 29.57491 21.84569
#
# Velocity S-wave (km/s) = 2.63041 3.80734 3.27222
# Velocity P-wave (km/s) = 4.24299 7.26115 5.94673
#
# Compressibility (1/GPa) = 0.05584001
#
# Stress axis : x y z
#
# Youngs Moduli (GPa) = 25.43487 43.70939 23.67590
#
# Poissons Ratio (x) = 0.91698 -0.46251
# Poissons Ratio (y) = 0.53360 0.54104
# Poissons Ratio (z) = -0.49687 0.99884
#
# Static dielectric constant tensor:
#      x y z
#    x 3.568580 0.000000 0.346330 
#    y 0.000000 4.253390 0.000000 
#    z 0.346330 0.000000 4.163510 
# 
# 
# High freq. dielectric constant tensor:
#      x y z
#    x 1.784230 0.000000 0.035940 
#    y 0.000000 1.807240 0.000000 
#    z 0.035940 0.000000 1.805440 
# 
# From -- ./inp_files/111368.got.cif
#   From: 2010.06.25/outbox.cif.g09.slc.cpg/sg15_56_cif.got.tgz:111368.got - 2010.06.28 07:06:18.
