data_PCOD8145316
_publ_section_title
;
Structure prediction by ZEFSAII (Michael W. Deem and Ramdas Pophale) SiO2 
 PCOD8145316
Probable space group: C 2/C
;
_chemical_formula_sum "Si O2"
_cell_formula_units_Z 60
_cell_length_a 14.462472
_cell_length_b 10.546497
_cell_length_c 18.397553
_cell_angle_alpha 90.000000
_cell_angle_beta 103.898462
_cell_angle_gamma 90.000000
_cell_volume 2723.993806
_symmetry_space_group_name_H-M "C 2/C"
_symmetry_group_IT_number 15
_symmetry_cell_setting 'monoclinic'
loop_
_space_group_symop_operation_xyz
x,y,z
-x,y,1/2-z
-x,-y,-z
x,-y,1/2+z
1/2+x,1/2+y,z
1/2-x,1/2+y,1/2-z
1/2-x,1/2-y,-z
1/2+x,1/2-y,1/2+z
loop_
_atom_site_type_symbol
_atom_site_label
_atom_site_fract_x
_atom_site_fract_y
_atom_site_fract_z
Si Si1 0.436149 0.518837 0.601984
Si Si2 0.559030 0.889645 0.976284
Si Si3 0.000000 0.875729 0.750000
Si Si4 0.258307 0.915261 0.399629
Si Si5 0.043865 0.410939 0.687417
Si Si6 0.284467 0.799743 0.856332
Si Si7 0.929438 0.836206 0.470681
Si Si8 0.857272 0.320336 0.278828
O O1 0.443340 0.464572 0.684296
O O2 0.347547 0.620394 0.590792
O O3 0.406812 0.411116 0.539298
O O4 0.534167 0.579729 0.591199
O O5 0.515342 0.761412 0.001365
O O6 0.541615 0.907680 0.887274
O O7 0.669329 0.901388 0.019151
O O8 0.500000 0.000000 0.000000
O O9 0.066980 0.793649 0.708728
O O10 0.293645 0.824285 0.340432
O O11 0.247171 0.061720 0.371757
O O12 0.128178 0.318006 0.681982
O O13 0.083706 0.550120 0.714301
O O14 0.000000 0.348314 0.750000
O O15 0.328081 0.727970 0.934028
O O16 0.207947 0.706815 0.804306
#
# Coordination Sequence:
#
# PCOD8145316 Si02
#       8
#     8   8   4   8   8   8   8   8
#     4  11  26  42  64  98 135 173 213 263 343 396
#     4  11  20  43  70  88 128 176 218 276 322 377
#     4  12  24  42  66  90 130 184 202 268 332 400
#     4  11  23  42  66  99 126 168 230 269 321 390
#     4  10  22  38  62  96 124 163 219 267 325 376
#     4  10  22  40  63  92 128 169 212 270 317 382
#     4  10  24  45  64  96 132 173 217 268 331 398
#     4  11  22  38  63  95 127 166 220 267 320 383
#
# _framework density 22.026482999999999
#
# number of rings (size 3 to 8) (size 9 to 14) (size 15 to 20)
#    0.000    1.333    6.000    0.800    1.867    4.267 
#    1.200    1.333    0.000    0.000    0.000    0.000 
#    0.000    0.000    0.000    0.000    0.000    0.000 
#
# Total GULP energy -371799.025625 kJ/mol
# GULP energy per Si atom -12393.300854 kJ/mol
# Density = 2.197635 g / cm^3
# Si number density = 22.026483 Si / 1000 Ang^3
#
#
#
# Elastic Constant Matrix: (Units=GPa)
#
#
# Indices 1 2 3 4 5 6 
#
# 1 82.7163 1.8099 47.1734 0.0000 13.9081 0.0000
# 2 1.8099 59.9426 20.1607 0.0000 7.5155 0.0000
# 3 47.1734 20.1607 107.9626 0.0000 3.3966 0.0000
# 4 0.0000 0.0000 0.0000 33.5909 0.0000 3.5970
# 5 13.9081 7.5155 3.3966 0.0000 43.5667 0.0000
# 6 0.0000 0.0000 0.0000 3.5970 0.0000 15.5111
#
#
#
# Elastic Compliance Matrix: (Units=1/GPa)
#
#
# Indices 1 2 3 4 5 6 
#
# 1 0.017515 0.002851 -0.008014 0.000000 -0.005459 0.000000
# 2 0.002851 0.018617 -0.004604 0.000000 -0.003763 0.000000
# 3 -0.008014 -0.004604 0.013551 0.000000 0.002296 0.000000
# 4 0.000000 0.000000 0.000000 0.030528 0.000000 -0.007079
# 5 -0.005459 -0.003763 0.002296 0.000000 0.025166 0.000000
# 6 0.000000 0.000000 0.000000 -0.007079 0.000000 0.066112
#
#
# Mechanical properties :
#
#
# Convention : Reuss Voigt Hill
#
# Bulk Modulus (GPa) = 33.16742 43.21216 38.18979
# Shear Modulus (GPa) = 24.86669 30.63225 27.74947
#
# Velocity S-wave (km/s) = 3.36362 3.73326 3.55325
# Velocity P-wave (km/s) = 5.49326 6.18416 5.84892
#
# Compressibility (1/GPa) = 0.03015007
#
# Stress axis : x y z
#
# Youngs Moduli (GPa) = 57.09318 53.71532 73.79267
#
# Poissons Ratio (x) = -0.15313 0.59136
# Poissons Ratio (y) = -0.16276 0.33972
# Poissons Ratio (z) = 0.45753 0.24729
#
# Static dielectric constant tensor:
#      x y z
#    x 3.985950 0.000000 -0.035060 
#    y 0.000000 3.858400 0.000000 
#    z -0.035060 0.000000 3.772470 
# 
# 
# High freq. dielectric constant tensor:
#      x y z
#    x 1.871200 0.000000 0.004360 
#    y 0.000000 1.859350 0.000000 
#    z 0.004360 0.000000 1.866610 
# 
# From -- ./inp_files/204073.got.cif
#   From: 2010.06.25/outbox.cif.g09.slc.cpg/sg15_103_cif.got.tgz:204073.got - 2010.06.28 07:06:18.
