data_PCOD8145481
_publ_section_title
;
Structure prediction by ZEFSAII (Michael W. Deem and Ramdas Pophale) SiO2 
 PCOD8145481
Probable space group: C 2/C
;
_chemical_formula_sum "Si O2"
_cell_formula_units_Z 36
_cell_length_a 11.226558
_cell_length_b 33.368354
_cell_length_c 5.158518
_cell_angle_alpha 90.000000
_cell_angle_beta 114.541595
_cell_angle_gamma 90.000000
_cell_volume 1757.864703
_symmetry_space_group_name_H-M "C 2/C"
_symmetry_group_IT_number 15
_symmetry_cell_setting 'monoclinic'
loop_
_space_group_symop_operation_xyz
x,y,z
-x,y,1/2-z
-x,-y,-z
x,-y,1/2+z
1/2+x,1/2+y,z
1/2-x,1/2+y,1/2-z
1/2-x,1/2-y,-z
1/2+x,1/2-y,1/2+z
loop_
_atom_site_type_symbol
_atom_site_label
_atom_site_fract_x
_atom_site_fract_y
_atom_site_fract_z
Si Si1 0.150286 0.887590 0.310613
Si Si2 0.264939 0.343282 0.634374
Si Si3 0.153498 0.020733 0.851916
Si Si4 0.332006 0.260053 0.825446
Si Si5 0.500000 0.199823 0.750000
O O1 0.240991 0.874092 0.632532
O O2 0.184499 0.933928 0.297575
O O3 0.000000 0.881498 0.250000
O O4 0.178877 0.863240 0.074300
O O5 0.361616 0.307523 0.824235
O O6 0.117583 0.328001 0.453627
O O7 0.000000 0.013362 0.750000
O O8 0.215287 0.992366 0.683458
O O9 0.250000 0.250000 0.500000
O O10 0.458146 0.230750 0.943170
O O11 0.250000 0.250000 0.000000
#
# Coordination Sequence:
#
# PCOD8145481 Si02
#       5
#     8   8   8   8   4
#     4  11  23  37  59  91 127 153 191 244 306 359
#     4  11  23  40  59  87 116 160 199 253 299 346
#     4   9  17  32  55  84 117 154 188 229 289 363
#     4  10  22  39  57  81 109 152 201 250 294 336
#     4  10  24  42  62  84 116 158 214 248 290 370
#
# _framework density 20.479392000000001
#
# number of rings (size 3 to 8) (size 9 to 14) (size 15 to 20)
#    0.000    1.778    0.000    4.667    3.111   11.556 
#    0.000    0.000    0.000    0.000    0.000   15.556 
#    0.000    0.000    0.000    0.000    0.000    0.000 
#
# Total GULP energy -223054.019299 kJ/mol
# GULP energy per Si atom -12391.889961 kJ/mol
# Density = 2.043278 g / cm^3
# Si number density = 20.479392 Si / 1000 Ang^3
#
#
#
# Elastic Constant Matrix: (Units=GPa)
#
#
# Indices 1 2 3 4 5 6 
#
# 1 86.7750 67.5561 44.8742 0.0000 -25.1451 0.0000
# 2 67.5561 137.3106 62.6444 0.0000 -22.9983 0.0000
# 3 44.8742 62.6444 122.3813 0.0000 -40.7977 0.0000
# 4 0.0000 0.0000 0.0000 34.8898 0.0000 -5.4719
# 5 -25.1451 -22.9983 -40.7977 0.0000 44.8041 0.0000
# 6 0.0000 0.0000 0.0000 -5.4719 0.0000 26.7571
#
#
#
# Elastic Compliance Matrix: (Units=1/GPa)
#
#
# Indices 1 2 3 4 5 6 
#
# 1 0.020550 -0.008583 -0.001100 0.000000 0.006126 0.000000
# 2 -0.008583 0.013099 -0.004196 0.000000 -0.001914 0.000000
# 3 -0.001100 -0.004196 0.014069 0.000000 0.010040 0.000000
# 4 0.000000 0.000000 0.000000 0.029611 0.000000 0.006056
# 5 0.006126 -0.001914 0.010040 0.000000 0.033918 0.000000
# 6 0.000000 0.000000 0.000000 0.006056 0.000000 0.038612
#
#
# Mechanical properties :
#
#
# Convention : Reuss Voigt Hill
#
# Bulk Modulus (GPa) = 50.09615 77.40181 63.74898
# Shear Modulus (GPa) = 27.13421 32.71635 29.92528
#
# Velocity S-wave (km/s) = 3.64394 4.00124 3.82676
# Velocity P-wave (km/s) = 6.49763 7.69569 7.12190
#
# Compressibility (1/GPa) = 0.01996161
#
# Stress axis : x y z
#
# Youngs Moduli (GPa) = 48.66281 76.34060 71.07646
#
# Poissons Ratio (x) = 0.65520 0.07815
# Poissons Ratio (y) = 0.41765 0.29825
# Poissons Ratio (z) = 0.05351 0.32034
#
# Static dielectric constant tensor:
#      x y z
#    x 3.732910 0.000000 -0.116260 
#    y 0.000000 4.231450 0.000000 
#    z -0.116260 0.000000 3.402460 
# 
# 
# High freq. dielectric constant tensor:
#      x y z
#    x 1.768380 0.000000 -0.028400 
#    y 0.000000 1.811950 0.000000 
#    z -0.028400 0.000000 1.809720 
# 
# From -- ./inp_files/5622.got.cif
#   From: 2010.06.25/outbox.cif.g09.slc.cpg/sg15_3_cif.got.tgz:5622.got - 2010.06.28 07:06:18.
