data_PCOD8145443
_publ_section_title
;
Structure prediction by ZEFSAII (Michael W. Deem and Ramdas Pophale) SiO2 
 PCOD8145443
Probable space group: C 2/C
;
_chemical_formula_sum "Si O2"
_cell_formula_units_Z 60
_cell_length_a 11.948738
_cell_length_b 18.895270
_cell_length_c 20.113603
_cell_angle_alpha 90.000000
_cell_angle_beta 40.816172
_cell_angle_gamma 90.000000
_cell_volume 2968.245450
_symmetry_space_group_name_H-M "C 2/C"
_symmetry_group_IT_number 15
_symmetry_cell_setting 'monoclinic'
loop_
_space_group_symop_operation_xyz
x,y,z
-x,y,1/2-z
-x,-y,-z
x,-y,1/2+z
1/2+x,1/2+y,z
1/2-x,1/2+y,1/2-z
1/2-x,1/2-y,-z
1/2+x,1/2-y,1/2+z
loop_
_atom_site_type_symbol
_atom_site_label
_atom_site_fract_x
_atom_site_fract_y
_atom_site_fract_z
Si Si1 0.620029 0.900687 0.256619
Si Si2 0.827604 0.419350 0.953623
Si Si3 0.443966 0.048628 0.964372
Si Si4 0.136553 0.193022 0.386223
Si Si5 0.136046 0.235813 0.241846
Si Si6 0.500000 0.127859 0.250000
Si Si7 0.022652 0.321093 0.969695
Si Si8 0.013781 0.077361 0.963706
O O1 0.500000 0.928147 0.250000
O O2 0.584509 0.937025 0.343769
O O3 0.597916 0.817144 0.274014
O O4 0.813241 0.919760 0.154212
O O5 0.959837 0.421349 0.831774
O O6 0.802326 0.499660 0.992307
O O7 0.900842 0.363031 0.973354
O O8 0.637877 0.398119 0.017516
O O9 0.384076 0.123555 0.021644
O O10 0.500000 0.000000 0.000000
O O11 0.105924 0.192046 0.321755
O O12 0.334337 0.176390 0.312634
O O13 0.100359 0.269169 0.434578
O O14 0.998381 0.134714 0.472024
O O15 0.000000 0.206203 0.250000
O O16 0.331105 0.224784 0.130936
O O17 0.000000 0.000000 0.000000
#
# Coordination Sequence:
#
# PCOD8145443 Si02
#       8
#     8   8   8   8   8   4   8   8
#     4  11  23  40  65  94 131 171 215 262 324 387
#     4  10  23  41  65  96 126 170 213 262 328 381
#     4  10  23  41  64  91 127 173 209 262 324 385
#     4  11  23  42  64  99 129 169 218 269 332 382
#     4  11  24  40  64  97 129 172 217 269 324 392
#     4  10  22  38  68  92 130 168 210 272 318 392
#     4  11  22  44  65  92 133 165 215 268 330 384
#     4  11  25  40  65  98 129 167 215 272 314 390
#
# _framework density 20.213961000000001
#
# number of rings (size 3 to 8) (size 9 to 14) (size 15 to 20)
#    0.000    1.333    4.000    0.800    4.667    5.867 
#    0.000    2.000    0.000    0.000    0.000    0.000 
#    0.000    0.000    0.000    0.000    0.000    0.000 
#
# Total GULP energy -371822.253218 kJ/mol
# GULP energy per Si atom -12394.075107 kJ/mol
# Density = 2.016795 g / cm^3
# Si number density = 20.213961 Si / 1000 Ang^3
#
#
#
# Elastic Constant Matrix: (Units=GPa)
#
#
# Indices 1 2 3 4 5 6 
#
# 1 107.4739 38.2991 56.2527 -0.0007 13.1696 -0.0005
# 2 38.2991 88.9883 23.7871 -0.0021 14.5212 0.0012
# 3 56.2527 23.7871 113.6606 0.0021 12.7174 0.0010
# 4 -0.0007 -0.0021 0.0021 31.8513 -0.0012 9.7265
# 5 13.1696 14.5212 12.7174 -0.0012 37.4454 0.0000
# 6 -0.0005 0.0012 0.0010 9.7265 0.0000 27.0860
#
#
#
# Elastic Compliance Matrix: (Units=1/GPa)
#
#
# Indices 1 2 3 4 5 6 
#
# 1 0.014090 -0.004268 -0.005937 0.000000 -0.001284 0.000001
# 2 -0.004268 0.013776 -0.000355 0.000001 -0.003721 -0.000001
# 3 -0.005937 -0.000355 0.012018 -0.000001 -0.001856 0.000000
# 4 0.000000 0.000001 -0.000001 0.035263 0.000001 -0.012663
# 5 -0.001284 -0.003721 -0.001856 0.000001 0.029231 0.000000
# 6 0.000001 -0.000001 0.000000 -0.012663 0.000000 0.041467
#
#
# Mechanical properties :
#
#
# Convention : Reuss Voigt Hill
#
# Bulk Modulus (GPa) = 53.28610 60.75562 57.02086
# Shear Modulus (GPa) = 28.86547 32.06215 30.46381
#
# Velocity S-wave (km/s) = 3.78298 3.98696 3.88631
# Velocity P-wave (km/s) = 6.74534 7.16352 6.95757
#
# Compressibility (1/GPa) = 0.01876662
#
# Stress axis : x y z
#
# Youngs Moduli (GPa) = 70.97231 72.58927 83.20756
#
# Poissons Ratio (x) = 0.30979 0.49397
# Poissons Ratio (y) = 0.30288 0.02951
# Poissons Ratio (z) = 0.42133 0.02574
#
# Static dielectric constant tensor:
#      x y z
#    x 3.793500 0.000020 0.291340 
#    y 0.000020 3.759020 -0.000010 
#    z 0.291340 -0.000010 3.677380 
# 
# 
# High freq. dielectric constant tensor:
#      x y z
#    x 1.790470 0.000000 0.018020 
#    y 0.000000 1.802500 0.000000 
#    z 0.018020 0.000000 1.789060 
# 
# From -- ./inp_files/239960.got.cif
#   From: 2010.06.25/outbox.cif.g09.slc.cpg/sg15_120_cif.got.tgz:239960.got - 2010.06.28 07:06:18.
