data_PCOD8145880
_publ_section_title
;
Structure prediction by ZEFSAII (Michael W. Deem and Ramdas Pophale) SiO2 
 PCOD8145880
Probable space group: C 2/C
;
_chemical_formula_sum "Si O2"
_cell_formula_units_Z 36
_cell_length_a 13.033290
_cell_length_b 8.256037
_cell_length_c 18.248866
_cell_angle_alpha 90.000000
_cell_angle_beta 111.964306
_cell_angle_gamma 90.000000
_cell_volume 1821.111956
_symmetry_space_group_name_H-M "C 2/C"
_symmetry_group_IT_number 15
_symmetry_cell_setting 'monoclinic'
loop_
_space_group_symop_operation_xyz
x,y,z
-x,y,1/2-z
-x,-y,-z
x,-y,1/2+z
1/2+x,1/2+y,z
1/2-x,1/2+y,1/2-z
1/2-x,1/2-y,-z
1/2+x,1/2-y,1/2+z
loop_
_atom_site_type_symbol
_atom_site_label
_atom_site_fract_x
_atom_site_fract_y
_atom_site_fract_z
Si Si1 0.086402 0.469388 0.130610
Si Si2 0.841101 0.941690 0.998632
Si Si3 0.500000 0.864576 0.750000
Si Si4 0.448532 0.241421 0.487638
Si Si5 0.285782 0.712009 0.630595
O O1 0.046446 0.516873 0.200303
O O2 0.108234 0.630145 0.088751
O O3 0.199701 0.364705 0.166119
O O4 0.990046 0.364268 0.067124
O O5 0.757820 0.883146 0.912732
O O6 0.858517 0.132353 0.993237
O O7 0.789634 0.915729 0.064896
O O8 0.952772 0.837588 0.025095
O O9 0.403750 0.742825 0.698646
#
# Coordination Sequence:
#
# PCOD8145880 Si02
#       5
#     8   8   4   8   8
#     4  10  22  40  62  90 121 162 205 250 317 366
#     4   9  18  38  67  91 114 156 208 261 303 366
#     4  12  24  44  58  86 142 166 188 276 300 360
#     4   9  18  38  67  91 116 153 210 262 301 367
#     4  10  22  40  62  88 122 165 204 248 321 362
#
# _framework density 19.768142999999998
#
# number of rings (size 3 to 8) (size 9 to 14) (size 15 to 20)
#    0.000    2.222    2.222    0.000    3.111    2.667 
#    8.000    0.000    0.000    0.000    0.000    0.000 
#    0.000    0.000    0.000    0.000    0.000    0.000 
#
# Total GULP energy -223235.883588 kJ/mol
# GULP energy per Si atom -12401.993533 kJ/mol
# Density = 1.972315 g / cm^3
# Si number density = 19.768143 Si / 1000 Ang^3
#
#
#
# Elastic Constant Matrix: (Units=GPa)
#
#
# Indices 1 2 3 4 5 6 
#
# 1 101.3189 48.4093 61.2475 0.0000 -1.7933 0.0000
# 2 48.4093 123.9606 51.4751 0.0000 -4.7943 0.0000
# 3 61.2475 51.4751 97.0807 0.0000 -0.4495 0.0000
# 4 0.0000 0.0000 0.0000 14.1270 0.0000 2.3325
# 5 -1.7933 -4.7943 -0.4495 0.0000 37.6684 0.0000
# 6 0.0000 0.0000 0.0000 2.3325 0.0000 36.8483
#
#
#
# Elastic Compliance Matrix: (Units=1/GPa)
#
#
# Indices 1 2 3 4 5 6 
#
# 1 0.016657 -0.002730 -0.009060 0.000000 0.000337 0.000000
# 2 -0.002730 0.010851 -0.004026 0.000000 0.001203 0.000000
# 3 -0.009060 -0.004026 0.018148 0.000000 -0.000727 0.000000
# 4 0.000000 0.000000 0.000000 0.071534 0.000000 -0.004528
# 5 0.000337 0.001203 -0.000727 0.000000 0.026708 0.000000
# 6 0.000000 0.000000 0.000000 -0.004528 0.000000 0.027425
#
#
# Mechanical properties :
#
#
# Convention : Reuss Voigt Hill
#
# Bulk Modulus (GPa) = 71.30087 71.62489 71.46288
# Shear Modulus (GPa) = 24.08152 28.47729 26.27941
#
# Velocity S-wave (km/s) = 3.49406 3.79960 3.65002
# Velocity P-wave (km/s) = 7.24050 7.45388 7.34796
#
# Compressibility (1/GPa) = 0.01402507
#
# Stress axis : x y z
#
# Youngs Moduli (GPa) = 60.03646 92.15365 55.10341
#
# Poissons Ratio (x) = 0.25155 0.49921
# Poissons Ratio (y) = 0.16388 0.22185
# Poissons Ratio (z) = 0.54390 0.37102
#
# Static dielectric constant tensor:
#      x y z
#    x 3.673760 0.000000 0.001680 
#    y 0.000000 3.623280 0.000000 
#    z 0.001680 0.000000 3.366830 
# 
# 
# High freq. dielectric constant tensor:
#      x y z
#    x 1.778790 0.000000 -0.002140 
#    y 0.000000 1.771270 0.000000 
#    z -0.002140 0.000000 1.749510 
# 
# From -- ./inp_files/150190.got.cif
#   From: 2010.06.25/outbox.cif.g09.slc.cpg/sg15_76_cif.got.tgz:150190.got - 2010.06.28 07:06:18.
