data_PCOD8145811
_publ_section_title
;
Structure prediction by ZEFSAII (Michael W. Deem and Ramdas Pophale) SiO2 
 PCOD8145811
Probable space group: C 2/C
;
_chemical_formula_sum "Si O2"
_cell_formula_units_Z 64
_cell_length_a 9.369590
_cell_length_b 15.264738
_cell_length_c 22.772771
_cell_angle_alpha 90.000000
_cell_angle_beta 91.841157
_cell_angle_gamma 90.000000
_cell_volume 3255.378971
_symmetry_space_group_name_H-M "C 2/C"
_symmetry_group_IT_number 15
_symmetry_cell_setting 'monoclinic'
loop_
_space_group_symop_operation_xyz
x,y,z
-x,y,1/2-z
-x,-y,-z
x,-y,1/2+z
1/2+x,1/2+y,z
1/2-x,1/2+y,1/2-z
1/2-x,1/2-y,-z
1/2+x,1/2-y,1/2+z
loop_
_atom_site_type_symbol
_atom_site_label
_atom_site_fract_x
_atom_site_fract_y
_atom_site_fract_z
Si Si1 0.990491 0.802034 0.560071
Si Si2 0.831674 0.704654 0.743486
Si Si3 0.154058 0.039168 0.726627
Si Si4 0.717746 0.798726 0.634777
Si Si5 0.493932 0.327631 0.427125
Si Si6 0.461779 0.483644 0.892117
Si Si7 0.799565 0.324286 0.372744
Si Si8 0.228379 0.485042 0.655540
O O1 0.832974 0.797363 0.584309
O O2 0.980638 0.784996 0.490750
O O3 0.079364 0.723450 0.589192
O O4 0.070758 0.895385 0.571773
O O5 0.750538 0.622852 0.713385
O O6 0.797152 0.784008 0.698582
O O7 0.774203 0.721688 0.808950
O O8 0.000000 0.687794 0.750000
O O9 0.135908 0.982590 0.667435
O O10 0.237529 0.980545 0.774794
O O11 0.000000 0.070202 0.750000
O O12 0.596653 0.728078 0.620622
O O13 0.644607 0.895858 0.637397
O O14 0.433254 0.427300 0.428516
O O15 0.655455 0.323628 0.407644
O O16 0.626048 0.482964 0.878207
O O17 0.853213 0.424882 0.362076
#
# Coordination Sequence:
#
# PCOD8145811 Si02
#       8
#     8   8   8   8   8   8   8   8
#     4  11  22  38  60  87 118 156 199 238 284 346
#     4  11  21  35  59  87 118 146 186 243 301 342
#     4   9  17  34  59  85 114 150 187 235 290 349
#     4  11  22  37  60  89 117 154 194 239 295 344
#     4  11  22  40  59  85 120 155 198 241 283 343
#     4   9  18  34  59  87 110 149 198 236 279 339
#     4  10  22  40  60  84 115 156 192 242 292 341
#     4   8  19  34  57  82 119 149 186 237 292 343
#
# _framework density 19.659769000000001
#
# number of rings (size 3 to 8) (size 9 to 14) (size 15 to 20)
#    0.000    2.000    2.500    1.875    1.750    0.500 
#    0.000    4.375    0.000    0.000    0.000    0.000 
#    0.000    0.000    0.000    0.000    0.000    0.000 
#
# Total GULP energy -396664.491630 kJ/mol
# GULP energy per Si atom -12395.765363 kJ/mol
# Density = 1.961502 g / cm^3
# Si number density = 19.659769 Si / 1000 Ang^3
#
#
#
# Elastic Constant Matrix: (Units=GPa)
#
#
# Indices 1 2 3 4 5 6 
#
# 1 19.8427 17.7469 3.8587 0.0000 6.2954 0.0000
# 2 17.7469 97.9870 16.9122 0.0000 14.6358 0.0000
# 3 3.8587 16.9122 93.2490 0.0000 2.2994 0.0000
# 4 0.0000 0.0000 0.0000 22.5837 0.0000 6.1469
# 5 6.2954 14.6358 2.2994 0.0000 29.0149 0.0000
# 6 0.0000 0.0000 0.0000 6.1469 0.0000 19.5622
#
#
#
# Elastic Compliance Matrix: (Units=1/GPa)
#
#
# Indices 1 2 3 4 5 6 
#
# 1 0.062012 -0.009874 -0.000567 0.000000 -0.008429 0.000000
# 2 -0.009874 0.012944 -0.001834 0.000000 -0.004241 0.000000
# 3 -0.000567 -0.001834 0.011076 0.000000 0.000171 0.000000
# 4 0.000000 0.000000 0.000000 0.048421 0.000000 -0.015215
# 5 -0.008429 -0.004241 0.000171 0.000000 0.038420 0.000000
# 6 0.000000 0.000000 0.000000 -0.015215 0.000000 0.055900
#
#
# Mechanical properties :
#
#
# Convention : Reuss Voigt Hill
#
# Bulk Modulus (GPa) = 16.26551 32.01272 24.13912
# Shear Modulus (GPa) = 18.26027 25.73622 21.99825
#
# Velocity S-wave (km/s) = 3.05095 3.62205 3.34870
# Velocity P-wave (km/s) = 4.55000 5.81472 5.22080
#
# Compressibility (1/GPa) = 0.06147977
#
# Stress axis : x y z
#
# Youngs Moduli (GPa) = 16.12583 77.25598 90.28573
#
# Poissons Ratio (x) = 0.76286 0.05123
# Poissons Ratio (y) = 0.15923 0.16562
# Poissons Ratio (z) = 0.00915 0.14172
#
# Static dielectric constant tensor:
#      x y z
#    x 3.262040 0.000000 0.014440 
#    y 0.000000 3.956960 0.000000 
#    z 0.014440 0.000000 3.613980 
# 
# 
# High freq. dielectric constant tensor:
#      x y z
#    x 1.734190 0.000000 0.002210 
#    y 0.000000 1.769820 0.000000 
#    z 0.002210 0.000000 1.771150 
# 
# From -- ./inp_files/264696.got.cif
#   From: 2010.06.25/outbox.cif.g09.slc.cpg/sg15_133_cif.got.tgz:264696.got - 2010.06.28 07:06:18.
