data_PCOD8145096
_publ_section_title
;
Structure prediction by ZEFSAII (Michael W. Deem and Ramdas Pophale) SiO2 
 PCOD8145096
Probable space group: C 2/C
;
_chemical_formula_sum "Si O2"
_cell_formula_units_Z 48
_cell_length_a 9.240390
_cell_length_b 11.076452
_cell_length_c 23.970264
_cell_angle_alpha 90.000000
_cell_angle_beta 67.570442
_cell_angle_gamma 90.000000
_cell_volume 2267.774751
_symmetry_space_group_name_H-M "C 2/C"
_symmetry_group_IT_number 15
_symmetry_cell_setting 'monoclinic'
loop_
_space_group_symop_operation_xyz
x,y,z
-x,y,1/2-z
-x,-y,-z
x,-y,1/2+z
1/2+x,1/2+y,z
1/2-x,1/2+y,1/2-z
1/2-x,1/2-y,-z
1/2+x,1/2-y,1/2+z
loop_
_atom_site_type_symbol
_atom_site_label
_atom_site_fract_x
_atom_site_fract_y
_atom_site_fract_z
Si Si1 0.167646 0.044467 0.731245
Si Si2 0.819863 0.881086 0.930356
Si Si3 0.814321 0.393497 0.432255
Si Si4 0.116859 0.702219 0.185508
Si Si5 0.576947 0.915375 0.871833
Si Si6 0.637285 0.496252 0.357113
O O1 0.169002 0.162230 0.691699
O O2 0.000000 0.976790 0.750000
O O3 0.302247 0.953766 0.694094
O O4 0.180242 0.079474 0.794957
O O5 0.877674 0.743274 0.925366
O O6 0.666206 0.878448 0.914326
O O7 0.953218 0.970224 0.887298
O O8 0.772123 0.929925 0.998003
O O9 0.689687 0.413947 0.401042
O O10 0.967089 0.472582 0.401619
O O11 0.271262 0.622456 0.158331
O O12 0.000000 0.651483 0.250000
O O13 0.025285 0.694761 0.139158
#
# Coordination Sequence:
#
# PCOD8145096 Si02
#       6
#     8   8   8   8   8   8
#     4  11  22  37  60  92 120 154 198 240 303 364
#     4  11  23  42  63  88 120 161 207 248 296 352
#     4  10  25  41  62  90 119 160 208 250 293 351
#     4  10  22  37  59  90 123 153 195 239 299 364
#     4  11  22  41  63  87 123 159 195 249 301 356
#     4  11  22  41  63  89 124 159 197 252 301 357
#
# _framework density 21.166122000000001
#
# number of rings (size 3 to 8) (size 9 to 14) (size 15 to 20)
#    0.000    1.333    3.333    2.000    4.667    0.000 
#    0.000    0.000    0.000   11.000    0.000    0.000 
#    0.000    0.000    0.000    0.000    0.000    0.000 
#
# Total GULP energy -297581.086637 kJ/mol
# GULP energy per Si atom -12399.211943 kJ/mol
# Density = 2.111795 g / cm^3
# Si number density = 21.166122 Si / 1000 Ang^3
#
#
#
# Elastic Constant Matrix: (Units=GPa)
#
#
# Indices 1 2 3 4 5 6 
#
# 1 89.2532 19.7323 28.7271 0.0000 11.0853 0.0000
# 2 19.7323 49.7946 23.5212 0.0000 -0.6589 0.0000
# 3 28.7271 23.5212 108.8084 0.0000 24.0973 0.0000
# 4 0.0000 0.0000 0.0000 128.2449 0.0000 -24.3698
# 5 11.0853 -0.6589 24.0973 0.0000 38.0015 0.0000
# 6 0.0000 0.0000 0.0000 -24.3698 0.0000 31.0635
#
#
#
# Elastic Compliance Matrix: (Units=1/GPa)
#
#
# Indices 1 2 3 4 5 6 
#
# 1 0.013114 -0.004317 -0.001937 0.000000 -0.002672 0.000000
# 2 -0.004317 0.024328 -0.005225 0.000000 0.004995 0.000000
# 3 -0.001937 -0.005225 0.012479 0.000000 -0.007439 0.000000
# 4 0.000000 0.000000 0.000000 0.009164 0.000000 0.007189
# 5 -0.002672 0.004995 -0.007439 0.000000 0.031898 0.000000
# 6 0.000000 0.000000 0.000000 0.007189 0.000000 0.037832
#
#
# Mechanical properties :
#
#
# Convention : Reuss Voigt Hill
#
# Bulk Modulus (GPa) = 37.09041 43.53528 40.31285
# Shear Modulus (GPa) = 31.10230 51.18701 41.14465
#
# Velocity S-wave (km/s) = 3.83748 4.92300 4.41374
# Velocity P-wave (km/s) = 6.09890 7.27514 6.71283
#
# Compressibility (1/GPa) = 0.02696115
#
# Stress axis : x y z
#
# Youngs Moduli (GPa) = 76.25517 41.10571 80.13529
#
# Poissons Ratio (x) = 0.17745 0.15525
# Poissons Ratio (y) = 0.32919 0.41873
# Poissons Ratio (z) = 0.14774 0.21479
#
# Static dielectric constant tensor:
#      x y z
#    x 3.972540 0.000000 0.110260 
#    y 0.000000 3.477970 0.000000 
#    z 0.110260 0.000000 3.955330 
# 
# 
# High freq. dielectric constant tensor:
#      x y z
#    x 1.842480 0.000000 0.008150 
#    y 0.000000 1.812790 0.000000 
#    z 0.008150 0.000000 1.836810 
# 
# From -- ./inp_files/263168.got.cif
#   From: 2010.06.25/outbox.cif.g09.slc.cpg/sg15_132_cif.got.tgz:263168.got - 2010.06.28 07:06:18.
