data_PCOD8145175
_publ_section_title
;
Structure prediction by ZEFSAII (Michael W. Deem and Ramdas Pophale) SiO2 
 PCOD8145175
Probable space group: C 2/C
;
_chemical_formula_sum "Si O2"
_cell_formula_units_Z 56
_cell_length_a 24.788810
_cell_length_b 5.315196
_cell_length_c 15.650651
_cell_angle_alpha 90.000000
_cell_angle_beta 99.597197
_cell_angle_gamma 90.000000
_cell_volume 2033.228236
_symmetry_space_group_name_H-M "C 2/C"
_symmetry_group_IT_number 15
_symmetry_cell_setting 'monoclinic'
loop_
_space_group_symop_operation_xyz
x,y,z
-x,y,1/2-z
-x,-y,-z
x,-y,1/2+z
1/2+x,1/2+y,z
1/2-x,1/2+y,1/2-z
1/2-x,1/2-y,-z
1/2+x,1/2-y,1/2+z
loop_
_atom_site_type_symbol
_atom_site_label
_atom_site_fract_x
_atom_site_fract_y
_atom_site_fract_z
Si Si1 0.413670 0.622614 0.259317
Si Si2 0.631576 0.124300 0.305564
Si Si3 0.517236 0.377532 0.895567
Si Si4 0.212048 0.054835 0.912393
Si Si5 0.716580 0.312774 0.749547
Si Si6 0.935863 0.381223 0.545246
Si Si7 0.328028 0.739476 0.436166
O O1 0.380083 0.363097 0.259485
O O2 0.444578 0.623838 0.177464
O O3 0.454313 0.639862 0.350008
O O4 0.371096 0.866368 0.251798
O O5 0.690836 0.178445 0.364558
O O6 0.583994 0.110600 0.362461
O O7 0.528383 0.626098 0.956044
O O8 0.527814 0.132349 0.957798
O O9 0.193156 0.833673 0.841602
O O10 0.277324 0.069871 0.941904
O O11 0.179903 0.016765 0.994034
O O12 0.737169 0.029932 0.739666
O O13 0.674233 0.375326 0.660085
O O14 0.885451 0.380007 0.465445
#
# Coordination Sequence:
#
# PCOD8145175 Si02
#       7
#     8   8   8   8   8   8   8
#     4   9  16  27  44  69 101 133 171 221 266 310
#     4   9  17  28  45  71 100 134 175 213 261 320
#     4   9  16  27  44  69 101 133 171 221 266 310
#     4   9  19  36  57  82 114 148 182 225 272 322
#     4  10  22  38  56  80 109 146 189 224 266 324
#     4   9  17  28  45  71 100 134 175 213 261 320
#     4   9  19  36  57  82 114 148 182 225 272 322
#
# _framework density 27.542408999999999
#
# number of rings (size 3 to 8) (size 9 to 14) (size 15 to 20)
#    0.000    2.857    0.000    0.857    0.000    8.571 
#    0.000    8.571    0.000    0.000    0.000    6.000 
#    0.000    0.000    0.000    0.000    0.000    0.000 
#
# Total GULP energy -347019.709762 kJ/mol
# GULP energy per Si atom -12393.561063 kJ/mol
# Density = 2.747972 g / cm^3
# Si number density = 27.542409 Si / 1000 Ang^3
#
#
#
# Elastic Constant Matrix: (Units=GPa)
#
#
# Indices 1 2 3 4 5 6 
#
# 1 60.5488 49.7128 53.5467 0.0000 30.9267 0.0000
# 2 49.7128 194.5155 77.3426 0.0000 22.6967 0.0000
# 3 53.5467 77.3426 187.0821 0.0000 30.5945 0.0000
# 4 0.0000 0.0000 0.0000 39.4907 0.0000 1.4925
# 5 30.9267 22.6967 30.5945 0.0000 70.5850 0.0000
# 6 0.0000 0.0000 0.0000 1.4925 0.0000 45.1769
#
#
#
# Elastic Compliance Matrix: (Units=1/GPa)
#
#
# Indices 1 2 3 4 5 6 
#
# 1 0.029328 -0.004404 -0.005062 0.000000 -0.009240 0.000000
# 2 -0.004404 0.006873 -0.001652 0.000000 0.000436 0.000000
# 3 -0.005062 -0.001652 0.007564 0.000000 -0.000529 0.000000
# 4 0.000000 0.000000 0.000000 0.025354 0.000000 -0.000838
# 5 -0.009240 0.000436 -0.000529 0.000000 0.018305 0.000000
# 6 0.000000 0.000000 0.000000 -0.000838 0.000000 0.022163
#
#
# Mechanical properties :
#
#
# Convention : Reuss Voigt Hill
#
# Bulk Modulus (GPa) = 46.45366 89.26117 67.85742
# Shear Modulus (GPa) = 35.97142 48.48681 42.22912
#
# Velocity S-wave (km/s) = 3.61783 4.20031 3.91991
# Velocity P-wave (km/s) = 5.86127 7.48348 6.72149
#
# Compressibility (1/GPa) = 0.02152683
#
# Stress axis : x y z
#
# Youngs Moduli (GPa) = 34.09698 145.50571 132.21097
#
# Poissons Ratio (x) = 0.64087 0.66931
# Poissons Ratio (y) = 0.15018 0.21840
# Poissons Ratio (z) = 0.17261 0.24036
#
# Static dielectric constant tensor:
#      x y z
#    x 5.173260 0.000000 -0.171230 
#    y 0.000000 5.082380 0.000000 
#    z -0.171230 0.000000 5.331690 
# 
# 
# High freq. dielectric constant tensor:
#      x y z
#    x 2.132790 0.000000 -0.008280 
#    y 0.000000 2.093590 0.000000 
#    z -0.008280 0.000000 2.121970 
# 
# From -- ./inp_files/223944.got.cif
#   From: 2010.06.25/outbox.cif.g09.slc.cpg/sg15_112_cif.got.tgz:223944.got - 2010.06.28 07:06:18.
