data_PCOD8145032
_publ_section_title
;
Structure prediction by ZEFSAII (Michael W. Deem and Ramdas Pophale) SiO2 
 PCOD8145032
Probable space group: C 2/C
;
_chemical_formula_sum "Si O2"
_cell_formula_units_Z 40
_cell_length_a 11.408327
_cell_length_b 25.825891
_cell_length_c 8.713211
_cell_angle_alpha 90.000000
_cell_angle_beta 123.650267
_cell_angle_gamma 90.000000
_cell_volume 2137.007542
_symmetry_space_group_name_H-M "C 2/C"
_symmetry_group_IT_number 15
_symmetry_cell_setting 'monoclinic'
loop_
_space_group_symop_operation_xyz
x,y,z
-x,y,1/2-z
-x,-y,-z
x,-y,1/2+z
1/2+x,1/2+y,z
1/2-x,1/2+y,1/2-z
1/2-x,1/2-y,-z
1/2+x,1/2-y,1/2+z
loop_
_atom_site_type_symbol
_atom_site_label
_atom_site_fract_x
_atom_site_fract_y
_atom_site_fract_z
Si Si1 0.542374 0.867519 0.608989
Si Si2 0.633949 0.965140 0.550713
Si Si3 0.643313 0.203279 0.936042
Si Si4 0.403841 0.467915 0.317571
Si Si5 0.809118 0.399032 0.195829
O O1 0.500000 0.853267 0.750000
O O2 0.648711 0.916700 0.681453
O O3 0.608616 0.814947 0.585303
O O4 0.412843 0.889143 0.413316
O O5 0.623501 0.941965 0.369981
O O6 0.500000 0.000000 0.500000
O O7 0.774875 0.998165 0.661800
O O8 0.500000 0.220473 0.750000
O O9 0.716117 0.154626 0.908036
O O10 0.750000 0.250000 0.000000
O O11 0.500000 0.447647 0.250000
O O12 0.500000 0.500000 0.500000
O O13 0.343129 0.417253 0.357063
#
# Coordination Sequence:
#
# PCOD8145032 Si02
#       5
#     8   8   8   8   8
#     4  10  22  36  63  94 119 153 216 251 293 370
#     4  11  22  36  63  84 119 174 208 239 295 368
#     4   9  20  44  67  87 117 156 203 260 315 366
#     4  12  25  38  53  86 132 166 205 249 305 356
#     4  10  22  42  59  88 126 164 204 252 304 370
#
# _framework density 18.717763999999999
#
# number of rings (size 3 to 8) (size 9 to 14) (size 15 to 20)
#    0.000    1.600    4.000    1.800    5.600    0.000 
#    7.200    5.000    0.000    0.000    0.000    0.000 
#    0.000    0.000    0.000    0.000    0.000    0.000 
#
# Total GULP energy -247877.550810 kJ/mol
# GULP energy per Si atom -12393.877541 kJ/mol
# Density = 1.867516 g / cm^3
# Si number density = 18.717764 Si / 1000 Ang^3
#
#
#
# Elastic Constant Matrix: (Units=GPa)
#
#
# Indices 1 2 3 4 5 6 
#
# 1 172.1728 84.3570 66.1096 0.0000 -16.1476 0.0000
# 2 84.3570 125.0786 52.0413 0.0000 -2.8510 0.0000
# 3 66.1096 52.0413 93.5795 0.0000 -16.6424 0.0000
# 4 0.0000 0.0000 0.0000 13.5755 0.0000 7.4020
# 5 -16.1476 -2.8510 -16.6424 0.0000 41.5839 0.0000
# 6 0.0000 0.0000 0.0000 7.4020 0.0000 51.0901
#
#
#
# Elastic Compliance Matrix: (Units=1/GPa)
#
#
# Indices 1 2 3 4 5 6 
#
# 1 0.009959 -0.005061 -0.003870 0.000000 0.001971 0.000000
# 2 -0.005061 0.013090 -0.004192 0.000000 -0.002746 0.000000
# 3 -0.003870 -0.004192 0.016616 0.000000 0.004860 0.000000
# 4 0.000000 0.000000 0.000000 0.079980 0.000000 -0.011588
# 5 0.001971 -0.002746 0.004860 0.000000 0.026570 0.000000
# 6 0.000000 0.000000 0.000000 -0.011588 0.000000 0.021252
#
#
# Mechanical properties :
#
#
# Convention : Reuss Voigt Hill
#
# Bulk Modulus (GPa) = 74.53173 88.42740 81.47957
# Shear Modulus (GPa) = 25.22864 33.80478 29.51671
#
# Velocity S-wave (km/s) = 3.67528 4.25435 3.97537
# Velocity P-wave (km/s) = 7.61022 8.45445 8.04342
#
# Compressibility (1/GPa) = 0.01341710
#
# Stress axis : x y z
#
# Youngs Moduli (GPa) = 100.41273 76.39240 60.18312
#
# Poissons Ratio (x) = 0.38665 0.23292
# Poissons Ratio (y) = 0.50823 0.25231
# Poissons Ratio (z) = 0.38862 0.32027
#
# Static dielectric constant tensor:
#      x y z
#    x 3.874670 0.000000 -0.422460 
#    y 0.000000 3.485470 0.000000 
#    z -0.422460 0.000000 3.248140 
# 
# 
# High freq. dielectric constant tensor:
#      x y z
#    x 1.735740 0.000000 -0.010090 
#    y 0.000000 1.713650 0.000000 
#    z -0.010090 0.000000 1.719290 
# 
# From -- ./inp_files/32282.got.cif
#   From: 2010.06.25/outbox.cif.g09.slc.cpg/sg15_17_cif.got.tgz:32282.got - 2010.06.28 07:06:18.
