data_PCOD8145725
_publ_section_title
;
Structure prediction by ZEFSAII (Michael W. Deem and Ramdas Pophale) SiO2 
 PCOD8145725
Probable space group: C 2/C
;
_chemical_formula_sum "Si O2"
_cell_formula_units_Z 44
_cell_length_a 27.912668
_cell_length_b 13.170399
_cell_length_c 15.531145
_cell_angle_alpha 90.000000
_cell_angle_beta 161.125945
_cell_angle_gamma 90.000000
_cell_volume 1846.984446
_symmetry_space_group_name_H-M "C 2/C"
_symmetry_group_IT_number 15
_symmetry_cell_setting 'monoclinic'
loop_
_space_group_symop_operation_xyz
x,y,z
-x,y,1/2-z
-x,-y,-z
x,-y,1/2+z
1/2+x,1/2+y,z
1/2-x,1/2+y,1/2-z
1/2-x,1/2-y,-z
1/2+x,1/2-y,1/2+z
loop_
_atom_site_type_symbol
_atom_site_label
_atom_site_fract_x
_atom_site_fract_y
_atom_site_fract_z
Si Si1 0.853092 0.102860 0.802644
Si Si2 0.476251 0.892331 0.371251
Si Si3 0.930093 0.622056 0.284409
Si Si4 0.500000 0.261061 0.250000
Si Si5 0.781142 0.276828 0.799540
Si Si6 0.328420 0.375265 0.724506
O O1 0.744306 0.125250 0.536667
O O2 0.803886 0.159771 0.806811
O O3 0.845599 0.981839 0.805915
O O4 0.015621 0.145776 0.055949
O O5 0.543637 0.841983 0.572793
O O6 0.566507 0.838945 0.447658
O O7 0.505375 0.011363 0.409078
O O8 0.299620 0.874799 0.065751
O O9 0.015035 0.692307 0.361286
O O10 0.652874 0.324694 0.516482
O O11 0.719023 0.286121 0.790682
#
# Coordination Sequence:
#
# PCOD8145725 Si02
#       6
#     8   8   8   4   8   8
#     4   9  22  43  69  93 130 185 217 274 326 404
#     4  10  22  39  66  98 126 171 217 278 328 392
#     4   9  21  42  67  90 126 172 227 263 330 394
#     4  10  24  40  64  94 128 178 218 276 314 412
#     4  11  24  37  67  99 127 174 224 270 326 396
#     4  10  22  44  68  93 141 174 218 274 341 392
#
# _framework density 23.822614999999999
#
# number of rings (size 3 to 8) (size 9 to 14) (size 15 to 20)
#    0.000    2.182    0.000    0.545   12.727    2.182 
#    3.273    0.000    4.000    0.000    0.000    0.000 
#    0.000    0.000    0.000    0.000    0.000    0.000 
#
# Total GULP energy -272591.375217 kJ/mol
# GULP energy per Si atom -12390.517055 kJ/mol
# Density = 2.376839 g / cm^3
# Si number density = 23.822615 Si / 1000 Ang^3
#
#
#
# Elastic Constant Matrix: (Units=GPa)
#
#
# Indices 1 2 3 4 5 6 
#
# 1 99.7386 25.9089 38.3663 0.0000 1.0274 0.0000
# 2 25.9089 43.7052 27.6144 0.0000 -2.2450 0.0000
# 3 38.3663 27.6144 133.3456 0.0000 14.7246 0.0000
# 4 0.0000 0.0000 0.0000 30.2758 0.0000 -4.1896
# 5 1.0274 -2.2450 14.7246 0.0000 43.4669 0.0000
# 6 0.0000 0.0000 0.0000 -4.1896 0.0000 31.3936
#
#
#
# Elastic Compliance Matrix: (Units=1/GPa)
#
#
# Indices 1 2 3 4 5 6 
#
# 1 0.012470 -0.005867 -0.002396 0.000000 0.000214 0.000000
# 2 -0.005867 0.029558 -0.004796 0.000000 0.003290 0.000000
# 3 -0.002396 -0.004796 0.009561 0.000000 -0.003430 0.000000
# 4 0.000000 0.000000 0.000000 0.033651 0.000000 0.004491
# 5 0.000214 0.003290 -0.003430 0.000000 0.024333 0.000000
# 6 0.000000 0.000000 0.000000 0.004491 0.000000 0.032453
#
#
# Mechanical properties :
#
#
# Convention : Reuss Voigt Hill
#
# Bulk Modulus (GPa) = 39.26345 51.17429 45.21887
# Shear Modulus (GPa) = 28.30686 33.35391 30.83038
#
# Velocity S-wave (km/s) = 3.45082 3.74584 3.60135
# Velocity P-wave (km/s) = 5.69165 6.34322 6.02625
#
# Compressibility (1/GPa) = 0.02546898
#
# Stress axis : x y z
#
# Youngs Moduli (GPa) = 80.19276 33.83151 104.59332
#
# Poissons Ratio (x) = 0.19850 0.25065
# Poissons Ratio (y) = 0.47050 0.50167
# Poissons Ratio (z) = 0.19218 0.16227
#
# Static dielectric constant tensor:
#      x y z
#    x 4.045350 0.000000 0.158770 
#    y 0.000000 4.201730 0.000000 
#    z 0.158770 0.000000 4.575210 
# 
# 
# High freq. dielectric constant tensor:
#      x y z
#    x 1.924930 0.000000 0.016940 
#    y 0.000000 1.931020 0.000000 
#    z 0.016940 0.000000 1.966000 
# 
# From -- ./inp_files/182364.got.cif
#   From: 2010.06.25/outbox.cif.g09.slc.cpg/sg15_92_cif.got.tgz:182364.got - 2010.06.28 07:06:18.
