data_PCOD8145995
_publ_section_title
;
Structure prediction by ZEFSAII (Michael W. Deem and Ramdas Pophale) SiO2 
 PCOD8145995
Probable space group: C 2/C
;
_chemical_formula_sum "Si O2"
_cell_formula_units_Z 60
_cell_length_a 8.947906
_cell_length_b 10.894818
_cell_length_c 29.877536
_cell_angle_alpha 90.000000
_cell_angle_beta 98.659668
_cell_angle_gamma 90.000000
_cell_volume 2879.432016
_symmetry_space_group_name_H-M "C 2/C"
_symmetry_group_IT_number 15
_symmetry_cell_setting 'monoclinic'
loop_
_space_group_symop_operation_xyz
x,y,z
-x,y,1/2-z
-x,-y,-z
x,-y,1/2+z
1/2+x,1/2+y,z
1/2-x,1/2+y,1/2-z
1/2-x,1/2-y,-z
1/2+x,1/2-y,1/2+z
loop_
_atom_site_type_symbol
_atom_site_label
_atom_site_fract_x
_atom_site_fract_y
_atom_site_fract_z
Si Si1 0.127731 0.265374 0.390257
Si Si2 0.327134 0.377396 0.172536
Si Si3 0.500000 0.519154 0.250000
Si Si4 0.661009 0.046447 0.095263
Si Si5 0.576191 0.234056 0.440332
Si Si6 0.118838 0.841355 0.671732
Si Si7 0.410973 0.582171 0.880554
Si Si8 0.900226 0.321598 0.457249
O O1 0.200196 0.136063 0.406672
O O2 0.244299 0.364149 0.376938
O O3 0.018379 0.251568 0.342992
O O4 0.040017 0.307526 0.430283
O O5 0.365942 0.440303 0.221454
O O6 0.201806 0.459132 0.139772
O O7 0.270959 0.238737 0.178153
O O8 0.487963 0.362871 0.155091
O O9 0.406436 0.598974 0.281337
O O10 0.507781 0.129375 0.093722
O O11 0.649512 0.963297 0.050224
O O12 0.504468 0.370568 0.428519
O O13 0.755759 0.235342 0.437663
O O14 0.544907 0.204876 0.490579
O O15 0.112404 0.937596 0.629538
#
# Coordination Sequence:
#
# PCOD8145995 Si02
#       8
#     8   8   4   8   8   8   8   8
#     4  11  22  38  68  92 125 172 220 256 324 376
#     4  11  22  46  67  92 134 164 212 261 335 388
#     4  10  24  42  68 100 124 160 206 276 318 388
#     4  11  21  41  63  91 129 172 209 269 317 380
#     4  10  22  40  66  93 136 169 226 264 322 368
#     4  11  22  45  68  91 129 165 206 266 324 392
#     4  10  22  40  64  95 125 176 210 262 318 382
#     4  11  22  41  61  99 129 177 220 274 309 377
#
# _framework density 20.837443
#
# number of rings (size 3 to 8) (size 9 to 14) (size 15 to 20)
#    0.000    1.333    5.333    0.400    0.000    7.467 
#    0.000    7.333    0.000    0.000    0.000    0.000 
#    0.000    0.000    0.000    0.000    0.000    0.000 
#
# Total GULP energy -371680.891077 kJ/mol
# GULP energy per Si atom -12389.363036 kJ/mol
# Density = 2.079002 g / cm^3
# Si number density = 20.837443 Si / 1000 Ang^3
#
#
#
# Elastic Constant Matrix: (Units=GPa)
#
#
# Indices 1 2 3 4 5 6 
#
# 1 117.7554 59.5031 44.2666 0.0000 -9.4604 0.0000
# 2 59.5031 103.4650 47.2003 0.0000 -2.1048 0.0000
# 3 44.2666 47.2003 91.7619 0.0000 9.9790 0.0000
# 4 0.0000 0.0000 0.0000 31.5057 0.0000 -1.0094
# 5 -9.4604 -2.1048 9.9790 0.0000 22.7050 0.0000
# 6 0.0000 0.0000 0.0000 -1.0094 0.0000 23.4414
#
#
#
# Elastic Compliance Matrix: (Units=1/GPa)
#
#
# Indices 1 2 3 4 5 6 
#
# 1 0.013573 -0.005650 -0.004410 0.000000 0.007070 0.000000
# 2 -0.005650 0.015379 -0.005339 0.000000 0.001418 0.000000
# 3 -0.004410 -0.005339 0.016830 0.000000 -0.009729 0.000000
# 4 0.000000 0.000000 0.000000 0.031784 0.000000 0.001369
# 5 0.007070 0.001418 -0.009729 0.000000 0.051397 0.000000
# 6 0.000000 0.000000 0.000000 0.001369 0.000000 0.042719
#
#
# Mechanical properties :
#
#
# Convention : Reuss Voigt Hill
#
# Bulk Modulus (GPa) = 66.74388 68.32468 67.53428
# Shear Modulus (GPa) = 24.09928 26.33123 25.21525
#
# Velocity S-wave (km/s) = 3.40448 3.55864 3.48241
# Velocity P-wave (km/s) = 6.89596 7.05307 6.97496
#
# Compressibility (1/GPa) = 0.01498265
#
# Stress axis : x y z
#
# Youngs Moduli (GPa) = 73.67445 65.02323 59.41847
#
# Poissons Ratio (x) = 0.36739 0.26206
# Poissons Ratio (y) = 0.41628 0.31725
# Poissons Ratio (z) = 0.32493 0.34717
#
# Static dielectric constant tensor:
#      x y z
#    x 3.904770 0.000000 0.251500 
#    y 0.000000 4.083010 0.000000 
#    z 0.251500 0.000000 3.772260 
# 
# 
# High freq. dielectric constant tensor:
#      x y z
#    x 1.823400 0.000000 0.013910 
#    y 0.000000 1.821740 0.000000 
#    z 0.013910 0.000000 1.797950 
# 
# From -- ./inp_files/307200.got.cif
#   From: 2010.06.25/outbox.cif.g09.slc.cpg/sg15_154_cif.got.tgz:307200.got - 2010.06.28 07:06:18.
