data_PCOD8145620
_publ_section_title
;
Structure prediction by ZEFSAII (Michael W. Deem and Ramdas Pophale) SiO2 
 PCOD8145620
Probable space group: C 2/C
;
_chemical_formula_sum "Si O2"
_cell_formula_units_Z 40
_cell_length_a 24.701958
_cell_length_b 8.271394
_cell_length_c 9.429731
_cell_angle_alpha 90.000000
_cell_angle_beta 100.639633
_cell_angle_gamma 90.000000
_cell_volume 1893.555404
_symmetry_space_group_name_H-M "C 2/C"
_symmetry_group_IT_number 15
_symmetry_cell_setting 'monoclinic'
loop_
_space_group_symop_operation_xyz
x,y,z
-x,y,1/2-z
-x,-y,-z
x,-y,1/2+z
1/2+x,1/2+y,z
1/2-x,1/2+y,1/2-z
1/2-x,1/2-y,-z
1/2+x,1/2-y,1/2+z
loop_
_atom_site_type_symbol
_atom_site_label
_atom_site_fract_x
_atom_site_fract_y
_atom_site_fract_z
Si Si1 0.203483 0.835237 0.305203
Si Si2 0.174581 0.653247 0.565524
Si Si3 0.034653 0.904344 0.135110
Si Si4 0.626998 0.806739 0.545125
Si Si5 0.630087 0.374091 0.767261
O O1 0.188742 0.693241 0.409545
O O2 0.268429 0.866797 0.320337
O O3 0.178638 0.783886 0.142092
O O4 0.177643 0.004323 0.341769
O O5 0.135028 0.498543 0.561083
O O6 0.142138 0.802490 0.617946
O O7 0.069758 0.755265 0.087014
O O8 0.000000 0.830738 0.250000
O O9 0.072771 0.034998 0.229758
O O10 0.000000 0.000000 0.000000
O O11 0.626247 0.768580 0.378767
#
# Coordination Sequence:
#
# PCOD8145620 Si02
#       5
#     8   8   8   8   8
#     4  10  22  39  63  91 132 176 207 253 320 388
#     4  11  23  39  61  97 132 165 213 264 315 374
#     4  11  23  45  70  90 120 169 214 260 325 393
#     4  11  23  39  63  95 127 163 214 271 313 378
#     4  11  23  40  65  91 123 170 213 255 321 393
#
# _framework density 21.124282000000001
#
# number of rings (size 3 to 8) (size 9 to 14) (size 15 to 20)
#    0.000    1.200    2.000    4.800    2.800    6.400 
#    0.000    2.000    0.000    0.000    0.000    0.000 
#    0.000    0.000    0.000    0.000    0.000    0.000 
#
# Total GULP energy -248036.319988 kJ/mol
# GULP energy per Si atom -12401.815999 kJ/mol
# Density = 2.107620 g / cm^3
# Si number density = 21.124282 Si / 1000 Ang^3
#
#
#
# Elastic Constant Matrix: (Units=GPa)
#
#
# Indices 1 2 3 4 5 6 
#
# 1 88.3001 47.1550 16.8182 0.0000 -8.4331 0.0000
# 2 47.1550 114.4365 19.7456 0.0000 -0.9857 0.0000
# 3 16.8182 19.7456 71.3865 0.0000 -10.7141 0.0000
# 4 0.0000 0.0000 0.0000 28.4519 0.0000 -5.4331
# 5 -8.4331 -0.9857 -10.7141 0.0000 26.5241 0.0000
# 6 0.0000 0.0000 0.0000 -5.4331 0.0000 34.8789
#
#
#
# Elastic Compliance Matrix: (Units=1/GPa)
#
#
# Indices 1 2 3 4 5 6 
#
# 1 0.015159 -0.005986 -0.001305 0.000000 0.004070 0.000000
# 2 -0.005986 0.011554 -0.002136 0.000000 -0.002337 0.000000
# 3 -0.001305 -0.002136 0.015790 0.000000 0.005884 0.000000
# 4 0.000000 0.000000 0.000000 0.036225 0.000000 0.005643
# 5 0.004070 -0.002337 0.005884 0.000000 0.041285 0.000000
# 6 0.000000 0.000000 0.000000 0.005643 0.000000 0.029550
#
#
# Mechanical properties :
#
#
# Convention : Reuss Voigt Hill
#
# Bulk Modulus (GPa) = 42.28677 49.06230 45.67454
# Shear Modulus (GPa) = 28.36090 30.66459 29.51274
#
# Velocity S-wave (km/s) = 3.66809 3.81416 3.74184
# Velocity P-wave (km/s) = 6.16453 6.53246 6.35116
#
# Compressibility (1/GPa) = 0.02364806
#
# Stress axis : x y z
#
# Youngs Moduli (GPa) = 65.96681 86.55258 63.33296
#
# Poissons Ratio (x) = 0.51813 0.08263
# Poissons Ratio (y) = 0.39490 0.13529
# Poissons Ratio (z) = 0.08607 0.18489
#
# Static dielectric constant tensor:
#      x y z
#    x 3.907840 0.000000 0.041580 
#    y 0.000000 3.684800 0.000000 
#    z 0.041580 0.000000 3.794770 
# 
# 
# High freq. dielectric constant tensor:
#      x y z
#    x 1.826110 0.000000 -0.000820 
#    y 0.000000 1.820110 0.000000 
#    z -0.000820 0.000000 1.839010 
# 
# From -- ./inp_files/59948.got.cif
#   From: 2010.06.25/outbox.cif.g09.slc.cpg/sg15_30_cif.got.tgz:59948.got - 2010.06.28 07:06:18.
