data_PCOD8145820
_publ_section_title
;
Structure prediction by ZEFSAII (Michael W. Deem and Ramdas Pophale) SiO2 
 PCOD8145820
Probable space group: C 2/C
;
_chemical_formula_sum "Si O2"
_cell_formula_units_Z 40
_cell_length_a 14.780703
_cell_length_b 24.648734
_cell_length_c 9.419617
_cell_angle_alpha 90.000000
_cell_angle_beta 151.328239
_cell_angle_gamma 90.000000
_cell_volume 1646.550914
_symmetry_space_group_name_H-M "C 2/C"
_symmetry_group_IT_number 15
_symmetry_cell_setting 'monoclinic'
loop_
_space_group_symop_operation_xyz
x,y,z
-x,y,1/2-z
-x,-y,-z
x,-y,1/2+z
1/2+x,1/2+y,z
1/2-x,1/2+y,1/2-z
1/2-x,1/2-y,-z
1/2+x,1/2-y,1/2+z
loop_
_atom_site_type_symbol
_atom_site_label
_atom_site_fract_x
_atom_site_fract_y
_atom_site_fract_z
Si Si1 0.217152 0.946041 0.693481
Si Si2 0.242126 0.825361 0.679472
Si Si3 0.713872 0.844233 0.074561
Si Si4 0.779837 0.961233 0.110311
Si Si5 0.640413 0.768821 0.209573
O O1 0.237224 0.882459 0.757677
O O2 0.315493 0.956325 0.676232
O O3 0.001776 0.964862 0.393185
O O4 0.309972 0.985416 0.939205
O O5 0.176723 0.832917 0.424628
O O6 0.095286 0.785375 0.555523
O O7 0.450233 0.800254 0.986554
O O8 0.500000 0.827292 0.750000
O O9 0.731480 0.907804 0.137469
O O10 0.775117 0.807698 0.294715
O O11 0.750000 0.750000 0.500000
#
# Coordination Sequence:
#
# PCOD8145820 Si02
#       5
#     8   8   8   8   8
#     4   9  19  36  60  90 118 155 204 251 300 370
#     4  10  22  40  60  87 123 160 207 249 301 369
#     4   9  20  39  60  86 117 160 208 249 304 373
#     4   9  18  36  61  88 119 156 200 248 310 367
#     4  11  23  39  58  87 122 161 205 256 308 356
#
# _framework density 24.293206000000001
#
# number of rings (size 3 to 8) (size 9 to 14) (size 15 to 20)
#    0.000    2.400    0.000    1.200    2.800    1.600 
#    7.200   11.000    0.000    0.000    0.000    0.000 
#    0.000    0.000    0.000    0.000    0.000    0.000 
#
# Total GULP energy -247865.562439 kJ/mol
# GULP energy per Si atom -12393.278122 kJ/mol
# Density = 2.423791 g / cm^3
# Si number density = 24.293206 Si / 1000 Ang^3
#
#
#
# Elastic Constant Matrix: (Units=GPa)
#
#
# Indices 1 2 3 4 5 6 
#
# 1 85.7098 70.9744 18.3102 0.0000 -26.9515 0.0000
# 2 70.9744 231.2825 22.6632 0.0000 -36.0545 0.0000
# 3 18.3102 22.6632 37.0853 0.0000 -14.2963 0.0000
# 4 0.0000 0.0000 0.0000 28.8746 0.0000 -13.8681
# 5 -26.9515 -36.0545 -14.2963 0.0000 23.0621 0.0000
# 6 0.0000 0.0000 0.0000 -13.8681 0.0000 56.0828
#
#
#
# Elastic Compliance Matrix: (Units=1/GPa)
#
#
# Indices 1 2 3 4 5 6 
#
# 1 0.020254 -0.003337 -0.001113 0.000000 0.017762 0.000000
# 2 -0.003337 0.006267 0.000120 0.000000 0.005972 0.000000
# 3 -0.001113 0.000120 0.035494 0.000000 0.020890 0.000000
# 4 0.000000 0.000000 0.000000 0.039300 0.000000 0.009718
# 5 0.017762 0.005972 0.020890 0.000000 0.086405 0.000000
# 6 0.000000 0.000000 0.000000 0.009718 0.000000 0.020234
#
#
# Mechanical properties :
#
#
# Convention : Reuss Voigt Hill
#
# Bulk Modulus (GPa) = 18.74277 64.21924 41.48100
# Shear Modulus (GPa) = 21.33110 37.74590 29.53850
#
# Velocity S-wave (km/s) = 2.96644 3.94606 3.49078
# Velocity P-wave (km/s) = 4.41191 6.87417 5.77578
#
# Compressibility (1/GPa) = 0.05335391
#
# Stress axis : x y z
#
# Youngs Moduli (GPa) = 49.37274 159.56440 28.17377
#
# Poissons Ratio (x) = 0.53253 0.03137
# Poissons Ratio (y) = 0.16478 -0.00338
# Poissons Ratio (z) = 0.05497 -0.01916
#
# Static dielectric constant tensor:
#      x y z
#    x 4.956770 0.000000 -0.373830 
#    y 0.000000 4.598040 0.000000 
#    z -0.373830 0.000000 3.974930 
# 
# 
# High freq. dielectric constant tensor:
#      x y z
#    x 1.974610 0.000000 0.003160 
#    y 0.000000 1.977860 0.000000 
#    z 0.003160 0.000000 1.924060 
# 
# From -- ./inp_files/31751.got.cif
#   From: 2010.06.25/outbox.cif.g09.slc.cpg/sg15_16_cif.got.tgz:31751.got - 2010.06.28 07:06:18.
