data_PCOD8145798
_publ_section_title
;
Structure prediction by ZEFSAII (Michael W. Deem and Ramdas Pophale) SiO2 
 PCOD8145798
Probable space group: C 2/C
;
_chemical_formula_sum "Si O2"
_cell_formula_units_Z 32
_cell_length_a 4.888804
_cell_length_b 14.269798
_cell_length_c 20.390120
_cell_angle_alpha 90.000000
_cell_angle_beta 94.423288
_cell_angle_gamma 90.000000
_cell_volume 1418.223741
_symmetry_space_group_name_H-M "C 2/C"
_symmetry_group_IT_number 15
_symmetry_cell_setting 'monoclinic'
loop_
_space_group_symop_operation_xyz
x,y,z
-x,y,1/2-z
-x,-y,-z
x,-y,1/2+z
1/2+x,1/2+y,z
1/2-x,1/2+y,1/2-z
1/2-x,1/2-y,-z
1/2+x,1/2-y,1/2+z
loop_
_atom_site_type_symbol
_atom_site_label
_atom_site_fract_x
_atom_site_fract_y
_atom_site_fract_z
Si Si1 0.293476 0.850849 0.421382
Si Si2 0.500070 0.953322 0.585486
Si Si3 0.732574 0.049790 0.705666
Si Si4 0.016592 0.156119 0.457199
O O1 0.187246 0.867869 0.344949
O O2 0.035804 0.839440 0.465548
O O3 0.481281 0.758956 0.425971
O O4 0.466588 0.943756 0.448070
O O5 0.184335 0.920836 0.579929
O O6 0.672386 0.873232 0.551059
O O7 0.607593 0.961377 0.662820
O O8 0.500000 0.088803 0.750000
O O9 0.000000 0.017604 0.750000
#
# Coordination Sequence:
#
# PCOD8145798 Si02
#       4
#     8   8   8   8
#     4   9  24  37  67  87 130 148 200 254 297 362
#     4  10  23  37  65  83 127 153 196 249 300 347
#     4  10  22  40  59  83 121 164 198 242 295 351
#     4  11  21  41  61 101 110 158 200 247 314 350
#
# _framework density 22.563435999999999
#
# number of rings (size 3 to 8) (size 9 to 14) (size 15 to 20)
#    1.500    0.500    0.000    3.000    0.000   10.000 
#    0.000    7.500    0.000    0.000    0.000    0.000 
#    0.000    0.000    0.000    0.000    0.000    0.000 
#
# Total GULP energy -198348.674058 kJ/mol
# GULP energy per Si atom -12396.792129 kJ/mol
# Density = 2.251208 g / cm^3
# Si number density = 22.563436 Si / 1000 Ang^3
#
#
#
# Elastic Constant Matrix: (Units=GPa)
#
#
# Indices 1 2 3 4 5 6 
#
# 1 58.2604 -4.0448 26.1653 0.0000 7.1607 0.0000
# 2 -4.0448 108.4378 13.1944 0.0000 1.8337 0.0000
# 3 26.1653 13.1944 122.3010 0.0000 -5.4987 0.0000
# 4 0.0000 0.0000 0.0000 18.7161 0.0000 -1.4788
# 5 7.1607 1.8337 -5.4987 0.0000 22.1634 0.0000
# 6 0.0000 0.0000 0.0000 -1.4788 0.0000 24.2980
#
#
#
# Elastic Compliance Matrix: (Units=1/GPa)
#
#
# Indices 1 2 3 4 5 6 
#
# 1 0.020441 0.001492 -0.004891 0.000000 -0.007941 0.000000
# 2 0.001492 0.009477 -0.001414 0.000000 -0.001617 0.000000
# 3 -0.004891 -0.001414 0.009558 0.000000 0.004069 0.000000
# 4 0.000000 0.000000 0.000000 0.053688 0.000000 0.003267
# 5 -0.007941 -0.001617 0.004069 0.000000 0.048828 0.000000
# 6 0.000000 0.000000 0.000000 0.003267 0.000000 0.041354
#
#
# Mechanical properties :
#
#
# Convention : Reuss Voigt Hill
#
# Bulk Modulus (GPa) = 33.50200 39.95878 36.73039
# Shear Modulus (GPa) = 24.63985 29.94780 27.29382
#
# Velocity S-wave (km/s) = 3.30817 3.64713 3.48177
# Velocity P-wave (km/s) = 5.42882 5.95679 5.69892
#
# Compressibility (1/GPa) = 0.02984896
#
# Stress axis : x y z
#
# Youngs Moduli (GPa) = 48.92240 105.51912 104.61938
#
# Poissons Ratio (x) = -0.15742 0.51170
# Poissons Ratio (y) = -0.07299 0.14796
# Poissons Ratio (z) = 0.23928 0.14923
#
# Static dielectric constant tensor:
#      x y z
#    x 3.722060 0.000000 -0.041810 
#    y 0.000000 3.878230 0.000000 
#    z -0.041810 0.000000 4.124170 
# 
# 
# High freq. dielectric constant tensor:
#      x y z
#    x 1.884990 0.000000 0.003200 
#    y 0.000000 1.875790 0.000000 
#    z 0.003200 0.000000 1.891610 
# 
# From -- ./inp_files/183703.got.cif
#   From: 2010.06.25/outbox.cif.g09.slc.cpg/sg15_92_cif.got.tgz:183703.got - 2010.06.28 07:06:18.
