data_PCOD8145564
_publ_section_title
;
Structure prediction by ZEFSAII (Michael W. Deem and Ramdas Pophale) SiO2 
 PCOD8145564
Probable space group: C 2/C
;
_chemical_formula_sum "Si O2"
_cell_formula_units_Z 64
_cell_length_a 22.938740
_cell_length_b 20.760123
_cell_length_c 9.344982
_cell_angle_alpha 90.000000
_cell_angle_beta 43.993735
_cell_angle_gamma 90.000000
_cell_volume 3091.007388
_symmetry_space_group_name_H-M "C 2/C"
_symmetry_group_IT_number 15
_symmetry_cell_setting 'monoclinic'
loop_
_space_group_symop_operation_xyz
x,y,z
-x,y,1/2-z
-x,-y,-z
x,-y,1/2+z
1/2+x,1/2+y,z
1/2-x,1/2+y,1/2-z
1/2-x,1/2-y,-z
1/2+x,1/2-y,1/2+z
loop_
_atom_site_type_symbol
_atom_site_label
_atom_site_fract_x
_atom_site_fract_y
_atom_site_fract_z
Si Si1 0.804157 0.400698 0.853338
Si Si2 0.593108 0.873184 0.084800
Si Si3 0.193278 0.996965 0.873641
Si Si4 0.579902 0.325692 0.705460
Si Si5 0.083157 0.035958 0.308359
Si Si6 0.942049 0.487451 0.737907
Si Si7 0.333754 0.786079 0.314873
Si Si8 0.754475 0.138079 0.755035
O O1 0.866838 0.359756 0.642442
O O2 0.741706 0.437610 0.858016
O O3 0.858339 0.449567 0.851991
O O4 0.754389 0.355585 0.055766
O O5 0.500000 0.842280 0.250000
O O6 0.588467 0.948518 0.127272
O O7 0.653201 0.842300 0.094681
O O8 0.249689 0.061768 0.775288
O O9 0.163613 0.977853 0.767073
O O10 0.107076 0.009567 0.110482
O O11 0.500000 0.310184 0.750000
O O12 0.565420 0.388050 0.829504
O O13 0.592629 0.267127 0.797283
O O14 0.658005 0.333028 0.457341
O O15 0.000000 0.000000 0.500000
O O16 0.000000 0.448642 0.750000
O O17 0.000000 0.500000 0.500000
O O18 0.250000 0.750000 0.500000
O O19 0.323003 0.821970 0.180308
#
# Coordination Sequence:
#
# PCOD8145564 Si02
#       8
#     8   8   8   8   8   8   8   8
#     4  12  23  36  60  93 133 162 207 271 318 386
#     4  11  23  39  62  88 123 170 212 255 320 377
#     4  11  22  36  61  95 132 166 208 262 332 385
#     4  10  22  42  68  92 128 170 220 264 321 392
#     4  11  22  39  64  97 130 166 209 266 337 391
#     4  11  22  38  57  96 131 167 204 261 324 382
#     4  10  23  42  67  88 120 172 222 260 305 383
#     4  10  22  39  61  96 126 171 213 262 319 380
#
# _framework density 20.705223
#
# number of rings (size 3 to 8) (size 9 to 14) (size 15 to 20)
#    0.000    1.250    3.750    3.750    7.000    0.000 
#    0.000    2.500    0.000    3.000    0.000    0.000 
#    0.000    0.000    0.000    0.000    0.000    0.000 
#
# Total GULP energy -396648.285613 kJ/mol
# GULP energy per Si atom -12395.258925 kJ/mol
# Density = 2.065810 g / cm^3
# Si number density = 20.705223 Si / 1000 Ang^3
#
#
#
# Elastic Constant Matrix: (Units=GPa)
#
#
# Indices 1 2 3 4 5 6 
#
# 1 124.8851 42.9968 13.8176 0.0000 2.6407 0.0000
# 2 42.9968 78.7104 19.0432 0.0000 -0.6350 0.0000
# 3 13.8176 19.0432 115.2062 0.0000 8.7868 0.0000
# 4 0.0000 0.0000 0.0000 11.2642 0.0000 4.9228
# 5 2.6407 -0.6350 8.7868 0.0000 28.6145 0.0000
# 6 0.0000 0.0000 0.0000 4.9228 0.0000 37.7046
#
#
#
# Elastic Compliance Matrix: (Units=1/GPa)
#
#
# Indices 1 2 3 4 5 6 
#
# 1 0.009898 -0.005360 -0.000228 0.000000 -0.000962 0.000000
# 2 -0.005360 0.016164 -0.002144 0.000000 0.001512 0.000000
# 3 -0.000228 -0.002144 0.009281 0.000000 -0.002877 0.000000
# 4 0.000000 0.000000 0.000000 0.094149 0.000000 -0.012292
# 5 -0.000962 0.001512 -0.002877 0.000000 0.035953 0.000000
# 6 0.000000 0.000000 0.000000 -0.012292 0.000000 0.028127
#
#
# Mechanical properties :
#
#
# Convention : Reuss Voigt Hill
#
# Bulk Modulus (GPa) = 50.30309 52.27966 51.29137
# Shear Modulus (GPa) = 23.18440 31.71291 27.44865
#
# Velocity S-wave (km/s) = 3.34988 3.91786 3.64495
# Velocity P-wave (km/s) = 6.26976 6.76539 6.52228
#
# Compressibility (1/GPa) = 0.01987950
#
# Stress axis : x y z
#
# Youngs Moduli (GPa) = 101.02831 61.86738 107.74408
#
# Poissons Ratio (x) = 0.33159 0.02455
# Poissons Ratio (y) = 0.54148 0.23103
# Poissons Ratio (z) = 0.02302 0.13266
#
# Static dielectric constant tensor:
#      x y z
#    x 4.109540 0.000000 0.064630 
#    y 0.000000 3.919050 0.000000 
#    z 0.064630 0.000000 3.876510 
# 
# 
# High freq. dielectric constant tensor:
#      x y z
#    x 1.825690 0.000000 0.000320 
#    y 0.000000 1.790150 0.000000 
#    z 0.000320 0.000000 1.804580 
# 
# From -- ./inp_files/63410.got.cif
#   From: 2010.06.25/outbox.cif.g09.slc.cpg/sg15_32_cif.got.tgz:63410.got - 2010.06.28 07:06:18.
