data_PCOD8145816
_publ_section_title
;
Structure prediction by ZEFSAII (Michael W. Deem and Ramdas Pophale) SiO2 
 PCOD8145816
Probable space group: C 2/C
;
_chemical_formula_sum "Si O2"
_cell_formula_units_Z 56
_cell_length_a 9.590552
_cell_length_b 27.484875
_cell_length_c 10.619047
_cell_angle_alpha 90.000000
_cell_angle_beta 103.496578
_cell_angle_gamma 90.000000
_cell_volume 2721.827864
_symmetry_space_group_name_H-M "C 2/C"
_symmetry_group_IT_number 15
_symmetry_cell_setting 'monoclinic'
loop_
_space_group_symop_operation_xyz
x,y,z
-x,y,1/2-z
-x,-y,-z
x,-y,1/2+z
1/2+x,1/2+y,z
1/2-x,1/2+y,1/2-z
1/2-x,1/2-y,-z
1/2+x,1/2-y,1/2+z
loop_
_atom_site_type_symbol
_atom_site_label
_atom_site_fract_x
_atom_site_fract_y
_atom_site_fract_z
Si Si1 0.185485 0.219251 0.185901
Si Si2 0.384367 0.142327 0.117217
Si Si3 0.129888 0.211090 0.445257
Si Si4 0.636686 0.013457 0.651845
Si Si5 0.151872 0.818672 0.217555
Si Si6 0.666016 0.966836 0.897289
Si Si7 0.090448 0.375675 0.153692
O O1 0.266667 0.184766 0.103927
O O2 0.166261 0.189387 0.314333
O O3 0.272283 0.268288 0.229369
O O4 0.031039 0.233775 0.094877
O O5 0.500000 0.150828 0.250000
O O6 0.304970 0.090334 0.114832
O O7 0.457455 0.145241 0.993431
O O8 0.250000 0.250000 0.500000
O O9 0.135045 0.173435 0.562800
O O10 0.731914 0.012853 0.543553
O O11 0.569084 0.066674 0.653549
O O12 0.731270 0.997230 0.793289
O O13 0.506068 0.974729 0.622294
O O14 0.243014 0.863590 0.289621
O O15 0.000000 0.820597 0.250000
O O16 0.000000 0.351690 0.250000
#
# Coordination Sequence:
#
# PCOD8145816 Si02
#       7
#     8   8   8   8   8   8   8
#     4  10  22  40  60  86 120 160 201 250 297 359
#     4  11  22  34  57  91 124 159 197 244 306 364
#     4   9  21  40  61  82 114 159 206 250 295 349
#     4   9  16  32  50  80 118 148 191 253 296 335
#     4  11  24  40  59  86 124 163 197 245 307 359
#     4   9  16  30  51  80 119 150 191 245 299 344
#     4  11  24  35  58  90 121 158 208 253 293 358
#
# _framework density 20.57441
#
# number of rings (size 3 to 8) (size 9 to 14) (size 15 to 20)
#    0.000    2.000    2.857    1.286    6.000    3.429 
#    0.000    0.000    0.000    0.000    3.714    3.000 
#    0.000    0.000    0.000    0.000    0.000    0.000 
#
# Total GULP energy -346904.523509 kJ/mol
# GULP energy per Si atom -12389.447268 kJ/mol
# Density = 2.052758 g / cm^3
# Si number density = 20.574410 Si / 1000 Ang^3
#
#
#
# Elastic Constant Matrix: (Units=GPa)
#
#
# Indices 1 2 3 4 5 6 
#
# 1 81.7024 24.6330 51.2297 0.0000 -2.2202 0.0000
# 2 24.6330 60.4347 22.4405 0.0000 -3.8270 0.0000
# 3 51.2297 22.4405 160.5189 0.0000 -23.0924 0.0000
# 4 0.0000 0.0000 0.0000 26.8062 0.0000 -5.6154
# 5 -2.2202 -3.8270 -23.0924 0.0000 34.0500 0.0000
# 6 0.0000 0.0000 0.0000 -5.6154 0.0000 13.1745
#
#
#
# Elastic Compliance Matrix: (Units=1/GPa)
#
#
# Indices 1 2 3 4 5 6 
#
# 1 0.016921 -0.005190 -0.005097 0.000000 -0.002937 0.000000
# 2 -0.005190 0.019048 -0.000828 0.000000 0.001241 0.000000
# 3 -0.005097 -0.000828 0.008766 0.000000 0.005520 0.000000
# 4 0.000000 0.000000 0.000000 0.040962 0.000000 0.017459
# 5 -0.002937 0.001241 0.005520 0.000000 0.033060 0.000000
# 6 0.000000 0.000000 0.000000 0.017459 0.000000 0.083346
#
#
# Mechanical properties :
#
#
# Convention : Reuss Voigt Hill
#
# Bulk Modulus (GPa) = 44.43496 55.47360 49.95428
# Shear Modulus (GPa) = 21.56702 28.42966 24.99834
#
# Velocity S-wave (km/s) = 3.24117 3.72129 3.48950
# Velocity P-wave (km/s) = 5.97085 6.74425 6.36930
#
# Compressibility (1/GPa) = 0.02250480
#
# Stress axis : x y z
#
# Youngs Moduli (GPa) = 59.09965 52.49810 114.07192
#
# Poissons Ratio (x) = 0.27247 0.58144
# Poissons Ratio (y) = 0.30673 0.09445
# Poissons Ratio (z) = 0.30124 0.04347
#
# Static dielectric constant tensor:
#      x y z
#    x 3.458740 0.000000 -0.400450 
#    y 0.000000 3.449000 0.000000 
#    z -0.400450 0.000000 4.802420 
# 
# 
# High freq. dielectric constant tensor:
#      x y z
#    x 1.759420 0.000000 -0.026600 
#    y 0.000000 1.778130 0.000000 
#    z -0.026600 0.000000 1.840660 
# 
# From -- ./inp_files/81404.got.cif
#   From: 2010.06.25/outbox.cif.g09.slc.cpg/sg15_41_cif.got.tgz:81404.got - 2010.06.28 07:06:18.
