data_PCOD8145866
_publ_section_title
;
Structure prediction by ZEFSAII (Michael W. Deem and Ramdas Pophale) SiO2 
 PCOD8145866
Probable space group: C 2/C
;
_chemical_formula_sum "Si O2"
_cell_formula_units_Z 48
_cell_length_a 11.259149
_cell_length_b 14.945767
_cell_length_c 14.517606
_cell_angle_alpha 90.000000
_cell_angle_beta 79.302799
_cell_angle_gamma 90.000000
_cell_volume 2400.519309
_symmetry_space_group_name_H-M "C 2/C"
_symmetry_group_IT_number 15
_symmetry_cell_setting 'monoclinic'
loop_
_space_group_symop_operation_xyz
x,y,z
-x,y,1/2-z
-x,-y,-z
x,-y,1/2+z
1/2+x,1/2+y,z
1/2-x,1/2+y,1/2-z
1/2-x,1/2-y,-z
1/2+x,1/2-y,1/2+z
loop_
_atom_site_type_symbol
_atom_site_label
_atom_site_fract_x
_atom_site_fract_y
_atom_site_fract_z
Si Si1 0.107646 0.295942 0.448556
Si Si2 0.778361 0.890732 0.542095
Si Si3 0.133105 0.229962 0.074178
Si Si4 0.823949 0.999278 0.701806
Si Si5 0.637034 0.153347 0.742006
Si Si6 0.594725 0.526139 0.110415
O O1 0.147114 0.199775 0.480781
O O2 0.146684 0.372808 0.515668
O O3 0.964014 0.295694 0.459297
O O4 0.168000 0.317474 0.341230
O O5 0.766203 0.917974 0.650913
O O6 0.845849 0.970212 0.479391
O O7 0.149437 0.257709 0.178138
O O8 0.086601 0.128281 0.077417
O O9 0.250000 0.250000 0.000000
O O10 0.739186 0.084206 0.694158
O O11 0.822281 0.976326 0.810180
O O12 0.962029 0.014273 0.648907
O O13 0.500000 0.113950 0.750000
#
# Coordination Sequence:
#
# PCOD8145866 Si02
#       6
#     8   8   8   8   8   8
#     4  10  22  40  61  92 125 168 201 255 321 367
#     4  11  21  39  66  88 129 157 206 263 309 365
#     4  11  23  40  64  93 123 169 209 254 308 385
#     4  11  22  39  65  93 120 165 210 261 307 368
#     4  10  22  42  61  85 130 166 205 252 319 375
#     4  11  23  39  66  95 122 161 215 256 306 376
#
# _framework density 19.995671999999999
#
# number of rings (size 3 to 8) (size 9 to 14) (size 15 to 20)
#    0.000    1.333    3.333    2.500    7.000    0.000 
#    3.000    2.500    0.000    0.000    0.000    0.000 
#    0.000    0.000    0.000    0.000    0.000    0.000 
#
# Total GULP energy -297565.759719 kJ/mol
# GULP energy per Si atom -12398.573322 kJ/mol
# Density = 1.995016 g / cm^3
# Si number density = 19.995672 Si / 1000 Ang^3
#
#
#
# Elastic Constant Matrix: (Units=GPa)
#
#
# Indices 1 2 3 4 5 6 
#
# 1 99.5050 47.2882 42.0075 0.0000 -1.0211 0.0000
# 2 47.2882 85.0010 23.9961 0.0000 -0.4292 0.0000
# 3 42.0075 23.9961 91.6444 0.0000 20.0518 0.0000
# 4 0.0000 0.0000 0.0000 38.6735 0.0000 4.1934
# 5 -1.0211 -0.4292 20.0518 0.0000 37.0034 0.0000
# 6 0.0000 0.0000 0.0000 4.1934 0.0000 26.7089
#
#
#
# Elastic Compliance Matrix: (Units=1/GPa)
#
#
# Indices 1 2 3 4 5 6 
#
# 1 0.016200 -0.007192 -0.006378 0.000000 0.003820 0.000000
# 2 -0.007192 0.016059 -0.001027 0.000000 0.000544 0.000000
# 3 -0.006378 -0.001027 0.016048 0.000000 -0.008884 0.000000
# 4 0.000000 0.000000 0.000000 0.026305 0.000000 -0.004130
# 5 0.003820 0.000544 -0.008884 0.000000 0.031951 0.000000
# 6 0.000000 0.000000 0.000000 -0.004130 0.000000 0.038089
#
#
# Mechanical properties :
#
#
# Convention : Reuss Voigt Hill
#
# Bulk Modulus (GPa) = 52.32512 55.85936 54.09224
# Shear Modulus (GPa) = 27.74439 31.33439 29.53939
#
# Velocity S-wave (km/s) = 3.72898 3.96290 3.84772
# Velocity P-wave (km/s) = 6.69070 6.99542 6.84475
#
# Compressibility (1/GPa) = 0.01911128
#
# Stress axis : x y z
#
# Youngs Moduli (GPa) = 61.72995 62.27195 62.31295
#
# Poissons Ratio (x) = 0.44789 0.39743
# Poissons Ratio (y) = 0.44399 0.06400
# Poissons Ratio (z) = 0.39371 0.06396
#
# Static dielectric constant tensor:
#      x y z
#    x 3.727530 0.000000 0.348140 
#    y 0.000000 3.608740 0.000000 
#    z 0.348140 0.000000 3.842530 
# 
# 
# High freq. dielectric constant tensor:
#      x y z
#    x 1.776370 0.000000 0.023750 
#    y 0.000000 1.771520 0.000000 
#    z 0.023750 0.000000 1.791040 
# 
# From -- ./inp_files/143647.got.cif
#   From: 2010.06.25/outbox.cif.g09.slc.cpg/sg15_72_cif.got.tgz:143647.got - 2010.06.28 07:06:18.
