data_PCOD8145184
_publ_section_title
;
Structure prediction by ZEFSAII (Michael W. Deem and Ramdas Pophale) SiO2 
 PCOD8145184
Probable space group: C 2/C
;
_chemical_formula_sum "Si O2"
_cell_formula_units_Z 48
_cell_length_a 12.287444
_cell_length_b 22.821338
_cell_length_c 8.521758
_cell_angle_alpha 90.000000
_cell_angle_beta 104.160977
_cell_angle_gamma 90.000000
_cell_volume 2317.020747
_symmetry_space_group_name_H-M "C 2/C"
_symmetry_group_IT_number 15
_symmetry_cell_setting 'monoclinic'
loop_
_space_group_symop_operation_xyz
x,y,z
-x,y,1/2-z
-x,-y,-z
x,-y,1/2+z
1/2+x,1/2+y,z
1/2-x,1/2+y,1/2-z
1/2-x,1/2-y,-z
1/2+x,1/2-y,1/2+z
loop_
_atom_site_type_symbol
_atom_site_label
_atom_site_fract_x
_atom_site_fract_y
_atom_site_fract_z
Si Si1 0.300545 0.538562 0.004071
Si Si2 0.707389 0.283525 0.135560
Si Si3 0.119703 0.628104 0.864736
Si Si4 0.472940 0.378859 0.422908
Si Si5 0.379638 0.170607 0.284044
Si Si6 0.693327 0.418163 0.643489
O O1 0.323015 0.553109 0.192766
O O2 0.183833 0.566549 0.904270
O O3 0.403988 0.562347 0.937678
O O4 0.292241 0.468807 0.981368
O O5 0.807299 0.328219 0.222396
O O6 0.597991 0.321803 0.051869
O O7 0.675869 0.235509 0.256815
O O8 0.750000 0.250000 0.000000
O O9 0.000000 0.614387 0.750000
O O10 0.105603 0.658211 0.027540
O O11 0.500000 0.377528 0.250000
O O12 0.586612 0.378081 0.564242
O O13 0.500000 0.169137 0.250000
O O14 0.302317 0.122687 0.173029
#
# Coordination Sequence:
#
# PCOD8145184 Si02
#       6
#     8   8   8   8   8   8
#     4  10  22  39  59  88 121 156 198 244 296 357
#     4   9  20  39  59  86 120 155 200 245 293 354
#     4   9  20  38  60  82 114 157 197 239 294 352
#     4  11  22  38  62  91 120 155 198 249 301 352
#     4  10  22  38  57  86 118 152 198 247 293 346
#     4  11  23  40  62  87 121 161 197 244 301 357
#
# _framework density 20.716256999999999
#
# number of rings (size 3 to 8) (size 9 to 14) (size 15 to 20)
#    0.000    2.000    0.000    3.500    0.000    7.333 
#    0.000    5.833    0.000    0.000    0.000    0.000 
#    0.000    0.000    0.000    0.000    0.000    0.000 
#
# Total GULP energy -297598.668732 kJ/mol
# GULP energy per Si atom -12399.944531 kJ/mol
# Density = 2.066911 g / cm^3
# Si number density = 20.716257 Si / 1000 Ang^3
#
#
#
# Elastic Constant Matrix: (Units=GPa)
#
#
# Indices 1 2 3 4 5 6 
#
# 1 158.5755 61.7643 55.9749 0.0000 10.5363 0.0000
# 2 61.7643 123.0701 34.3458 0.0000 1.1185 0.0000
# 3 55.9749 34.3458 84.5363 0.0000 19.7631 0.0000
# 4 0.0000 0.0000 0.0000 17.1654 0.0000 1.2592
# 5 10.5363 1.1185 19.7631 0.0000 28.2218 0.0000
# 6 0.0000 0.0000 0.0000 1.2592 0.0000 28.2618
#
#
#
# Elastic Compliance Matrix: (Units=1/GPa)
#
#
# Indices 1 2 3 4 5 6 
#
# 1 0.009297 -0.003323 -0.004813 0.000000 0.000031 0.000000
# 2 -0.003323 0.010525 -0.002713 0.000000 0.002723 0.000000
# 3 -0.004813 -0.002713 0.018741 0.000000 -0.011220 0.000000
# 4 0.000000 0.000000 0.000000 0.058448 0.000000 -0.002604
# 5 0.000031 0.002723 -0.011220 0.000000 0.043171 0.000000
# 6 0.000000 0.000000 0.000000 -0.002604 0.000000 0.035499
#
#
# Mechanical properties :
#
#
# Convention : Reuss Voigt Hill
#
# Bulk Modulus (GPa) = 59.29027 74.48355 66.88691
# Shear Modulus (GPa) = 24.63022 29.00292 26.81657
#
# Velocity S-wave (km/s) = 3.45183 3.74573 3.60178
# Velocity P-wave (km/s) = 6.67601 7.39861 7.04658
#
# Compressibility (1/GPa) = 0.01686617
#
# Stress axis : x y z
#
# Youngs Moduli (GPa) = 107.55653 95.00803 53.35761
#
# Poissons Ratio (x) = 0.31571 0.25683
# Poissons Ratio (y) = 0.35741 0.14474
# Poissons Ratio (z) = 0.51772 0.25772
#
# Static dielectric constant tensor:
#      x y z
#    x 4.135160 0.000000 -0.086640 
#    y 0.000000 4.059920 0.000000 
#    z -0.086640 0.000000 3.505870 
# 
# 
# High freq. dielectric constant tensor:
#      x y z
#    x 1.824880 0.000000 -0.002040 
#    y 0.000000 1.819810 0.000000 
#    z -0.002040 0.000000 1.788540 
# 
# From -- ./inp_files/31933.got.cif
#   From: 2010.06.25/outbox.cif.g09.slc.cpg/sg15_16_cif.got.tgz:31933.got - 2010.06.28 07:06:18.
