data_PCOD8145394
_publ_section_title
;
Structure prediction by ZEFSAII (Michael W. Deem and Ramdas Pophale) SiO2 
 PCOD8145394
Probable space group: C 2/C
;
_chemical_formula_sum "Si O2"
_cell_formula_units_Z 48
_cell_length_a 17.278613
_cell_length_b 7.761488
_cell_length_c 22.738631
_cell_angle_alpha 90.000000
_cell_angle_beta 50.525854
_cell_angle_gamma 90.000000
_cell_volume 2353.887531
_symmetry_space_group_name_H-M "C 2/C"
_symmetry_group_IT_number 15
_symmetry_cell_setting 'monoclinic'
loop_
_space_group_symop_operation_xyz
x,y,z
-x,y,1/2-z
-x,-y,-z
x,-y,1/2+z
1/2+x,1/2+y,z
1/2-x,1/2+y,1/2-z
1/2-x,1/2-y,-z
1/2+x,1/2-y,1/2+z
loop_
_atom_site_type_symbol
_atom_site_label
_atom_site_fract_x
_atom_site_fract_y
_atom_site_fract_z
Si Si1 0.464014 0.047686 0.453179
Si Si2 0.283716 0.832250 0.544737
Si Si3 0.609053 0.323383 0.717925
Si Si4 0.929051 0.864124 0.063527
Si Si5 0.364805 0.016964 0.710734
Si Si6 0.837555 0.117611 0.727620
O O1 0.493293 0.247365 0.435869
O O2 0.528815 0.947427 0.372204
O O3 0.500000 0.000000 0.500000
O O4 0.346018 0.008196 0.500291
O O5 0.250000 0.750000 0.500000
O O6 0.183771 0.872799 0.629101
O O7 0.362588 0.718075 0.543713
O O8 0.500000 0.270605 0.750000
O O9 0.595392 0.492144 0.764997
O O10 0.650761 0.151788 0.729067
O O11 0.856095 0.932357 0.149995
O O12 0.000000 0.000000 0.000000
O O13 0.355573 0.817323 0.735952
O O14 0.277740 0.059267 0.705139
#
# Coordination Sequence:
#
# PCOD8145394 Si02
#       6
#     8   8   8   8   8   8
#     4   9  20  37  61  90 126 163 205 261 318 371
#     4  11  23  43  62  96 128 166 216 260 336 386
#     4  12  26  42  66  94 130 177 210 274 331 373
#     4  10  22  38  65  97 122 168 217 261 318 385
#     4  11  21  40  65  94 126 165 217 269 318 384
#     4  11  22  40  68  97 127 168 229 259 319 398
#
# _framework density 20.391798999999999
#
# number of rings (size 3 to 8) (size 9 to 14) (size 15 to 20)
#    0.000    1.333    3.333    3.000    7.000    2.000 
#    0.000    0.833    0.000    0.000    0.000    0.000 
#    0.000    0.000    0.000    0.000    0.000    0.000 
#
# Total GULP energy -297406.447987 kJ/mol
# GULP energy per Si atom -12391.935333 kJ/mol
# Density = 2.034539 g / cm^3
# Si number density = 20.391799 Si / 1000 Ang^3
#
#
#
# Elastic Constant Matrix: (Units=GPa)
#
#
# Indices 1 2 3 4 5 6 
#
# 1 94.3236 30.1823 34.9865 0.0000 -5.1534 0.0010
# 2 30.1823 100.9028 37.6319 0.0000 1.8795 0.0021
# 3 34.9865 37.6319 121.0491 0.0000 -11.2985 0.0000
# 4 0.0000 0.0000 0.0000 28.3383 0.0000 -3.8862
# 5 -5.1534 1.8795 -11.2985 0.0000 38.3194 0.0000
# 6 0.0010 0.0021 0.0000 -3.8862 0.0000 28.2890
#
#
#
# Elastic Compliance Matrix: (Units=1/GPa)
#
#
# Indices 1 2 3 4 5 6 
#
# 1 0.012534 -0.002775 -0.002663 0.000000 0.001037 0.000000
# 2 -0.002775 0.011924 -0.003079 0.000000 -0.001866 -0.000001
# 3 -0.002663 -0.003079 0.010251 0.000000 0.002815 0.000000
# 4 0.000000 0.000000 0.000000 0.035966 0.000000 0.004941
# 5 0.001037 -0.001866 0.002815 0.000000 0.027157 0.000000
# 6 0.000000 -0.000001 0.000000 0.004941 0.000000 0.036028
#
#
# Mechanical properties :
#
#
# Convention : Reuss Voigt Hill
#
# Bulk Modulus (GPa) = 56.58036 57.98633 57.28335
# Shear Modulus (GPa) = 31.89055 33.22099 32.55577
#
# Velocity S-wave (km/s) = 3.95890 4.04063 3.99997
# Velocity P-wave (km/s) = 6.97883 7.08991 7.03459
#
# Compressibility (1/GPa) = 0.01767398
#
# Stress axis : x y z
#
# Youngs Moduli (GPa) = 79.78076 83.86635 97.55347
#
# Poissons Ratio (x) = 0.23276 0.25981
# Poissons Ratio (y) = 0.22142 0.30035
# Poissons Ratio (z) = 0.21247 0.25821
#
# Static dielectric constant tensor:
#      x y z
#    x 3.145590 0.000000 0.512720 
#    y 0.000000 3.937770 0.000010 
#    z 0.512720 0.000010 3.145140 
# 
# 
# High freq. dielectric constant tensor:
#      x y z
#    x 1.783700 0.000000 -0.013650 
#    y 0.000000 1.788230 0.000000 
#    z -0.013650 0.000000 1.813530 
# 
# From -- ./inp_files/247304.got.cif
#   From: 2010.06.25/outbox.cif.g09.slc.cpg/sg15_124_cif.got.tgz:247304.got - 2010.06.28 07:06:18.
