data_PCOD8145156
_publ_section_title
;
Structure prediction by ZEFSAII (Michael W. Deem and Ramdas Pophale) SiO2 
 PCOD8145156
Probable space group: C 2/C
;
_chemical_formula_sum "Si O2"
_cell_formula_units_Z 60
_cell_length_a 19.331999
_cell_length_b 6.862449
_cell_length_c 19.513755
_cell_angle_alpha 90.000000
_cell_angle_beta 88.881830
_cell_angle_gamma 90.000000
_cell_volume 2588.296547
_symmetry_space_group_name_H-M "C 2/C"
_symmetry_group_IT_number 15
_symmetry_cell_setting 'monoclinic'
loop_
_space_group_symop_operation_xyz
x,y,z
-x,y,1/2-z
-x,-y,-z
x,-y,1/2+z
1/2+x,1/2+y,z
1/2-x,1/2+y,1/2-z
1/2-x,1/2-y,-z
1/2+x,1/2-y,1/2+z
loop_
_atom_site_type_symbol
_atom_site_label
_atom_site_fract_x
_atom_site_fract_y
_atom_site_fract_z
Si Si1 0.978554 0.508488 0.883995
Si Si2 0.309456 0.524104 0.040772
Si Si3 0.753613 0.074147 0.180267
Si Si4 0.844090 0.730968 0.867838
Si Si5 0.070394 0.301537 0.484149
Si Si6 0.146096 0.091381 0.717970
Si Si7 0.318602 0.111174 0.020574
Si Si8 0.000000 0.712133 0.250000
O O1 0.909810 0.594598 0.852511
O O2 0.017470 0.416168 0.817711
O O3 0.015848 0.691083 0.922452
O O4 0.963571 0.337551 0.940711
O O5 0.280963 0.647985 0.105534
O O6 0.383545 0.606332 0.013657
O O7 0.250375 0.525140 0.981704
O O8 0.317238 0.300192 0.069907
O O9 0.697628 0.228999 0.207206
O O10 0.716700 0.863409 0.176575
O O11 0.821905 0.052007 0.225257
O O12 0.825351 0.721018 0.947693
O O13 0.857475 0.956602 0.849667
O O14 0.116782 0.484489 0.461287
O O15 0.068188 0.156770 0.737065
#
# Coordination Sequence:
#
# PCOD8145156 Si02
#       8
#     8   8   8   8   8   8   8   4
#     4  10  24  46  66  99 141 183 231 283 340 421
#     4  10  22  37  67 101 132 173 225 282 348 404
#     4  11  24  44  69 104 133 181 233 280 345 416
#     4  10  22  44  68  94 139 176 226 277 347 399
#     4  10  22  43  68  96 138 182 224 284 351 403
#     4  12  26  45  71 101 140 187 230 287 345 419
#     4   9  21  39  63 102 132 167 222 288 330 423
#     4  12  28  44  74 104 140 188 236 284 352 416
#
# _framework density 23.181267999999999
#
# number of rings (size 3 to 8) (size 9 to 14) (size 15 to 20)
#    0.000    1.600    2.667    0.400    3.733    6.933 
#    0.000    2.000    0.000    0.000    0.000    0.000 
#    0.000    0.000    0.000    0.000    0.000    0.000 
#
# Total GULP energy -371717.283878 kJ/mol
# GULP energy per Si atom -12390.576129 kJ/mol
# Density = 2.312851 g / cm^3
# Si number density = 23.181268 Si / 1000 Ang^3
#
#
#
# Elastic Constant Matrix: (Units=GPa)
#
#
# Indices 1 2 3 4 5 6 
#
# 1 94.6889 37.5993 32.0829 0.0000 5.4183 0.0000
# 2 37.5993 63.6278 48.6703 0.0000 -9.5920 0.0000
# 3 32.0829 48.6703 71.2673 0.0000 3.5193 0.0000
# 4 0.0000 0.0000 0.0000 21.8130 0.0000 -6.1564
# 5 5.4183 -9.5920 3.5193 0.0000 26.7643 0.0000
# 6 0.0000 0.0000 0.0000 -6.1564 0.0000 53.4133
#
#
#
# Elastic Compliance Matrix: (Units=1/GPa)
#
#
# Indices 1 2 3 4 5 6 
#
# 1 0.014805 -0.010324 0.000721 0.000000 -0.006792 0.000000
# 2 -0.010324 0.047234 -0.028735 0.000000 0.022797 0.000000
# 3 0.000721 -0.028735 0.034068 0.000000 -0.014924 0.000000
# 4 0.000000 0.000000 0.000000 0.047386 0.000000 0.005462
# 5 -0.006792 0.022797 -0.014924 0.000000 0.048871 0.000000
# 6 0.000000 0.000000 0.000000 0.005462 0.000000 0.019351
#
#
# Mechanical properties :
#
#
# Convention : Reuss Voigt Hill
#
# Bulk Modulus (GPa) = 51.46579 51.80988 51.63784
# Shear Modulus (GPa) = 16.95674 27.81356 22.38515
#
# Velocity S-wave (km/s) = 2.70753 3.46761 3.11087
# Velocity P-wave (km/s) = 5.65897 6.19926 5.93527
#
# Compressibility (1/GPa) = 0.01943038
#
# Stress axis : x y z
#
# Youngs Moduli (GPa) = 67.54635 21.17114 29.35290
#
# Poissons Ratio (x) = 0.21857 -0.02117
# Poissons Ratio (y) = 0.69735 0.84347
# Poissons Ratio (z) = -0.04872 0.60836
#
# Static dielectric constant tensor:
#      x y z
#    x 4.388690 0.000000 -0.028630 
#    y 0.000000 4.068300 0.000000 
#    z -0.028630 0.000000 4.066570 
# 
# 
# High freq. dielectric constant tensor:
#      x y z
#    x 1.926040 0.000000 -0.000420 
#    y 0.000000 1.907710 0.000000 
#    z -0.000420 0.000000 1.904130 
# 
# From -- ./inp_files/278956.got.cif
#   From: 2010.06.25/outbox.cif.g09.slc.cpg/sg15_140_cif.got.tgz:278956.got - 2010.06.28 07:06:18.
