data_PCOD8145988
_publ_section_title
;
Structure prediction by ZEFSAII (Michael W. Deem and Ramdas Pophale) SiO2 
 PCOD8145988
Probable space group: C 2/C
;
_chemical_formula_sum "Si O2"
_cell_formula_units_Z 44
_cell_length_a 6.675917
_cell_length_b 13.082553
_cell_length_c 25.376271
_cell_angle_alpha 90.000000
_cell_angle_beta 79.322414
_cell_angle_gamma 90.000000
_cell_volume 2177.939032
_symmetry_space_group_name_H-M "C 2/C"
_symmetry_group_IT_number 15
_symmetry_cell_setting 'monoclinic'
loop_
_space_group_symop_operation_xyz
x,y,z
-x,y,1/2-z
-x,-y,-z
x,-y,1/2+z
1/2+x,1/2+y,z
1/2-x,1/2+y,1/2-z
1/2-x,1/2-y,-z
1/2+x,1/2-y,1/2+z
loop_
_atom_site_type_symbol
_atom_site_label
_atom_site_fract_x
_atom_site_fract_y
_atom_site_fract_z
Si Si1 0.307534 0.497357 0.795888
Si Si2 0.551372 0.615461 0.482227
Si Si3 0.354550 0.652662 0.381292
Si Si4 0.072030 0.730058 0.072342
Si Si5 0.500000 0.853087 0.750000
Si Si6 0.215872 0.285176 0.335603
O O1 0.500000 0.518141 0.750000
O O2 0.386728 0.452043 0.847521
O O3 0.147914 0.421837 0.777438
O O4 0.194401 0.603608 0.811753
O O5 0.500000 0.500000 0.500000
O O6 0.414314 0.639390 0.438717
O O7 0.790807 0.636926 0.458177
O O8 0.489870 0.692131 0.532097
O O9 0.488885 0.739264 0.346195
O O10 0.119079 0.681949 0.388846
O O11 0.204492 0.792620 0.108280
O O12 0.633262 0.784167 0.705271
#
# Coordination Sequence:
#
# PCOD8145988 Si02
#       6
#     8   8   8   8   4   8
#     4  12  25  40  65  92 124 172 212 256 328 375
#     4  10  22  40  64  94 128 167 212 259 319 383
#     4  11  23  41  65  94 129 167 215 261 317 381
#     4  10  22  41  64  91 131 164 207 270 315 373
#     4  12  24  42  62  90 128 164 212 266 308 382
#     4  11  24  42  64  93 129 166 210 265 312 377
#
# _framework density 20.202586
#
# number of rings (size 3 to 8) (size 9 to 14) (size 15 to 20)
#    0.000    1.091    4.545    1.636    0.000    5.091 
#    0.000    0.000    0.000    0.000    0.000    0.000 
#    0.000    0.000    0.000    0.000    0.000    0.000 
#
# Total GULP energy -272865.504906 kJ/mol
# GULP energy per Si atom -12402.977496 kJ/mol
# Density = 2.015660 g / cm^3
# Si number density = 20.202586 Si / 1000 Ang^3
#
#
#
# Elastic Constant Matrix: (Units=GPa)
#
#
# Indices 1 2 3 4 5 6 
#
# 1 75.7890 37.0875 24.1023 0.0000 -14.7674 0.0000
# 2 37.0875 142.4688 50.3561 0.0000 -4.9685 0.0000
# 3 24.1023 50.3561 96.8331 0.0000 -6.9797 0.0000
# 4 0.0000 0.0000 0.0000 20.5232 0.0000 -2.9642
# 5 -14.7674 -4.9685 -6.9797 0.0000 40.0088 0.0000
# 6 0.0000 0.0000 0.0000 -2.9642 0.0000 19.7910
#
#
#
# Elastic Compliance Matrix: (Units=1/GPa)
#
#
# Indices 1 2 3 4 5 6 
#
# 1 0.016532 -0.003429 -0.001947 0.000000 0.005336 0.000000
# 2 -0.003429 0.009314 -0.004049 0.000000 -0.000815 0.000000
# 3 -0.001947 -0.004049 0.012993 0.000000 0.001045 0.000000
# 4 0.000000 0.000000 0.000000 0.049803 0.000000 0.007459
# 5 0.005336 -0.000815 0.001045 0.000000 0.027045 0.000000
# 6 0.000000 0.000000 0.000000 0.007459 0.000000 0.051645
#
#
# Mechanical properties :
#
#
# Convention : Reuss Voigt Hill
#
# Bulk Modulus (GPa) = 50.02911 59.79808 54.91359
# Shear Modulus (GPa) = 25.92757 29.63426 27.78092
#
# Velocity S-wave (km/s) = 3.58631 3.83411 3.71228
# Velocity P-wave (km/s) = 6.47814 7.01883 6.75390
#
# Compressibility (1/GPa) = 0.01998836
#
# Stress axis : x y z
#
# Youngs Moduli (GPa) = 60.49034 107.35951 76.96708
#
# Poissons Ratio (x) = 0.36817 0.14984
# Poissons Ratio (y) = 0.20744 0.31164
# Poissons Ratio (z) = 0.11776 0.43470
#
# Static dielectric constant tensor:
#      x y z
#    x 3.652580 0.000000 -0.031450 
#    y 0.000000 3.592980 0.000000 
#    z -0.031450 0.000000 3.958290 
# 
# 
# High freq. dielectric constant tensor:
#      x y z
#    x 1.791390 0.000000 -0.001120 
#    y 0.000000 1.784140 0.000000 
#    z -0.001120 0.000000 1.812580 
# 
# From -- ./inp_files/260361.got.cif
#   From: 2010.06.25/outbox.cif.g09.slc.cpg/sg15_131_cif.got.tgz:260361.got - 2010.06.28 07:06:18.
