data_PCOD8145259
_publ_section_title
;
Structure prediction by ZEFSAII (Michael W. Deem and Ramdas Pophale) SiO2 
 PCOD8145259
Probable space group: C 2/C
;
_chemical_formula_sum "Si O2"
_cell_formula_units_Z 48
_cell_length_a 16.253972
_cell_length_b 21.168202
_cell_length_c 8.943679
_cell_angle_alpha 90.000000
_cell_angle_beta 51.428804
_cell_angle_gamma 90.000000
_cell_volume 2405.881553
_symmetry_space_group_name_H-M "C 2/C"
_symmetry_group_IT_number 15
_symmetry_cell_setting 'monoclinic'
loop_
_space_group_symop_operation_xyz
x,y,z
-x,y,1/2-z
-x,-y,-z
x,-y,1/2+z
1/2+x,1/2+y,z
1/2-x,1/2+y,1/2-z
1/2-x,1/2-y,-z
1/2+x,1/2-y,1/2+z
loop_
_atom_site_type_symbol
_atom_site_label
_atom_site_fract_x
_atom_site_fract_y
_atom_site_fract_z
Si Si1 0.890721 0.555306 0.956286
Si Si2 0.150160 0.788947 0.438384
Si Si3 0.193351 0.693974 0.977384
Si Si4 0.228573 0.163765 0.149704
Si Si5 0.547945 0.703925 0.543121
Si Si6 0.892475 0.572439 0.300383
O O1 0.851045 0.487754 0.940454
O O2 0.000000 0.575658 0.750000
O O3 0.792133 0.600789 0.039785
O O4 0.911392 0.551860 0.109227
O O5 0.233551 0.827361 0.242790
O O6 0.152116 0.820212 0.598192
O O7 0.183613 0.716069 0.415373
O O8 0.035492 0.792126 0.495967
O O9 0.250000 0.750000 0.000000
O O10 0.085093 0.723794 0.035391
O O11 0.182146 0.633576 0.099076
O O12 0.146769 0.159967 0.381534
O O13 0.500000 0.674282 0.750000
O O14 0.000000 0.595795 0.250000
#
# Coordination Sequence:
#
# PCOD8145259 Si02
#       6
#     8   8   8   8   8   8
#     4  11  25  42  63  93 127 166 212 257 322 383
#     4  10  22  38  60  92 128 166 205 265 319 369
#     4  11  22  37  64  99 123 165 210 259 319 376
#     4  10  24  39  60  93 128 166 212 258 319 375
#     4  11  21  37  62  93 129 161 211 258 318 373
#     4  11  24  40  64  92 128 167 209 261 318 384
#
# _framework density 19.951105999999999
#
# number of rings (size 3 to 8) (size 9 to 14) (size 15 to 20)
#    0.000    1.333    1.667    5.000    7.000    2.667 
#    0.000    0.000    0.000    1.000    4.333    0.000 
#    0.000    0.000    0.000    0.000    0.000    0.000 
#
# Total GULP energy -297482.130757 kJ/mol
# GULP energy per Si atom -12395.088782 kJ/mol
# Density = 1.990570 g / cm^3
# Si number density = 19.951106 Si / 1000 Ang^3
#
#
#
# Elastic Constant Matrix: (Units=GPa)
#
#
# Indices 1 2 3 4 5 6 
#
# 1 125.1155 49.0204 35.4143 0.0000 2.1114 0.0000
# 2 49.0204 122.5014 71.2659 0.0000 -7.1854 0.0000
# 3 35.4143 71.2659 144.1571 0.0000 1.8815 0.0000
# 4 0.0000 0.0000 0.0000 54.9017 0.0000 -12.8028
# 5 2.1114 -7.1854 1.8815 0.0000 32.5705 0.0000
# 6 0.0000 0.0000 0.0000 -12.8028 0.0000 33.6646
#
#
#
# Elastic Compliance Matrix: (Units=1/GPa)
#
#
# Indices 1 2 3 4 5 6 
#
# 1 0.009581 -0.003588 -0.000562 0.000000 -0.001380 0.000000
# 2 -0.003588 0.013074 -0.005627 0.000000 0.003442 0.000000
# 3 -0.000562 -0.005627 0.009880 0.000000 -0.001776 0.000000
# 4 0.000000 0.000000 0.000000 0.019987 0.000000 0.007601
# 5 -0.001380 0.003442 -0.001776 0.000000 0.031654 0.000000
# 6 0.000000 0.000000 0.000000 0.007601 0.000000 0.032596
#
#
# Mechanical properties :
#
#
# Convention : Reuss Voigt Hill
#
# Bulk Modulus (GPa) = 77.03360 78.13058 77.58209
# Shear Modulus (GPa) = 35.54874 39.96560 37.75717
#
# Velocity S-wave (km/s) = 4.22571 4.48054 4.35499
# Velocity P-wave (km/s) = 7.90594 8.12484 8.01614
#
# Compressibility (1/GPa) = 0.01298135
#
# Stress axis : x y z
#
# Youngs Moduli (GPa) = 104.37657 76.48579 101.21613
#
# Poissons Ratio (x) = 0.27442 0.05687
# Poissons Ratio (y) = 0.37449 0.56954
# Poissons Ratio (z) = 0.05865 0.43038
#
# Static dielectric constant tensor:
#      x y z
#    x 3.691870 0.000000 0.162930 
#    y 0.000000 3.401830 0.000000 
#    z 0.162930 0.000000 4.058410 
# 
# 
# High freq. dielectric constant tensor:
#      x y z
#    x 1.789250 0.000000 0.013970 
#    y 0.000000 1.739940 0.000000 
#    z 0.013970 0.000000 1.796970 
# 
# From -- ./inp_files/50049.got.cif
#   From: 2010.06.25/outbox.cif.g09.slc.cpg/sg15_26_cif.got.tgz:50049.got - 2010.06.28 07:06:18.
