data_PCOD8145016
_publ_section_title
;
Structure prediction by ZEFSAII (Michael W. Deem and Ramdas Pophale) SiO2 
 PCOD8145016
Probable space group: C 2/C
;
_chemical_formula_sum "Si O2"
_cell_formula_units_Z 56
_cell_length_a 5.393076
_cell_length_b 28.727835
_cell_length_c 16.424913
_cell_angle_alpha 90.000000
_cell_angle_beta 88.850761
_cell_angle_gamma 90.000000
_cell_volume 2544.222838
_symmetry_space_group_name_H-M "C 2/C"
_symmetry_group_IT_number 15
_symmetry_cell_setting 'monoclinic'
loop_
_space_group_symop_operation_xyz
x,y,z
-x,y,1/2-z
-x,-y,-z
x,-y,1/2+z
1/2+x,1/2+y,z
1/2-x,1/2+y,1/2-z
1/2-x,1/2-y,-z
1/2+x,1/2-y,1/2+z
loop_
_atom_site_type_symbol
_atom_site_label
_atom_site_fract_x
_atom_site_fract_y
_atom_site_fract_z
Si Si1 0.294404 0.759940 0.818225
Si Si2 0.479641 0.341644 0.874823
Si Si3 0.690278 0.134059 0.974710
Si Si4 0.916343 0.287479 0.539785
Si Si5 0.761394 0.654952 0.703668
Si Si6 0.974447 0.054594 0.340321
Si Si7 0.467406 0.957881 0.939305
O O1 0.500000 0.769979 0.750000
O O2 0.108234 0.803499 0.815786
O O3 0.382348 0.758318 0.911548
O O4 0.173117 0.709684 0.805239
O O5 0.208509 0.321175 0.892262
O O6 0.476581 0.389964 0.827698
O O7 0.597692 0.351189 0.963207
O O8 0.780307 0.127345 0.881386
O O9 0.511892 0.178808 0.968514
O O10 0.541136 0.089123 0.007467
O O11 0.750000 0.250000 0.500000
O O12 0.500000 0.647396 0.750000
O O13 0.000000 0.633284 0.750000
O O14 0.709317 0.040917 0.380225
O O15 0.000000 0.032339 0.250000
O O16 0.209017 0.036732 0.391611
O O17 0.500000 0.000000 0.000000
#
# Coordination Sequence:
#
# PCOD8145016 Si02
#       7
#     8   8   8   8   8   8   8
#     4  10  24  35  53  88 128 175 220 267 320 380
#     4  10  22  36  61  91 126 173 214 264 331 392
#     4  10  23  42  62  91 125 165 222 266 326 395
#     4  11  21  35  61  87 124 169 222 259 319 376
#     4  11  26  41  60  87 125 174 224 274 319 368
#     4  11  24  42  71 105 142 167 214 280 347 398
#     4  11  24  47  73 102 130 180 218 272 336 416
#
# _framework density 22.010652
#
# number of rings (size 3 to 8) (size 9 to 14) (size 15 to 20)
#    0.000    1.429    1.429    2.571   12.000    2.286 
#    0.000    2.143    0.000    0.000    0.000    0.000 
#    0.000    0.000    0.000    0.000    0.000    0.000 
#
# Total GULP energy -347003.352265 kJ/mol
# GULP energy per Si atom -12392.976867 kJ/mol
# Density = 2.196056 g / cm^3
# Si number density = 22.010652 Si / 1000 Ang^3
#
#
#
# Elastic Constant Matrix: (Units=GPa)
#
#
# Indices 1 2 3 4 5 6 
#
# 1 114.4957 22.6158 43.2727 0.0000 -5.7143 0.0000
# 2 22.6158 52.9106 34.5167 0.0000 2.3803 0.0000
# 3 43.2727 34.5167 140.2783 0.0000 -12.4316 0.0000
# 4 0.0000 0.0000 0.0000 23.1234 0.0000 3.6351
# 5 -5.7143 2.3803 -12.4316 0.0000 37.2214 0.0000
# 6 0.0000 0.0000 0.0000 3.6351 0.0000 23.7519
#
#
#
# Elastic Compliance Matrix: (Units=1/GPa)
#
#
# Indices 1 2 3 4 5 6 
#
# 1 0.010245 -0.002879 -0.002366 0.000000 0.000967 0.000000
# 2 -0.002879 0.023746 -0.005285 0.000000 -0.003726 0.000000
# 3 -0.002366 -0.005285 0.009436 0.000000 0.003126 0.000000
# 4 0.000000 0.000000 0.000000 0.044312 0.000000 -0.006782
# 5 0.000967 -0.003726 0.003126 0.000000 0.028297 0.000000
# 6 0.000000 0.000000 0.000000 -0.006782 0.000000 0.043140
#
#
# Mechanical properties :
#
#
# Convention : Reuss Voigt Hill
#
# Bulk Modulus (GPa) = 44.70961 56.49944 50.60453
# Shear Modulus (GPa) = 26.63937 30.63795 28.63866
#
# Velocity S-wave (km/s) = 3.48270 3.73495 3.61103
# Velocity P-wave (km/s) = 6.04393 6.65767 6.35821
#
# Compressibility (1/GPa) = 0.02236655
#
# Stress axis : x y z
#
# Youngs Moduli (GPa) = 97.60661 42.11303 105.97586
#
# Poissons Ratio (x) = 0.12124 0.25078
# Poissons Ratio (y) = 0.28100 0.56007
# Poissons Ratio (z) = 0.23097 0.22256
#
# Static dielectric constant tensor:
#      x y z
#    x 4.070460 0.000000 0.003870 
#    y 0.000000 3.768600 0.000000 
#    z 0.003870 0.000000 4.135730 
# 
# 
# High freq. dielectric constant tensor:
#      x y z
#    x 1.870790 0.000000 -0.002880 
#    y 0.000000 1.840160 0.000000 
#    z -0.002880 0.000000 1.881300 
# 
# From -- ./inp_files/130774.got.cif
#   From: 2010.06.25/outbox.cif.g09.slc.cpg/sg15_66_cif.got.tgz:130774.got - 2010.06.28 07:06:18.
