data_PCOD8145889
_publ_section_title
;
Structure prediction by ZEFSAII (Michael W. Deem and Ramdas Pophale) SiO2 
 PCOD8145889
Probable space group: C 2/C
;
_chemical_formula_sum "Si O2"
_cell_formula_units_Z 64
_cell_length_a 14.690423
_cell_length_b 20.050733
_cell_length_c 11.902465
_cell_angle_alpha 90.000000
_cell_angle_beta 64.784184
_cell_angle_gamma 90.000000
_cell_volume 3171.835180
_symmetry_space_group_name_H-M "C 2/C"
_symmetry_group_IT_number 15
_symmetry_cell_setting 'monoclinic'
loop_
_space_group_symop_operation_xyz
x,y,z
-x,y,1/2-z
-x,-y,-z
x,-y,1/2+z
1/2+x,1/2+y,z
1/2-x,1/2+y,1/2-z
1/2-x,1/2-y,-z
1/2+x,1/2-y,1/2+z
loop_
_atom_site_type_symbol
_atom_site_label
_atom_site_fract_x
_atom_site_fract_y
_atom_site_fract_z
Si Si1 0.846535 0.625750 0.631944
Si Si2 0.769794 0.543092 0.470301
Si Si3 0.566674 0.172528 0.513979
Si Si4 0.774348 0.392057 0.414904
Si Si5 0.414556 0.680905 0.544600
Si Si6 0.816725 0.222146 0.827300
Si Si7 0.112769 0.638203 0.238551
Si Si8 0.432670 0.614539 0.890823
O O1 0.827618 0.569180 0.549468
O O2 0.793487 0.600605 0.772543
O O3 0.798025 0.695605 0.613820
O O4 0.963800 0.634059 0.591022
O O5 0.778151 0.464008 0.469096
O O6 0.826141 0.572261 0.329983
O O7 0.651372 0.560193 0.534544
O O8 0.643130 0.155089 0.572595
O O9 0.546039 0.251895 0.535979
O O10 0.612195 0.146409 0.372576
O O11 0.665364 0.357904 0.491423
O O12 0.364145 0.707801 0.683051
O O13 0.502078 0.628551 0.531469
O O14 0.824420 0.300536 0.850245
O O15 0.880536 0.184477 0.888200
O O16 0.000000 0.637405 0.250000
O O17 0.500000 0.588511 0.750000
#
# Coordination Sequence:
#
# PCOD8145889 Si02
#       8
#     8   8   8   8   8   8   8   8
#     4  10  22  40  62  91 117 165 210 249 305 363
#     4  11  25  38  63  92 124 165 200 255 309 370
#     4  11  22  39  65  87 120 165 207 255 299 356
#     4  11  25  42  59  86 129 167 205 244 301 375
#     4   9  19  38  63  86 115 156 204 254 306 352
#     4   8  17  33  61  92 122 148 195 263 310 347
#     4  11  21  37  58  97 129 155 202 254 312 360
#     4   9  18  37  65  93 118 157 203 262 315 358
#
# _framework density 20.177593000000002
#
# number of rings (size 3 to 8) (size 9 to 14) (size 15 to 20)
#    0.000    2.000    1.250    3.375    3.500    3.000 
#    0.000    0.000    0.000    0.000    0.000    0.000 
#    0.000    0.000    0.000    0.000    0.000    0.000 
#
# Total GULP energy -396792.889216 kJ/mol
# GULP energy per Si atom -12399.777788 kJ/mol
# Density = 2.013167 g / cm^3
# Si number density = 20.177593 Si / 1000 Ang^3
#
#
#
# Elastic Constant Matrix: (Units=GPa)
#
#
# Indices 1 2 3 4 5 6 
#
# 1 137.1481 37.0851 8.2037 0.0000 3.7454 0.0000
# 2 37.0851 92.7911 14.6184 0.0000 -2.5811 0.0000
# 3 8.2037 14.6184 46.3159 0.0000 -3.2586 0.0000
# 4 0.0000 0.0000 0.0000 17.6011 0.0000 3.5841
# 5 3.7454 -2.5811 -3.2586 0.0000 12.0437 0.0000
# 6 0.0000 0.0000 0.0000 3.5841 0.0000 19.1551
#
#
#
# Elastic Compliance Matrix: (Units=1/GPa)
#
#
# Indices 1 2 3 4 5 6 
#
# 1 0.008324 -0.003318 -0.000672 0.000000 -0.003481 0.000000
# 2 -0.003318 0.012689 -0.003215 0.000000 0.002881 0.000000
# 3 -0.000672 -0.003215 0.023131 0.000000 0.005779 0.000000
# 4 0.000000 0.000000 0.000000 0.059065 0.000000 -0.011052
# 5 -0.003481 0.002881 0.005779 0.000000 0.086295 0.000000
# 6 0.000000 0.000000 0.000000 -0.011052 0.000000 0.054273
#
#
# Mechanical properties :
#
#
# Convention : Reuss Voigt Hill
#
# Bulk Modulus (GPa) = 33.63009 44.00772 38.81891
# Shear Modulus (GPa) = 18.64990 24.18319 21.41655
#
# Velocity S-wave (km/s) = 3.04351 3.46572 3.26145
# Velocity P-wave (km/s) = 5.39016 6.15406 5.78473
#
# Compressibility (1/GPa) = 0.02973527
#
# Stress axis : x y z
#
# Youngs Moduli (GPa) = 120.13793 78.80575 43.23178
#
# Poissons Ratio (x) = 0.26145 0.02906
# Poissons Ratio (y) = 0.39857 0.13898
# Poissons Ratio (z) = 0.08075 0.25334
#
# Static dielectric constant tensor:
#      x y z
#    x 3.767330 0.000000 -0.055660 
#    y 0.000000 3.585220 0.000000 
#    z -0.055660 0.000000 3.579900 
# 
# 
# High freq. dielectric constant tensor:
#      x y z
#    x 1.797490 0.000000 -0.001780 
#    y 0.000000 1.772530 0.000000 
#    z -0.001780 0.000000 1.774410 
# 
# From -- ./inp_files/99770.got.cif
#   From: 2010.06.25/outbox.cif.g09.slc.cpg/sg15_50_cif.got.tgz:99770.got - 2010.06.28 07:06:18.
