data_PCOD8145157
_publ_section_title
;
Structure prediction by ZEFSAII (Michael W. Deem and Ramdas Pophale) SiO2 
 PCOD8145157
Probable space group: C 2/C
;
_chemical_formula_sum "Si O2"
_cell_formula_units_Z 48
_cell_length_a 5.021955
_cell_length_b 17.828997
_cell_length_c 26.423743
_cell_angle_alpha 90.000000
_cell_angle_beta 65.589493
_cell_angle_gamma 90.000000
_cell_volume 2154.395703
_symmetry_space_group_name_H-M "C 2/C"
_symmetry_group_IT_number 15
_symmetry_cell_setting 'monoclinic'
loop_
_space_group_symop_operation_xyz
x,y,z
-x,y,1/2-z
-x,-y,-z
x,-y,1/2+z
1/2+x,1/2+y,z
1/2-x,1/2+y,1/2-z
1/2-x,1/2-y,-z
1/2+x,1/2-y,1/2+z
loop_
_atom_site_type_symbol
_atom_site_label
_atom_site_fract_x
_atom_site_fract_y
_atom_site_fract_z
Si Si1 0.874332 0.292206 0.386239
Si Si2 0.322804 0.906691 0.212824
Si Si3 0.016513 0.875722 0.493530
Si Si4 0.640287 0.502727 0.064087
Si Si5 0.495460 0.966679 0.633932
Si Si6 0.144762 0.304364 0.605629
O O1 0.772160 0.327325 0.447562
O O2 0.591239 0.261292 0.379576
O O3 0.026418 0.354543 0.340390
O O4 0.096008 0.223748 0.378405
O O5 0.500000 0.906193 0.250000
O O6 0.000000 0.876965 0.250000
O O7 0.303951 0.991165 0.191393
O O8 0.174571 0.929699 0.521592
O O9 0.778920 0.823556 0.540118
O O10 0.834494 0.923151 0.466225
O O11 0.894901 0.509969 0.085421
O O12 0.327174 0.506114 0.115947
O O13 0.485616 0.877088 0.642381
#
# Coordination Sequence:
#
# PCOD8145157 Si02
#       6
#     8   8   8   8   8   8
#     4  12  25  44  66 101 142 180 220 278 334 410
#     4  12  27  49  74  96 121 174 239 294 341 393
#     4  10  22  39  66 104 145 186 219 260 333 419
#     4  10  22  37  67 102 136 181 219 273 322 397
#     4  11  23  46  67  97 134 172 231 279 333 394
#     4  11  25  41  67 103 144 177 213 264 346 421
#
# _framework density 22.280028000000001
#
# number of rings (size 3 to 8) (size 9 to 14) (size 15 to 20)
#    0.000    1.000    1.667    5.000    2.333   10.000 
#    0.000    5.000    0.000    0.000    0.000    0.000 
#    0.000    0.000    0.000    0.000    0.000    0.000 
#
# Total GULP energy -297699.028088 kJ/mol
# GULP energy per Si atom -12404.126170 kJ/mol
# Density = 2.222932 g / cm^3
# Si number density = 22.280028 Si / 1000 Ang^3
#
#
#
# Elastic Constant Matrix: (Units=GPa)
#
#
# Indices 1 2 3 4 5 6 
#
# 1 95.0151 31.2808 24.8587 0.0000 -0.0547 0.0000
# 2 31.2808 104.0199 42.8942 0.0000 -8.7924 0.0000
# 3 24.8587 42.8942 75.7648 0.0000 -16.8332 0.0000
# 4 0.0000 0.0000 0.0000 24.8759 0.0000 -5.1572
# 5 -0.0547 -8.7924 -16.8332 0.0000 32.1936 0.0000
# 6 0.0000 0.0000 0.0000 -5.1572 0.0000 30.4872
#
#
#
# Elastic Compliance Matrix: (Units=1/GPa)
#
#
# Indices 1 2 3 4 5 6 
#
# 1 0.012172 -0.002606 -0.003023 0.000000 -0.002272 0.000000
# 2 -0.002606 0.013102 -0.006527 0.000000 0.000161 0.000000
# 3 -0.003023 -0.006527 0.019788 0.000000 0.008559 0.000000
# 4 0.000000 0.000000 0.000000 0.041661 0.000000 0.007047
# 5 -0.002272 0.000161 0.008559 0.000000 0.035577 0.000000
# 6 0.000000 0.000000 0.000000 0.007047 0.000000 0.033993
#
#
# Mechanical properties :
#
#
# Convention : Reuss Voigt Hill
#
# Bulk Modulus (GPa) = 48.19319 52.54081 50.36700
# Shear Modulus (GPa) = 26.66363 29.22908 27.94636
#
# Velocity S-wave (km/s) = 3.46316 3.62594 3.54548
# Velocity P-wave (km/s) = 6.13750 6.41585 6.27822
#
# Compressibility (1/GPa) = 0.02074982
#
# Stress axis : x y z
#
# Youngs Moduli (GPa) = 82.15473 76.32232 50.53695
#
# Poissons Ratio (x) = 0.19888 0.15278
# Poissons Ratio (y) = 0.21408 0.32986
# Poissons Ratio (z) = 0.24837 0.49816
#
# Static dielectric constant tensor:
#      x y z
#    x 3.935160 0.000000 -0.138720 
#    y 0.000000 4.229000 0.000000 
#    z -0.138720 0.000000 3.908060 
# 
# 
# High freq. dielectric constant tensor:
#      x y z
#    x 1.885920 0.000000 -0.008490 
#    y 0.000000 1.886040 0.000000 
#    z -0.008490 0.000000 1.857010 
# 
# From -- ./inp_files/285764.got.cif
#   From: 2010.06.25/outbox.cif.g09.slc.cpg/sg15_143_cif.got.tgz:285764.got - 2010.06.28 07:06:18.
