data_PCOD8145007
_publ_section_title
;
Structure prediction by ZEFSAII (Michael W. Deem and Ramdas Pophale) SiO2 
 PCOD8145007
Probable space group: C 2/C
;
_chemical_formula_sum "Si O2"
_cell_formula_units_Z 48
_cell_length_a 19.014133
_cell_length_b 16.816614
_cell_length_c 13.634503
_cell_angle_alpha 90.000000
_cell_angle_beta 30.545345
_cell_angle_gamma 90.000000
_cell_volume 2215.675953
_symmetry_space_group_name_H-M "C 2/C"
_symmetry_group_IT_number 15
_symmetry_cell_setting 'monoclinic'
loop_
_space_group_symop_operation_xyz
x,y,z
-x,y,1/2-z
-x,-y,-z
x,-y,1/2+z
1/2+x,1/2+y,z
1/2-x,1/2+y,1/2-z
1/2-x,1/2-y,-z
1/2+x,1/2-y,1/2+z
loop_
_atom_site_type_symbol
_atom_site_label
_atom_site_fract_x
_atom_site_fract_y
_atom_site_fract_z
Si Si1 0.741991 0.820890 0.702528
Si Si2 0.037326 0.466463 0.596933
Si Si3 0.496990 0.781046 0.865011
Si Si4 0.161371 0.863363 0.541883
Si Si5 0.348723 0.185892 0.978302
Si Si6 0.778976 0.504349 0.283813
O O1 0.646458 0.773094 0.738603
O O2 0.880385 0.771251 0.560070
O O3 0.786691 0.909249 0.611433
O O4 0.649443 0.838971 0.910048
O O5 0.045954 0.372007 0.581577
O O6 0.185949 0.495579 0.375232
O O7 0.000000 0.497489 0.750000
O O8 0.921139 0.506117 0.670646
O O9 0.500000 0.748647 0.750000
O O10 0.245115 0.873395 0.543675
O O11 0.209101 0.776301 0.447860
O O12 0.000000 0.863214 0.750000
O O13 0.183937 0.932342 0.434784
O O14 0.500000 0.179143 0.750000
#
# Coordination Sequence:
#
# PCOD8145007 Si02
#       6
#     8   8   8   8   8   8
#     4  11  24  39  66  97 123 168 214 258 315 376
#     4   9  20  37  60  87 117 165 207 257 301 365
#     4  10  22  42  64  88 127 165 214 255 306 372
#     4  10  23  42  63  91 133 165 205 265 325 371
#     4  10  24  40  67  93 124 169 213 258 314 382
#     4  10  22  36  60  92 126 159 208 259 314 370
#
# _framework density 21.663817999999999
#
# number of rings (size 3 to 8) (size 9 to 14) (size 15 to 20)
#    0.000    2.000    0.000    1.500   16.333    0.667 
#    0.000    0.833    0.000    0.000    0.000    0.000 
#    0.000    0.000    0.000    0.000    0.000    0.000 
#
# Total GULP energy -297426.863434 kJ/mol
# GULP energy per Si atom -12392.785976 kJ/mol
# Density = 2.161451 g / cm^3
# Si number density = 21.663818 Si / 1000 Ang^3
#
#
#
# Elastic Constant Matrix: (Units=GPa)
#
#
# Indices 1 2 3 4 5 6 
#
# 1 91.6121 18.6477 38.1423 -0.0004 6.7013 0.0002
# 2 18.6477 90.7479 39.9200 -0.0004 -8.7470 0.0002
# 3 38.1423 39.9200 89.4702 -0.0004 5.7482 0.0003
# 4 -0.0004 -0.0004 -0.0004 -4.9602 0.0003 15.9983
# 5 6.7013 -8.7470 5.7482 0.0003 36.3260 -0.0002
# 6 0.0002 0.0002 0.0003 15.9983 -0.0002 13.2159
#
#
#
# Elastic Compliance Matrix: (Units=1/GPa)
#
#
# Indices 1 2 3 4 5 6 
#
# 1 0.013383 -0.000572 -0.005337 0.000000 -0.001762 0.000000
# 2 -0.000572 0.014438 -0.006494 0.000000 0.004610 0.000000
# 3 -0.005337 -0.006494 0.016555 0.000000 -0.003199 0.000000
# 4 0.000000 0.000000 0.000000 -0.041107 0.000001 0.049762
# 5 -0.001762 0.004610 -0.003199 0.000001 0.029470 0.000000
# 6 0.000000 0.000000 0.000000 0.049762 0.000000 0.015428
#
#
# Mechanical properties :
#
#
# Convention : Reuss Voigt Hill
#
# Bulk Modulus (GPa) = 51.09929 51.69449 51.39689
# Shear Modulus (GPa) = 62.89528 20.59103 41.74316
#
# Velocity S-wave (km/s) = 5.39402 3.08633 4.39436
# Velocity P-wave (km/s) = 7.90142 6.05099 7.03729
#
# Compressibility (1/GPa) = 0.01956974
#
# Stress axis : x y z
#
# Youngs Moduli (GPa) = 74.72211 69.26011 60.40393
#
# Poissons Ratio (x) = 0.03963 0.32236
# Poissons Ratio (y) = 0.04276 0.39228
# Poissons Ratio (z) = 0.39877 0.44980
#
# Static dielectric constant tensor:
#      x y z
#    x 4.021920 0.000000 0.301780 
#    y 0.000000 3.992580 0.000000 
#    z 0.301780 0.000000 3.881960 
# 
# 
# High freq. dielectric constant tensor:
#      x y z
#    x 1.841050 0.000000 0.015430 
#    y 0.000000 1.859410 0.000000 
#    z 0.015430 0.000000 1.837990 
# 
# From -- ./inp_files/168833.got.cif
#   From: 2010.06.25/outbox.cif.g09.slc.cpg/sg15_85_cif.got.tgz:168833.got - 2010.06.28 07:06:18.
