data_PCOD8145266
_publ_section_title
;
Structure prediction by ZEFSAII (Michael W. Deem and Ramdas Pophale) SiO2 
 PCOD8145266
Probable space group: C 2/C
;
_chemical_formula_sum "Si O2"
_cell_formula_units_Z 48
_cell_length_a 15.556151
_cell_length_b 29.340093
_cell_length_c 9.671865
_cell_angle_alpha 90.000000
_cell_angle_beta 35.130849
_cell_angle_gamma 90.000000
_cell_volume 2540.260129
_symmetry_space_group_name_H-M "C 2/C"
_symmetry_group_IT_number 15
_symmetry_cell_setting 'monoclinic'
loop_
_space_group_symop_operation_xyz
x,y,z
-x,y,1/2-z
-x,-y,-z
x,-y,1/2+z
1/2+x,1/2+y,z
1/2-x,1/2+y,1/2-z
1/2-x,1/2-y,-z
1/2+x,1/2-y,1/2+z
loop_
_atom_site_type_symbol
_atom_site_label
_atom_site_fract_x
_atom_site_fract_y
_atom_site_fract_z
Si Si1 0.880639 0.110223 0.517767
Si Si2 0.339034 0.949898 0.631677
Si Si3 0.916820 0.121073 0.002867
Si Si4 0.175047 0.464181 0.163299
Si Si5 0.786275 0.795698 0.114456
Si Si6 0.597697 0.284858 0.833013
O O1 0.803369 0.065844 0.561693
O O2 0.763596 0.151930 0.696269
O O3 0.971455 0.097103 0.535325
O O4 0.000000 0.130182 0.250000
O O5 0.243009 0.904701 0.788970
O O6 0.516436 0.939596 0.401532
O O7 0.296849 0.970119 0.536910
O O8 0.307750 0.986394 0.792194
O O9 0.890268 0.173897 0.073916
O O10 0.000000 0.116626 0.750000
O O11 0.651246 0.762211 0.335883
O O12 0.794316 0.796467 0.937317
O O13 0.931812 0.775780 0.998102
#
# Coordination Sequence:
#
# PCOD8145266 Si02
#       6
#     8   8   8   8   8   8
#     4  11  19  38  57  84 116 148 192 236 279 330
#     4  10  22  40  57  86 115 151 190 234 286 336
#     4  11  23  38  57  85 119 151 188 236 285 337
#     4  10  22  38  61  83 117 148 191 239 280 340
#     4   9  16  31  56  78 107 139 184 231 270 328
#     4   9  17  32  52  81 107 141 183 226 276 326
#
# _framework density 18.895703000000001
#
# number of rings (size 3 to 8) (size 9 to 14) (size 15 to 20)
#    0.000    2.000    5.000    0.000    2.333    2.667 
#    0.000    6.667    0.000    0.000    0.000    0.000 
#    0.000    0.000    0.000    0.000    0.000    0.000 
#
# Total GULP energy -297504.053162 kJ/mol
# GULP energy per Si atom -12396.002215 kJ/mol
# Density = 1.885270 g / cm^3
# Si number density = 18.895703 Si / 1000 Ang^3
#
#
#
# Elastic Constant Matrix: (Units=GPa)
#
#
# Indices 1 2 3 4 5 6 
#
# 1 83.5344 27.7706 31.7564 0.0000 7.6013 0.0000
# 2 27.7706 58.4161 27.3970 0.0000 -2.3583 0.0000
# 3 31.7564 27.3970 66.5179 0.0000 15.7130 0.0000
# 4 0.0000 0.0000 0.0000 12.8888 0.0000 -5.6368
# 5 7.6013 -2.3583 15.7130 0.0000 21.4404 0.0000
# 6 0.0000 0.0000 0.0000 -5.6368 0.0000 39.7579
#
#
#
# Elastic Compliance Matrix: (Units=1/GPa)
#
#
# Indices 1 2 3 4 5 6 
#
# 1 0.015801 -0.005450 -0.004636 0.000000 -0.002803 0.000000
# 2 -0.005450 0.025281 -0.010792 0.000000 0.012622 0.000000
# 3 -0.004636 -0.010792 0.026103 0.000000 -0.018673 0.000000
# 4 0.000000 0.000000 0.000000 0.082715 0.000000 0.011727
# 5 -0.002803 0.012622 -0.018673 0.000000 0.062708 0.000000
# 6 0.000000 0.000000 0.000000 0.011727 0.000000 0.026815
#
#
# Mechanical properties :
#
#
# Convention : Reuss Voigt Hill
#
# Bulk Modulus (GPa) = 39.32827 42.47960 40.90394
# Shear Modulus (GPa) = 17.26186 22.92037 20.09111
#
# Velocity S-wave (km/s) = 3.02575 3.48658 3.26431
# Velocity P-wave (km/s) = 5.75025 6.22401 5.99181
#
# Compressibility (1/GPa) = 0.02542700
#
# Stress axis : x y z
#
# Youngs Moduli (GPa) = 63.28830 39.55606 38.30975
#
# Poissons Ratio (x) = 0.21559 0.17762
# Poissons Ratio (y) = 0.34494 0.41344
# Poissons Ratio (z) = 0.29343 0.42689
#
# Static dielectric constant tensor:
#      x y z
#    x 3.723480 0.000000 -0.080110 
#    y 0.000000 3.390810 0.000000 
#    z -0.080110 0.000000 3.283600 
# 
# 
# High freq. dielectric constant tensor:
#      x y z
#    x 1.743040 0.000000 -0.003740 
#    y 0.000000 1.731800 0.000000 
#    z -0.003740 0.000000 1.702790 
# 
# From -- ./inp_files/44405.got.cif
#   From: 2010.06.25/outbox.cif.g09.slc.cpg/sg15_23_cif.got.tgz:44405.got - 2010.06.28 07:06:18.
