data_PCOD8145950
_publ_section_title
;
Structure prediction by ZEFSAII (Michael W. Deem and Ramdas Pophale) SiO2 
 PCOD8145950
Probable space group: C 2/C
;
_chemical_formula_sum "Si O2"
_cell_formula_units_Z 44
_cell_length_a 9.929658
_cell_length_b 10.840032
_cell_length_c 19.352259
_cell_angle_alpha 90.000000
_cell_angle_beta 75.323879
_cell_angle_gamma 90.000000
_cell_volume 2015.072499
_symmetry_space_group_name_H-M "C 2/C"
_symmetry_group_IT_number 15
_symmetry_cell_setting 'monoclinic'
loop_
_space_group_symop_operation_xyz
x,y,z
-x,y,1/2-z
-x,-y,-z
x,-y,1/2+z
1/2+x,1/2+y,z
1/2-x,1/2+y,1/2-z
1/2-x,1/2-y,-z
1/2+x,1/2-y,1/2+z
loop_
_atom_site_type_symbol
_atom_site_label
_atom_site_fract_x
_atom_site_fract_y
_atom_site_fract_z
Si Si1 0.214092 0.716936 0.584171
Si Si2 0.604893 0.240908 0.858287
Si Si3 0.925255 0.002191 0.580885
Si Si4 0.639506 0.403906 0.160745
Si Si5 0.500000 0.814003 0.750000
Si Si6 0.270469 0.368842 0.783934
O O1 0.250000 0.750000 0.500000
O O2 0.298434 0.597780 0.598948
O O3 0.250078 0.825904 0.633677
O O4 0.050329 0.690494 0.612037
O O5 0.635478 0.368394 0.894056
O O6 0.701487 0.133834 0.878850
O O7 0.643667 0.268318 0.772298
O O8 0.055295 0.030105 0.612573
O O9 0.000000 0.000000 0.500000
O O10 0.566271 0.275243 0.184921
O O11 0.648358 0.499697 0.224871
O O12 0.618819 0.896253 0.770331
#
# Coordination Sequence:
#
# PCOD8145950 Si02
#       6
#     8   8   8   8   4   8
#     4  12  24  46  71 100 141 187 232 285 350 415
#     4  11  26  42  71 105 132 187 232 288 350 409
#     4  12  24  46  71  97 141 184 228 285 351 417
#     4  11  23  43  67 101 137 176 231 284 343 415
#     4  10  22  40  64 100 136 182 218 288 344 410
#     4  11  23  43  70 101 143 176 233 288 350 405
#
# _framework density 21.835443999999999
#
# number of rings (size 3 to 8) (size 9 to 14) (size 15 to 20)
#    0.000    0.727    5.455    1.636    2.545    3.636 
#    0.000    1.818    0.000    0.000    0.000    0.000 
#    0.000    0.000    0.000    0.000    0.000    0.000 
#
# Total GULP energy -272676.690460 kJ/mol
# GULP energy per Si atom -12394.395021 kJ/mol
# Density = 2.178575 g / cm^3
# Si number density = 21.835444 Si / 1000 Ang^3
#
#
#
# Elastic Constant Matrix: (Units=GPa)
#
#
# Indices 1 2 3 4 5 6 
#
# 1 145.5673 17.7684 30.3116 0.0000 -24.0685 0.0000
# 2 17.7684 60.9364 1.3287 0.0000 -12.4427 0.0000
# 3 30.3116 1.3287 107.6817 0.0000 -9.2777 0.0000
# 4 0.0000 0.0000 0.0000 20.4052 0.0000 -4.6014
# 5 -24.0685 -12.4427 -9.2777 0.0000 18.8921 0.0000
# 6 0.0000 0.0000 0.0000 -4.6014 0.0000 27.7059
#
#
#
# Elastic Compliance Matrix: (Units=1/GPa)
#
#
# Indices 1 2 3 4 5 6 
#
# 1 0.008973 -0.000474 -0.001631 0.000000 0.010319 0.000000
# 2 -0.000474 0.019066 0.000969 0.000000 0.012429 0.000000
# 3 -0.001631 0.000969 0.010034 0.000000 0.003488 0.000000
# 4 0.000000 0.000000 0.000000 0.050914 0.000000 0.008456
# 5 0.010319 0.012429 0.003488 0.000000 0.075977 0.000000
# 6 0.000000 0.000000 0.000000 0.008456 0.000000 0.037498
#
#
# Mechanical properties :
#
#
# Convention : Reuss Voigt Hill
#
# Bulk Modulus (GPa) = 27.93199 45.88922 36.91060
# Shear Modulus (GPa) = 23.07680 31.05240 27.06460
#
# Velocity S-wave (km/s) = 3.25445 3.77518 3.52444
# Velocity P-wave (km/s) = 5.19054 6.32963 5.78817
#
# Compressibility (1/GPa) = 0.03580124
#
# Stress axis : x y z
#
# Youngs Moduli (GPa) = 111.44184 52.45073 99.65808
#
# Poissons Ratio (x) = 0.02486 0.16254
# Poissons Ratio (y) = 0.05282 -0.09657
# Poissons Ratio (z) = 0.18176 -0.05083
#
# Static dielectric constant tensor:
#      x y z
#    x 3.742760 0.000000 -0.256690 
#    y 0.000000 3.894960 0.000000 
#    z -0.256690 0.000000 3.766580 
# 
# 
# High freq. dielectric constant tensor:
#      x y z
#    x 1.883040 0.000000 0.001140 
#    y 0.000000 1.852890 0.000000 
#    z 0.001140 0.000000 1.848100 
# 
# From -- ./inp_files/230115.got.cif
#   From: 2010.06.25/outbox.cif.g09.slc.cpg/sg15_116_cif.got.tgz:230115.got - 2010.06.28 07:06:18.
