data_PCOD8145074
_publ_section_title
;
Structure prediction by ZEFSAII (Michael W. Deem and Ramdas Pophale) SiO2 
 PCOD8145074
Probable space group: C 2/C
;
_chemical_formula_sum "Si O2"
_cell_formula_units_Z 56
_cell_length_a 13.451431
_cell_length_b 21.613828
_cell_length_c 17.843224
_cell_angle_alpha 90.000000
_cell_angle_beta 149.184183
_cell_angle_gamma 90.000000
_cell_volume 2657.546555
_symmetry_space_group_name_H-M "C 2/C"
_symmetry_group_IT_number 15
_symmetry_cell_setting 'monoclinic'
loop_
_space_group_symop_operation_xyz
x,y,z
-x,y,1/2-z
-x,-y,-z
x,-y,1/2+z
1/2+x,1/2+y,z
1/2-x,1/2+y,1/2-z
1/2-x,1/2-y,-z
1/2+x,1/2-y,1/2+z
loop_
_atom_site_type_symbol
_atom_site_label
_atom_site_fract_x
_atom_site_fract_y
_atom_site_fract_z
Si Si1 0.246419 0.484834 0.272606
Si Si2 0.558090 0.373915 0.020582
Si Si3 0.084066 0.295311 0.222733
Si Si4 0.586867 0.497767 0.383479
Si Si5 0.118657 0.404889 0.491988
Si Si6 0.905487 0.843438 0.770584
Si Si7 0.705371 0.914127 0.865897
O O1 0.363332 0.440792 0.405110
O O2 0.393804 0.513736 0.307420
O O3 0.161104 0.537145 0.270908
O O4 0.069760 0.448131 0.117648
O O5 0.533560 0.378326 0.915307
O O6 0.354086 0.362463 0.931492
O O7 0.699007 0.320338 0.137881
O O8 0.106719 0.226319 0.204270
O O9 0.000000 0.289473 0.250000
O O10 0.937434 0.340408 0.084756
O O11 0.500000 0.470367 0.250000
O O12 0.717424 0.558573 0.449960
O O13 0.713890 0.445954 0.506509
O O14 0.202488 0.381039 0.626762
O O15 0.000000 0.844861 0.750000
O O16 0.500000 0.881534 0.750000
#
# Coordination Sequence:
#
# PCOD8145074 Si02
#       7
#     8   8   8   8   8   8   8
#     4  10  24  39  56  85 117 164 195 227 291 354
#     4  10  22  38  60  81 120 155 196 236 287 348
#     4  10  22  37  57  86 120 155 191 235 297 359
#     4  11  24  37  57  87 121 157 197 238 281 346
#     4  11  23  35  60  83 122 159 191 238 292 332
#     4  11  23  36  58  91 119 151 196 241 293 352
#     4  11  23  40  58  83 113 159 202 236 282 346
#
# _framework density 21.072068000000002
#
# number of rings (size 3 to 8) (size 9 to 14) (size 15 to 20)
#    0.000    1.429    1.429    3.857   14.000    4.000 
#    0.000    0.000    0.000    0.857    0.000    5.000 
#    0.000    0.000    0.000    0.000    0.000    0.000 
#
# Total GULP energy -346992.349339 kJ/mol
# GULP energy per Si atom -12392.583905 kJ/mol
# Density = 2.102411 g / cm^3
# Si number density = 21.072068 Si / 1000 Ang^3
#
#
#
# Elastic Constant Matrix: (Units=GPa)
#
#
# Indices 1 2 3 4 5 6 
#
# 1 96.9471 30.9297 45.7477 0.0017 17.8418 0.0021
# 2 30.9297 74.5983 30.7882 0.0021 8.4297 -0.0006
# 3 45.7477 30.7882 113.1525 0.0121 0.9762 -0.0038
# 4 0.0017 0.0021 0.0121 19.5136 0.0064 5.3818
# 5 17.8418 8.4297 0.9762 0.0064 45.3687 -0.0022
# 6 0.0021 -0.0006 -0.0038 5.3818 -0.0022 8.6541
#
#
#
# Elastic Compliance Matrix: (Units=1/GPa)
#
#
# Indices 1 2 3 4 5 6 
#
# 1 0.014683 -0.003479 -0.004946 0.000007 -0.005021 -0.000012
# 2 -0.003479 0.016268 -0.003006 0.000001 -0.001590 0.000000
# 3 -0.004946 -0.003006 0.011636 -0.000011 0.002253 0.000013
# 4 0.000007 0.000001 -0.000011 0.061855 -0.000013 -0.038466
# 5 -0.005021 -0.001590 0.002253 -0.000013 0.024263 0.000017
# 6 -0.000012 0.000000 0.000013 -0.038466 0.000017 0.139473
#
#
# Mechanical properties :
#
#
# Convention : Reuss Voigt Hill
#
# Bulk Modulus (GPa) = 50.69989 55.51433 53.10711
# Shear Modulus (GPa) = 16.80015 26.52276 21.66146
#
# Velocity S-wave (km/s) = 2.82666 3.55162 3.20968
# Velocity P-wave (km/s) = 5.89626 6.57426 6.24447
#
# Compressibility (1/GPa) = 0.01972391
#
# Stress axis : x y z
#
# Youngs Moduli (GPa) = 68.10545 61.47075 85.94005
#
# Poissons Ratio (x) = 0.21385 0.42510
# Poissons Ratio (y) = 0.23693 0.25835
# Poissons Ratio (z) = 0.33688 0.18479
#
# Static dielectric constant tensor:
#      x y z
#    x 4.069040 -0.000180 0.035840 
#    y -0.000180 3.937320 0.000020 
#    z 0.035840 0.000020 4.302680 
# 
# 
# High freq. dielectric constant tensor:
#      x y z
#    x 1.803090 0.000000 0.005030 
#    y 0.000000 1.805270 0.000000 
#    z 0.005030 0.000000 1.853060 
# 
# From -- ./inp_files/206974.got.cif
#   From: 2010.06.25/outbox.cif.g09.slc.cpg/sg15_104_cif.got.tgz:206974.got - 2010.06.28 07:06:18.
