data_PCOD8145435
_publ_section_title
;
Structure prediction by ZEFSAII (Michael W. Deem and Ramdas Pophale) SiO2 
 PCOD8145435
Probable space group: C 2/C
;
_chemical_formula_sum "Si O2"
_cell_formula_units_Z 56
_cell_length_a 18.784923
_cell_length_b 12.578422
_cell_length_c 11.194603
_cell_angle_alpha 90.000000
_cell_angle_beta 102.988280
_cell_angle_gamma 90.000000
_cell_volume 2577.440862
_symmetry_space_group_name_H-M "C 2/C"
_symmetry_group_IT_number 15
_symmetry_cell_setting 'monoclinic'
loop_
_space_group_symop_operation_xyz
x,y,z
-x,y,1/2-z
-x,-y,-z
x,-y,1/2+z
1/2+x,1/2+y,z
1/2-x,1/2+y,1/2-z
1/2-x,1/2-y,-z
1/2+x,1/2-y,1/2+z
loop_
_atom_site_type_symbol
_atom_site_label
_atom_site_fract_x
_atom_site_fract_y
_atom_site_fract_z
Si Si1 0.326663 0.277244 0.155716
Si Si2 0.082467 0.708902 0.100388
Si Si3 0.309164 0.307248 0.771134
Si Si4 0.169017 0.633195 0.908234
Si Si5 0.740981 0.499412 0.385722
Si Si6 0.393810 0.976822 0.322657
Si Si7 0.575775 0.217861 0.522291
O O1 0.375888 0.286933 0.293334
O O2 0.255019 0.206025 0.154863
O O3 0.305976 0.394905 0.102069
O O4 0.371029 0.214232 0.071342
O O5 0.072649 0.593943 0.160221
O O6 0.129825 0.696327 0.999572
O O7 0.003912 0.761483 0.043755
O O8 0.293605 0.218560 0.664342
O O9 0.309530 0.421972 0.710692
O O10 0.388157 0.291864 0.862049
O O11 0.106734 0.565034 0.814370
O O12 0.232145 0.555527 0.982138
O O13 0.809600 0.468861 0.330689
O O14 0.437743 0.899882 0.428991
#
# Coordination Sequence:
#
# PCOD8145435 Si02
#       7
#     8   8   8   8   8   8   8
#     4  12  24  41  66  94 136 167 220 270 324 388
#     4  11  25  42  64  94 137 175 208 265 334 392
#     4  11  23  41  67  98 126 169 222 276 325 376
#     4  10  22  42  68  96 132 165 219 275 330 383
#     4  11  23  38  66 102 124 168 219 271 330 375
#     4  10  22  38  68 101 126 166 211 266 341 384
#     4  11  25  43  62  96 133 175 212 263 331 399
#
# _framework density 21.726977999999999
#
# number of rings (size 3 to 8) (size 9 to 14) (size 15 to 20)
#    0.000    1.143    5.714    1.714    6.000    2.286 
#    2.571    0.714    3.143    0.000    0.000    0.000 
#    0.000    0.000    0.000    0.000    0.000    0.000 
#
# Total GULP energy -347263.391454 kJ/mol
# GULP energy per Si atom -12402.263980 kJ/mol
# Density = 2.167753 g / cm^3
# Si number density = 21.726978 Si / 1000 Ang^3
#
#
#
# Elastic Constant Matrix: (Units=GPa)
#
#
# Indices 1 2 3 4 5 6 
#
# 1 68.7256 16.7001 38.2220 0.0000 23.5165 0.0000
# 2 16.7001 54.1308 20.6309 0.0000 8.1760 0.0000
# 3 38.2220 20.6309 111.6992 0.0000 9.7271 0.0000
# 4 0.0000 0.0000 0.0000 30.7667 0.0000 8.4947
# 5 23.5165 8.1760 9.7271 0.0000 40.9277 0.0000
# 6 0.0000 0.0000 0.0000 8.4947 0.0000 23.9536
#
#
#
# Elastic Compliance Matrix: (Units=1/GPa)
#
#
# Indices 1 2 3 4 5 6 
#
# 1 0.022401 -0.002920 -0.006184 0.000000 -0.010818 0.000000
# 2 -0.002920 0.020663 -0.002659 0.000000 -0.001818 0.000000
# 3 -0.006184 -0.002659 0.011441 0.000000 0.001365 0.000000
# 4 0.000000 0.000000 0.000000 0.036030 0.000000 -0.012778
# 5 -0.010818 -0.001818 0.001365 0.000000 0.030688 0.000000
# 6 0.000000 0.000000 0.000000 -0.012778 0.000000 0.046279
#
#
# Mechanical properties :
#
#
# Convention : Reuss Voigt Hill
#
# Bulk Modulus (GPa) = 32.28011 42.85128 37.56569
# Shear Modulus (GPa) = 24.83184 29.72977 27.28080
#
# Velocity S-wave (km/s) = 3.38435 3.70311 3.54732
# Velocity P-wave (km/s) = 5.49192 6.16843 5.83998
#
# Compressibility (1/GPa) = 0.03097883
#
# Stress axis : x y z
#
# Youngs Moduli (GPa) = 44.64028 48.39651 87.40580
#
# Poissons Ratio (x) = 0.14133 0.54051
# Poissons Ratio (y) = 0.13036 0.23240
# Poissons Ratio (z) = 0.27605 0.12868
#
# Static dielectric constant tensor:
#      x y z
#    x 3.587280 0.000000 0.111110 
#    y 0.000000 3.851660 0.000000 
#    z 0.111110 0.000000 4.329760 
# 
# 
# High freq. dielectric constant tensor:
#      x y z
#    x 1.824840 0.000000 0.004040 
#    y 0.000000 1.832050 0.000000 
#    z 0.004040 0.000000 1.881900 
# 
# From -- ./inp_files/111674.got.cif
#   From: 2010.06.25/outbox.cif.g09.slc.cpg/sg15_56_cif.got.tgz:111674.got - 2010.06.28 07:06:18.
