data_PCOD8145935
_publ_section_title
;
Structure prediction by ZEFSAII (Michael W. Deem and Ramdas Pophale) SiO2 
 PCOD8145935
Probable space group: C 2/C
;
_chemical_formula_sum "Si O2"
_cell_formula_units_Z 36
_cell_length_a 11.391187
_cell_length_b 20.701545
_cell_length_c 15.230697
_cell_angle_alpha 90.000000
_cell_angle_beta 151.046090
_cell_angle_gamma 90.000000
_cell_volume 1738.728986
_symmetry_space_group_name_H-M "C 2/C"
_symmetry_group_IT_number 15
_symmetry_cell_setting 'monoclinic'
loop_
_space_group_symop_operation_xyz
x,y,z
-x,y,1/2-z
-x,-y,-z
x,-y,1/2+z
1/2+x,1/2+y,z
1/2-x,1/2+y,1/2-z
1/2-x,1/2-y,-z
1/2+x,1/2-y,1/2+z
loop_
_atom_site_type_symbol
_atom_site_label
_atom_site_fract_x
_atom_site_fract_y
_atom_site_fract_z
Si Si1 0.298103 0.304823 0.183256
Si Si2 0.000000 0.956980 0.750000
Si Si3 0.853523 0.164204 0.448040
Si Si4 0.154001 0.611088 0.149250
Si Si5 0.836125 0.455802 0.570137
O O1 0.500000 0.337028 0.250000
O O2 0.300616 0.229505 0.160654
O O3 0.381211 0.319275 0.338298
O O4 0.027445 0.331313 0.994955
O O5 0.212375 0.912492 0.850683
O O6 0.899270 0.001723 0.605331
O O7 0.859248 0.133308 0.354248
O O8 0.724837 0.114926 0.431055
O O9 0.992274 0.553207 0.083583
O O10 0.000000 0.493031 0.750000
#
# Coordination Sequence:
#
# PCOD8145935 Si02
#       5
#     8   4   8   8   8
#     4  12  20  36  67 100 130 152 198 274 328 364
#     4  12  26  44  62  86 134 178 214 244 296 386
#     4  11  22  37  68 101 126 154 206 268 328 364
#     4  11  24  41  62  96 126 169 210 252 315 375
#     4  10  22  40  63  94 123 159 212 268 315 358
#
# _framework density 20.70478
#
# number of rings (size 3 to 8) (size 9 to 14) (size 15 to 20)
#    0.000    0.889    4.444    4.667    0.000    5.333 
#    0.000    1.111    0.000    0.000    0.000    0.000 
#    0.000    0.000    0.000    0.000    0.000    0.000 
#
# Total GULP energy -223112.258076 kJ/mol
# GULP energy per Si atom -12395.125449 kJ/mol
# Density = 2.065765 g / cm^3
# Si number density = 20.704780 Si / 1000 Ang^3
#
#
#
# Elastic Constant Matrix: (Units=GPa)
#
#
# Indices 1 2 3 4 5 6 
#
# 1 83.8922 43.8198 26.8977 0.0010 9.2154 -0.0013
# 2 43.8198 86.5155 52.4238 0.0009 3.9333 0.0016
# 3 26.8977 52.4238 146.3586 0.0007 -21.3015 0.0003
# 4 0.0010 0.0009 0.0007 30.3407 0.0006 -2.1842
# 5 9.2154 3.9333 -21.3015 0.0006 25.4101 -0.0010
# 6 -0.0013 0.0016 0.0003 -2.1842 -0.0010 15.3276
#
#
#
# Elastic Compliance Matrix: (Units=1/GPa)
#
#
# Indices 1 2 3 4 5 6 
#
# 1 0.016926 -0.007506 -0.001306 0.000000 -0.006071 0.000002
# 2 -0.007506 0.019524 -0.006444 0.000000 -0.005702 -0.000003
# 3 -0.001306 -0.006444 0.010928 0.000000 0.010632 0.000001
# 4 0.000000 0.000000 0.000000 0.033301 -0.000001 0.004745
# 5 -0.006071 -0.005702 0.010632 -0.000001 0.051352 0.000003
# 6 0.000002 -0.000003 0.000001 0.004745 0.000003 0.065918
#
#
# Mechanical properties :
#
#
# Convention : Reuss Voigt Hill
#
# Bulk Modulus (GPa) = 59.28549 62.56099 60.92324
# Shear Modulus (GPa) = 21.36003 27.12401 24.24202
#
# Velocity S-wave (km/s) = 3.21541 3.62337 3.42547
# Velocity P-wave (km/s) = 6.51775 6.91277 6.71816
#
# Compressibility (1/GPa) = 0.01686753
#
# Stress axis : x y z
#
# Youngs Moduli (GPa) = 59.08003 51.21898 91.50792
#
# Poissons Ratio (x) = 0.38444 0.11950
# Poissons Ratio (y) = 0.44344 0.58965
# Poissons Ratio (z) = 0.07715 0.33004
#
# Static dielectric constant tensor:
#      x y z
#    x 3.233250 0.000000 -0.312100 
#    y 0.000000 3.523060 -0.000010 
#    z -0.312100 -0.000010 4.276940 
# 
# 
# High freq. dielectric constant tensor:
#      x y z
#    x 1.758170 0.000000 -0.021100 
#    y 0.000000 1.797330 0.000000 
#    z -0.021100 0.000000 1.838170 
# 
# From -- ./inp_files/28945.got.cif
#   From: 2010.06.25/outbox.cif.g09.slc.cpg/sg15_15_cif.got.tgz:28945.got - 2010.06.28 07:06:18.
