data_PCOD8145561
_publ_section_title
;
Structure prediction by ZEFSAII (Michael W. Deem and Ramdas Pophale) SiO2 
 PCOD8145561
Probable space group: C 2/C
;
_chemical_formula_sum "Si O2"
_cell_formula_units_Z 48
_cell_length_a 25.253084
_cell_length_b 7.923883
_cell_length_c 11.092955
_cell_angle_alpha 90.000000
_cell_angle_beta 112.534918
_cell_angle_gamma 90.000000
_cell_volume 2050.243052
_symmetry_space_group_name_H-M "C 2/C"
_symmetry_group_IT_number 15
_symmetry_cell_setting 'monoclinic'
loop_
_space_group_symop_operation_xyz
x,y,z
-x,y,1/2-z
-x,-y,-z
x,-y,1/2+z
1/2+x,1/2+y,z
1/2-x,1/2+y,1/2-z
1/2-x,1/2-y,-z
1/2+x,1/2-y,1/2+z
loop_
_atom_site_type_symbol
_atom_site_label
_atom_site_fract_x
_atom_site_fract_y
_atom_site_fract_z
Si Si1 0.888045 0.103897 0.734953
Si Si2 0.908650 0.701403 0.497193
Si Si3 0.793453 0.891315 0.786133
Si Si4 0.710528 0.305380 0.070729
Si Si5 0.023564 0.141349 0.104963
Si Si6 0.611703 0.189675 0.514024
O O1 0.905852 0.239079 0.854834
O O2 0.885624 0.205682 0.608402
O O3 0.827876 0.011364 0.719342
O O4 0.936278 0.955373 0.762506
O O5 0.856667 0.795215 0.520524
O O6 0.894991 0.507736 0.512347
O O7 0.969422 0.752946 0.612237
O O8 0.731324 0.822510 0.693270
O O9 0.831582 0.731924 0.859945
O O10 0.777444 0.001283 0.888195
O O11 0.750000 0.250000 0.000000
O O12 0.057860 0.266136 0.048941
O O13 0.000000 0.000000 0.000000
#
# Coordination Sequence:
#
# PCOD8145561 Si02
#       6
#     8   8   8   8   8   8
#     4   9  21  41  64  91 125 166 206 256 318 373
#     4  10  22  39  61  94 126 158 212 263 304 376
#     4  10  22  39  62  94 125 159 213 262 305 379
#     4  11  23  41  63  88 122 167 209 257 314 367
#     4   9  20  40  62  89 123 156 204 258 305 373
#     4  11  21  39  65  92 126 165 200 255 323 376
#
# _framework density 23.411860000000001
#
# number of rings (size 3 to 8) (size 9 to 14) (size 15 to 20)
#    0.000    2.000    0.000    3.500    0.000    6.667 
#    0.000   15.833    0.000    0.000    0.000    0.000 
#    0.000    0.000    0.000    0.000    0.000    0.000 
#
# Total GULP energy -297327.681521 kJ/mol
# GULP energy per Si atom -12388.653397 kJ/mol
# Density = 2.335857 g / cm^3
# Si number density = 23.411860 Si / 1000 Ang^3
#
#
#
# Elastic Constant Matrix: (Units=GPa)
#
#
# Indices 1 2 3 4 5 6 
#
# 1 118.8428 12.2481 28.8284 0.0000 9.0034 0.0000
# 2 12.2481 92.8499 5.4790 0.0000 0.4730 0.0000
# 3 28.8284 5.4790 46.6860 0.0000 0.7803 0.0000
# 4 0.0000 0.0000 0.0000 29.2937 0.0000 3.7479
# 5 9.0034 0.4730 0.7803 0.0000 30.0200 0.0000
# 6 0.0000 0.0000 0.0000 3.7479 0.0000 38.9918
#
#
#
# Elastic Compliance Matrix: (Units=1/GPa)
#
#
# Indices 1 2 3 4 5 6 
#
# 1 0.010226 -0.000971 -0.006152 0.000000 -0.002892 0.000000
# 2 -0.000971 0.010938 -0.000686 0.000000 0.000137 0.000000
# 3 -0.006152 -0.000686 0.025279 0.000000 0.001199 0.000000
# 4 0.000000 0.000000 0.000000 0.034562 0.000000 -0.003322
# 5 -0.002892 0.000137 0.001199 0.000000 0.034145 0.000000
# 6 0.000000 0.000000 0.000000 -0.003322 0.000000 0.025966
#
#
# Mechanical properties :
#
#
# Convention : Reuss Voigt Hill
#
# Bulk Modulus (GPa) = 32.44240 39.05444 35.74842
# Shear Modulus (GPa) = 29.93836 33.78266 31.86051
#
# Velocity S-wave (km/s) = 3.57987 3.80277 3.69300
# Velocity P-wave (km/s) = 5.56548 5.99992 5.78678
#
# Compressibility (1/GPa) = 0.03082386
#
# Stress axis : x y z
#
# Youngs Moduli (GPa) = 97.78980 91.42458 39.55827
#
# Poissons Ratio (x) = 0.08879 0.24337
# Poissons Ratio (y) = 0.09497 0.02715
# Poissons Ratio (z) = 0.60162 0.06274
#
# Static dielectric constant tensor:
#      x y z
#    x 4.437820 0.000000 0.159950 
#    y 0.000000 4.434340 0.000000 
#    z 0.159950 0.000000 3.927270 
# 
# 
# High freq. dielectric constant tensor:
#      x y z
#    x 1.936990 0.000000 0.011030 
#    y 0.000000 1.932560 0.000000 
#    z 0.011030 0.000000 1.918570 
# 
# From -- ./inp_files/116793.got.cif
#   From: 2010.06.25/outbox.cif.g09.slc.cpg/sg15_59_cif.got.tgz:116793.got - 2010.06.28 07:06:18.
