data_PCOD8145277
_publ_section_title
;
Structure prediction by ZEFSAII (Michael W. Deem and Ramdas Pophale) SiO2 
 PCOD8145277
Probable space group: C 2/C
;
_chemical_formula_sum "Si O2"
_cell_formula_units_Z 48
_cell_length_a 5.382761
_cell_length_b 25.707996
_cell_length_c 19.648820
_cell_angle_alpha 90.000000
_cell_angle_beta 56.930414
_cell_angle_gamma 90.000000
_cell_volume 2278.548147
_symmetry_space_group_name_H-M "C 2/C"
_symmetry_group_IT_number 15
_symmetry_cell_setting 'monoclinic'
loop_
_space_group_symop_operation_xyz
x,y,z
-x,y,1/2-z
-x,-y,-z
x,-y,1/2+z
1/2+x,1/2+y,z
1/2-x,1/2+y,1/2-z
1/2-x,1/2-y,-z
1/2+x,1/2-y,1/2+z
loop_
_atom_site_type_symbol
_atom_site_label
_atom_site_fract_x
_atom_site_fract_y
_atom_site_fract_z
Si Si1 0.466065 0.290293 0.115764
Si Si2 0.500000 0.956320 0.250000
Si Si3 0.553490 0.823311 0.554102
Si Si4 0.060519 0.114597 0.058615
Si Si5 0.500000 0.664030 0.750000
Si Si6 0.818536 0.055965 0.213086
Si Si7 0.911979 0.380192 0.377829
O O1 0.456304 0.229156 0.105985
O O2 0.387123 0.299134 0.206555
O O3 0.220875 0.322079 0.109981
O O4 0.785945 0.311508 0.042267
O O5 0.331457 0.920417 0.330159
O O6 0.761268 0.994687 0.237969
O O7 0.239388 0.848789 0.583879
O O8 0.768837 0.857586 0.570447
O O9 0.980851 0.064377 0.116227
O O10 0.287693 0.095363 0.966145
O O11 0.735432 0.625838 0.679159
O O12 0.500000 0.084942 0.250000
O O13 0.000000 0.079608 0.250000
#
# Coordination Sequence:
#
# PCOD8145277 Si02
#       7
#     8   4   8   8   4   8   8
#     4  10  22  38  61  95 135 169 218 261 318 389
#     4  10  24  42  65  98 128 173 208 286 330 384
#     4  10  23  40  67  94 131 176 212 263 319 380
#     4  11  23  45  68  97 130 177 217 267 325 390
#     4  12  20  38  59  96 134 171 216 270 310 382
#     4  10  24  46  67  92 128 169 217 282 326 391
#     4  11  23  39  67  97 133 171 218 271 327 384
#
# _framework density 21.066047000000001
#
# number of rings (size 3 to 8) (size 9 to 14) (size 15 to 20)
#    0.500    1.000    3.333    1.000    3.500    2.667 
#    4.500    0.833    0.000    0.000    0.000    0.000 
#    0.000    0.000    0.000    0.000    0.000    0.000 
#
# Total GULP energy -297335.763268 kJ/mol
# GULP energy per Si atom -12388.990136 kJ/mol
# Density = 2.101810 g / cm^3
# Si number density = 21.066047 Si / 1000 Ang^3
#
#
#
# Elastic Constant Matrix: (Units=GPa)
#
#
# Indices 1 2 3 4 5 6 
#
# 1 115.7184 17.5451 33.0656 0.0000 7.4330 0.0000
# 2 17.5451 63.9909 38.1156 0.0000 1.0275 0.0000
# 3 33.0656 38.1156 154.2941 0.0000 8.7833 0.0000
# 4 0.0000 0.0000 0.0000 20.5737 0.0000 -5.2086
# 5 7.4330 1.0275 8.7833 0.0000 29.2650 0.0000
# 6 0.0000 0.0000 0.0000 -5.2086 0.0000 16.7198
#
#
#
# Elastic Compliance Matrix: (Units=1/GPa)
#
#
# Indices 1 2 3 4 5 6 
#
# 1 0.009445 -0.001662 -0.001506 0.000000 -0.001889 0.000000
# 2 -0.001662 0.018631 -0.004307 0.000000 0.001061 0.000000
# 3 -0.001506 -0.004307 0.007974 0.000000 -0.001859 0.000000
# 4 0.000000 0.000000 0.000000 0.052767 0.000000 0.016438
# 5 -0.001889 0.001061 -0.001859 0.000000 0.035171 0.000000
# 6 0.000000 0.000000 0.000000 0.016438 0.000000 0.064930
#
#
# Mechanical properties :
#
#
# Convention : Reuss Voigt Hill
#
# Bulk Modulus (GPa) = 47.39306 56.82844 52.11075
# Shear Modulus (GPa) = 23.70770 29.66352 26.68561
#
# Velocity S-wave (km/s) = 3.35834 3.75656 3.56302
# Velocity P-wave (km/s) = 6.13059 6.77131 6.45890
#
# Compressibility (1/GPa) = 0.02110014
#
# Stress axis : x y z
#
# Youngs Moduli (GPa) = 105.87216 53.67347 125.41401
#
# Poissons Ratio (x) = 0.08923 0.18887
# Poissons Ratio (y) = 0.17600 0.54011
# Poissons Ratio (z) = 0.15944 0.23115
#
# Static dielectric constant tensor:
#      x y z
#    x 3.739580 0.000000 -0.030160 
#    y 0.000000 3.548100 0.000000 
#    z -0.030160 0.000000 4.053120 
# 
# 
# High freq. dielectric constant tensor:
#      x y z
#    x 1.826320 0.000000 -0.000960 
#    y 0.000000 1.797730 0.000000 
#    z -0.000960 0.000000 1.834610 
# 
# From -- ./inp_files/228308.got.cif
#   From: 2010.06.25/outbox.cif.g09.slc.cpg/sg15_115_cif.got.tgz:228308.got - 2010.06.28 07:06:18.
