data_PCOD8145088
_publ_section_title
;
Structure prediction by ZEFSAII (Michael W. Deem and Ramdas Pophale) SiO2 
 PCOD8145088
Probable space group: C 2/C
;
_chemical_formula_sum "Si O2"
_cell_formula_units_Z 60
_cell_length_a 22.020109
_cell_length_b 8.568899
_cell_length_c 15.172035
_cell_angle_alpha 90.000000
_cell_angle_beta 81.359382
_cell_angle_gamma 90.000000
_cell_volume 2830.290082
_symmetry_space_group_name_H-M "C 2/C"
_symmetry_group_IT_number 15
_symmetry_cell_setting 'monoclinic'
loop_
_space_group_symop_operation_xyz
x,y,z
-x,y,1/2-z
-x,-y,-z
x,-y,1/2+z
1/2+x,1/2+y,z
1/2-x,1/2+y,1/2-z
1/2-x,1/2-y,-z
1/2+x,1/2-y,1/2+z
loop_
_atom_site_type_symbol
_atom_site_label
_atom_site_fract_x
_atom_site_fract_y
_atom_site_fract_z
Si Si1 0.776504 0.886125 0.935841
Si Si2 0.528039 0.500335 0.090748
Si Si3 0.619274 0.897496 0.670625
Si Si4 0.348139 0.665169 0.980101
Si Si5 0.401060 0.747924 0.334154
Si Si6 0.225760 0.484211 0.771544
Si Si7 0.000000 0.792400 0.250000
Si Si8 0.333215 0.305072 0.684532
O O1 0.839541 0.820911 0.886801
O O2 0.727656 0.917420 0.869743
O O3 0.788329 0.053378 0.981905
O O4 0.750000 0.750000 0.000000
O O5 0.594387 0.426511 0.069401
O O6 0.539018 0.671542 0.132278
O O7 0.486479 0.398794 0.166603
O O8 0.500000 0.500000 0.000000
O O9 0.653412 0.821768 0.578462
O O10 0.670003 0.898188 0.735499
O O11 0.560427 0.808513 0.721151
O O12 0.595263 0.068211 0.649062
O O13 0.356117 0.711198 0.079941
O O14 0.395328 0.704225 0.230686
O O15 0.292097 0.460658 0.708891
O O16 0.213432 0.668257 0.776066
#
# Coordination Sequence:
#
# PCOD8145088 Si02
#       8
#     8   8   8   8   8   8   4   8
#     4  10  22  37  58  91 126 166 208 256 308 382
#     4  10  23  45  66  95 118 172 214 262 321 386
#     4  10  22  43  63  92 126 166 209 269 322 378
#     4  10  23  40  62  90 129 160 215 260 319 377
#     4   9  22  42  61  93 129 155 215 259 318 382
#     4  10  22  37  59  90 125 166 207 241 323 372
#     4  10  24  44  66  90 130 162 216 266 326 374
#     4  10  22  39  62  93 125 167 201 258 314 380
#
# _framework density 21.199241000000001
#
# number of rings (size 3 to 8) (size 9 to 14) (size 15 to 20)
#    0.000    2.133    0.000    0.800    9.333    4.800 
#    4.800    1.333    0.000    0.000    0.000    0.000 
#    0.000    0.000    0.000    0.000    0.000    0.000 
#
# Total GULP energy -371863.861448 kJ/mol
# GULP energy per Si atom -12395.462048 kJ/mol
# Density = 2.115099 g / cm^3
# Si number density = 21.199241 Si / 1000 Ang^3
#
#
#
# Elastic Constant Matrix: (Units=GPa)
#
#
# Indices 1 2 3 4 5 6 
#
# 1 57.6252 38.6891 37.4279 0.0000 16.9906 0.0000
# 2 38.6891 131.7721 63.4712 0.0000 16.2256 0.0000
# 3 37.4279 63.4712 161.2699 0.0000 23.7248 0.0000
# 4 0.0000 0.0000 0.0000 33.9709 0.0000 2.0635
# 5 16.9906 16.2256 23.7248 0.0000 31.3892 0.0000
# 6 0.0000 0.0000 0.0000 2.0635 0.0000 25.7988
#
#
#
# Elastic Compliance Matrix: (Units=1/GPa)
#
#
# Indices 1 2 3 4 5 6 
#
# 1 0.025021 -0.005029 -0.002495 0.000000 -0.009058 0.000000
# 2 -0.005029 0.010526 -0.002898 0.000000 -0.000529 0.000000
# 3 -0.002495 -0.002898 0.008440 0.000000 -0.003530 0.000000
# 4 0.000000 0.000000 0.000000 0.029581 0.000000 -0.002366
# 5 -0.009058 -0.000529 -0.003530 0.000000 0.039703 0.000000
# 6 0.000000 0.000000 0.000000 -0.002366 0.000000 0.038951
#
#
# Mechanical properties :
#
#
# Convention : Reuss Voigt Hill
#
# Bulk Modulus (GPa) = 43.20937 69.98261 56.59599
# Shear Modulus (GPa) = 27.65778 32.30371 29.98074
#
# Velocity S-wave (km/s) = 3.61592 3.90784 3.76471
# Velocity P-wave (km/s) = 6.15305 7.31062 6.75667
#
# Compressibility (1/GPa) = 0.02314313
#
# Stress axis : x y z
#
# Youngs Moduli (GPa) = 39.96567 94.99890 118.48668
#
# Poissons Ratio (x) = 0.47777 0.29563
# Poissons Ratio (y) = 0.20100 0.34337
# Poissons Ratio (z) = 0.09972 0.27530
#
# Static dielectric constant tensor:
#      x y z
#    x 3.755770 0.000000 0.314660 
#    y 0.000000 4.099890 0.000000 
#    z 0.314660 0.000000 4.222430 
# 
# 
# High freq. dielectric constant tensor:
#      x y z
#    x 1.818420 0.000000 0.004810 
#    y 0.000000 1.839560 0.000000 
#    z 0.004810 0.000000 1.839810 
# 
# From -- ./inp_files/171894.got.cif
#   From: 2010.06.25/outbox.cif.g09.slc.cpg/sg15_86_cif.got.tgz:171894.got - 2010.06.28 07:06:18.
