data_PCOD8145337
_publ_section_title
;
Structure prediction by ZEFSAII (Michael W. Deem and Ramdas Pophale) SiO2 
 PCOD8145337
Probable space group: C 2/C
;
_chemical_formula_sum "Si O2"
_cell_formula_units_Z 52
_cell_length_a 18.824042
_cell_length_b 13.664840
_cell_length_c 18.939860
_cell_angle_alpha 90.000000
_cell_angle_beta 31.562624
_cell_angle_gamma 90.000000
_cell_volume 2550.075046
_symmetry_space_group_name_H-M "C 2/C"
_symmetry_group_IT_number 15
_symmetry_cell_setting 'monoclinic'
loop_
_space_group_symop_operation_xyz
x,y,z
-x,y,1/2-z
-x,-y,-z
x,-y,1/2+z
1/2+x,1/2+y,z
1/2-x,1/2+y,1/2-z
1/2-x,1/2-y,-z
1/2+x,1/2-y,1/2+z
loop_
_atom_site_type_symbol
_atom_site_label
_atom_site_fract_x
_atom_site_fract_y
_atom_site_fract_z
Si Si1 0.436480 0.777209 0.186318
Si Si2 0.806097 0.699815 0.523022
Si Si3 0.155443 0.331806 0.905451
Si Si4 0.373847 0.167211 0.232544
Si Si5 0.749278 0.474519 0.563851
Si Si6 0.873138 0.475946 0.315475
Si Si7 0.500000 0.355927 0.750000
O O1 0.288394 0.732332 0.304674
O O2 0.414913 0.887646 0.230354
O O3 0.536212 0.719015 0.155829
O O4 0.518246 0.773667 0.043237
O O5 0.750000 0.750000 0.500000
O O6 0.734466 0.750818 0.651106
O O7 0.753502 0.589572 0.569686
O O8 0.970769 0.702322 0.384631
O O9 0.143259 0.359128 0.834669
O O10 0.153763 0.426635 0.958724
O O11 0.323383 0.067978 0.312548
O O12 0.772018 0.442059 0.462960
O O13 0.603973 0.428378 0.699681
O O14 0.000000 0.520597 0.250000
#
# Coordination Sequence:
#
# PCOD8145337 Si02
#       7
#     8   8   8   8   8   8   4
#     4  11  21  40  66  91 131 162 213 258 327 371
#     4  12  24  43  67  91 125 173 217 264 299 374
#     4  11  24  41  61  97 130 170 202 264 323 385
#     4  12  26  41  64  94 133 164 219 258 319 371
#     4  11  23  40  67  93 126 164 217 258 324 364
#     4  12  20  40  66  93 116 166 215 267 297 377
#     4  10  22  38  64 100 122 162 208 274 306 382
#
# _framework density 20.391556999999999
#
# number of rings (size 3 to 8) (size 9 to 14) (size 15 to 20)
#    0.000    0.615    5.385    2.308    2.154    6.154 
#    0.000    0.000    0.000    6.462    0.000    0.000 
#    0.000    0.000    0.000    0.000    0.000    0.000 
#
# Total GULP energy -322134.773893 kJ/mol
# GULP energy per Si atom -12389.798996 kJ/mol
# Density = 2.034514 g / cm^3
# Si number density = 20.391557 Si / 1000 Ang^3
#
#
#
# Elastic Constant Matrix: (Units=GPa)
#
#
# Indices 1 2 3 4 5 6 
#
# 1 104.6904 36.9776 43.3198 -0.0004 22.2998 0.0004
# 2 36.9776 109.8230 50.1858 -0.0005 2.0528 0.0005
# 3 43.3198 50.1858 98.4722 -0.0008 12.6888 0.0006
# 4 -0.0004 -0.0005 -0.0008 28.0025 0.0005 4.8972
# 5 22.2998 2.0528 12.6888 0.0005 37.4263 -0.0004
# 6 0.0004 0.0005 0.0006 4.8972 -0.0004 29.2129
#
#
#
# Elastic Compliance Matrix: (Units=1/GPa)
#
#
# Indices 1 2 3 4 5 6 
#
# 1 0.013443 -0.002724 -0.003673 0.000000 -0.006615 0.000000
# 2 -0.002724 0.012499 -0.005534 0.000000 0.002814 0.000000
# 3 -0.003673 -0.005534 0.014922 0.000000 -0.002567 0.000000
# 4 0.000000 0.000000 0.000000 0.036790 -0.000001 -0.006167
# 5 -0.006615 0.002814 -0.002567 -0.000001 0.031377 0.000001
# 6 0.000000 0.000000 0.000000 -0.006167 0.000001 0.035265
#
#
# Mechanical properties :
#
#
# Convention : Reuss Voigt Hill
#
# Bulk Modulus (GPa) = 58.81852 63.77244 61.29548
# Shear Modulus (GPa) = 28.76427 31.09517 29.92972
#
# Velocity S-wave (km/s) = 3.75987 3.90924 3.83528
# Velocity P-wave (km/s) = 6.91057 7.19153 7.05245
#
# Compressibility (1/GPa) = 0.01700145
#
# Stress axis : x y z
#
# Youngs Moduli (GPa) = 74.38735 80.00499 67.01348
#
# Poissons Ratio (x) = 0.21795 0.24615
# Poissons Ratio (y) = 0.20264 0.37088
# Poissons Ratio (z) = 0.27324 0.44277
#
# Static dielectric constant tensor:
#      x y z
#    x 3.438440 0.000000 -0.467620 
#    y 0.000000 3.709150 0.000000 
#    z -0.467620 0.000000 3.183020 
# 
# 
# High freq. dielectric constant tensor:
#      x y z
#    x 1.792030 0.000000 0.007870 
#    y 0.000000 1.803160 0.000000 
#    z 0.007870 0.000000 1.805800 
# 
# From -- ./inp_files/252705.got.cif
#   From: 2010.06.25/outbox.cif.g09.slc.cpg/sg15_127_cif.got.tgz:252705.got - 2010.06.28 07:06:18.
