data_PCOD8145613
_publ_section_title
;
Structure prediction by ZEFSAII (Michael W. Deem and Ramdas Pophale) SiO2 
 PCOD8145613
Probable space group: C 2/C
;
_chemical_formula_sum "Si O2"
_cell_formula_units_Z 40
_cell_length_a 23.380746
_cell_length_b 16.610578
_cell_length_c 15.973236
_cell_angle_alpha 90.000000
_cell_angle_beta 160.904022
_cell_angle_gamma 90.000000
_cell_volume 2029.481141
_symmetry_space_group_name_H-M "C 2/C"
_symmetry_group_IT_number 15
_symmetry_cell_setting 'monoclinic'
loop_
_space_group_symop_operation_xyz
x,y,z
-x,y,1/2-z
-x,-y,-z
x,-y,1/2+z
1/2+x,1/2+y,z
1/2-x,1/2+y,1/2-z
1/2-x,1/2-y,-z
1/2+x,1/2-y,1/2+z
loop_
_atom_site_type_symbol
_atom_site_label
_atom_site_fract_x
_atom_site_fract_y
_atom_site_fract_z
Si Si1 0.870312 0.768466 0.244851
Si Si2 0.737463 0.220324 0.231313
Si Si3 0.307685 0.095959 0.463818
Si Si4 0.662769 0.558794 0.719018
Si Si5 0.517593 0.362803 0.870476
O O1 0.814533 0.711120 0.244072
O O2 0.850355 0.862571 0.241102
O O3 0.068223 0.742329 0.499577
O O4 0.750000 0.750000 0.000000
O O5 0.748955 0.133823 0.203246
O O6 0.591794 0.272159 0.979150
O O7 0.500000 0.127353 0.750000
O O8 0.171391 0.126848 0.346219
O O9 0.319943 0.998716 0.467344
O O10 0.500000 0.500000 0.500000
O O11 0.665177 0.585204 0.624470
O O12 0.500000 0.390322 0.750000
#
# Coordination Sequence:
#
# PCOD8145613 Si02
#       5
#     8   8   8   8   8
#     4  11  23  40  67  94 124 169 214 265 319 378
#     4  11  21  40  62  92 128 159 209 261 315 378
#     4  11  23  40  65  90 122 174 205 256 324 383
#     4   9  19  44  58  83 133 162 202 260 317 375
#     4  10  22  39  63  90 126 158 204 266 312 367
#
# _framework density 19.709471000000001
#
# number of rings (size 3 to 8) (size 9 to 14) (size 15 to 20)
#    0.000    1.600    6.000    1.200    2.800    4.800 
#    7.200    1.000    0.000    0.000    0.000    0.000 
#    0.000    0.000    0.000    0.000    0.000    0.000 
#
# Total GULP energy -247768.629631 kJ/mol
# GULP energy per Si atom -12388.431482 kJ/mol
# Density = 1.966461 g / cm^3
# Si number density = 19.709471 Si / 1000 Ang^3
#
#
#
# Elastic Constant Matrix: (Units=GPa)
#
#
# Indices 1 2 3 4 5 6 
#
# 1 121.8747 28.4412 58.9561 0.0000 -14.9901 0.0000
# 2 28.4412 85.0362 23.4019 0.0000 -10.0664 0.0000
# 3 58.9561 23.4019 127.4890 0.0000 2.0668 0.0000
# 4 0.0000 0.0000 0.0000 26.9712 0.0000 -0.6180
# 5 -14.9901 -10.0664 2.0668 0.0000 37.8955 0.0000
# 6 0.0000 0.0000 0.0000 -0.6180 0.0000 21.8793
#
#
#
# Elastic Compliance Matrix: (Units=1/GPa)
#
#
# Indices 1 2 3 4 5 6 
#
# 1 0.011675 -0.001982 -0.005106 0.000000 0.004370 0.000000
# 2 -0.001982 0.013180 -0.001548 0.000000 0.002801 0.000000
# 3 -0.005106 -0.001548 0.010538 0.000000 -0.003006 0.000000
# 4 0.000000 0.000000 0.000000 0.037101 0.000000 0.001048
# 5 0.004370 0.002801 -0.003006 0.000000 0.029025 0.000000
# 6 0.000000 0.000000 0.000000 0.001048 0.000000 0.045735
#
#
# Mechanical properties :
#
#
# Convention : Reuss Voigt Hill
#
# Bulk Modulus (GPa) = 55.18593 61.77757 58.48175
# Shear Modulus (GPa) = 29.31387 32.25590 30.78489
#
# Velocity S-wave (km/s) = 3.86073 4.04984 3.95642
# Velocity P-wave (km/s) = 6.92345 7.29935 7.11388
#
# Compressibility (1/GPa) = 0.01812056
#
# Stress axis : x y z
#
# Youngs Moduli (GPa) = 85.65061 75.87033 94.89481
#
# Poissons Ratio (x) = 0.15040 0.48454
# Poissons Ratio (y) = 0.16979 0.14690
# Poissons Ratio (z) = 0.43734 0.11745
#
# Static dielectric constant tensor:
#      x y z
#    x 3.599220 0.000000 -0.087720 
#    y 0.000000 4.576580 0.000000 
#    z -0.087720 0.000000 4.051350 
# 
# 
# High freq. dielectric constant tensor:
#      x y z
#    x 1.760910 0.000000 -0.006020 
#    y 0.000000 1.762700 0.000000 
#    z -0.006020 0.000000 1.777730 
# 
# From -- ./inp_files/29229.got.cif
#   From: 2010.06.25/outbox.cif.g09.slc.cpg/sg15_15_cif.got.tgz:29229.got - 2010.06.28 07:06:18.
