data_PCOD8145432
_publ_section_title
;
Structure prediction by ZEFSAII (Michael W. Deem and Ramdas Pophale) SiO2 
 PCOD8145432
Probable space group: C 2/C
;
_chemical_formula_sum "Si O2"
_cell_formula_units_Z 64
_cell_length_a 18.067028
_cell_length_b 18.399006
_cell_length_c 15.469009
_cell_angle_alpha 90.000000
_cell_angle_beta 142.615678
_cell_angle_gamma 90.000000
_cell_volume 3122.091354
_symmetry_space_group_name_H-M "C 2/C"
_symmetry_group_IT_number 15
_symmetry_cell_setting 'monoclinic'
loop_
_space_group_symop_operation_xyz
x,y,z
-x,y,1/2-z
-x,-y,-z
x,-y,1/2+z
1/2+x,1/2+y,z
1/2-x,1/2+y,1/2-z
1/2-x,1/2-y,-z
1/2+x,1/2-y,1/2+z
loop_
_atom_site_type_symbol
_atom_site_label
_atom_site_fract_x
_atom_site_fract_y
_atom_site_fract_z
Si Si1 0.417466 0.679999 0.341943
Si Si2 0.729554 0.127768 0.832042
Si Si3 0.875109 0.952045 0.173803
Si Si4 0.920662 0.931454 0.411222
Si Si5 0.972007 0.671042 0.568948
Si Si6 0.638931 0.708437 0.852342
Si Si7 0.757596 0.898343 0.554975
Si Si8 0.808194 0.259982 0.790074
O O1 0.519781 0.639541 0.491372
O O2 0.474924 0.751256 0.348851
O O3 0.364865 0.631937 0.214884
O O4 0.317602 0.694854 0.325022
O O5 0.792121 0.059024 0.842004
O O6 0.586741 0.116725 0.678711
O O7 0.783348 0.201363 0.842004
O O8 0.769661 0.128694 0.968761
O O9 0.898554 0.922507 0.290798
O O10 0.839664 0.875321 0.096432
O O11 0.000000 0.984988 0.250000
O O12 0.769329 0.013202 0.069351
O O13 0.000000 0.000000 0.500000
O O14 0.872264 0.632352 0.535824
O O15 0.917986 0.686281 0.422820
O O16 0.500000 0.732944 0.750000
O O17 0.656782 0.722738 0.766871
O O18 0.750000 0.750000 0.000000
#
# Coordination Sequence:
#
# PCOD8145432 Si02
#       8
#     8   8   8   8   8   8   8   8
#     4  10  22  38  67  95 133 167 221 269 331 401
#     4  11  23  38  64  91 133 168 213 265 327 393
#     4  11  24  42  67  95 133 169 229 275 332 400
#     4  12  22  41  65  93 128 177 214 275 328 389
#     4  10  22  41  63  92 133 171 210 268 329 406
#     4  11  26  44  74 100 132 177 228 293 339 391
#     4  11  24  41  60 100 131 179 216 269 327 405
#     4  10  22  41  66  98 131 164 216 270 336 397
#
# _framework density 20.499081
#
# number of rings (size 3 to 8) (size 9 to 14) (size 15 to 20)
#    0.000    1.250    3.750    1.125    7.000    5.500 
#    0.000    1.875    0.000    0.000    0.000    0.000 
#    0.000    0.000    0.000    0.000    0.000    0.000 
#
# Total GULP energy -396426.189180 kJ/mol
# GULP energy per Si atom -12388.318412 kJ/mol
# Density = 2.045242 g / cm^3
# Si number density = 20.499081 Si / 1000 Ang^3
#
#
#
# Elastic Constant Matrix: (Units=GPa)
#
#
# Indices 1 2 3 4 5 6 
#
# 1 132.9160 48.1655 58.1463 0.0002 -2.8548 0.0000
# 2 48.1655 98.1407 38.0498 0.0000 12.9108 0.0000
# 3 58.1463 38.0498 106.8096 0.0001 9.4762 0.0001
# 4 0.0002 0.0000 0.0001 5.5956 0.0001 35.3574
# 5 -2.8548 12.9108 9.4762 0.0001 32.1424 0.0001
# 6 0.0000 0.0000 0.0001 35.3574 0.0001 5.9330
#
#
#
# Elastic Compliance Matrix: (Units=1/GPa)
#
#
# Indices 1 2 3 4 5 6 
#
# 1 0.011329 -0.004146 -0.005060 0.000000 0.004163 0.000000
# 2 -0.004146 0.013760 -0.002179 0.000000 -0.005253 0.000000
# 3 -0.005060 -0.002179 0.013201 0.000000 -0.003466 0.000000
# 4 0.000000 0.000000 0.000000 -0.004875 0.000000 0.029054
# 5 0.004163 -0.005253 -0.003466 0.000000 0.034613 0.000000
# 6 0.000000 0.000000 0.000000 0.029054 0.000000 -0.004598
#
#
# Mechanical properties :
#
#
# Convention : Reuss Voigt Hill
#
# Bulk Modulus (GPa) = 64.43104 69.62105 67.02605
# Shear Modulus (GPa) = 54.72162 21.63451 38.17806
#
# Velocity S-wave (km/s) = 5.17229 3.25220 4.32027
# Velocity P-wave (km/s) = 8.19570 6.93824 7.59305
#
# Compressibility (1/GPa) = 0.01552047
#
# Stress axis : x y z
#
# Youngs Moduli (GPa) = 88.27049 72.67459 75.75413
#
# Poissons Ratio (x) = 0.30131 0.38330
# Poissons Ratio (y) = 0.36597 0.16505
# Poissons Ratio (z) = 0.44662 0.15834
#
# Static dielectric constant tensor:
#      x y z
#    x 3.998820 0.000000 0.334130 
#    y 0.000000 15.916860 0.000000 
#    z 0.334130 0.000000 3.883620 
# 
# 
# High freq. dielectric constant tensor:
#      x y z
#    x 1.807440 0.000000 0.009670 
#    y 0.000000 1.791020 0.000000 
#    z 0.009670 0.000000 1.807410 
# 
# From -- ./inp_files/163278.got.cif
#   From: 2010.06.25/outbox.cif.g09.slc.cpg/sg15_82_cif.got.tgz:163278.got - 2010.06.28 07:06:18.
