data_PCOD8145112
_publ_section_title
;
Structure prediction by ZEFSAII (Michael W. Deem and Ramdas Pophale) SiO2 
 PCOD8145112
Probable space group: C 2/C
;
_chemical_formula_sum "Si O2"
_cell_formula_units_Z 64
_cell_length_a 11.209285
_cell_length_b 21.129021
_cell_length_c 26.288740
_cell_angle_alpha 90.000000
_cell_angle_beta 147.600878
_cell_angle_gamma 90.000000
_cell_volume 3336.114884
_symmetry_space_group_name_H-M "C 2/C"
_symmetry_group_IT_number 15
_symmetry_cell_setting 'monoclinic'
loop_
_space_group_symop_operation_xyz
x,y,z
-x,y,1/2-z
-x,-y,-z
x,-y,1/2+z
1/2+x,1/2+y,z
1/2-x,1/2+y,1/2-z
1/2-x,1/2-y,-z
1/2+x,1/2-y,1/2+z
loop_
_atom_site_type_symbol
_atom_site_label
_atom_site_fract_x
_atom_site_fract_y
_atom_site_fract_z
Si Si1 0.844567 0.431320 0.274935
Si Si2 0.336054 0.582888 0.952609
Si Si3 0.526332 0.774824 0.947071
Si Si4 0.259021 0.970837 0.353777
Si Si5 0.724373 0.274201 0.047809
Si Si6 0.357917 0.796890 0.245517
Si Si7 0.431121 0.080244 0.014782
Si Si8 0.971338 0.027830 0.570498
O O1 0.874605 0.448257 0.344385
O O2 0.759123 0.358359 0.238735
O O3 0.667613 0.476547 0.183176
O O4 0.095971 0.441790 0.345830
O O5 0.314983 0.651165 0.969823
O O6 0.481092 0.583692 0.953199
O O7 0.458131 0.539493 0.038002
O O8 0.474218 0.753171 0.987056
O O9 0.331800 0.751152 0.839973
O O10 0.529126 0.850342 0.949133
O O11 0.750000 0.750000 0.000000
O O12 0.326240 0.918667 0.420432
O O13 0.000000 0.973477 0.250000
O O14 0.339268 0.040466 0.401060
O O15 0.966833 0.257347 0.157776
O O16 0.750000 0.250000 0.000000
O O17 0.500000 0.825613 0.250000
O O18 0.263350 0.042078 0.989670
#
# Coordination Sequence:
#
# PCOD8145112 Si02
#       8
#     8   8   8   8   8   8   8   8
#     4  11  19  37  62  86 118 153 202 242 296 359
#     4  10  22  37  61  88 120 148 202 244 297 358
#     4  11  23  40  64  90 123 164 199 254 300 366
#     4  11  24  39  59  89 122 163 199 252 301 360
#     4  10  22  40  62  87 117 161 203 247 295 358
#     4   9  20  39  61  86 116 158 207 239 293 371
#     4  11  24  40  60  90 126 155 206 246 309 359
#     4  11  20  37  61  90 115 154 189 252 301 354
#
# _framework density 19.183992
#
# number of rings (size 3 to 8) (size 9 to 14) (size 15 to 20)
#    0.000    1.500    2.500    4.125    3.500    1.500 
#    2.250    0.625    0.000    0.000    0.000    0.000 
#    0.000    0.000    0.000    0.000    0.000    0.000 
#
# Total GULP energy -396615.557047 kJ/mol
# GULP energy per Si atom -12394.236158 kJ/mol
# Density = 1.914033 g / cm^3
# Si number density = 19.183992 Si / 1000 Ang^3
#
#
#
# Elastic Constant Matrix: (Units=GPa)
#
#
# Indices 1 2 3 4 5 6 
#
# 1 88.7465 23.6885 34.8660 -0.0009 -21.8011 -0.0008
# 2 23.6885 84.7907 42.4658 0.0001 -8.0521 -0.0005
# 3 34.8660 42.4658 115.6516 0.0009 -12.0144 -0.0013
# 4 -0.0009 0.0001 0.0009 24.1688 -0.0005 -0.1523
# 5 -21.8011 -8.0521 -12.0144 -0.0005 28.5229 -0.0018
# 6 -0.0008 -0.0005 -0.0013 -0.1523 -0.0018 28.2285
#
#
#
# Elastic Compliance Matrix: (Units=1/GPa)
#
#
# Indices 1 2 3 4 5 6 
#
# 1 0.015366 -0.001892 -0.002900 0.000001 0.009989 0.000001
# 2 -0.001892 0.014786 -0.004785 0.000000 0.000713 0.000000
# 3 -0.002900 -0.004785 0.011407 0.000000 0.001237 0.000000
# 4 0.000001 0.000000 0.000000 0.041377 0.000001 0.000223
# 5 0.009989 0.000713 0.001237 0.000001 0.043417 0.000003
# 6 0.000001 0.000000 0.000000 0.000223 0.000003 0.035426
#
#
# Mechanical properties :
#
#
# Convention : Reuss Voigt Hill
#
# Bulk Modulus (GPa) = 44.63241 54.58104 49.60673
# Shear Modulus (GPa) = 26.53895 28.72861 27.63378
#
# Velocity S-wave (km/s) = 3.72343 3.87399 3.79946
# Velocity P-wave (km/s) = 6.46538 6.96588 6.72029
#
# Compressibility (1/GPa) = 0.02240524
#
# Stress axis : x y z
#
# Youngs Moduli (GPa) = 65.07712 67.62946 87.66928
#
# Poissons Ratio (x) = 0.12795 0.25426
# Poissons Ratio (y) = 0.12312 0.41950
# Poissons Ratio (z) = 0.18873 0.32361
#
# Static dielectric constant tensor:
#      x y z
#    x 3.898360 0.000000 -0.097840 
#    y 0.000000 3.353560 -0.000010 
#    z -0.097840 -0.000010 3.815240 
# 
# 
# High freq. dielectric constant tensor:
#      x y z
#    x 1.759900 0.000000 -0.001570 
#    y 0.000000 1.729840 0.000000 
#    z -0.001570 0.000000 1.750980 
# 
# From -- ./inp_files/293780.got.cif
#   From: 2010.06.25/outbox.cif.g09.slc.cpg/sg15_147_cif.got.tgz:293780.got - 2010.06.28 07:06:18.
