data_PCOD8145333
_publ_section_title
;
Structure prediction by ZEFSAII (Michael W. Deem and Ramdas Pophale) SiO2 
 PCOD8145333
Probable space group: C 2/C
;
_chemical_formula_sum "Si O2"
_cell_formula_units_Z 48
_cell_length_a 14.743947
_cell_length_b 16.554544
_cell_length_c 14.694995
_cell_angle_alpha 90.000000
_cell_angle_beta 141.926333
_cell_angle_gamma 90.000000
_cell_volume 2211.852492
_symmetry_space_group_name_H-M "C 2/C"
_symmetry_group_IT_number 15
_symmetry_cell_setting 'monoclinic'
loop_
_space_group_symop_operation_xyz
x,y,z
-x,y,1/2-z
-x,-y,-z
x,-y,1/2+z
1/2+x,1/2+y,z
1/2-x,1/2+y,1/2-z
1/2-x,1/2-y,-z
1/2+x,1/2-y,1/2+z
loop_
_atom_site_type_symbol
_atom_site_label
_atom_site_fract_x
_atom_site_fract_y
_atom_site_fract_z
Si Si1 0.212502 0.660800 0.567307
Si Si2 0.500000 0.917653 0.250000
Si Si3 0.728958 0.484819 0.950827
Si Si4 0.169232 0.667800 0.739114
Si Si5 0.000000 0.736630 0.250000
Si Si6 0.433942 0.434792 0.512187
Si Si7 0.877305 0.166055 0.228405
O O1 0.262492 0.568113 0.596327
O O2 0.139035 0.674080 0.607814
O O3 0.365600 0.710684 0.684362
O O4 0.083384 0.683538 0.393331
O O5 0.633193 0.977876 0.373527
O O6 0.474282 0.862197 0.319208
O O7 0.729893 0.406741 0.885875
O O8 0.588192 0.479082 0.906980
O O9 0.292262 0.601396 0.853076
O O10 0.215891 0.754130 0.819975
O O11 0.500000 0.500000 0.500000
O O12 0.545392 0.361027 0.616471
O O13 0.000000 0.187208 0.250000
#
# Coordination Sequence:
#
# PCOD8145333 Si02
#       7
#     8   4   8   8   4   8   8
#     4  11  25  45  71  96 135 187 227 285 340 405
#     4  10  23  42  63 102 140 166 214 280 335 416
#     4  10  23  41  67  94 136 178 217 279 338 398
#     4  11  24  39  70  98 136 177 217 278 343 406
#     4  10  27  46  65  98 136 178 240 286 329 404
#     4  10  23  39  65  98 131 176 228 279 326 404
#     4  10  22  38  63  97 133 175 213 275 336 402
#
# _framework density 21.701267000000001
#
# number of rings (size 3 to 8) (size 9 to 14) (size 15 to 20)
#    0.000    1.667    0.833    1.500   10.500    4.000 
#    0.000    0.000    0.000    0.000    0.000    0.000 
#    0.000    0.000    0.000    0.000    0.000    0.000 
#
# Total GULP energy -297429.744607 kJ/mol
# GULP energy per Si atom -12392.906025 kJ/mol
# Density = 2.165187 g / cm^3
# Si number density = 21.701267 Si / 1000 Ang^3
#
#
#
# Elastic Constant Matrix: (Units=GPa)
#
#
# Indices 1 2 3 4 5 6 
#
# 1 119.4242 64.2608 38.5251 -0.0005 -20.3478 -0.0003
# 2 64.2608 153.4295 31.8423 -0.0004 -9.0607 -0.0003
# 3 38.5251 31.8423 86.6808 -0.0009 -8.0031 -0.0008
# 4 -0.0005 -0.0004 -0.0009 25.5301 -0.0005 3.0488
# 5 -20.3478 -9.0607 -8.0031 -0.0005 33.9867 -0.0004
# 6 -0.0003 -0.0003 -0.0008 3.0488 -0.0004 30.4295
#
#
#
# Elastic Compliance Matrix: (Units=1/GPa)
#
#
# Indices 1 2 3 4 5 6 
#
# 1 0.012804 -0.004282 -0.003594 0.000000 0.005678 0.000000
# 2 -0.004282 0.008544 -0.001290 0.000000 -0.000589 0.000000
# 3 -0.003594 -0.001290 0.013675 0.000000 0.000725 0.000000
# 4 0.000000 0.000000 0.000000 0.039644 0.000001 -0.003972
# 5 0.005678 -0.000589 0.000725 0.000001 0.032836 0.000000
# 6 0.000000 0.000000 0.000000 -0.003972 0.000000 0.033261
#
#
# Mechanical properties :
#
#
# Convention : Reuss Voigt Hill
#
# Bulk Modulus (GPa) = 59.90928 69.86565 64.88746
# Shear Modulus (GPa) = 30.36596 32.98301 31.67448
#
# Velocity S-wave (km/s) = 3.74474 3.90277 3.82457
# Velocity P-wave (km/s) = 6.80909 7.25073 7.03338
#
# Compressibility (1/GPa) = 0.01669191
#
# Stress axis : x y z
#
# Youngs Moduli (GPa) = 78.09971 117.04335 73.12834
#
# Poissons Ratio (x) = 0.50113 0.26280
# Poissons Ratio (y) = 0.33439 0.09434
# Poissons Ratio (z) = 0.28066 0.15099
#
# Static dielectric constant tensor:
#      x y z
#    x 3.917850 0.000000 -0.049800 
#    y 0.000000 3.898850 0.000000 
#    z -0.049800 0.000000 4.069180 
# 
# 
# High freq. dielectric constant tensor:
#      x y z
#    x 1.842680 0.000000 -0.004640 
#    y 0.000000 1.858350 0.000000 
#    z -0.004640 0.000000 1.858530 
# 
# From -- ./inp_files/155296.got.cif
#   From: 2010.06.25/outbox.cif.g09.slc.cpg/sg15_78_cif.got.tgz:155296.got - 2010.06.28 07:06:18.
