data_PCOD8145967
_publ_section_title
;
Structure prediction by ZEFSAII (Michael W. Deem and Ramdas Pophale) SiO2 
 PCOD8145967
Probable space group: C 2/C
;
_chemical_formula_sum "Si O2"
_cell_formula_units_Z 52
_cell_length_a 7.675456
_cell_length_b 30.968009
_cell_length_c 11.924668
_cell_angle_alpha 90.000000
_cell_angle_beta 123.081466
_cell_angle_gamma 90.000000
_cell_volume 2374.944882
_symmetry_space_group_name_H-M "C 2/C"
_symmetry_group_IT_number 15
_symmetry_cell_setting 'monoclinic'
loop_
_space_group_symop_operation_xyz
x,y,z
-x,y,1/2-z
-x,-y,-z
x,-y,1/2+z
1/2+x,1/2+y,z
1/2-x,1/2+y,1/2-z
1/2-x,1/2-y,-z
1/2+x,1/2-y,1/2+z
loop_
_atom_site_type_symbol
_atom_site_label
_atom_site_fract_x
_atom_site_fract_y
_atom_site_fract_z
Si Si1 0.742698 0.879346 0.531711
Si Si2 0.342079 0.477003 0.296772
Si Si3 0.000000 0.581108 0.750000
Si Si4 0.195011 0.710976 0.400410
Si Si5 0.417439 0.120349 0.097274
Si Si6 0.413808 0.562601 0.420980
Si Si7 0.597134 0.713876 0.399467
O O1 0.642452 0.887186 0.374130
O O2 0.591665 0.898100 0.575085
O O3 0.766694 0.829027 0.567519
O O4 0.966748 0.902754 0.615390
O O5 0.500000 0.467868 0.250000
O O6 0.129676 0.449547 0.208333
O O7 0.299645 0.528552 0.296723
O O8 0.420432 0.462264 0.445825
O O9 0.250000 0.750000 0.500000
O O10 0.156740 0.668475 0.464414
O O11 0.404665 0.701163 0.408264
O O12 0.000000 0.722223 0.250000
O O13 0.500000 0.127164 0.250000
O O14 0.236525 0.085108 0.041566
O O15 0.500000 0.731135 0.250000
O O16 0.750000 0.750000 0.500000
#
# Coordination Sequence:
#
# PCOD8145967 Si02
#       7
#     8   8   4   8   8   8   8
#     4  11  24  43  67  96 135 182 227 283 348 411
#     4  10  22  40  64  91 131 170 220 277 341 401
#     4  10  24  44  66  96 138 174 232 280 344 426
#     4  11  23  45  65  98 134 175 227 282 336 408
#     4  11  23  39  64  94 130 169 223 271 336 401
#     4  10  23  40  61  96 127 172 224 277 333 412
#     4  12  25  44  71 102 142 183 235 290 346 414
#
# _framework density 21.895246
#
# number of rings (size 3 to 8) (size 9 to 14) (size 15 to 20)
#    0.000    1.231    1.538    4.615    4.308    0.000 
#    2.769    5.385    0.000    0.000    0.000    0.000 
#    0.000    0.000    0.000    0.000    0.000    0.000 
#
# Total GULP energy -322319.207752 kJ/mol
# GULP energy per Si atom -12396.892606 kJ/mol
# Density = 2.184541 g / cm^3
# Si number density = 21.895246 Si / 1000 Ang^3
#
#
#
# Elastic Constant Matrix: (Units=GPa)
#
#
# Indices 1 2 3 4 5 6 
#
# 1 159.3999 30.7365 14.6470 0.0000 -9.5788 0.0000
# 2 30.7365 111.2408 33.9384 0.0000 8.9681 0.0000
# 3 14.6470 33.9384 69.3812 0.0000 5.2306 0.0000
# 4 0.0000 0.0000 0.0000 25.6563 0.0000 -1.3709
# 5 -9.5788 8.9681 5.2306 0.0000 37.0747 0.0000
# 6 0.0000 0.0000 0.0000 -1.3709 0.0000 33.5519
#
#
#
# Elastic Compliance Matrix: (Units=1/GPa)
#
#
# Indices 1 2 3 4 5 6 
#
# 1 0.006836 -0.001860 -0.000708 0.000000 0.002316 0.000000
# 2 -0.001860 0.011199 -0.004897 0.000000 -0.002498 0.000000
# 3 -0.000708 -0.004897 0.017064 0.000000 -0.001406 0.000000
# 4 0.000000 0.000000 0.000000 0.039062 0.000000 0.001596
# 5 0.002316 -0.002498 -0.001406 0.000000 0.028374 0.000000
# 6 0.000000 0.000000 0.000000 0.001596 0.000000 0.029870
#
#
# Mechanical properties :
#
#
# Convention : Reuss Voigt Hill
#
# Bulk Modulus (GPa) = 49.57967 55.40729 52.49348
# Shear Modulus (GPa) = 32.45540 36.63656 34.54598
#
# Velocity S-wave (km/s) = 3.85425 4.09499 3.97644
# Velocity P-wave (km/s) = 6.51921 6.90791 6.71637
#
# Compressibility (1/GPa) = 0.02016956
#
# Stress axis : x y z
#
# Youngs Moduli (GPa) = 146.27676 89.29542 58.60279
#
# Poissons Ratio (x) = 0.16605 0.04150
# Poissons Ratio (y) = 0.27201 0.28698
# Poissons Ratio (z) = 0.10359 0.43728
#
# Static dielectric constant tensor:
#      x y z
#    x 4.060100 0.000000 0.104110 
#    y 0.000000 4.433420 0.000000 
#    z 0.104110 0.000000 3.674550 
# 
# 
# High freq. dielectric constant tensor:
#      x y z
#    x 1.878770 0.000000 0.000370 
#    y 0.000000 1.870070 0.000000 
#    z 0.000370 0.000000 1.841560 
# 
# From -- ./inp_files/81480.got.cif
#   From: 2010.06.25/outbox.cif.g09.slc.cpg/sg15_41_cif.got.tgz:81480.got - 2010.06.28 07:06:18.
