data_PCOD8145033
_publ_section_title
;
Structure prediction by ZEFSAII (Michael W. Deem and Ramdas Pophale) SiO2 
 PCOD8145033
Probable space group: C 2/C
;
_chemical_formula_sum "Si O2"
_cell_formula_units_Z 56
_cell_length_a 9.119675
_cell_length_b 17.563787
_cell_length_c 17.571451
_cell_angle_alpha 90.000000
_cell_angle_beta 101.340516
_cell_angle_gamma 90.000000
_cell_volume 2759.574043
_symmetry_space_group_name_H-M "C 2/C"
_symmetry_group_IT_number 15
_symmetry_cell_setting 'monoclinic'
loop_
_space_group_symop_operation_xyz
x,y,z
-x,y,1/2-z
-x,-y,-z
x,-y,1/2+z
1/2+x,1/2+y,z
1/2-x,1/2+y,1/2-z
1/2-x,1/2-y,-z
1/2+x,1/2-y,1/2+z
loop_
_atom_site_type_symbol
_atom_site_label
_atom_site_fract_x
_atom_site_fract_y
_atom_site_fract_z
Si Si1 0.078309 0.191208 0.038596
Si Si2 0.871121 0.573689 0.843942
Si Si3 0.125641 0.353400 0.991805
Si Si4 0.093813 0.213314 0.334060
Si Si5 0.808070 0.382991 0.176612
Si Si6 0.681301 0.081492 0.092809
Si Si7 0.625051 0.437171 0.026773
O O1 0.090013 0.264147 0.986160
O O2 0.042766 0.217323 0.120269
O O3 0.225310 0.137066 0.044980
O O4 0.934381 0.146224 0.996751
O O5 0.841576 0.618989 0.918996
O O6 0.777421 0.609337 0.763890
O O7 0.817741 0.486773 0.846838
O O8 0.042423 0.576214 0.836586
O O9 0.990188 0.395780 0.937484
O O10 0.181839 0.293335 0.341895
O O11 0.216205 0.148478 0.363317
O O12 0.000000 0.194770 0.250000
O O13 0.678621 0.429857 0.119460
O O14 0.738240 0.048896 0.017411
O O15 0.500000 0.500000 0.000000
#
# Coordination Sequence:
#
# PCOD8145033 Si02
#       7
#     8   8   8   8   8   8   8
#     4  10  22  36  63  94 124 163 215 266 315 383
#     4  11  22  39  64  94 120 173 209 266 314 399
#     4  11  20  40  63  92 128 166 213 262 322 388
#     4  11  21  44  65  94 125 174 215 268 323 393
#     4  11  22  41  68  88 126 172 221 251 331 398
#     4  11  24  38  64  91 128 162 215 268 323 379
#     4  11  23  39  61  95 127 167 214 275 321 378
#
# _framework density 20.292987
#
# number of rings (size 3 to 8) (size 9 to 14) (size 15 to 20)
#    0.000    1.143    4.286    2.143    2.000    4.571 
#    2.571    2.143    0.000    6.857    0.000    0.000 
#    0.000    0.000    0.000    0.000    0.000    0.000 
#
# Total GULP energy -347086.637755 kJ/mol
# GULP energy per Si atom -12395.951348 kJ/mol
# Density = 2.024680 g / cm^3
# Si number density = 20.292987 Si / 1000 Ang^3
#
#
#
# Elastic Constant Matrix: (Units=GPa)
#
#
# Indices 1 2 3 4 5 6 
#
# 1 69.6821 38.6786 31.2520 0.0000 -6.0475 0.0000
# 2 38.6786 108.9845 47.8325 0.0000 -1.5649 0.0000
# 3 31.2520 47.8325 130.6983 0.0000 8.5724 0.0000
# 4 0.0000 0.0000 0.0000 31.1441 0.0000 -1.6719
# 5 -6.0475 -1.5649 8.5724 0.0000 28.6468 0.0000
# 6 0.0000 0.0000 0.0000 -1.6719 0.0000 37.6995
#
#
#
# Elastic Compliance Matrix: (Units=1/GPa)
#
#
# Indices 1 2 3 4 5 6 
#
# 1 0.019053 -0.005438 -0.002866 0.000000 0.004583 0.000000
# 2 -0.005438 0.012579 -0.003338 0.000000 0.000538 0.000000
# 3 -0.002866 -0.003338 0.009802 0.000000 -0.003721 0.000000
# 4 0.000000 0.000000 0.000000 0.032185 0.000000 0.001427
# 5 0.004583 0.000538 -0.003721 0.000000 0.037018 0.000000
# 6 0.000000 0.000000 0.000000 0.001427 0.000000 0.026589
#
#
# Mechanical properties :
#
#
# Convention : Reuss Voigt Hill
#
# Bulk Modulus (GPa) = 55.10172 60.54347 57.82259
# Shear Modulus (GPa) = 30.01914 32.27154 31.14534
#
# Velocity S-wave (km/s) = 3.85032 3.99216 3.92188
# Velocity P-wave (km/s) = 6.85410 7.15187 7.00457
#
# Compressibility (1/GPa) = 0.01814825
#
# Stress axis : x y z
#
# Youngs Moduli (GPa) = 52.48643 79.50071 102.01605
#
# Poissons Ratio (x) = 0.43233 0.29239
# Poissons Ratio (y) = 0.28542 0.34057
# Poissons Ratio (z) = 0.15043 0.26541
#
# Static dielectric constant tensor:
#      x y z
#    x 3.788710 0.000000 -0.168590 
#    y 0.000000 3.795030 0.000000 
#    z -0.168590 0.000000 3.848020 
# 
# 
# High freq. dielectric constant tensor:
#      x y z
#    x 1.789380 0.000000 -0.002160 
#    y 0.000000 1.806780 0.000000 
#    z -0.002160 0.000000 1.786580 
# 
# From -- ./inp_files/190894.got.cif
#   From: 2010.06.25/outbox.cif.g09.slc.cpg/sg15_96_cif.got.tgz:190894.got - 2010.06.28 07:06:18.
