data_PCOD8145676
_publ_section_title
;
Structure prediction by ZEFSAII (Michael W. Deem and Ramdas Pophale) SiO2 
 PCOD8145676
Probable space group: C 2/C
;
_chemical_formula_sum "Si O2"
_cell_formula_units_Z 60
_cell_length_a 15.557885
_cell_length_b 14.836123
_cell_length_c 13.847032
_cell_angle_alpha 90.000000
_cell_angle_beta 122.342596
_cell_angle_gamma 90.000000
_cell_volume 2700.316425
_symmetry_space_group_name_H-M "C 2/C"
_symmetry_group_IT_number 15
_symmetry_cell_setting 'monoclinic'
loop_
_space_group_symop_operation_xyz
x,y,z
-x,y,1/2-z
-x,-y,-z
x,-y,1/2+z
1/2+x,1/2+y,z
1/2-x,1/2+y,1/2-z
1/2-x,1/2-y,-z
1/2+x,1/2-y,1/2+z
loop_
_atom_site_type_symbol
_atom_site_label
_atom_site_fract_x
_atom_site_fract_y
_atom_site_fract_z
Si Si1 0.500000 0.237428 0.250000
Si Si2 0.512686 0.078998 0.648014
Si Si3 0.274027 0.634814 0.225116
Si Si4 0.624999 0.695424 0.653069
Si Si5 0.730201 0.964826 0.307744
Si Si6 0.196917 0.519028 0.009091
Si Si7 0.332615 0.181842 0.011041
Si Si8 0.451762 0.737265 0.408557
O O1 0.430918 0.300449 0.276999
O O2 0.428054 0.173186 0.142038
O O3 0.500000 0.050268 0.750000
O O4 0.625237 0.047724 0.684098
O O5 0.422619 0.030485 0.534264
O O6 0.498040 0.185857 0.626762
O O7 0.191960 0.714933 0.177636
O O8 0.261198 0.568506 0.309396
O O9 0.389195 0.671290 0.300532
O O10 0.266188 0.577668 0.122085
O O11 0.690621 0.605067 0.690432
O O12 0.540707 0.685787 0.518585
O O13 0.719035 0.944499 0.414541
O O14 0.222946 0.413913 0.034159
O O15 0.250000 0.250000 0.000000
O O16 0.370441 0.217277 0.931392
#
# Coordination Sequence:
#
# PCOD8145676 Si02
#       8
#     4   8   8   8   8   8   8   8
#     4  10  24  40  68 102 132 182 230 284 354 408
#     4  10  22  39  65 100 135 171 226 287 344 402
#     4  12  25  43  70 101 139 185 231 284 356 411
#     4  11  24  44  69  96 140 181 231 291 346 418
#     4  11  25  43  69  99 141 177 232 287 348 421
#     4  11  25  41  70 105 138 179 234 290 348 417
#     4  11  24  42  70 102 140 177 230 288 357 410
#     4  11  23  42  64  96 134 183 226 284 337 418
#
# _framework density 22.219617
#
# number of rings (size 3 to 8) (size 9 to 14) (size 15 to 20)
#    0.000    1.067    2.667    3.200    8.400    3.200 
#    0.000    0.000    1.467    0.000    0.000    0.000 
#    0.000    0.000    0.000    0.000    0.000    0.000 
#
# Total GULP energy -372081.592132 kJ/mol
# GULP energy per Si atom -12402.719738 kJ/mol
# Density = 2.216904 g / cm^3
# Si number density = 22.219617 Si / 1000 Ang^3
#
#
#
# Elastic Constant Matrix: (Units=GPa)
#
#
# Indices 1 2 3 4 5 6 
#
# 1 71.3144 42.2687 24.2145 0.0000 12.7244 0.0000
# 2 42.2687 126.6618 48.1903 0.0000 18.8669 0.0000
# 3 24.2145 48.1903 120.2414 0.0000 12.4001 0.0000
# 4 0.0000 0.0000 0.0000 34.3599 0.0000 2.4793
# 5 12.7244 18.8669 12.4001 0.0000 20.9593 0.0000
# 6 0.0000 0.0000 0.0000 2.4793 0.0000 34.9329
#
#
#
# Elastic Compliance Matrix: (Units=1/GPa)
#
#
# Indices 1 2 3 4 5 6 
#
# 1 0.018336 -0.004764 -0.001147 0.000000 -0.006164 0.000000
# 2 -0.004764 0.011491 -0.003064 0.000000 -0.005638 0.000000
# 3 -0.001147 -0.003064 0.010032 0.000000 -0.002480 0.000000
# 4 0.000000 0.000000 0.000000 0.029253 0.000000 -0.002076
# 5 -0.006164 -0.005638 -0.002480 0.000000 0.057996 0.000000
# 6 0.000000 0.000000 0.000000 -0.002076 0.000000 0.028774
#
#
# Mechanical properties :
#
#
# Convention : Reuss Voigt Hill
#
# Bulk Modulus (GPa) = 45.64955 60.84051 53.24503
# Shear Modulus (GPa) = 27.60375 31.62004 29.61190
#
# Velocity S-wave (km/s) = 3.52847 3.77645 3.65457
# Velocity P-wave (km/s) = 6.09832 6.81589 6.46706
#
# Compressibility (1/GPa) = 0.02190602
#
# Stress axis : x y z
#
# Youngs Moduli (GPa) = 54.53867 87.02772 99.68560
#
# Poissons Ratio (x) = 0.41461 0.11438
# Poissons Ratio (y) = 0.25983 0.30547
# Poissons Ratio (z) = 0.06258 0.26668
#
# Static dielectric constant tensor:
#      x y z
#    x 4.045670 0.000000 0.091740 
#    y 0.000000 3.865250 0.000000 
#    z 0.091740 0.000000 4.275920 
# 
# 
# High freq. dielectric constant tensor:
#      x y z
#    x 1.865260 0.000000 0.001160 
#    y 0.000000 1.867370 0.000000 
#    z 0.001160 0.000000 1.892280 
# 
# From -- ./inp_files/154267.got.cif
#   From: 2010.06.25/outbox.cif.g09.slc.cpg/sg15_78_cif.got.tgz:154267.got - 2010.06.28 07:06:18.
