data_PCOD8145715
_publ_section_title
;
Structure prediction by ZEFSAII (Michael W. Deem and Ramdas Pophale) SiO2 
 PCOD8145715
Probable space group: C 2/C
;
_chemical_formula_sum "Si O2"
_cell_formula_units_Z 44
_cell_length_a 16.572847
_cell_length_b 14.077254
_cell_length_c 9.186179
_cell_angle_alpha 90.000000
_cell_angle_beta 108.894741
_cell_angle_gamma 90.000000
_cell_volume 2027.654422
_symmetry_space_group_name_H-M "C 2/C"
_symmetry_group_IT_number 15
_symmetry_cell_setting 'monoclinic'
loop_
_space_group_symop_operation_xyz
x,y,z
-x,y,1/2-z
-x,-y,-z
x,-y,1/2+z
1/2+x,1/2+y,z
1/2-x,1/2+y,1/2-z
1/2-x,1/2-y,-z
1/2+x,1/2-y,1/2+z
loop_
_atom_site_type_symbol
_atom_site_label
_atom_site_fract_x
_atom_site_fract_y
_atom_site_fract_z
Si Si1 0.385073 0.944049 0.435015
Si Si2 0.216517 0.373595 0.552509
Si Si3 0.441275 0.390384 0.903313
Si Si4 0.387507 0.462665 0.577278
Si Si5 0.500000 0.006827 0.250000
Si Si6 0.830056 0.273538 0.251600
O O1 0.433063 0.929096 0.617860
O O2 0.319194 0.857098 0.366121
O O3 0.336682 0.044409 0.400376
O O4 0.451594 0.941126 0.339305
O O5 0.293341 0.419125 0.501438
O O6 0.157603 0.317324 0.403080
O O7 0.251010 0.301100 0.697531
O O8 0.408818 0.463530 0.760217
O O9 0.544107 0.396520 0.970576
O O10 0.414833 0.283390 0.848913
O O11 0.395500 0.429120 0.023092
#
# Coordination Sequence:
#
# PCOD8145715 Si02
#       6
#     8   8   8   8   4   8
#     4  11  22  44  66  94 132 170 219 269 321 388
#     4  10  22  40  63  98 126 172 209 267 329 379
#     4   9  19  38  60  92 117 171 208 252 315 380
#     4   9  19  36  63  85 126 159 205 260 313 364
#     4  10  24  42  66  90 124 182 206 264 330 376
#     4  10  22  39  66  96 124 170 216 261 321 397
#
# _framework density 21.699950999999999
#
# number of rings (size 3 to 8) (size 9 to 14) (size 15 to 20)
#    0.000    2.182    1.818    0.000    5.091    2.909 
#    3.273    7.273    0.000    0.000    0.000    0.000 
#    0.000    0.000    0.000    0.000    0.000    0.000 
#
# Total GULP energy -272603.516968 kJ/mol
# GULP energy per Si atom -12391.068953 kJ/mol
# Density = 2.165056 g / cm^3
# Si number density = 21.699951 Si / 1000 Ang^3
#
#
#
# Elastic Constant Matrix: (Units=GPa)
#
#
# Indices 1 2 3 4 5 6 
#
# 1 68.2311 41.3916 21.4255 0.0000 4.1400 0.0000
# 2 41.3916 134.7252 54.4256 0.0000 11.6167 0.0000
# 3 21.4255 54.4256 103.1959 0.0000 8.8660 0.0000
# 4 0.0000 0.0000 0.0000 46.0255 0.0000 2.8999
# 5 4.1400 11.6167 8.8660 0.0000 29.7108 0.0000
# 6 0.0000 0.0000 0.0000 2.8999 0.0000 26.0629
#
#
#
# Elastic Compliance Matrix: (Units=1/GPa)
#
#
# Indices 1 2 3 4 5 6 
#
# 1 0.018103 -0.005125 -0.001038 0.000000 -0.000209 0.000000
# 2 -0.005125 0.011033 -0.004563 0.000000 -0.002238 0.000000
# 3 -0.001038 -0.004563 0.012466 0.000000 -0.001791 0.000000
# 4 0.000000 0.000000 0.000000 0.021880 0.000000 -0.002435
# 5 -0.000209 -0.002238 -0.001791 0.000000 0.035097 0.000000
# 6 0.000000 0.000000 0.000000 -0.002435 0.000000 0.038640
#
#
# Mechanical properties :
#
#
# Convention : Reuss Voigt Hill
#
# Bulk Modulus (GPa) = 49.62203 60.07082 54.84642
# Shear Modulus (GPa) = 30.23212 32.95382 31.59297
#
# Velocity S-wave (km/s) = 3.73659 3.90117 3.81977
# Velocity P-wave (km/s) = 6.44462 6.93071 6.69208
#
# Compressibility (1/GPa) = 0.02015234
#
# Stress axis : x y z
#
# Youngs Moduli (GPa) = 55.23803 90.63632 80.21799
#
# Poissons Ratio (x) = 0.46447 0.08326
# Poissons Ratio (y) = 0.28307 0.36600
# Poissons Ratio (z) = 0.05733 0.41354
#
# Static dielectric constant tensor:
#      x y z
#    x 3.835480 0.000000 0.309540 
#    y 0.000000 3.854460 0.000000 
#    z 0.309540 0.000000 4.007570 
# 
# 
# High freq. dielectric constant tensor:
#      x y z
#    x 1.830260 0.000000 0.024240 
#    y 0.000000 1.836640 0.000000 
#    z 0.024240 0.000000 1.850800 
# 
# From -- ./inp_files/47219.got.cif
#   From: 2010.06.25/outbox.cif.g09.slc.cpg/sg15_24_cif.got.tgz:47219.got - 2010.06.28 07:06:18.
