data_PCOD8145220
_publ_section_title
;
Structure prediction by ZEFSAII (Michael W. Deem and Ramdas Pophale) SiO2 
 PCOD8145220
Probable space group: C 2/C
;
_chemical_formula_sum "Si O2"
_cell_formula_units_Z 40
_cell_length_a 16.055120
_cell_length_b 9.707628
_cell_length_c 22.031254
_cell_angle_alpha 90.000000
_cell_angle_beta 144.763875
_cell_angle_gamma 90.000000
_cell_volume 1981.080524
_symmetry_space_group_name_H-M "C 2/C"
_symmetry_group_IT_number 15
_symmetry_cell_setting 'monoclinic'
loop_
_space_group_symop_operation_xyz
x,y,z
-x,y,1/2-z
-x,-y,-z
x,-y,1/2+z
1/2+x,1/2+y,z
1/2-x,1/2+y,1/2-z
1/2-x,1/2-y,-z
1/2+x,1/2-y,1/2+z
loop_
_atom_site_type_symbol
_atom_site_label
_atom_site_fract_x
_atom_site_fract_y
_atom_site_fract_z
Si Si1 0.205721 0.616144 0.790131
Si Si2 0.764664 0.992701 0.453271
Si Si3 0.475659 0.701899 0.522486
Si Si4 0.490982 0.277155 0.593008
Si Si5 0.533709 0.977720 0.914501
O O1 0.193109 0.588764 0.854303
O O2 0.369729 0.639041 0.866322
O O3 0.114234 0.754278 0.717536
O O4 0.131105 0.488026 0.709834
O O5 0.873017 0.882909 0.549706
O O6 0.643421 0.053790 0.424945
O O7 0.851989 0.126037 0.485252
O O8 0.446699 0.669083 0.434328
O O9 0.461814 0.863436 0.530518
O O10 0.418990 0.128561 0.532313
#
# Coordination Sequence:
#
# PCOD8145220 Si02
#       5
#     8   8   8   8   8
#     4   9  22  35  61  84 119 155 201 224 293 351
#     4  11  21  40  61  90 118 157 192 245 298 346
#     4  11  22  37  64  88 119 153 199 243 296 342
#     4   9  21  37  61  82 121 157 195 234 286 355
#     4  10  22  38  59  89 121 150 195 248 289 344
#
# _framework density 20.191001
#
# number of rings (size 3 to 8) (size 9 to 14) (size 15 to 20)
#    1.200    0.800    0.000    4.800    5.600    0.000 
#    0.000    0.000    0.000    2.400    0.000    0.000 
#    0.000    0.000    0.000    0.000    0.000    0.000 
#
# Total GULP energy -247785.106464 kJ/mol
# GULP energy per Si atom -12389.255323 kJ/mol
# Density = 2.014505 g / cm^3
# Si number density = 20.191001 Si / 1000 Ang^3
#
#
#
# Elastic Constant Matrix: (Units=GPa)
#
#
# Indices 1 2 3 4 5 6 
#
# 1 71.6475 4.7953 3.2165 0.0000 13.2023 0.0000
# 2 4.7953 53.4077 -1.6140 0.0000 9.5799 0.0000
# 3 3.2165 -1.6140 70.3493 0.0000 0.4066 0.0000
# 4 0.0000 0.0000 0.0000 23.7396 0.0000 -3.6607
# 5 13.2023 9.5799 0.4066 0.0000 19.8382 0.0000
# 6 0.0000 0.0000 0.0000 -3.6607 0.0000 32.9814
#
#
#
# Elastic Compliance Matrix: (Units=1/GPa)
#
#
# Indices 1 2 3 4 5 6 
#
# 1 0.015951 0.000492 -0.000655 0.000000 -0.010840 0.000000
# 2 0.000492 0.020534 0.000508 0.000000 -0.010254 0.000000
# 3 -0.000655 0.000508 0.014257 0.000000 -0.000101 0.000000
# 4 0.000000 0.000000 0.000000 0.042857 0.000000 0.004757
# 5 -0.010840 -0.010254 -0.000101 0.000000 0.062576 0.000000
# 6 0.000000 0.000000 0.000000 0.004757 0.000000 0.030848
#
#
# Mechanical properties :
#
#
# Convention : Reuss Voigt Hill
#
# Bulk Modulus (GPa) = 19.44308 23.13333 21.28821
# Shear Modulus (GPa) = 24.57271 27.91227 26.24249
#
# Velocity S-wave (km/s) = 3.49236 3.72211 3.60906
# Velocity P-wave (km/s) = 5.09044 5.47305 5.28521
#
# Compressibility (1/GPa) = 0.05143218
#
# Stress axis : x y z
#
# Youngs Moduli (GPa) = 62.69159 48.69889 70.14106
#
# Poissons Ratio (x) = -0.02398 0.04597
# Poissons Ratio (y) = -0.03087 -0.03562
# Poissons Ratio (z) = 0.04109 -0.02473
#
# Static dielectric constant tensor:
#      x y z
#    x 3.459970 0.000000 0.093010 
#    y 0.000000 3.559990 0.000000 
#    z 0.093010 0.000000 3.539290 
# 
# 
# High freq. dielectric constant tensor:
#      x y z
#    x 1.780150 0.000000 0.010740 
#    y 0.000000 1.785530 0.000000 
#    z 0.010740 0.000000 1.774380 
# 
# From -- ./inp_files/243502.got.cif
#   From: 2010.06.25/outbox.cif.g09.slc.cpg/sg15_122_cif.got.tgz:243502.got - 2010.06.28 07:06:18.
