data_PCOD8145530
_publ_section_title
;
Structure prediction by ZEFSAII (Michael W. Deem and Ramdas Pophale) SiO2 
 PCOD8145530
Probable space group: C 2/C
;
_chemical_formula_sum "Si O2"
_cell_formula_units_Z 52
_cell_length_a 27.163900
_cell_length_b 12.238497
_cell_length_c 8.693633
_cell_angle_alpha 90.000000
_cell_angle_beta 58.064943
_cell_angle_gamma 90.000000
_cell_volume 2452.726961
_symmetry_space_group_name_H-M "C 2/C"
_symmetry_group_IT_number 15
_symmetry_cell_setting 'monoclinic'
loop_
_space_group_symop_operation_xyz
x,y,z
-x,y,1/2-z
-x,-y,-z
x,-y,1/2+z
1/2+x,1/2+y,z
1/2-x,1/2+y,1/2-z
1/2-x,1/2-y,-z
1/2+x,1/2-y,1/2+z
loop_
_atom_site_type_symbol
_atom_site_label
_atom_site_fract_x
_atom_site_fract_y
_atom_site_fract_z
Si Si1 0.443957 0.428724 0.739000
Si Si2 0.306496 0.121145 0.205182
Si Si3 0.323470 0.368000 0.076230
Si Si4 0.000000 0.500970 0.250000
Si Si5 0.523028 0.338301 0.372134
Si Si6 0.239284 0.003945 0.567354
Si Si7 0.568430 0.881607 0.880963
O O1 0.500000 0.422162 0.750000
O O2 0.461449 0.361326 0.558796
O O3 0.434870 0.556084 0.710818
O O4 0.390495 0.376054 0.917159
O O5 0.305527 0.245784 0.151247
O O6 0.261178 0.100896 0.419003
O O7 0.367880 0.083715 0.172335
O O8 0.291416 0.043618 0.085505
O O9 0.311211 0.447289 0.240857
O O10 0.286074 0.404042 0.990117
O O11 0.976876 0.423515 0.420515
O O12 0.948212 0.572876 0.260800
O O13 0.500000 0.291542 0.250000
O O14 0.563359 0.249479 0.388209
#
# Coordination Sequence:
#
# PCOD8145530 Si02
#       7
#     8   8   8   4   8   8   8
#     4  10  23  40  63  97 134 161 210 257 326 404
#     4  11  23  44  69  92 128 178 219 275 326 378
#     4  11  24  42  70  96 131 176 211 276 331 379
#     4  10  24  40  60  96 132 164 216 266 306 406
#     4  10  22  39  60  96 134 165 202 260 318 403
#     4  10  25  45  63  97 132 165 235 273 314 387
#     4  11  22  41  65  92 129 169 214 259 331 373
#
# _framework density 21.200892
#
# number of rings (size 3 to 8) (size 9 to 14) (size 15 to 20)
#    0.000    1.538    0.769    2.769   11.846    0.000 
#    0.000    1.538    0.000    0.000    0.000    0.000 
#    0.000    0.000    0.000    0.000    0.000    0.000 
#
# Total GULP energy -322376.010303 kJ/mol
# GULP energy per Si atom -12399.077319 kJ/mol
# Density = 2.115264 g / cm^3
# Si number density = 21.200892 Si / 1000 Ang^3
#
#
#
# Elastic Constant Matrix: (Units=GPa)
#
#
# Indices 1 2 3 4 5 6 
#
# 1 107.9289 42.2579 48.5319 0.0000 4.8349 0.0000
# 2 42.2579 112.6266 57.2240 0.0000 6.0420 0.0000
# 3 48.5319 57.2240 132.8571 0.0000 4.7153 0.0000
# 4 0.0000 0.0000 0.0000 35.4653 0.0000 7.8798
# 5 4.8349 6.0420 4.7153 0.0000 34.6538 0.0000
# 6 0.0000 0.0000 0.0000 7.8798 0.0000 29.9321
#
#
#
# Elastic Compliance Matrix: (Units=1/GPa)
#
#
# Indices 1 2 3 4 5 6 
#
# 1 0.011781 -0.002826 -0.003060 0.000000 -0.000735 0.000000
# 2 -0.002826 0.012105 -0.004141 0.000000 -0.001153 0.000000
# 3 -0.003060 -0.004141 0.010438 0.000000 -0.000271 0.000000
# 4 0.000000 0.000000 0.000000 0.029948 0.000000 -0.007884
# 5 -0.000735 -0.001153 -0.000271 0.000000 0.029197 0.000000
# 6 0.000000 0.000000 0.000000 -0.007884 0.000000 0.035484
#
#
# Mechanical properties :
#
#
# Convention : Reuss Voigt Hill
#
# Bulk Modulus (GPa) = 70.07701 72.16002 71.11852
# Shear Modulus (GPa) = 32.51750 33.70350 33.11050
#
# Velocity S-wave (km/s) = 3.92060 3.99146 3.95619
# Velocity P-wave (km/s) = 7.32259 7.43993 7.38149
#
# Compressibility (1/GPa) = 0.01427001
#
# Stress axis : x y z
#
# Youngs Moduli (GPa) = 84.88400 82.61185 95.80563
#
# Poissons Ratio (x) = 0.23346 0.29318
# Poissons Ratio (y) = 0.23988 0.39669
# Poissons Ratio (z) = 0.25976 0.34206
#
# Static dielectric constant tensor:
#      x y z
#    x 3.650980 0.000000 1.175370 
#    y 0.000000 3.881480 0.000000 
#    z 1.175370 0.000000 -0.259240 
# 
# 
# High freq. dielectric constant tensor:
#      x y z
#    x 1.833210 0.000000 0.020130 
#    y 0.000000 1.829440 0.000000 
#    z 0.020130 0.000000 1.839990 
# 
# From -- ./inp_files/65373.got.cif
#   From: 2010.06.25/outbox.cif.g09.slc.cpg/sg15_33_cif.got.tgz:65373.got - 2010.06.28 07:06:18.
