data_PCOD8145058
_publ_section_title
;
Structure prediction by ZEFSAII (Michael W. Deem and Ramdas Pophale) SiO2 
 PCOD8145058
Probable space group: C 2/C
;
_chemical_formula_sum "Si O2"
_cell_formula_units_Z 48
_cell_length_a 17.576099
_cell_length_b 15.317783
_cell_length_c 17.663837
_cell_angle_alpha 90.000000
_cell_angle_beta 147.869603
_cell_angle_gamma 90.000000
_cell_volume 2529.245126
_symmetry_space_group_name_H-M "C 2/C"
_symmetry_group_IT_number 15
_symmetry_cell_setting 'monoclinic'
loop_
_space_group_symop_operation_xyz
x,y,z
-x,y,1/2-z
-x,-y,-z
x,-y,1/2+z
1/2+x,1/2+y,z
1/2-x,1/2+y,1/2-z
1/2-x,1/2-y,-z
1/2+x,1/2-y,1/2+z
loop_
_atom_site_type_symbol
_atom_site_label
_atom_site_fract_x
_atom_site_fract_y
_atom_site_fract_z
Si Si1 0.595632 0.982508 0.898551
Si Si2 0.030552 0.336866 0.142974
Si Si3 0.849115 0.175147 0.953120
Si Si4 0.612962 0.070920 0.572764
Si Si5 0.094378 0.006948 0.401322
Si Si6 0.572740 0.430665 0.115075
O O1 0.500000 0.945934 0.750000
O O2 0.542307 0.077687 0.881697
O O3 0.595706 0.913388 0.968166
O O4 0.751568 0.981296 0.996331
O O5 0.176570 0.314950 0.311225
O O6 0.073357 0.345633 0.090334
O O7 0.916673 0.259203 0.050367
O O8 0.906604 0.159921 0.914762
O O9 0.899305 0.092317 0.042311
O O10 0.771056 0.035883 0.726565
O O11 0.500000 0.000000 0.500000
O O12 0.000000 0.029748 0.250000
O O13 0.026485 0.926074 0.393147
O O14 0.500000 0.500000 0.000000
#
# Coordination Sequence:
#
# PCOD8145058 Si02
#       6
#     8   8   8   8   8   8
#     4  11  21  37  55  82 112 139 176 226 275 314
#     4  10  22  37  54  78 110 146 179 217 262 322
#     4  10  22  37  53  78 111 145 180 215 263 323
#     4   9  19  35  55  76 105 141 181 221 260 314
#     4  11  21  35  57  83 107 140 178 224 273 317
#     4   9  19  35  54  78 104 139 185 220 257 316
#
# _framework density 18.977993999999999
#
# number of rings (size 3 to 8) (size 9 to 14) (size 15 to 20)
#    0.000    2.000    3.333    0.000    4.667    2.667 
#    0.000    0.000    0.000    2.000    0.000    0.000 
#    0.000    0.000    0.000    0.000    0.000    0.000 
#
# Total GULP energy -297323.475522 kJ/mol
# GULP energy per Si atom -12388.478147 kJ/mol
# Density = 1.893480 g / cm^3
# Si number density = 18.977994 Si / 1000 Ang^3
#
#
#
# Elastic Constant Matrix: (Units=GPa)
#
#
# Indices 1 2 3 4 5 6 
#
# 1 105.7901 -6.3518 38.6634 0.0007 5.0516 0.0003
# 2 -6.3518 3.2257 -0.9233 0.0008 2.4589 0.0005
# 3 38.6634 -0.9233 133.3265 0.0024 1.7419 0.0015
# 4 0.0007 0.0008 0.0024 17.6572 0.0019 -1.3187
# 5 5.0516 2.4589 1.7419 0.0019 42.5243 0.0011
# 6 0.0003 0.0005 0.0015 -1.3187 0.0011 18.4297
#
#
#
# Elastic Compliance Matrix: (Units=1/GPa)
#
#
# Indices 1 2 3 4 5 6 
#
# 1 0.012348 0.025486 -0.003368 -0.000001 -0.002803 -0.000001
# 2 0.025486 0.377740 -0.004452 -0.000016 -0.024688 -0.000010
# 3 -0.003368 -0.004452 0.008442 -0.000001 0.000312 -0.000001
# 4 -0.000001 -0.000016 -0.000001 0.056938 -0.000002 0.004074
# 5 -0.002803 -0.024688 0.000312 -0.000002 0.025264 -0.000001
# 6 -0.000001 -0.000010 -0.000001 0.004074 -0.000001 0.054552
#
#
# Mechanical properties :
#
#
# Convention : Reuss Voigt Hill
#
# Bulk Modulus (GPa) = 2.30488 33.90210 18.10349
# Shear Modulus (GPa) = 7.75709 29.78583 18.77146
#
# Velocity S-wave (km/s) = 2.02393 3.96598 3.14843
# Velocity P-wave (km/s) = 2.58435 6.23496 4.77250
#
# Compressibility (1/GPa) = 0.43386285
#
# Stress axis : x y z
#
# Youngs Moduli (GPa) = 80.98801 2.64732 118.45482
#
# Poissons Ratio (x) = -0.06747 0.39890
# Poissons Ratio (y) = -2.06409 0.52741
# Poissons Ratio (z) = 0.27273 0.01179
#
# Static dielectric constant tensor:
#      x y z
#    x 3.916120 0.000040 -0.408640 
#    y 0.000040 3.166160 0.000000 
#    z -0.408640 0.000000 3.727700 
# 
# 
# High freq. dielectric constant tensor:
#      x y z
#    x 1.758280 0.000000 -0.000500 
#    y 0.000000 1.674120 0.000000 
#    z -0.000500 0.000000 1.764060 
# 
# From -- ./inp_files/48062.got.cif
#   From: 2010.06.25/outbox.cif.g09.slc.cpg/sg15_25_cif.got.tgz:48062.got - 2010.06.28 07:06:18.
