data_PCOD8145976
_publ_section_title
;
Structure prediction by ZEFSAII (Michael W. Deem and Ramdas Pophale) SiO2 
 PCOD8145976
Probable space group: C 2/C
;
_chemical_formula_sum "Si O2"
_cell_formula_units_Z 48
_cell_length_a 6.097196
_cell_length_b 23.773215
_cell_length_c 15.484735
_cell_angle_alpha 90.000000
_cell_angle_beta 73.580399
_cell_angle_gamma 90.000000
_cell_volume 2152.974408
_symmetry_space_group_name_H-M "C 2/C"
_symmetry_group_IT_number 15
_symmetry_cell_setting 'monoclinic'
loop_
_space_group_symop_operation_xyz
x,y,z
-x,y,1/2-z
-x,-y,-z
x,-y,1/2+z
1/2+x,1/2+y,z
1/2-x,1/2+y,1/2-z
1/2-x,1/2-y,-z
1/2+x,1/2-y,1/2+z
loop_
_atom_site_type_symbol
_atom_site_label
_atom_site_fract_x
_atom_site_fract_y
_atom_site_fract_z
Si Si1 0.125357 0.217585 0.896068
Si Si2 0.000000 0.509136 0.250000
Si Si3 0.726262 0.633260 0.622265
Si Si4 0.680621 0.425291 0.669687
Si Si5 0.055377 0.976395 0.396728
Si Si6 0.158294 0.332316 0.968944
Si Si7 0.000000 0.339328 0.250000
O O1 0.086228 0.284705 0.907332
O O2 0.365134 0.203320 0.825748
O O3 0.916979 0.191285 0.865203
O O4 0.145705 0.192181 0.990234
O O5 0.903031 0.553995 0.193432
O O6 0.821468 0.472649 0.331151
O O7 0.561678 0.584170 0.605467
O O8 0.938738 0.640678 0.536780
O O9 0.824003 0.623481 0.709682
O O10 0.500000 0.392028 0.750000
O O11 0.559287 0.482108 0.655738
O O12 0.729228 0.386213 0.584736
O O13 0.000000 0.000000 0.500000
#
# Coordination Sequence:
#
# PCOD8145976 Si02
#       7
#     8   4   8   8   8   8   4
#     4  10  22  40  64  92 129 169 218 267 329 392
#     4  10  24  43  60  98 130 170 219 264 326 400
#     4  11  23  41  65  95 131 172 220 272 334 399
#     4  10  23  42  63  94 128 166 217 267 327 389
#     4  11  24  42  69  95 132 175 219 275 333 399
#     4  10  22  41  64  93 128 169 217 272 324 399
#     4  10  24  41  60  96 128 170 217 270 332 384
#
# _framework density 22.294737000000001
#
# number of rings (size 3 to 8) (size 9 to 14) (size 15 to 20)
#    0.000    1.667    0.000    3.000    1.167   12.000 
#    3.000    0.000    0.000    0.000    0.000    0.000 
#    0.000    0.000    0.000    0.000    0.000    0.000 
#
# Total GULP energy -297346.946352 kJ/mol
# GULP energy per Si atom -12389.456098 kJ/mol
# Density = 2.224399 g / cm^3
# Si number density = 22.294737 Si / 1000 Ang^3
#
#
#
# Elastic Constant Matrix: (Units=GPa)
#
#
# Indices 1 2 3 4 5 6 
#
# 1 107.0563 28.8959 35.0161 0.0000 5.3677 0.0000
# 2 28.8959 86.8078 25.5102 0.0000 -3.6431 0.0000
# 3 35.0161 25.5102 108.0206 0.0000 -9.3752 0.0000
# 4 0.0000 0.0000 0.0000 30.3631 0.0000 37.5775
# 5 5.3677 -3.6431 -9.3752 0.0000 38.2967 0.0000
# 6 0.0000 0.0000 0.0000 37.5775 0.0000 -0.8099
#
#
#
# Elastic Compliance Matrix: (Units=1/GPa)
#
#
# Indices 1 2 3 4 5 6 
#
# 1 0.011314 -0.002936 -0.003204 0.000000 -0.002649 0.000000
# 2 -0.002936 0.013149 -0.002053 0.000000 0.001160 0.000000
# 3 -0.003204 -0.002053 0.011038 0.000000 0.002956 0.000000
# 4 0.000000 0.000000 0.000000 0.000564 0.000000 0.026156
# 5 -0.002649 0.001160 0.002956 0.000000 0.027317 0.000000
# 6 0.000000 0.000000 0.000000 0.026156 0.000000 -0.021134
#
#
# Mechanical properties :
#
#
# Convention : Reuss Voigt Hill
#
# Bulk Modulus (GPa) = 52.31563 53.41434 52.86498
# Shear Modulus (GPa) = 76.91775 27.73415 52.32595
#
# Velocity S-wave (km/s) = 5.88008 3.53083 4.84985
# Velocity P-wave (km/s) = 8.34367 6.37438 7.42460
#
# Compressibility (1/GPa) = 0.01911475
#
# Stress axis : x y z
#
# Youngs Moduli (GPa) = 88.38473 76.05201 90.59972
#
# Poissons Ratio (x) = 0.22327 0.29031
# Poissons Ratio (y) = 0.25947 0.18600
# Poissons Ratio (z) = 0.28321 0.15613
#
# Static dielectric constant tensor:
#      x y z
#    x 4.024140 0.000000 0.123840 
#    y 0.000000 3.872290 0.000000 
#    z 0.123840 0.000000 4.328220 
# 
# 
# High freq. dielectric constant tensor:
#      x y z
#    x 1.885350 0.000000 -0.005230 
#    y 0.000000 1.870290 0.000000 
#    z -0.005230 0.000000 1.894330 
# 
# From -- ./inp_files/185491.got.cif
#   From: 2010.06.25/outbox.cif.g09.slc.cpg/sg15_93_cif.got.tgz:185491.got - 2010.06.28 07:06:18.
