data_PCOD8145835
_publ_section_title
;
Structure prediction by ZEFSAII (Michael W. Deem and Ramdas Pophale) SiO2 
 PCOD8145835
Probable space group: C 2/C
;
_chemical_formula_sum "Si O2"
_cell_formula_units_Z 48
_cell_length_a 17.869182
_cell_length_b 10.967748
_cell_length_c 11.789479
_cell_angle_alpha 90.000000
_cell_angle_beta 86.637737
_cell_angle_gamma 90.000000
_cell_volume 2306.580104
_symmetry_space_group_name_H-M "C 2/C"
_symmetry_group_IT_number 15
_symmetry_cell_setting 'monoclinic'
loop_
_space_group_symop_operation_xyz
x,y,z
-x,y,1/2-z
-x,-y,-z
x,-y,1/2+z
1/2+x,1/2+y,z
1/2-x,1/2+y,1/2-z
1/2-x,1/2-y,-z
1/2+x,1/2-y,1/2+z
loop_
_atom_site_type_symbol
_atom_site_label
_atom_site_fract_x
_atom_site_fract_y
_atom_site_fract_z
Si Si1 0.671047 0.600784 0.458481
Si Si2 0.758797 0.153817 0.598167
Si Si3 0.960987 0.742028 0.584880
Si Si4 0.052217 0.617256 0.147976
Si Si5 0.296521 0.245688 0.331408
Si Si6 0.907922 0.644927 0.813409
O O1 0.690187 0.458594 0.447809
O O2 0.582885 0.630706 0.439894
O O3 0.691930 0.641052 0.584255
O O4 0.718706 0.677673 0.363147
O O5 0.750000 0.250000 0.500000
O O6 0.799994 0.209227 0.702696
O O7 0.675034 0.117744 0.638218
O O8 0.973469 0.664675 0.470876
O O9 0.908275 0.667670 0.678376
O O10 0.045265 0.757764 0.630958
O O11 0.138545 0.647736 0.160907
O O12 0.043122 0.471926 0.154815
O O13 0.000000 0.677655 0.250000
#
# Coordination Sequence:
#
# PCOD8145835 Si02
#       6
#     8   8   8   8   8   8
#     4  10  22  44  66  90 135 177 214 272 336 401
#     4  12  27  40  69 100 129 173 229 272 317 407
#     4  10  22  40  60  94 134 174 208 272 352 380
#     4  11  22  37  65  95 128 167 217 282 321 390
#     4  10  23  41  65  95 132 171 215 273 345 384
#     4  11  22  37  65  98 130 166 221 274 324 396
#
# _framework density 20.810027999999999
#
# number of rings (size 3 to 8) (size 9 to 14) (size 15 to 20)
#    0.000    1.333    5.000    0.500    4.667    0.000 
#    0.000    0.833    3.667    0.000    0.000    0.000 
#    0.000    0.000    0.000    0.000    0.000    0.000 
#
# Total GULP energy -297463.922267 kJ/mol
# GULP energy per Si atom -12394.330094 kJ/mol
# Density = 2.076266 g / cm^3
# Si number density = 20.810028 Si / 1000 Ang^3
#
#
#
# Elastic Constant Matrix: (Units=GPa)
#
#
# Indices 1 2 3 4 5 6 
#
# 1 57.5408 0.7812 12.3480 0.0000 3.2415 0.0000
# 2 0.7812 86.8226 44.6625 0.0000 6.0699 0.0000
# 3 12.3480 44.6625 148.1437 0.0000 -0.3331 0.0000
# 4 0.0000 0.0000 0.0000 19.1632 0.0000 -3.5032
# 5 3.2415 6.0699 -0.3331 0.0000 28.1626 0.0000
# 6 0.0000 0.0000 0.0000 -3.5032 0.0000 26.7077
#
#
#
# Elastic Compliance Matrix: (Units=1/GPa)
#
#
# Indices 1 2 3 4 5 6 
#
# 1 0.017874 0.000908 -0.001769 0.000000 -0.002274 0.000000
# 2 0.000908 0.013934 -0.004284 0.000000 -0.003158 0.000000
# 3 -0.001769 -0.004284 0.008192 0.000000 0.001224 0.000000
# 4 0.000000 0.000000 0.000000 0.053465 0.000000 0.007013
# 5 -0.002274 -0.003158 0.001224 0.000000 0.036465 0.000000
# 6 0.000000 0.000000 0.000000 0.007013 0.000000 0.038362
#
#
# Mechanical properties :
#
#
# Convention : Reuss Voigt Hill
#
# Bulk Modulus (GPa) = 33.65714 45.34342 39.50028
# Shear Modulus (GPa) = 26.52731 30.45439 28.49085
#
# Velocity S-wave (km/s) = 3.57422 3.82965 3.70414
# Velocity P-wave (km/s) = 5.76559 6.43362 6.10874
#
# Compressibility (1/GPa) = 0.02971138
#
# Stress axis : x y z
#
# Youngs Moduli (GPa) = 55.94623 71.76744 122.07328
#
# Poissons Ratio (x) = -0.06516 0.21591
# Poissons Ratio (y) = -0.05080 0.52291
# Poissons Ratio (z) = 0.09895 0.30742
#
# Static dielectric constant tensor:
#      x y z
#    x 3.968000 0.000000 -0.143630 
#    y 0.000000 2.870540 0.000000 
#    z -0.143630 0.000000 3.950000 
# 
# 
# High freq. dielectric constant tensor:
#      x y z
#    x 1.821640 0.000000 -0.001330 
#    y 0.000000 1.783070 0.000000 
#    z -0.001330 0.000000 1.829660 
# 
# From -- ./inp_files/103659.got.cif
#   From: 2010.06.25/outbox.cif.g09.slc.cpg/sg15_52_cif.got.tgz:103659.got - 2010.06.28 07:06:18.
