data_PCOD8145850
_publ_section_title
;
Structure prediction by ZEFSAII (Michael W. Deem and Ramdas Pophale) SiO2 
 PCOD8145850
Probable space group: C 2/C
;
_chemical_formula_sum "Si O2"
_cell_formula_units_Z 56
_cell_length_a 19.131108
_cell_length_b 12.460735
_cell_length_c 11.901508
_cell_angle_alpha 90.000000
_cell_angle_beta 75.862904
_cell_angle_gamma 90.000000
_cell_volume 2751.246352
_symmetry_space_group_name_H-M "C 2/C"
_symmetry_group_IT_number 15
_symmetry_cell_setting 'monoclinic'
loop_
_space_group_symop_operation_xyz
x,y,z
-x,y,1/2-z
-x,-y,-z
x,-y,1/2+z
1/2+x,1/2+y,z
1/2-x,1/2+y,1/2-z
1/2-x,1/2-y,-z
1/2+x,1/2-y,1/2+z
loop_
_atom_site_type_symbol
_atom_site_label
_atom_site_fract_x
_atom_site_fract_y
_atom_site_fract_z
Si Si1 0.375313 0.844726 0.162336
Si Si2 0.306060 0.351834 0.984754
Si Si3 0.500000 0.716295 0.750000
Si Si4 0.163105 0.114709 0.279901
Si Si5 0.080049 0.401762 0.600075
Si Si6 0.500000 0.929224 0.250000
Si Si7 0.713706 0.002077 0.665671
Si Si8 0.434714 0.567773 0.585014
O O1 0.360069 0.720974 0.144558
O O2 0.436531 0.852209 0.233818
O O3 0.304459 0.902796 0.239199
O O4 0.399305 0.897784 0.037380
O O5 0.258152 0.452079 0.042788
O O6 0.380300 0.355818 0.031442
O O7 0.250000 0.250000 0.000000
O O8 0.339872 0.367781 0.850717
O O9 0.557518 0.787930 0.660085
O O10 0.464424 0.645132 0.668413
O O11 0.243854 0.088729 0.284299
O O12 0.111445 0.019099 0.332076
O O13 0.018958 0.493083 0.637281
O O14 0.144480 0.441634 0.651120
O O15 0.500000 0.500000 0.500000
#
# Coordination Sequence:
#
# PCOD8145850 Si02
#       8
#     8   8   4   8   8   4   8   8
#     4  11  21  39  61  88 121 162 211 263 322 384
#     4  11  23  43  66  96 129 176 221 275 331 394
#     4  11  24  41  64  94 134 173 210 271 340 390
#     4  11  24  39  66  93 126 166 218 265 330 392
#     4  10  22  40  61  89 123 168 210 262 328 390
#     4   9  22  39  58  88 122 159 210 265 316 384
#     4  10  23  41  62  91 128 165 214 271 321 394
#     4  11  25  45  67  98 136 175 224 278 337 409
#
# _framework density 20.354410000000001
#
# number of rings (size 3 to 8) (size 9 to 14) (size 15 to 20)
#    0.000    1.429    1.429    3.000    2.000    4.571 
#    2.571    0.000    0.000    0.000    0.000    0.000 
#    0.000    0.000    0.000    0.000    0.000    0.000 
#
# Total GULP energy -346981.991372 kJ/mol
# GULP energy per Si atom -12392.213978 kJ/mol
# Density = 2.030808 g / cm^3
# Si number density = 20.354410 Si / 1000 Ang^3
#
#
#
# Elastic Constant Matrix: (Units=GPa)
#
#
# Indices 1 2 3 4 5 6 
#
# 1 101.2050 52.4998 21.2716 0.0000 5.3385 0.0000
# 2 52.4998 104.5545 18.3933 0.0000 12.2849 0.0000
# 3 21.2716 18.3933 95.2703 0.0000 -0.8716 0.0000
# 4 0.0000 0.0000 0.0000 69.6021 0.0000 -10.6767
# 5 5.3385 12.2849 -0.8716 0.0000 29.2524 0.0000
# 6 0.0000 0.0000 0.0000 -10.6767 0.0000 37.0428
#
#
#
# Elastic Compliance Matrix: (Units=1/GPa)
#
#
# Indices 1 2 3 4 5 6 
#
# 1 0.013650 -0.006566 -0.001778 0.000000 0.000214 0.000000
# 2 -0.006566 0.013608 -0.001203 0.000000 -0.004552 0.000000
# 3 -0.001778 -0.001203 0.011136 0.000000 0.001161 0.000000
# 4 0.000000 0.000000 0.000000 0.015032 0.000000 0.004333
# 5 0.000214 -0.004552 0.001161 0.000000 0.036093 0.000000
# 6 0.000000 0.000000 0.000000 0.004333 0.000000 0.028245
#
#
# Mechanical properties :
#
#
# Convention : Reuss Voigt Hill
#
# Bulk Modulus (GPa) = 51.81365 53.92879 52.87122
# Shear Modulus (GPa) = 34.89425 41.10380 37.99902
#
# Velocity S-wave (km/s) = 4.14494 4.49865 4.32542
# Velocity P-wave (km/s) = 6.95833 7.31685 7.13984
#
# Compressibility (1/GPa) = 0.01929993
#
# Stress axis : x y z
#
# Youngs Moduli (GPa) = 73.26266 73.48669 89.79664
#
# Poissons Ratio (x) = 0.48252 0.15966
# Poissons Ratio (y) = 0.48105 0.10801
# Poissons Ratio (z) = 0.13026 0.08839
#
# Static dielectric constant tensor:
#      x y z
#    x 3.939650 0.000000 0.008730 
#    y 0.000000 3.899150 0.000000 
#    z 0.008730 0.000000 3.659010 
# 
# 
# High freq. dielectric constant tensor:
#      x y z
#    x 1.806120 0.000000 -0.007260 
#    y 0.000000 1.801080 0.000000 
#    z -0.007260 0.000000 1.806730 
# 
# From -- ./inp_files/111148.got.cif
#   From: 2010.06.25/outbox.cif.g09.slc.cpg/sg15_56_cif.got.tgz:111148.got - 2010.06.28 07:06:18.
