data_PCOD8145556
_publ_section_title
;
Structure prediction by ZEFSAII (Michael W. Deem and Ramdas Pophale) SiO2 
 PCOD8145556
Probable space group: C 2/C
;
_chemical_formula_sum "Si O2"
_cell_formula_units_Z 48
_cell_length_a 18.719806
_cell_length_b 6.677136
_cell_length_c 21.752071
_cell_angle_alpha 90.000000
_cell_angle_beta 119.836813
_cell_angle_gamma 90.000000
_cell_volume 2358.493094
_symmetry_space_group_name_H-M "C 2/C"
_symmetry_group_IT_number 15
_symmetry_cell_setting 'monoclinic'
loop_
_space_group_symop_operation_xyz
x,y,z
-x,y,1/2-z
-x,-y,-z
x,-y,1/2+z
1/2+x,1/2+y,z
1/2-x,1/2+y,1/2-z
1/2-x,1/2-y,-z
1/2+x,1/2-y,1/2+z
loop_
_atom_site_type_symbol
_atom_site_label
_atom_site_fract_x
_atom_site_fract_y
_atom_site_fract_z
Si Si1 0.306741 0.082763 0.345789
Si Si2 0.654145 0.272737 0.712830
Si Si3 0.590696 0.044886 0.277194
Si Si4 0.259257 0.946144 0.963142
Si Si5 0.624968 0.773352 0.918853
Si Si6 0.562158 0.663760 0.658135
O O1 0.238890 0.112778 0.262944
O O2 0.267774 0.111431 0.395682
O O3 0.381437 0.240314 0.371102
O O4 0.339735 0.857607 0.347164
O O5 0.579027 0.426650 0.669657
O O6 0.639784 0.131524 0.765476
O O7 0.500000 0.958987 0.250000
O O8 0.634053 0.107829 0.358743
O O9 0.586553 0.243473 0.234037
O O10 0.176495 0.070672 0.937926
O O11 0.250000 0.750000 0.000000
O O12 0.339588 0.076200 0.014856
O O13 0.532654 0.710719 0.897422
#
# Coordination Sequence:
#
# PCOD8145556 Si02
#       6
#     8   8   8   8   8   8
#     4  11  23  38  62  92 124 160 212 254 318 378
#     4  11  21  36  62  91 122 158 199 264 320 367
#     4   9  20  37  62  93 121 153 203 260 314 376
#     4  11  25  42  64  88 123 173 214 257 314 381
#     4  10  23  42  61  90 129 165 215 261 312 381
#     4  10  22  39  61  93 125 160 206 266 318 371
#
# _framework density 20.351979
#
# number of rings (size 3 to 8) (size 9 to 14) (size 15 to 20)
#    0.000    1.667    1.667    2.000    2.333   10.667 
#    0.000    1.667    0.000    0.000    0.000    0.000 
#    0.000    0.000    0.000    0.000    0.000    0.000 
#
# Total GULP energy -297674.424627 kJ/mol
# GULP energy per Si atom -12403.101026 kJ/mol
# Density = 2.030566 g / cm^3
# Si number density = 20.351979 Si / 1000 Ang^3
#
#
#
# Elastic Constant Matrix: (Units=GPa)
#
#
# Indices 1 2 3 4 5 6 
#
# 1 99.5006 57.4246 33.9459 0.0000 5.9320 0.0000
# 2 57.4246 119.2431 37.2975 0.0000 8.8272 0.0000
# 3 33.9459 37.2975 77.3076 0.0000 7.4363 0.0000
# 4 0.0000 0.0000 0.0000 22.3434 0.0000 4.1208
# 5 5.9320 8.8272 7.4363 0.0000 37.3674 0.0000
# 6 0.0000 0.0000 0.0000 4.1208 0.0000 27.2372
#
#
#
# Elastic Compliance Matrix: (Units=1/GPa)
#
#
# Indices 1 2 3 4 5 6 
#
# 1 0.014718 -0.005955 -0.003568 0.000000 -0.000219 0.000000
# 2 -0.005955 0.012360 -0.003220 0.000000 -0.001334 0.000000
# 3 -0.003568 -0.003220 0.016239 0.000000 -0.001905 0.000000
# 4 0.000000 0.000000 0.000000 0.046041 0.000000 -0.006966
# 5 -0.000219 -0.001334 -0.001905 0.000000 0.027490 0.000000
# 6 0.000000 0.000000 0.000000 -0.006966 0.000000 0.037768
#
#
# Mechanical properties :
#
#
# Convention : Reuss Voigt Hill
#
# Bulk Modulus (GPa) = 56.08663 61.48747 58.78705
# Shear Modulus (GPa) = 26.87513 28.54848 27.71180
#
# Velocity S-wave (km/s) = 3.63783 3.74938 3.69403
# Velocity P-wave (km/s) = 6.72780 7.00153 6.86603
#
# Compressibility (1/GPa) = 0.01782956
#
# Stress axis : x y z
#
# Youngs Moduli (GPa) = 67.94583 80.90605 61.58080
#
# Poissons Ratio (x) = 0.48182 0.21974
# Poissons Ratio (y) = 0.40464 0.19828
# Poissons Ratio (z) = 0.24245 0.26051
#
# Static dielectric constant tensor:
#      x y z
#    x 3.840750 0.000000 0.042570 
#    y 0.000000 3.719520 0.000000 
#    z 0.042570 0.000000 3.534020 
# 
# 
# High freq. dielectric constant tensor:
#      x y z
#    x 1.805080 0.000000 0.005220 
#    y 0.000000 1.804760 0.000000 
#    z 0.005220 0.000000 1.777590 
# 
# From -- ./inp_files/254463.got.cif
#   From: 2010.06.25/outbox.cif.g09.slc.cpg/sg15_128_cif.got.tgz:254463.got - 2010.06.28 07:06:18.
