data_PCOD8145293
_publ_section_title
;
Structure prediction by ZEFSAII (Michael W. Deem and Ramdas Pophale) SiO2 
 PCOD8145293
Probable space group: C 2/C
;
_chemical_formula_sum "Si O2"
_cell_formula_units_Z 52
_cell_length_a 31.064046
_cell_length_b 6.537078
_cell_length_c 14.258995
_cell_angle_alpha 90.000000
_cell_angle_beta 61.328910
_cell_angle_gamma 90.000000
_cell_volume 2540.519151
_symmetry_space_group_name_H-M "C 2/C"
_symmetry_group_IT_number 15
_symmetry_cell_setting 'monoclinic'
loop_
_space_group_symop_operation_xyz
x,y,z
-x,y,1/2-z
-x,-y,-z
x,-y,1/2+z
1/2+x,1/2+y,z
1/2-x,1/2+y,1/2-z
1/2-x,1/2-y,-z
1/2+x,1/2-y,1/2+z
loop_
_atom_site_type_symbol
_atom_site_label
_atom_site_fract_x
_atom_site_fract_y
_atom_site_fract_z
Si Si1 0.378016 0.646674 0.624820
Si Si2 0.424297 0.205314 0.895267
Si Si3 0.420614 0.408112 0.273379
Si Si4 0.656966 0.109333 0.064379
Si Si5 0.698087 0.311688 0.843577
Si Si6 0.695980 0.960753 0.717327
Si Si7 0.500000 0.104286 0.250000
O O1 0.418792 0.705633 0.505437
O O2 0.405790 0.537032 0.682203
O O3 0.338296 0.502296 0.616679
O O4 0.351332 0.847241 0.691431
O O5 0.436579 0.384612 0.808684
O O6 0.468090 0.039980 0.851783
O O7 0.374332 0.095554 0.916271
O O8 0.375520 0.306943 0.376444
O O9 0.465591 0.247848 0.222185
O O10 0.696265 0.060676 0.104830
O O11 0.686761 0.155039 0.939303
O O12 0.754099 0.376675 0.792011
O O13 0.690953 0.197303 0.751901
#
# Coordination Sequence:
#
# PCOD8145293 Si02
#       7
#     8   8   8   8   8   8   4
#     4  11  23  39  65  90 124 170 200 252 304 361
#     4  11  21  43  65  90 123 158 203 249 314 368
#     4  10  22  42  63  92 124 157 205 247 314 369
#     4  10  22  38  62  88 125 168 205 254 301 358
#     4  12  21  40  59  91 127 165 214 251 298 355
#     4  11  23  38  58  92 128 166 212 252 296 353
#     4  10  24  42  66  92 124 154 194 264 302 384
#
# _framework density 20.468257000000001
#
# number of rings (size 3 to 8) (size 9 to 14) (size 15 to 20)
#    0.000    1.231    4.615    1.846    0.000    0.615 
#    0.000    4.615    0.000    0.000    0.000    0.000 
#    0.000    0.000    0.000    0.000    0.000    0.000 
#
# Total GULP energy -322514.103490 kJ/mol
# GULP energy per Si atom -12404.388596 kJ/mol
# Density = 2.042167 g / cm^3
# Si number density = 20.468257 Si / 1000 Ang^3
#
#
#
# Elastic Constant Matrix: (Units=GPa)
#
#
# Indices 1 2 3 4 5 6 
#
# 1 68.5387 12.4046 29.0065 0.0000 1.2964 0.0000
# 2 12.4046 77.4917 20.9339 0.0000 -1.3770 0.0000
# 3 29.0065 20.9339 82.2565 0.0000 8.4240 0.0000
# 4 0.0000 0.0000 0.0000 31.2424 0.0000 -3.5015
# 5 1.2964 -1.3770 8.4240 0.0000 29.5264 0.0000
# 6 0.0000 0.0000 0.0000 -3.5015 0.0000 30.0381
#
#
#
# Elastic Compliance Matrix: (Units=1/GPa)
#
#
# Indices 1 2 3 4 5 6 
#
# 1 0.017275 -0.001160 -0.005885 0.000000 0.000866 0.000000
# 2 -0.001160 0.014019 -0.003328 0.000000 0.001654 0.000000
# 3 -0.005885 -0.003328 0.015522 0.000000 -0.004325 0.000000
# 4 0.000000 0.000000 0.000000 0.032431 0.000000 0.003780
# 5 0.000866 0.001654 -0.004325 0.000000 0.035141 0.000000
# 6 0.000000 0.000000 0.000000 0.003780 0.000000 0.033732
#
#
# Mechanical properties :
#
#
# Convention : Reuss Voigt Hill
#
# Bulk Modulus (GPa) = 38.35939 39.21963 38.78951
# Shear Modulus (GPa) = 28.16012 29.22418 28.69215
#
# Velocity S-wave (km/s) = 3.71319 3.78270 3.74811
# Velocity P-wave (km/s) = 6.09634 6.18718 6.14193
#
# Compressibility (1/GPa) = 0.02606924
#
# Stress axis : x y z
#
# Youngs Moduli (GPa) = 57.88877 71.33302 64.42329
#
# Poissons Ratio (x) = 0.08275 0.37914
# Poissons Ratio (y) = 0.06715 0.21440
# Poissons Ratio (z) = 0.34068 0.23740
#
# Static dielectric constant tensor:
#      x y z
#    x 3.691440 0.000000 0.053920 
#    y 0.000000 3.741650 0.000000 
#    z 0.053920 0.000000 3.673630 
# 
# 
# High freq. dielectric constant tensor:
#      x y z
#    x 1.797680 0.000000 0.000830 
#    y 0.000000 1.806640 0.000000 
#    z 0.000830 0.000000 1.795810 
# 
# From -- ./inp_files/180033.got.cif
#   From: 2010.06.25/outbox.cif.g09.slc.cpg/sg15_91_cif.got.tgz:180033.got - 2010.06.28 07:06:18.
