data_PCOD8145161
_publ_section_title
;
Structure prediction by ZEFSAII (Michael W. Deem and Ramdas Pophale) SiO2 
 PCOD8145161
Probable space group: C 2/C
;
_chemical_formula_sum "Si O2"
_cell_formula_units_Z 48
_cell_length_a 18.482195
_cell_length_b 8.155010
_cell_length_c 20.657109
_cell_angle_alpha 90.000000
_cell_angle_beta 131.987287
_cell_angle_gamma 90.000000
_cell_volume 2314.236779
_symmetry_space_group_name_H-M "C 2/C"
_symmetry_group_IT_number 15
_symmetry_cell_setting 'monoclinic'
loop_
_space_group_symop_operation_xyz
x,y,z
-x,y,1/2-z
-x,-y,-z
x,-y,1/2+z
1/2+x,1/2+y,z
1/2-x,1/2+y,1/2-z
1/2-x,1/2-y,-z
1/2+x,1/2-y,1/2+z
loop_
_atom_site_type_symbol
_atom_site_label
_atom_site_fract_x
_atom_site_fract_y
_atom_site_fract_z
Si Si1 0.241918 0.602577 0.170601
Si Si2 0.920909 0.895004 0.257593
Si Si3 0.636448 0.824682 0.177517
Si Si4 0.106873 0.528317 0.286018
Si Si5 0.511137 0.447737 0.933261
Si Si6 0.777239 0.847507 0.452524
O O1 0.336249 0.524428 0.193038
O O2 0.273744 0.697737 0.255884
O O3 0.164770 0.460057 0.141160
O O4 0.197793 0.726949 0.092293
O O5 0.876515 0.713957 0.226477
O O6 0.000000 0.928749 0.250000
O O7 0.961058 0.922576 0.354445
O O8 0.539360 0.730382 0.098762
O O9 0.613047 0.906506 0.230901
O O10 0.190686 0.477039 0.387029
O O11 0.000000 0.506261 0.250000
O O12 0.500000 0.500000 0.000000
O O13 0.622831 0.445118 0.977212
O O14 0.750000 0.750000 0.500000
#
# Coordination Sequence:
#
# PCOD8145161 Si02
#       6
#     8   8   8   8   8   8
#     4  10  22  37  68  88 121 172 216 260 311 396
#     4  10  22  43  65  89 126 173 220 260 320 399
#     4  10  22  39  63  88 126 165 220 252 322 386
#     4  10  22  41  69  92 123 173 221 253 309 407
#     4  11  26  41  61  97 135 166 208 287 332 375
#     4  11  24  43  64  96 134 166 214 271 340 376
#
# _framework density 20.74118
#
# number of rings (size 3 to 8) (size 9 to 14) (size 15 to 20)
#    0.000    1.667    0.000    3.000   14.000    5.333 
#    6.000    4.167    0.000    0.000    0.000    0.000 
#    0.000    0.000    0.000    0.000    0.000    0.000 
#
# Total GULP energy -297625.643152 kJ/mol
# GULP energy per Si atom -12401.068465 kJ/mol
# Density = 2.069397 g / cm^3
# Si number density = 20.741180 Si / 1000 Ang^3
#
#
#
# Elastic Constant Matrix: (Units=GPa)
#
#
# Indices 1 2 3 4 5 6 
#
# 1 69.2713 22.1843 26.0580 0.0000 0.8764 0.0000
# 2 22.1843 103.8165 34.5401 0.0000 7.0760 0.0000
# 3 26.0580 34.5401 88.8432 0.0000 2.0587 0.0000
# 4 0.0000 0.0000 0.0000 30.4062 0.0000 2.1236
# 5 0.8764 7.0760 2.0587 0.0000 35.8978 0.0000
# 6 0.0000 0.0000 0.0000 2.1236 0.0000 37.2236
#
#
#
# Elastic Compliance Matrix: (Units=1/GPa)
#
#
# Indices 1 2 3 4 5 6 
#
# 1 0.016663 -0.002241 -0.004022 0.000000 0.000266 0.000000
# 2 -0.002241 0.011501 -0.003768 0.000000 -0.001996 0.000000
# 3 -0.004022 -0.003768 0.013899 0.000000 0.000044 0.000000
# 4 0.000000 0.000000 0.000000 0.033020 0.000000 -0.001884
# 5 0.000266 -0.001996 0.000044 0.000000 0.028241 0.000000
# 6 0.000000 0.000000 0.000000 -0.001884 0.000000 0.026972
#
#
# Mechanical properties :
#
#
# Convention : Reuss Voigt Hill
#
# Bulk Modulus (GPa) = 45.45077 47.49953 46.47515
# Shear Modulus (GPa) = 31.70733 32.64876 32.17805
#
# Velocity S-wave (km/s) = 3.91412 3.97180 3.94307
# Velocity P-wave (km/s) = 6.51060 6.63207 6.57162
#
# Compressibility (1/GPa) = 0.02200183
#
# Stress axis : x y z
#
# Youngs Moduli (GPa) = 60.01207 86.95070 71.94551
#
# Poissons Ratio (x) = 0.19482 0.28940
# Poissons Ratio (y) = 0.13446 0.27108
# Poissons Ratio (z) = 0.24140 0.32761
#
# Static dielectric constant tensor:
#      x y z
#    x 4.531670 0.000000 1.099840 
#    y 0.000000 4.183290 0.000000 
#    z 1.099840 0.000000 4.987120 
# 
# 
# High freq. dielectric constant tensor:
#      x y z
#    x 1.823420 0.000000 0.003050 
#    y 0.000000 1.820570 0.000000 
#    z 0.003050 0.000000 1.805570 
# 
# From -- ./inp_files/247644.got.cif
#   From: 2010.06.25/outbox.cif.g09.slc.cpg/sg15_124_cif.got.tgz:247644.got - 2010.06.28 07:06:18.
