data_PCOD8145721
_publ_section_title
;
Structure prediction by ZEFSAII (Michael W. Deem and Ramdas Pophale) SiO2 
 PCOD8145721
Probable space group: C 2/C
;
_chemical_formula_sum "Si O2"
_cell_formula_units_Z 32
_cell_length_a 10.324074
_cell_length_b 8.382573
_cell_length_c 17.929431
_cell_angle_alpha 90.000000
_cell_angle_beta 98.797548
_cell_angle_gamma 90.000000
_cell_volume 1533.398943
_symmetry_space_group_name_H-M "C 2/C"
_symmetry_group_IT_number 15
_symmetry_cell_setting 'monoclinic'
loop_
_space_group_symop_operation_xyz
x,y,z
-x,y,1/2-z
-x,-y,-z
x,-y,1/2+z
1/2+x,1/2+y,z
1/2-x,1/2+y,1/2-z
1/2-x,1/2-y,-z
1/2+x,1/2-y,1/2+z
loop_
_atom_site_type_symbol
_atom_site_label
_atom_site_fract_x
_atom_site_fract_y
_atom_site_fract_z
Si Si1 0.027494 0.865648 0.336868
Si Si2 0.944966 0.188922 0.077454
Si Si3 0.329631 0.211207 0.417161
Si Si4 0.710105 0.157411 0.571618
O O1 0.176128 0.802608 0.358373
O O2 0.000000 0.915447 0.250000
O O3 0.920109 0.732189 0.352026
O O4 0.014794 0.015407 0.390500
O O5 0.821495 0.265756 0.112800
O O6 0.074564 0.292151 0.096989
O O7 0.898059 0.182786 0.987173
O O8 0.311146 0.030089 0.444921
O O9 0.750000 0.250000 0.500000
#
# Coordination Sequence:
#
# PCOD8145721 Si02
#       4
#     8   8   8   8
#     4  11  25  42  60  91 134 169 209 264 323 381
#     4  10  22  39  67  93 121 161 212 265 315 371
#     4  10  22  39  66  97 121 162 214 267 315 373
#     4  11  23  38  66  97 121 163 217 263 315 380
#
# _framework density 20.868670999999999
#
# number of rings (size 3 to 8) (size 9 to 14) (size 15 to 20)
#    0.000    1.500    2.500    1.500    7.000    4.000 
#    0.000    1.250    0.000    0.000    0.000    0.000 
#    0.000    0.000    0.000    0.000    0.000    0.000 
#
# Total GULP energy -198236.689374 kJ/mol
# GULP energy per Si atom -12389.793086 kJ/mol
# Density = 2.082117 g / cm^3
# Si number density = 20.868671 Si / 1000 Ang^3
#
#
#
# Elastic Constant Matrix: (Units=GPa)
#
#
# Indices 1 2 3 4 5 6 
#
# 1 213.8444 54.4321 56.5203 0.0000 18.3425 0.0000
# 2 54.4321 86.5435 57.1019 0.0000 -7.9956 0.0000
# 3 56.5203 57.1019 90.7254 0.0000 14.9069 0.0000
# 4 0.0000 0.0000 0.0000 11.1782 0.0000 5.7698
# 5 18.3425 -7.9956 14.9069 0.0000 28.1033 0.0000
# 6 0.0000 0.0000 0.0000 5.7698 0.0000 29.7139
#
#
#
# Elastic Compliance Matrix: (Units=1/GPa)
#
#
# Indices 1 2 3 4 5 6 
#
# 1 0.006275 -0.004039 -0.000554 0.000000 -0.004951 0.000000
# 2 -0.004039 0.028351 -0.018718 0.000000 0.020631 0.000000
# 3 -0.000554 -0.018718 0.026252 0.000000 -0.018889 0.000000
# 4 0.000000 0.000000 0.000000 0.099425 0.000000 -0.019306
# 5 -0.004951 0.020631 -0.018889 0.000000 0.054704 0.000000
# 6 0.000000 0.000000 0.000000 -0.019306 0.000000 0.037403
#
#
# Mechanical properties :
#
#
# Convention : Reuss Voigt Hill
#
# Bulk Modulus (GPa) = 70.13943 80.80243 75.47093
# Shear Modulus (GPa) = 16.45910 28.66969 22.56439
#
# Velocity S-wave (km/s) = 2.81143 3.71052 3.29181
# Velocity P-wave (km/s) = 6.64994 7.56048 7.11978
#
# Compressibility (1/GPa) = 0.01425732
#
# Stress axis : x y z
#
# Youngs Moduli (GPa) = 159.35058 35.27164 38.09280
#
# Poissons Ratio (x) = 0.14246 0.02110
# Poissons Ratio (y) = 0.64362 0.71301
# Poissons Ratio (z) = 0.08826 0.66021
#
# Static dielectric constant tensor:
#      x y z
#    x 4.594700 0.000000 0.211350 
#    y 0.000000 3.665120 0.000000 
#    z 0.211350 0.000000 3.436380 
# 
# 
# High freq. dielectric constant tensor:
#      x y z
#    x 1.856770 0.000000 0.010060 
#    y 0.000000 1.804020 0.000000 
#    z 0.010060 0.000000 1.775190 
# 
# From -- ./inp_files/194716.got.cif
#   From: 2010.06.25/outbox.cif.g09.slc.cpg/sg15_98_cif.got.tgz:194716.got - 2010.06.28 07:06:18.
