data_PCOD8145348
_publ_section_title
;
Structure prediction by ZEFSAII (Michael W. Deem and Ramdas Pophale) SiO2 
 PCOD8145348
Probable space group: C 2/C
;
_chemical_formula_sum "Si O2"
_cell_formula_units_Z 64
_cell_length_a 23.806622
_cell_length_b 15.164881
_cell_length_c 8.374638
_cell_angle_alpha 90.000000
_cell_angle_beta 91.916174
_cell_angle_gamma 90.000000
_cell_volume 3021.759585
_symmetry_space_group_name_H-M "C 2/C"
_symmetry_group_IT_number 15
_symmetry_cell_setting 'monoclinic'
loop_
_space_group_symop_operation_xyz
x,y,z
-x,y,1/2-z
-x,-y,-z
x,-y,1/2+z
1/2+x,1/2+y,z
1/2-x,1/2+y,1/2-z
1/2-x,1/2-y,-z
1/2+x,1/2-y,1/2+z
loop_
_atom_site_type_symbol
_atom_site_label
_atom_site_fract_x
_atom_site_fract_y
_atom_site_fract_z
Si Si1 0.866511 0.873346 0.319069
Si Si2 0.359526 0.534559 0.499959
Si Si3 0.734708 0.086532 0.390230
Si Si4 0.532681 0.250412 0.103264
Si Si5 0.113544 0.615211 0.977481
Si Si6 0.476089 0.589973 0.421421
Si Si7 0.211096 0.272460 0.641666
Si Si8 0.660861 0.959936 0.170798
O O1 0.917163 0.806014 0.315210
O O2 0.809072 0.820221 0.288260
O O3 0.866450 0.928605 0.483762
O O4 0.869974 0.948453 0.186316
O O5 0.297887 0.562011 0.438588
O O6 0.408292 0.586825 0.409321
O O7 0.739474 0.176868 0.291335
O O8 0.694955 0.097829 0.542796
O O9 0.708076 0.011828 0.274952
O O10 0.500000 0.207299 0.250000
O O11 0.554847 0.168784 0.995254
O O12 0.492994 0.319218 0.009117
O O13 0.160593 0.673994 0.061800
O O14 0.115852 0.522375 0.073796
O O15 0.125248 0.601408 0.789273
O O16 0.500000 0.596859 0.250000
O O17 0.500000 0.500000 0.500000
O O18 0.250000 0.250000 0.500000
#
# Coordination Sequence:
#
# PCOD8145348 Si02
#       8
#     8   8   8   8   8   8   8   8
#     4  11  25  39  60  90 124 168 214 255 316 380
#     4  12  24  37  63  91 122 169 221 250 310 384
#     4  10  22  38  64  89 132 168 210 263 316 387
#     4  11  22  45  64  90 130 170 211 272 325 372
#     4   9  21  40  69  93 125 167 208 269 329 388
#     4  12  24  41  63  89 123 171 219 266 313 373
#     4  10  24  40  56  89 131 172 208 263 321 376
#     4   9  19  42  66  96 125 165 212 261 332 390
#
# _framework density 21.179713
#
# number of rings (size 3 to 8) (size 9 to 14) (size 15 to 20)
#    0.000    1.500    2.500    1.875    8.750    1.500 
#    2.250    1.875    0.000    0.000    0.000    0.000 
#    0.000    0.000    0.000    0.000    0.000    0.000 
#
# Total GULP energy -396641.020473 kJ/mol
# GULP energy per Si atom -12395.031890 kJ/mol
# Density = 2.113151 g / cm^3
# Si number density = 21.179713 Si / 1000 Ang^3
#
#
#
# Elastic Constant Matrix: (Units=GPa)
#
#
# Indices 1 2 3 4 5 6 
#
# 1 99.2348 54.5060 39.2292 0.0000 -24.3569 0.0000
# 2 54.5060 82.9900 47.9512 0.0000 -19.5690 0.0000
# 3 39.2292 47.9512 127.5834 0.0000 -32.4359 0.0000
# 4 0.0000 0.0000 0.0000 43.8114 0.0000 -7.0713
# 5 -24.3569 -19.5690 -32.4359 0.0000 33.7905 0.0000
# 6 0.0000 0.0000 0.0000 -7.0713 0.0000 18.6685
#
#
#
# Elastic Compliance Matrix: (Units=1/GPa)
#
#
# Indices 1 2 3 4 5 6 
#
# 1 0.016979 -0.009621 0.000120 0.000000 0.006782 0.000000
# 2 -0.009621 0.021366 -0.004880 0.000000 0.000754 0.000000
# 3 0.000120 -0.004880 0.011825 0.000000 0.008610 0.000000
# 4 0.000000 0.000000 0.000000 0.024311 0.000000 0.009209
# 5 0.006782 0.000754 0.008610 0.000000 0.043184 0.000000
# 6 0.000000 0.000000 0.000000 0.009209 0.000000 0.057054
#
#
# Mechanical properties :
#
#
# Convention : Reuss Voigt Hill
#
# Bulk Modulus (GPa) = 46.71706 65.90899 56.31302
# Shear Modulus (GPa) = 23.73949 30.46220 27.10084
#
# Velocity S-wave (km/s) = 3.35156 3.79657 3.58098
# Velocity P-wave (km/s) = 6.08955 7.09965 6.61391
#
# Compressibility (1/GPa) = 0.02140546
#
# Stress axis : x y z
#
# Youngs Moduli (GPa) = 58.89601 46.80252 84.57012
#
# Poissons Ratio (x) = 0.45031 -0.01011
# Poissons Ratio (y) = 0.56666 0.41273
# Poissons Ratio (z) = -0.00704 0.22841
#
# Static dielectric constant tensor:
#      x y z
#    x 3.791120 0.000000 -0.370150 
#    y 0.000000 3.893760 0.000000 
#    z -0.370150 0.000000 4.065140 
# 
# 
# High freq. dielectric constant tensor:
#      x y z
#    x 1.825310 0.000000 -0.014710 
#    y 0.000000 1.821270 0.000000 
#    z -0.014710 0.000000 1.837670 
# 
# From -- ./inp_files/61945.got.cif
#   From: 2010.06.25/outbox.cif.g09.slc.cpg/sg15_31_cif.got.tgz:61945.got - 2010.06.28 07:06:18.
