data_PCOD8145994
_publ_section_title
;
Structure prediction by ZEFSAII (Michael W. Deem and Ramdas Pophale) SiO2 
 PCOD8145994
Probable space group: C 2/C
;
_chemical_formula_sum "Si O2"
_cell_formula_units_Z 52
_cell_length_a 10.176668
_cell_length_b 9.197178
_cell_length_c 25.768523
_cell_angle_alpha 90.000000
_cell_angle_beta 105.944346
_cell_angle_gamma 90.000000
_cell_volume 2319.060632
_symmetry_space_group_name_H-M "C 2/C"
_symmetry_group_IT_number 15
_symmetry_cell_setting 'monoclinic'
loop_
_space_group_symop_operation_xyz
x,y,z
-x,y,1/2-z
-x,-y,-z
x,-y,1/2+z
1/2+x,1/2+y,z
1/2-x,1/2+y,1/2-z
1/2-x,1/2-y,-z
1/2+x,1/2-y,1/2+z
loop_
_atom_site_type_symbol
_atom_site_label
_atom_site_fract_x
_atom_site_fract_y
_atom_site_fract_z
Si Si1 0.911573 0.011038 0.631772
Si Si2 0.768278 0.789452 0.276213
Si Si3 0.639068 0.069605 0.286147
Si Si4 0.500000 0.601253 0.250000
Si Si5 0.651573 0.193374 0.105417
Si Si6 0.136004 0.657835 0.399066
Si Si7 0.396248 0.504974 0.941844
O O1 0.860104 0.172456 0.613915
O O2 0.025770 0.959539 0.602734
O O3 0.776879 0.912894 0.609275
O O4 0.978808 0.999054 0.696348
O O5 0.844021 0.734988 0.232434
O O6 0.624370 0.711171 0.261006
O O7 0.857364 0.745800 0.335708
O O8 0.755263 0.964340 0.273858
O O9 0.500000 0.002212 0.250000
O O10 0.640199 0.059483 0.347793
O O11 0.500353 0.120002 0.081858
O O12 0.666556 0.332584 0.069623
O O13 0.274538 0.608202 0.443206
O O14 0.500000 0.500000 0.000000
#
# Coordination Sequence:
#
# PCOD8145994 Si02
#       7
#     8   8   8   4   8   8   8
#     4  10  25  43  66 101 135 177 218 271 333 396
#     4  11  23  38  59  91 133 173 213 259 317 394
#     4  12  24  37  61  94 130 177 215 258 327 396
#     4  10  22  40  64  94 142 168 210 264 318 396
#     4  10  23  43  63  95 132 165 219 275 330 391
#     4  11  24  41  66  94 130 171 221 274 331 393
#     4  11  25  47  70  94 130 175 226 282 333 388
#
# _framework density 22.42287
#
# number of rings (size 3 to 8) (size 9 to 14) (size 15 to 20)
#    0.000    1.231    3.846    0.923    7.538    4.308 
#    0.000    1.538    0.000    0.000    0.000    0.000 
#    0.000    0.000    0.000    0.000    0.000    0.000 
#
# Total GULP energy -322324.580519 kJ/mol
# GULP energy per Si atom -12397.099251 kJ/mol
# Density = 2.237183 g / cm^3
# Si number density = 22.422870 Si / 1000 Ang^3
#
#
#
# Elastic Constant Matrix: (Units=GPa)
#
#
# Indices 1 2 3 4 5 6 
#
# 1 125.7936 47.0487 29.3326 0.0000 20.3266 0.0000
# 2 47.0487 91.4571 19.0751 0.0000 10.7523 0.0000
# 3 29.3326 19.0751 79.6280 0.0000 23.1332 0.0000
# 4 0.0000 0.0000 0.0000 21.9515 0.0000 6.5720
# 5 20.3266 10.7523 23.1332 0.0000 37.0374 0.0000
# 6 0.0000 0.0000 0.0000 6.5720 0.0000 25.2084
#
#
#
# Elastic Compliance Matrix: (Units=1/GPa)
#
#
# Indices 1 2 3 4 5 6 
#
# 1 0.010683 -0.004720 -0.001832 0.000000 -0.003349 0.000000
# 2 -0.004720 0.013714 -0.001396 0.000000 -0.000519 0.000000
# 3 -0.001832 -0.001396 0.016075 0.000000 -0.008629 0.000000
# 4 0.000000 0.000000 0.000000 0.049412 0.000000 -0.012882
# 5 -0.003349 -0.000519 -0.008629 0.000000 0.034378 0.000000
# 6 0.000000 0.000000 0.000000 -0.012882 0.000000 0.043028
#
#
# Mechanical properties :
#
#
# Convention : Reuss Voigt Hill
#
# Bulk Modulus (GPa) = 40.68874 54.19907 47.44390
# Shear Modulus (GPa) = 26.12645 30.26763 28.19704
#
# Velocity S-wave (km/s) = 3.41716 3.67802 3.54999
# Velocity P-wave (km/s) = 5.80989 6.50084 6.16505
#
# Compressibility (1/GPa) = 0.02457683
#
# Stress axis : x y z
#
# Youngs Moduli (GPa) = 93.60554 72.91611 62.21020
#
# Poissons Ratio (x) = 0.34417 0.11396
# Poissons Ratio (y) = 0.44182 0.08683
# Poissons Ratio (z) = 0.17147 0.10177
#
# Static dielectric constant tensor:
#      x y z
#    x 4.351060 0.000000 0.152030 
#    y 0.000000 3.962420 0.000000 
#    z 0.152030 0.000000 3.942750 
# 
# 
# High freq. dielectric constant tensor:
#      x y z
#    x 1.908610 0.000000 0.021080 
#    y 0.000000 1.880200 0.000000 
#    z 0.021080 0.000000 1.858320 
# 
# From -- ./inp_files/291256.got.cif
#   From: 2010.06.25/outbox.cif.g09.slc.cpg/sg15_146_cif.got.tgz:291256.got - 2010.06.28 07:06:18.
