data_PCOD8145865
_publ_section_title
;
Structure prediction by ZEFSAII (Michael W. Deem and Ramdas Pophale) SiO2 
 PCOD8145865
Probable space group: C 2/C
;
_chemical_formula_sum "Si O2"
_cell_formula_units_Z 56
_cell_length_a 23.058982
_cell_length_b 9.674490
_cell_length_c 13.749806
_cell_angle_alpha 90.000000
_cell_angle_beta 65.424382
_cell_angle_gamma 90.000000
_cell_volume 2789.497791
_symmetry_space_group_name_H-M "C 2/C"
_symmetry_group_IT_number 15
_symmetry_cell_setting 'monoclinic'
loop_
_space_group_symop_operation_xyz
x,y,z
-x,y,1/2-z
-x,-y,-z
x,-y,1/2+z
1/2+x,1/2+y,z
1/2-x,1/2+y,1/2-z
1/2-x,1/2-y,-z
1/2+x,1/2-y,1/2+z
loop_
_atom_site_type_symbol
_atom_site_label
_atom_site_fract_x
_atom_site_fract_y
_atom_site_fract_z
Si Si1 0.935157 0.696974 0.846025
Si Si2 0.112116 0.900175 0.767336
Si Si3 0.520424 0.535525 0.093759
Si Si4 0.849005 0.551553 0.460477
Si Si5 0.374876 0.336984 0.514953
Si Si6 0.737342 0.125264 0.150782
Si Si7 0.762228 0.057723 0.815853
O O1 0.886884 0.764398 0.800854
O O2 0.952523 0.808748 0.917356
O O3 0.898750 0.572694 0.922760
O O4 0.000000 0.642464 0.750000
O O5 0.115993 0.854193 0.876220
O O6 0.043394 0.975904 0.794484
O O7 0.168979 0.001765 0.698882
O O8 0.500000 0.500000 0.000000
O O9 0.577182 0.430421 0.082640
O O10 0.888085 0.678685 0.478814
O O11 0.824063 0.593675 0.371337
O O12 0.788948 0.511077 0.568597
O O13 0.301690 0.377375 0.539567
O O14 0.732756 0.277414 0.201973
O O15 0.740533 0.007755 0.229598
#
# Coordination Sequence:
#
# PCOD8145865 Si02
#       7
#     8   8   8   8   8   8   8
#     4  10  23  41  59  87 122 157 201 250 301 358
#     4   9  20  38  63  84 123 155 205 250 293 351
#     4   9  19  39  63  83 113 157 203 245 290 350
#     4  11  24  38  63  88 127 159 196 248 309 362
#     4   9  19  39  61  87 120 159 199 249 298 355
#     4  10  23  39  60  90 130 151 202 247 300 359
#     4  10  22  40  61  92 120 161 198 250 301 357
#
# _framework density 20.075299000000001
#
# number of rings (size 3 to 8) (size 9 to 14) (size 15 to 20)
#    0.000    2.286    0.000    1.714   10.000    4.000 
#    2.571    6.429    0.000    0.000    0.000    0.000 
#    0.000    0.000    0.000    0.000    0.000    0.000 
#
# Total GULP energy -347156.299830 kJ/mol
# GULP energy per Si atom -12398.439280 kJ/mol
# Density = 2.002961 g / cm^3
# Si number density = 20.075299 Si / 1000 Ang^3
#
#
#
# Elastic Constant Matrix: (Units=GPa)
#
#
# Indices 1 2 3 4 5 6 
#
# 1 96.1741 64.2637 30.5299 0.0000 -22.4238 0.0000
# 2 64.2637 146.7788 69.9591 0.0000 -28.3755 0.0000
# 3 30.5299 69.9591 74.6083 0.0000 -23.0990 0.0000
# 4 0.0000 0.0000 0.0000 39.7421 0.0000 -3.4004
# 5 -22.4238 -28.3755 -23.0990 0.0000 30.0231 0.0000
# 6 0.0000 0.0000 0.0000 -3.4004 0.0000 33.3949
#
#
#
# Elastic Compliance Matrix: (Units=1/GPa)
#
#
# Indices 1 2 3 4 5 6 
#
# 1 0.015739 -0.006324 0.001679 0.000000 0.007069 0.000000
# 2 -0.006324 0.015166 -0.011365 0.000000 0.000866 0.000000
# 3 0.001679 -0.011365 0.026826 0.000000 0.011151 0.000000
# 4 0.000000 0.000000 0.000000 0.025383 0.000000 0.002585
# 5 0.007069 0.000866 0.011151 0.000000 0.047986 0.000000
# 6 0.000000 0.000000 0.000000 0.002585 0.000000 0.030208
#
#
# Mechanical properties :
#
#
# Convention : Reuss Voigt Hill
#
# Bulk Modulus (GPa) = 38.89602 71.89629 55.39616
# Shear Modulus (GPa) = 24.76460 30.81925 27.79193
#
# Velocity S-wave (km/s) = 3.51605 3.92239 3.72477
# Velocity P-wave (km/s) = 5.99171 7.51030 6.79357
#
# Compressibility (1/GPa) = 0.02570957
#
# Stress axis : x y z
#
# Youngs Moduli (GPa) = 63.53526 65.93502 37.27739
#
# Poissons Ratio (x) = 0.41700 -0.06257
# Poissons Ratio (y) = 0.40182 0.42366
# Poissons Ratio (z) = -0.10665 0.74936
#
# Static dielectric constant tensor:
#      x y z
#    x 4.074370 0.000000 -0.203030 
#    y 0.000000 3.597720 0.000000 
#    z -0.203030 0.000000 3.718920 
# 
# 
# High freq. dielectric constant tensor:
#      x y z
#    x 1.799550 0.000000 0.000600 
#    y 0.000000 1.773070 0.000000 
#    z 0.000600 0.000000 1.779700 
# 
# From -- ./inp_files/172280.got.cif
#   From: 2010.06.25/outbox.cif.g09.slc.cpg/sg15_87_cif.got.tgz:172280.got - 2010.06.28 07:06:18.
