data_PCOD8145269
_publ_section_title
;
Structure prediction by ZEFSAII (Michael W. Deem and Ramdas Pophale) SiO2 
 PCOD8145269
Probable space group: C 2/C
;
_chemical_formula_sum "Si O2"
_cell_formula_units_Z 52
_cell_length_a 13.666851
_cell_length_b 24.818218
_cell_length_c 8.374626
_cell_angle_alpha 90.000000
_cell_angle_beta 117.461796
_cell_angle_gamma 90.000000
_cell_volume 2520.484456
_symmetry_space_group_name_H-M "C 2/C"
_symmetry_group_IT_number 15
_symmetry_cell_setting 'monoclinic'
loop_
_space_group_symop_operation_xyz
x,y,z
-x,y,1/2-z
-x,-y,-z
x,-y,1/2+z
1/2+x,1/2+y,z
1/2-x,1/2+y,1/2-z
1/2-x,1/2-y,-z
1/2+x,1/2-y,1/2+z
loop_
_atom_site_type_symbol
_atom_site_label
_atom_site_fract_x
_atom_site_fract_y
_atom_site_fract_z
Si Si1 0.129301 0.558643 0.683695
Si Si2 0.786748 0.346095 0.680316
Si Si3 0.727490 0.656176 0.801630
Si Si4 0.672608 0.741611 0.282833
Si Si5 0.880690 0.440484 0.947880
Si Si6 0.000000 0.300352 0.750000
Si Si7 0.059392 0.222001 0.511296
O O1 0.225313 0.597090 0.693663
O O2 0.151788 0.498357 0.643840
O O3 0.009556 0.575440 0.522059
O O4 0.139758 0.561445 0.880603
O O5 0.697189 0.343189 0.469145
O O6 0.766474 0.298432 0.789582
O O7 0.799931 0.400398 0.791814
O O8 0.894683 0.338471 0.648526
O O9 0.814313 0.701458 0.799611
O O10 0.609865 0.667528 0.626688
O O11 0.659859 0.745183 0.469200
O O12 0.555517 0.711569 0.162321
O O13 0.969628 0.265924 0.880031
#
# Coordination Sequence:
#
# PCOD8145269 Si02
#       7
#     8   8   8   8   8   4   8
#     4  10  22  38  61  89 120 163 203 259 311 363
#     4  12  23  38  60  89 125 166 206 252 310 368
#     4  12  22  37  61  87 121 164 204 252 309 367
#     4  11  24  40  58  89 125 167 205 255 309 373
#     4  10  22  39  60  88 124 158 209 255 309 371
#     4  12  22  36  58  86 122 162 200 252 302 368
#     4  11  24  38  58  85 127 158 211 251 305 372
#
# _framework density 20.630955
#
# number of rings (size 3 to 8) (size 9 to 14) (size 15 to 20)
#    0.000    0.923    3.077    4.615    2.154    3.692 
#    0.000    0.000    0.000    0.923    0.000    2.154 
#    0.000    0.000    0.000    0.000    0.000    0.000 
#
# Total GULP energy -322149.591598 kJ/mol
# GULP energy per Si atom -12390.368908 kJ/mol
# Density = 2.058400 g / cm^3
# Si number density = 20.630955 Si / 1000 Ang^3
#
#
#
# Elastic Constant Matrix: (Units=GPa)
#
#
# Indices 1 2 3 4 5 6 
#
# 1 80.6214 30.4353 26.2466 0.0000 -9.4670 0.0000
# 2 30.4353 103.3176 55.9262 0.0000 -4.9307 0.0000
# 3 26.2466 55.9262 120.1237 0.0000 -22.0048 0.0000
# 4 0.0000 0.0000 0.0000 39.5913 0.0000 -5.1860
# 5 -9.4670 -4.9307 -22.0048 0.0000 29.8156 0.0000
# 6 0.0000 0.0000 0.0000 -5.1860 0.0000 36.2160
#
#
#
# Elastic Compliance Matrix: (Units=1/GPa)
#
#
# Indices 1 2 3 4 5 6 
#
# 1 0.014447 -0.003636 -0.000848 0.000000 0.003360 0.000000
# 2 -0.003636 0.014041 -0.006393 0.000000 -0.003551 0.000000
# 3 -0.000848 -0.006393 0.013001 0.000000 0.008269 0.000000
# 4 0.000000 0.000000 0.000000 0.025741 0.000000 0.003686
# 5 0.003360 -0.003551 0.008269 0.000000 0.040122 0.000000
# 6 0.000000 0.000000 0.000000 0.003686 0.000000 0.028140
#
#
# Mechanical properties :
#
#
# Convention : Reuss Voigt Hill
#
# Bulk Modulus (GPa) = 50.67339 58.80877 54.74108
# Shear Modulus (GPa) = 30.52027 33.88821 32.20424
#
# Velocity S-wave (km/s) = 3.85040 4.05729 3.95519
# Velocity P-wave (km/s) = 6.66202 7.10744 6.88833
#
# Compressibility (1/GPa) = 0.01973422
#
# Stress axis : x y z
#
# Youngs Moduli (GPa) = 69.21822 71.21865 76.91566
#
# Poissons Ratio (x) = 0.25898 0.06524
# Poissons Ratio (y) = 0.25170 0.49173
# Poissons Ratio (z) = 0.05871 0.45531
#
# Static dielectric constant tensor:
#      x y z
#    x 4.135900 0.000000 0.110430 
#    y 0.000000 3.421300 0.000000 
#    z 0.110430 0.000000 4.304690 
# 
# 
# High freq. dielectric constant tensor:
#      x y z
#    x 1.803670 0.000000 -0.015920 
#    y 0.000000 1.777430 0.000000 
#    z -0.015920 0.000000 1.842390 
# 
# From -- ./inp_files/42324.got.cif
#   From: 2010.06.25/outbox.cif.g09.slc.cpg/sg15_22_cif.got.tgz:42324.got - 2010.06.28 07:06:18.
