data_PCOD8145986
_publ_section_title
;
Structure prediction by ZEFSAII (Michael W. Deem and Ramdas Pophale) SiO2 
 PCOD8145986
Probable space group: C 2/C
;
_chemical_formula_sum "Si O2"
_cell_formula_units_Z 60
_cell_length_a 11.411757
_cell_length_b 15.486149
_cell_length_c 16.506071
_cell_angle_alpha 90.000000
_cell_angle_beta 77.875846
_cell_angle_gamma 90.000000
_cell_volume 2851.956879
_symmetry_space_group_name_H-M "C 2/C"
_symmetry_group_IT_number 15
_symmetry_cell_setting 'monoclinic'
loop_
_space_group_symop_operation_xyz
x,y,z
-x,y,1/2-z
-x,-y,-z
x,-y,1/2+z
1/2+x,1/2+y,z
1/2-x,1/2+y,1/2-z
1/2-x,1/2-y,-z
1/2+x,1/2-y,1/2+z
loop_
_atom_site_type_symbol
_atom_site_label
_atom_site_fract_x
_atom_site_fract_y
_atom_site_fract_z
Si Si1 0.068690 0.775197 0.521158
Si Si2 0.746121 0.320452 0.764509
Si Si3 0.964249 0.125682 0.896969
Si Si4 0.767921 0.452219 0.131432
Si Si5 0.500000 0.243119 0.250000
Si Si6 0.567133 0.178886 0.823133
Si Si7 0.106419 0.019249 0.293534
Si Si8 0.221730 0.360830 0.922256
O O1 0.977497 0.835746 0.484893
O O2 0.102065 0.692526 0.460688
O O3 0.181771 0.836163 0.523398
O O4 0.015961 0.741842 0.612874
O O5 0.692123 0.226868 0.788904
O O6 0.671986 0.396336 0.822193
O O7 0.728689 0.336997 0.672450
O O8 0.884818 0.319849 0.771114
O O9 0.009169 0.196634 0.826808
O O10 0.823791 0.104893 0.908307
O O11 0.048699 0.040905 0.871849
O O12 0.894443 0.405207 0.131062
O O13 0.705535 0.468316 0.227245
O O14 0.802114 0.536748 0.074392
O O15 0.500000 0.152798 0.750000
O O16 0.000000 0.051017 0.250000
#
# Coordination Sequence:
#
# PCOD8145986 Si02
#       8
#     8   8   8   8   4   8   8   8
#     4  11  25  40  70  95 132 177 219 274 335 393
#     4  11  21  40  69  96 126 174 224 273 323 400
#     4  11  20  40  65  96 129 174 220 271 335 390
#     4  10  22  40  64  93 134 168 216 275 330 386
#     4  12  20  40  68  96 134 174 216 270 340 400
#     4  12  24  42  68  99 131 176 230 276 330 395
#     4   9  19  37  66  92 125 170 219 271 322 388
#     4  10  23  44  63  94 131 174 215 273 334 399
#
# _framework density 21.038184999999999
#
# number of rings (size 3 to 8) (size 9 to 14) (size 15 to 20)
#    0.000    1.333    6.000    0.400    3.733    1.600 
#    4.800    0.000    0.000    0.000    0.000    0.000 
#    0.000    0.000    0.000    0.000    0.000    0.000 
#
# Total GULP energy -371990.383921 kJ/mol
# GULP energy per Si atom -12399.679464 kJ/mol
# Density = 2.099030 g / cm^3
# Si number density = 21.038185 Si / 1000 Ang^3
#
#
#
# Elastic Constant Matrix: (Units=GPa)
#
#
# Indices 1 2 3 4 5 6 
#
# 1 107.6963 69.9728 21.9346 0.0000 16.5327 0.0000
# 2 69.9728 126.2978 38.6527 0.0000 19.8431 0.0000
# 3 21.9346 38.6527 65.9280 0.0000 12.6383 0.0000
# 4 0.0000 0.0000 0.0000 25.1040 0.0000 1.6469
# 5 16.5327 19.8431 12.6383 0.0000 23.2853 0.0000
# 6 0.0000 0.0000 0.0000 1.6469 0.0000 36.9123
#
#
#
# Elastic Compliance Matrix: (Units=1/GPa)
#
#
# Indices 1 2 3 4 5 6 
#
# 1 0.014842 -0.007676 0.000367 0.000000 -0.004196 0.000000
# 2 -0.007676 0.014362 -0.005095 0.000000 -0.004023 0.000000
# 3 0.000367 -0.005095 0.019254 0.000000 -0.006369 0.000000
# 4 0.000000 0.000000 0.000000 0.039951 0.000000 -0.001782
# 5 -0.004196 -0.004023 -0.006369 0.000000 0.052810 0.000000
# 6 0.000000 0.000000 0.000000 -0.001782 0.000000 0.027171
#
#
# Mechanical properties :
#
#
# Convention : Reuss Voigt Hill
#
# Bulk Modulus (GPa) = 42.28465 62.33803 52.31134
# Shear Modulus (GPa) = 24.86549 28.35114 26.60831
#
# Velocity S-wave (km/s) = 3.44164 3.67495 3.56021
# Velocity P-wave (km/s) = 5.99465 6.90668 6.46676
#
# Compressibility (1/GPa) = 0.02364924
#
# Stress axis : x y z
#
# Youngs Moduli (GPa) = 67.37620 69.62839 51.93684
#
# Poissons Ratio (x) = 0.53446 -0.01904
# Poissons Ratio (y) = 0.51717 0.26462
# Poissons Ratio (z) = -0.02470 0.35476
#
# Static dielectric constant tensor:
#      x y z
#    x 3.713260 0.000000 -0.010540 
#    y 0.000000 4.015470 0.000000 
#    z -0.010540 0.000000 3.525220 
# 
# 
# High freq. dielectric constant tensor:
#      x y z
#    x 1.818320 0.000000 0.002420 
#    y 0.000000 1.828390 0.000000 
#    z 0.002420 0.000000 1.799730 
# 
# From -- ./inp_files/197892.got.cif
#   From: 2010.06.25/outbox.cif.g09.slc.cpg/sg15_99_cif.got.tgz:197892.got - 2010.06.28 07:06:18.
