data_PCOD8145833
_publ_section_title
;
Structure prediction by ZEFSAII (Michael W. Deem and Ramdas Pophale) SiO2 
 PCOD8145833
Probable space group: C 2/C
;
_chemical_formula_sum "Si O2"
_cell_formula_units_Z 36
_cell_length_a 13.404815
_cell_length_b 20.885438
_cell_length_c 8.211950
_cell_angle_alpha 90.000000
_cell_angle_beta 49.960146
_cell_angle_gamma 90.000000
_cell_volume 1760.155407
_symmetry_space_group_name_H-M "C 2/C"
_symmetry_group_IT_number 15
_symmetry_cell_setting 'monoclinic'
loop_
_space_group_symop_operation_xyz
x,y,z
-x,y,1/2-z
-x,-y,-z
x,-y,1/2+z
1/2+x,1/2+y,z
1/2-x,1/2+y,1/2-z
1/2-x,1/2-y,-z
1/2+x,1/2-y,1/2+z
loop_
_atom_site_type_symbol
_atom_site_label
_atom_site_fract_x
_atom_site_fract_y
_atom_site_fract_z
Si Si1 0.281046 0.281191 0.640647
Si Si2 0.000804 0.304382 0.939105
Si Si3 0.153951 0.923836 0.875137
Si Si4 0.500000 0.517539 0.250000
Si Si5 0.549477 0.935051 0.017983
O O1 0.250000 0.250000 0.500000
O O2 0.379572 0.235903 0.641070
O O3 0.349124 0.351026 0.554156
O O4 0.139613 0.285838 0.877796
O O5 0.000000 0.287318 0.750000
O O6 0.981722 0.379797 0.981714
O O7 0.295633 0.937596 0.655165
O O8 0.051460 0.935506 0.837176
O O9 0.116703 0.971810 0.061693
O O10 0.500000 0.923482 0.250000
O O11 0.500000 0.000000 0.000000
#
# Coordination Sequence:
#
# PCOD8145833 Si02
#       5
#     8   8   8   4   8
#     4   9  19  36  60  87 119 153 208 244 302 363
#     4   9  19  37  57  87 115 155 199 247 294 361
#     4  10  22  40  60  93 120 163 202 253 307 366
#     4  10  22  40  62  88 128 156 206 250 310 366
#     4  11  22  39  60  86 120 154 201 249 306 357
#
# _framework density 20.452741
#
# number of rings (size 3 to 8) (size 9 to 14) (size 15 to 20)
#    0.000    2.222    0.000    2.000    4.667    3.556 
#   10.000    2.222    0.000    0.000    0.000    0.000 
#    0.000    0.000    0.000    0.000    0.000    0.000 
#
# Total GULP energy -223065.260203 kJ/mol
# GULP energy per Si atom -12392.514456 kJ/mol
# Density = 2.040619 g / cm^3
# Si number density = 20.452741 Si / 1000 Ang^3
#
#
#
# Elastic Constant Matrix: (Units=GPa)
#
#
# Indices 1 2 3 4 5 6 
#
# 1 85.2154 73.3605 31.3280 0.0000 -19.7435 0.0000
# 2 73.3605 164.2098 38.7992 0.0000 -31.7165 0.0000
# 3 31.3280 38.7992 93.3004 0.0000 -20.4533 0.0000
# 4 0.0000 0.0000 0.0000 25.9333 0.0000 -4.6476
# 5 -19.7435 -31.7165 -20.4533 0.0000 32.7752 0.0000
# 6 0.0000 0.0000 0.0000 -4.6476 0.0000 44.3172
#
#
#
# Elastic Compliance Matrix: (Units=1/GPa)
#
#
# Indices 1 2 3 4 5 6 
#
# 1 0.020145 -0.007770 -0.002921 0.000000 0.002793 0.000000
# 2 -0.007770 0.010747 -0.000702 0.000000 0.005281 0.000000
# 3 -0.002921 -0.000702 0.013272 0.000000 0.005843 0.000000
# 4 0.000000 0.000000 0.000000 0.039299 0.000000 0.004121
# 5 0.002793 0.005281 0.005843 0.000000 0.040950 0.000000
# 6 0.000000 0.000000 0.000000 0.004121 0.000000 0.022997
#
#
# Mechanical properties :
#
#
# Convention : Reuss Voigt Hill
#
# Bulk Modulus (GPa) = 46.77841 69.96676 58.37259
# Shear Modulus (GPa) = 28.19725 33.88768 31.04247
#
# Velocity S-wave (km/s) = 3.71705 4.07489 3.90008
# Velocity P-wave (km/s) = 6.42986 7.51152 6.99164
#
# Compressibility (1/GPa) = 0.02137738
#
# Stress axis : x y z
#
# Youngs Moduli (GPa) = 49.63990 93.04898 75.34778
#
# Poissons Ratio (x) = 0.72301 0.22006
# Poissons Ratio (y) = 0.38571 0.05293
# Poissons Ratio (z) = 0.14498 0.06537
#
# Static dielectric constant tensor:
#      x y z
#    x 3.964250 0.000000 -0.539170 
#    y 0.000000 3.876690 0.000000 
#    z -0.539170 0.000000 3.944790 
# 
# 
# High freq. dielectric constant tensor:
#      x y z
#    x 1.793220 0.000000 -0.025980 
#    y 0.000000 1.811780 0.000000 
#    z -0.025980 0.000000 1.791120 
# 
# From -- ./inp_files/38871.got.cif
#   From: 2010.06.25/outbox.cif.g09.slc.cpg/sg15_20_cif.got.tgz:38871.got - 2010.06.28 07:06:18.
