data_PCOD8145504
_publ_section_title
;
Structure prediction by ZEFSAII (Michael W. Deem and Ramdas Pophale) SiO2 
 PCOD8145504
Probable space group: C 2/C
;
_chemical_formula_sum "Si O2"
_cell_formula_units_Z 60
_cell_length_a 9.511342
_cell_length_b 10.635122
_cell_length_c 27.110678
_cell_angle_alpha 90.000000
_cell_angle_beta 87.975106
_cell_angle_gamma 90.000000
_cell_volume 2740.648769
_symmetry_space_group_name_H-M "C 2/C"
_symmetry_group_IT_number 15
_symmetry_cell_setting 'monoclinic'
loop_
_space_group_symop_operation_xyz
x,y,z
-x,y,1/2-z
-x,-y,-z
x,-y,1/2+z
1/2+x,1/2+y,z
1/2-x,1/2+y,1/2-z
1/2-x,1/2-y,-z
1/2+x,1/2-y,1/2+z
loop_
_atom_site_type_symbol
_atom_site_label
_atom_site_fract_x
_atom_site_fract_y
_atom_site_fract_z
Si Si1 0.622044 0.961723 0.161927
Si Si2 0.712500 0.591734 0.417397
Si Si3 0.011081 0.887193 0.090568
Si Si4 0.762734 0.093843 0.405920
Si Si5 0.513452 0.860046 0.532937
Si Si6 0.000000 0.620810 0.250000
Si Si7 0.163719 0.243396 0.823906
Si Si8 0.010264 0.699282 0.576131
O O1 0.713158 0.855323 0.187215
O O2 0.523115 0.898954 0.121078
O O3 0.721214 0.068985 0.137304
O O4 0.535414 0.031750 0.204227
O O5 0.604881 0.480189 0.430390
O O6 0.836680 0.578246 0.455580
O O7 0.636459 0.726229 0.416978
O O8 0.030787 0.786005 0.047274
O O9 0.961312 0.819909 0.141830
O O10 0.156205 0.961392 0.097916
O O11 0.620029 0.076539 0.438623
O O12 0.722530 0.133923 0.351098
O O13 0.857849 0.205550 0.427487
O O14 0.490408 0.878466 0.474914
O O15 0.881714 0.714273 0.230145
#
# Coordination Sequence:
#
# PCOD8145504 Si02
#       8
#     8   8   8   8   8   4   8   8
#     4  10  23  42  60  83 118 151 190 250 302 352
#     4  10  22  39  59  89 123 159 202 240 287 347
#     4   9  20  39  60  83 120 161 196 244 291 337
#     4   9  19  37  61  87 121 165 200 235 294 346
#     4  11  21  35  59  92 125 161 207 240 270 339
#     4  12  24  40  64  88 108 144 196 248 310 366
#     4   9  21  40  59  86 114 144 197 249 294 360
#     4  10  22  39  59  89 128 163 197 239 287 348
#
# _framework density 21.892627000000001
#
# number of rings (size 3 to 8) (size 9 to 14) (size 15 to 20)
#    0.000    2.133    0.000    3.200    0.000    8.000 
#    0.000    2.667    0.000    0.000    0.000    0.000 
#    0.000    0.000    0.000    0.000    0.000    0.000 
#
# Total GULP energy -371973.358291 kJ/mol
# GULP energy per Si atom -12399.111943 kJ/mol
# Density = 2.184280 g / cm^3
# Si number density = 21.892627 Si / 1000 Ang^3
#
#
#
# Elastic Constant Matrix: (Units=GPa)
#
#
# Indices 1 2 3 4 5 6 
#
# 1 124.7564 50.7430 41.5175 0.0000 20.6713 0.0000
# 2 50.7430 65.8624 25.8422 0.0000 7.5719 0.0000
# 3 41.5175 25.8422 93.0448 0.0000 29.5279 0.0000
# 4 0.0000 0.0000 0.0000 26.7168 0.0000 3.9042
# 5 20.6713 7.5719 29.5279 0.0000 29.5434 0.0000
# 6 0.0000 0.0000 0.0000 3.9042 0.0000 33.6705
#
#
#
# Elastic Compliance Matrix: (Units=1/GPa)
#
#
# Indices 1 2 3 4 5 6 
#
# 1 0.013000 -0.008741 -0.001754 0.000000 -0.005103 0.000000
# 2 -0.008741 0.022923 -0.003724 0.000000 0.003963 0.000000
# 3 -0.001754 -0.003724 0.017387 0.000000 -0.015196 0.000000
# 4 0.000000 0.000000 0.000000 0.038075 0.000000 -0.004415
# 5 -0.005103 0.003963 -0.015196 0.000000 0.051592 0.000000
# 6 0.000000 0.000000 0.000000 -0.004415 0.000000 0.030211
#
#
# Mechanical properties :
#
#
# Convention : Reuss Voigt Hill
#
# Bulk Modulus (GPa) = 40.20430 57.76322 48.98376
# Shear Modulus (GPa) = 23.81905 29.02354 26.42129
#
# Velocity S-wave (km/s) = 3.30205 3.64500 3.47775
# Velocity P-wave (km/s) = 5.73953 6.64505 6.20882
#
# Compressibility (1/GPa) = 0.02487296
#
# Stress axis : x y z
#
# Youngs Moduli (GPa) = 76.92296 43.62400 57.51483
#
# Poissons Ratio (x) = 0.38132 0.10086
# Poissons Ratio (y) = 0.67239 0.21418
# Poissons Ratio (z) = 0.13489 0.16245
#
# Static dielectric constant tensor:
#      x y z
#    x 4.285570 0.000000 0.134130 
#    y 0.000000 4.231350 0.000000 
#    z 0.134130 0.000000 3.680390 
# 
# 
# High freq. dielectric constant tensor:
#      x y z
#    x 1.872140 0.000000 0.012380 
#    y 0.000000 1.884840 0.000000 
#    z 0.012380 0.000000 1.833330 
# 
# From -- ./inp_files/288045.got.cif
#   From: 2010.06.25/outbox.cif.g09.slc.cpg/sg15_145_cif.got.tgz:288045.got - 2010.06.28 07:06:18.
