data_PCOD8145630
_publ_section_title
;
Structure prediction by ZEFSAII (Michael W. Deem and Ramdas Pophale) SiO2 
 PCOD8145630
Probable space group: C 2/C
;
_chemical_formula_sum "Si O2"
_cell_formula_units_Z 56
_cell_length_a 15.271093
_cell_length_b 13.489694
_cell_length_c 16.956727
_cell_angle_alpha 90.000000
_cell_angle_beta 127.317303
_cell_angle_gamma 90.000000
_cell_volume 2778.049693
_symmetry_space_group_name_H-M "C 2/C"
_symmetry_group_IT_number 15
_symmetry_cell_setting 'monoclinic'
loop_
_space_group_symop_operation_xyz
x,y,z
-x,y,1/2-z
-x,-y,-z
x,-y,1/2+z
1/2+x,1/2+y,z
1/2-x,1/2+y,1/2-z
1/2-x,1/2-y,-z
1/2+x,1/2-y,1/2+z
loop_
_atom_site_type_symbol
_atom_site_label
_atom_site_fract_x
_atom_site_fract_y
_atom_site_fract_z
Si Si1 0.317874 0.887066 0.898224
Si Si2 0.709372 0.423603 0.280769
Si Si3 0.000000 0.413243 0.250000
Si Si4 0.522364 0.785917 0.419602
Si Si5 0.764092 0.496145 0.644833
Si Si6 0.782926 0.208342 0.309479
Si Si7 0.842543 0.109814 0.050751
Si Si8 0.000000 0.996520 0.750000
O O1 0.269315 0.817969 0.803272
O O2 0.254117 0.862145 0.943131
O O3 0.302396 0.002942 0.867985
O O4 0.445482 0.860572 0.989839
O O5 0.710234 0.442652 0.187657
O O6 0.735603 0.310998 0.315955
O O7 0.591151 0.438653 0.255614
O O8 0.014835 0.344264 0.333741
O O9 0.106100 0.482190 0.293696
O O10 0.413222 0.722910 0.375103
O O11 0.622796 0.708654 0.475263
O O12 0.746872 0.378564 0.645763
O O13 0.698512 0.525867 0.531340
O O14 0.948543 0.072127 0.155410
#
# Coordination Sequence:
#
# PCOD8145630 Si02
#       8
#     8   8   4   8   8   8   8   4
#     4  10  22  39  63  94 127 166 211 268 325 382
#     4  10  22  43  62  91 132 169 218 266 316 397
#     4  12  23  41  64 104 132 166 211 283 328 372
#     4  12  22  36  68  93 126 170 210 266 335 373
#     4  11  24  41  67  96 136 163 216 275 324 385
#     4  11  24  42  61  95 130 172 220 263 314 398
#     4  11  21  39  64 100 126 160 216 269 331 381
#     4  10  23  41  64  86 134 174 209 269 328 380
#
# _framework density 20.158027000000001
#
# number of rings (size 3 to 8) (size 9 to 14) (size 15 to 20)
#    0.000    1.143    2.857    5.143    0.000    4.571 
#    0.000    2.857    0.000    0.000    0.000    0.000 
#    0.000    0.000    0.000    0.000    0.000    0.000 
#
# Total GULP energy -347153.459987 kJ/mol
# GULP energy per Si atom -12398.337857 kJ/mol
# Density = 2.011215 g / cm^3
# Si number density = 20.158027 Si / 1000 Ang^3
#
#
#
# Elastic Constant Matrix: (Units=GPa)
#
#
# Indices 1 2 3 4 5 6 
#
# 1 92.9606 53.0983 39.8371 0.0000 0.3060 0.0000
# 2 53.0983 153.8214 62.3364 0.0000 13.0567 0.0000
# 3 39.8371 62.3364 155.2739 0.0000 4.2003 0.0000
# 4 0.0000 0.0000 0.0000 15.6236 0.0000 3.2512
# 5 0.3060 13.0567 4.2003 0.0000 13.6505 0.0000
# 6 0.0000 0.0000 0.0000 3.2512 0.0000 40.7481
#
#
#
# Elastic Compliance Matrix: (Units=1/GPa)
#
#
# Indices 1 2 3 4 5 6 
#
# 1 0.014136 -0.004475 -0.001953 0.000000 0.004565 0.000000
# 2 -0.004475 0.009803 -0.002558 0.000000 -0.008489 0.000000
# 3 -0.001953 -0.002558 0.007967 0.000000 0.000039 0.000000
# 4 0.000000 0.000000 0.000000 0.065086 0.000000 -0.005193
# 5 0.004565 -0.008489 0.000039 0.000000 0.081263 0.000000
# 6 0.000000 0.000000 0.000000 -0.005193 0.000000 0.024955
#
#
# Mechanical properties :
#
#
# Convention : Reuss Voigt Hill
#
# Bulk Modulus (GPa) = 71.77299 79.17773 75.47536
# Shear Modulus (GPa) = 22.14077 30.45672 26.29875
#
# Velocity S-wave (km/s) = 3.31775 3.89124 3.61588
# Velocity P-wave (km/s) = 7.09641 7.71705 7.41323
#
# Compressibility (1/GPa) = 0.01393282
#
# Stress axis : x y z
#
# Youngs Moduli (GPa) = 70.74319 102.00945 125.51511
#
# Poissons Ratio (x) = 0.45653 0.24518
# Poissons Ratio (y) = 0.31660 0.32103
# Poissons Ratio (z) = 0.13819 0.26091
#
# Static dielectric constant tensor:
#      x y z
#    x 3.845810 0.000000 0.161530 
#    y 0.000000 3.698230 0.000000 
#    z 0.161530 0.000000 4.078350 
# 
# 
# High freq. dielectric constant tensor:
#      x y z
#    x 1.780850 0.000000 0.005500 
#    y 0.000000 1.792260 0.000000 
#    z 0.005500 0.000000 1.797100 
# 
# From -- ./inp_files/178381.got.cif
#   From: 2010.06.25/outbox.cif.g09.slc.cpg/sg15_90_cif.got.tgz:178381.got - 2010.06.28 07:06:18.
