data_PCOD8145610
_publ_section_title
;
Structure prediction by ZEFSAII (Michael W. Deem and Ramdas Pophale) SiO2 
 PCOD8145610
Probable space group: C 2/C
;
_chemical_formula_sum "Si O2"
_cell_formula_units_Z 48
_cell_length_a 12.238033
_cell_length_b 14.371858
_cell_length_c 26.419583
_cell_angle_alpha 90.000000
_cell_angle_beta 30.328548
_cell_angle_gamma 90.000000
_cell_volume 2346.418863
_symmetry_space_group_name_H-M "C 2/C"
_symmetry_group_IT_number 15
_symmetry_cell_setting 'monoclinic'
loop_
_space_group_symop_operation_xyz
x,y,z
-x,y,1/2-z
-x,-y,-z
x,-y,1/2+z
1/2+x,1/2+y,z
1/2-x,1/2+y,1/2-z
1/2-x,1/2-y,-z
1/2+x,1/2-y,1/2+z
loop_
_atom_site_type_symbol
_atom_site_label
_atom_site_fract_x
_atom_site_fract_y
_atom_site_fract_z
Si Si1 0.547954 0.715315 0.048539
Si Si2 0.219787 0.050143 0.138427
Si Si3 0.175866 0.389122 0.332938
Si Si4 0.044628 0.149607 0.609502
Si Si5 0.285713 0.460691 0.979494
Si Si6 0.986745 0.716520 0.464318
O O1 0.343884 0.779027 0.146745
O O2 0.528606 0.605595 0.069287
O O3 0.579595 0.730877 0.976228
O O4 0.750000 0.750000 0.000000
O O5 0.216252 0.054463 0.079847
O O6 0.000000 0.090461 0.250000
O O7 0.258711 0.944549 0.142102
O O8 0.413342 0.114009 0.081466
O O9 0.363784 0.399592 0.216516
O O10 0.949000 0.432577 0.403567
O O11 0.936707 0.221878 0.613996
O O12 0.226271 0.204448 0.569400
O O13 0.155899 0.067235 0.531878
#
# Coordination Sequence:
#
# PCOD8145610 Si02
#       6
#     8   8   8   8   8   8
#     4  10  22  39  63  89 125 166 205 266 310 363
#     4  12  22  36  69  94 121 165 216 263 305 368
#     4  11  22  38  65  94 126 161 214 263 314 370
#     4  11  25  40  65  94 128 170 205 263 322 369
#     4  11  22  41  62  94 125 165 215 259 311 375
#     4  11  24  43  61  95 131 161 214 266 311 379
#
# _framework density 20.456706000000001
#
# number of rings (size 3 to 8) (size 9 to 14) (size 15 to 20)
#    0.000    1.000    6.667    1.500    2.333    0.667 
#    0.000    0.000    0.000    0.000    0.000    0.000 
#    0.000    0.000    0.000    0.000    0.000    0.000 
#
# Total GULP energy -297535.344763 kJ/mol
# GULP energy per Si atom -12397.306032 kJ/mol
# Density = 2.041015 g / cm^3
# Si number density = 20.456706 Si / 1000 Ang^3
#
#
#
# Elastic Constant Matrix: (Units=GPa)
#
#
# Indices 1 2 3 4 5 6 
#
# 1 108.9717 47.6627 28.8721 -0.0030 2.8446 -0.0001
# 2 47.6627 100.6203 20.9432 0.0003 2.6178 -0.0036
# 3 28.8721 20.9432 101.7524 0.0141 -0.4051 -0.0098
# 4 -0.0030 0.0003 0.0141 30.2106 -0.0275 0.5964
# 5 2.8446 2.6178 -0.4051 -0.0275 15.8538 0.0023
# 6 -0.0001 -0.0036 -0.0098 0.5964 0.0023 37.3159
#
#
#
# Elastic Compliance Matrix: (Units=1/GPa)
#
#
# Indices 1 2 3 4 5 6 
#
# 1 0.012121 -0.005212 -0.002372 0.000001 -0.001375 -0.000001
# 2 -0.005212 0.012674 -0.001135 -0.000001 -0.001187 0.000001
# 3 -0.002372 -0.001135 0.010738 -0.000004 0.000887 0.000003
# 4 0.000001 -0.000001 -0.000004 0.033112 0.000057 -0.000529
# 5 -0.001375 -0.001187 0.000887 0.000057 0.063542 -0.000005
# 6 -0.000001 0.000001 0.000003 -0.000529 -0.000005 0.026807
#
#
# Mechanical properties :
#
#
# Convention : Reuss Voigt Hill
#
# Bulk Modulus (GPa) = 55.26108 56.25559 55.75834
# Shear Modulus (GPa) = 27.40307 30.93382 29.16845
#
# Velocity S-wave (km/s) = 3.66398 3.89287 3.78016
# Velocity P-wave (km/s) = 6.70611 6.91125 6.80946
#
# Compressibility (1/GPa) = 0.01809592
#
# Stress axis : x y z
#
# Youngs Moduli (GPa) = 82.50372 78.90046 93.12844
#
# Poissons Ratio (x) = 0.41123 0.22090
# Poissons Ratio (y) = 0.43001 0.10565
# Poissons Ratio (z) = 0.19569 0.08951
#
# Static dielectric constant tensor:
#      x y z
#    x 3.698570 -0.000010 -0.212670 
#    y -0.000010 4.340920 0.000010 
#    z -0.212670 0.000010 3.729260 
# 
# 
# High freq. dielectric constant tensor:
#      x y z
#    x 1.784230 0.000000 -0.007450 
#    y 0.000000 1.808690 0.000000 
#    z -0.007450 0.000000 1.785950 
# 
# From -- ./inp_files/143837.got.cif
#   From: 2010.06.25/outbox.cif.g09.slc.cpg/sg15_72_cif.got.tgz:143837.got - 2010.06.28 07:06:18.
