data_PCOD8145456
_publ_section_title
;
Structure prediction by ZEFSAII (Michael W. Deem and Ramdas Pophale) SiO2 
 PCOD8145456
Probable space group: C 2/C
;
_chemical_formula_sum "Si O2"
_cell_formula_units_Z 64
_cell_length_a 15.330448
_cell_length_b 8.143404
_cell_length_c 30.248887
_cell_angle_alpha 90.000000
_cell_angle_beta 46.882006
_cell_angle_gamma 90.000000
_cell_volume 2756.525058
_symmetry_space_group_name_H-M "C 2/C"
_symmetry_group_IT_number 15
_symmetry_cell_setting 'monoclinic'
loop_
_space_group_symop_operation_xyz
x,y,z
-x,y,1/2-z
-x,-y,-z
x,-y,1/2+z
1/2+x,1/2+y,z
1/2-x,1/2+y,1/2-z
1/2-x,1/2-y,-z
1/2+x,1/2-y,1/2+z
loop_
_atom_site_type_symbol
_atom_site_label
_atom_site_fract_x
_atom_site_fract_y
_atom_site_fract_z
Si Si1 0.184205 0.391181 0.111328
Si Si2 0.275003 0.672361 0.669549
Si Si3 0.384379 0.115294 0.543035
Si Si4 0.807623 0.452174 0.162941
Si Si5 0.927835 0.524668 0.708683
Si Si6 0.135062 0.025706 0.101137
Si Si7 0.826440 0.882208 0.499501
Si Si8 0.908712 0.856320 0.208760
O O1 0.282105 0.394391 0.116830
O O2 0.132624 0.216582 0.113163
O O3 0.238014 0.486952 0.051733
O O4 0.067800 0.483674 0.169727
O O5 0.317586 0.857422 0.648155
O O6 0.138515 0.639674 0.732571
O O7 0.358553 0.586896 0.677688
O O8 0.407303 0.286548 0.508249
O O9 0.500000 0.000000 0.500000
O O10 0.349506 0.153626 0.606015
O O11 0.271218 0.027735 0.560476
O O12 0.896724 0.399640 0.171320
O O13 0.669267 0.430908 0.224587
O O14 0.887429 0.336118 0.723064
O O15 0.044192 0.924797 0.164736
O O16 0.096591 0.983343 0.063570
O O17 0.750000 0.750000 0.500000
#
# Coordination Sequence:
#
# PCOD8145456 Si02
#       8
#     8   8   8   8   8   8   8   8
#     4  12  23  43  69 100 138 180 232 286 345 412
#     4  10  22  42  64 100 140 176 231 277 347 400
#     4  11  25  44  73  99 132 180 232 285 342 414
#     4  10  22  43  69  98 136 184 227 273 349 411
#     4  10  22  38  69 100 142 182 218 288 339 412
#     4  11  24  45  70 100 133 185 225 285 351 404
#     4  10  25  44  66  94 134 175 230 277 341 412
#     4  10  23  43  72  99 141 181 227 279 347 419
#
# _framework density 23.217637
#
# number of rings (size 3 to 8) (size 9 to 14) (size 15 to 20)
#    0.000    1.500    1.250    3.000    8.750    1.500 
#    2.250    1.250    0.000    0.000    0.000    0.000 
#    0.000    0.000    0.000    0.000    0.000    0.000 
#
# Total GULP energy -396556.221137 kJ/mol
# GULP energy per Si atom -12392.381911 kJ/mol
# Density = 2.316479 g / cm^3
# Si number density = 23.217637 Si / 1000 Ang^3
#
#
#
# Elastic Constant Matrix: (Units=GPa)
#
#
# Indices 1 2 3 4 5 6 
#
# 1 80.2925 24.5060 45.3575 0.0019 7.7830 0.0021
# 2 24.5060 56.6461 16.7360 0.0076 14.4929 0.0048
# 3 45.3575 16.7360 100.7032 0.0022 9.6909 0.0026
# 4 0.0019 0.0076 0.0022 38.5068 0.0016 4.5637
# 5 7.7830 14.4929 9.6909 0.0016 48.5337 0.0016
# 6 0.0021 0.0048 0.0026 4.5637 0.0016 34.3513
#
#
#
# Elastic Compliance Matrix: (Units=1/GPa)
#
#
# Indices 1 2 3 4 5 6 
#
# 1 0.018346 -0.005842 -0.007317 0.000001 0.000264 0.000000
# 2 -0.005842 0.021710 -0.000452 -0.000004 -0.005456 -0.000002
# 3 -0.007317 -0.000452 0.013433 0.000000 -0.001374 0.000000
# 4 0.000001 -0.000004 0.000000 0.026385 0.000000 -0.003505
# 5 0.000264 -0.005456 -0.001374 0.000000 0.022466 0.000000
# 6 0.000000 -0.000002 0.000000 -0.003505 0.000000 0.029577
#
#
# Mechanical properties :
#
#
# Convention : Reuss Voigt Hill
#
# Bulk Modulus (GPa) = 38.07116 45.64896 41.86006
# Shear Modulus (GPa) = 29.78065 34.34787 32.06426
#
# Velocity S-wave (km/s) = 3.58533 3.85045 3.72025
# Velocity P-wave (km/s) = 5.79418 6.28267 6.04337
#
# Compressibility (1/GPa) = 0.02626660
#
# Stress axis : x y z
#
# Youngs Moduli (GPa) = 54.50888 46.06126 74.44191
#
# Poissons Ratio (x) = 0.26910 0.54473
# Poissons Ratio (y) = 0.31845 0.03362
# Poissons Ratio (z) = 0.39887 0.02080
#
# Static dielectric constant tensor:
#      x y z
#    x 4.408860 0.000000 0.483490 
#    y 0.000000 4.119200 0.000000 
#    z 0.483490 0.000000 4.499250 
# 
# 
# High freq. dielectric constant tensor:
#      x y z
#    x 1.915000 0.000000 0.012670 
#    y 0.000000 1.908630 0.000000 
#    z 0.012670 0.000000 1.922210 
# 
# From -- ./inp_files/313153.got.cif
#   From: 2010.06.25/outbox.cif.g09.slc.cpg/sg15_157_cif.got.tgz:313153.got - 2010.06.28 07:06:18.
