data_PCOD8145896
_publ_section_title
;
Structure prediction by ZEFSAII (Michael W. Deem and Ramdas Pophale) SiO2 
 PCOD8145896
Probable space group: C 2/C
;
_chemical_formula_sum "Si O2"
_cell_formula_units_Z 36
_cell_length_a 19.976429
_cell_length_b 8.242131
_cell_length_c 9.690890
_cell_angle_alpha 90.000000
_cell_angle_beta 89.094166
_cell_angle_gamma 90.000000
_cell_volume 1595.389593
_symmetry_space_group_name_H-M "C 2/C"
_symmetry_group_IT_number 15
_symmetry_cell_setting 'monoclinic'
loop_
_space_group_symop_operation_xyz
x,y,z
-x,y,1/2-z
-x,-y,-z
x,-y,1/2+z
1/2+x,1/2+y,z
1/2-x,1/2+y,1/2-z
1/2-x,1/2-y,-z
1/2+x,1/2-y,1/2+z
loop_
_atom_site_type_symbol
_atom_site_label
_atom_site_fract_x
_atom_site_fract_y
_atom_site_fract_z
Si Si1 0.348111 0.328219 0.590665
Si Si2 0.799913 0.670863 0.316752
Si Si3 0.000000 0.628160 0.250000
Si Si4 0.609330 0.689975 0.911774
Si Si5 0.610546 0.114845 0.681269
O O1 0.279934 0.330880 0.681875
O O2 0.332116 0.283546 0.434144
O O3 0.387858 0.496333 0.592695
O O4 0.394237 0.194081 0.665322
O O5 0.826943 0.734530 0.169407
O O6 0.820623 0.484439 0.337976
O O7 0.040014 0.746399 0.350546
O O8 0.050327 0.513214 0.162897
O O9 0.610130 0.742942 0.070231
#
# Coordination Sequence:
#
# PCOD8145896 Si02
#       5
#     8   8   4   8   8
#     4  11  23  39  63  95 126 157 200 250 301 360
#     4  10  22  40  62  93 129 161 194 242 308 368
#     4  10  24  44  62  86 120 162 206 252 306 358
#     4  11  23  40  64  92 121 160 207 252 296 355
#     4  11  23  42  65  87 122 165 202 248 305 362
#
# _framework density 22.565018999999999
#
# number of rings (size 3 to 8) (size 9 to 14) (size 15 to 20)
#    0.000    1.333    0.000    6.000    0.000    9.778 
#    0.000    6.667    0.000    0.000    0.000    0.000 
#    0.000    0.000    0.000    0.000    0.000    0.000 
#
# Total GULP energy -223271.707997 kJ/mol
# GULP energy per Si atom -12403.983778 kJ/mol
# Density = 2.251366 g / cm^3
# Si number density = 22.565019 Si / 1000 Ang^3
#
#
#
# Elastic Constant Matrix: (Units=GPa)
#
#
# Indices 1 2 3 4 5 6 
#
# 1 62.3408 44.4184 22.7843 0.0000 5.6359 0.0000
# 2 44.4184 150.5057 23.8403 0.0000 13.0564 0.0000
# 3 22.7843 23.8403 77.4106 0.0000 5.1291 0.0000
# 4 0.0000 0.0000 0.0000 32.8331 0.0000 2.2077
# 5 5.6359 13.0564 5.1291 0.0000 23.7880 0.0000
# 6 0.0000 0.0000 0.0000 2.2077 0.0000 25.2934
#
#
#
# Elastic Compliance Matrix: (Units=1/GPa)
#
#
# Indices 1 2 3 4 5 6 
#
# 1 0.021831 -0.005616 -0.004624 0.000000 -0.001093 0.000000
# 2 -0.005616 0.008715 -0.000814 0.000000 -0.003277 0.000000
# 3 -0.004624 -0.000814 0.014637 0.000000 -0.001614 0.000000
# 4 0.000000 0.000000 0.000000 0.030637 0.000000 -0.002674
# 5 -0.001093 -0.003277 -0.001614 0.000000 0.044444 0.000000
# 6 0.000000 0.000000 0.000000 -0.002674 0.000000 0.039769
#
#
# Mechanical properties :
#
#
# Convention : Reuss Voigt Hill
#
# Bulk Modulus (GPa) = 43.33533 52.48256 47.90895
# Shear Modulus (GPa) = 26.33932 29.66385 28.00158
#
# Velocity S-wave (km/s) = 3.42023 3.62967 3.52650
# Velocity P-wave (km/s) = 5.90285 6.39334 6.15299
#
# Compressibility (1/GPa) = 0.02307586
#
# Stress axis : x y z
#
# Youngs Moduli (GPa) = 45.80706 114.74695 68.32206
#
# Poissons Ratio (x) = 0.64438 0.31589
# Poissons Ratio (y) = 0.25724 0.05561
# Poissons Ratio (z) = 0.21179 0.09340
#
# Static dielectric constant tensor:
#      x y z
#    x 4.090950 0.000000 0.027350 
#    y 0.000000 4.096690 0.000000 
#    z 0.027350 0.000000 3.966050 
# 
# 
# High freq. dielectric constant tensor:
#      x y z
#    x 1.885250 0.000000 0.001890 
#    y 0.000000 1.901310 0.000000 
#    z 0.001890 0.000000 1.888920 
# 
# From -- ./inp_files/53595.got.cif
#   From: 2010.06.25/outbox.cif.g09.slc.cpg/sg15_27_cif.got.tgz:53595.got - 2010.06.28 07:06:18.
