data_PCOD8145145
_publ_section_title
;
Structure prediction by ZEFSAII (Michael W. Deem and Ramdas Pophale) SiO2 
 PCOD8145145
Probable space group: C 2/C
;
_chemical_formula_sum "Si O2"
_cell_formula_units_Z 60
_cell_length_a 16.752157
_cell_length_b 12.593734
_cell_length_c 20.803594
_cell_angle_alpha 90.000000
_cell_angle_beta 135.367825
_cell_angle_gamma 90.000000
_cell_volume 3083.490263
_symmetry_space_group_name_H-M "C 2/C"
_symmetry_group_IT_number 15
_symmetry_cell_setting 'monoclinic'
loop_
_space_group_symop_operation_xyz
x,y,z
-x,y,1/2-z
-x,-y,-z
x,-y,1/2+z
1/2+x,1/2+y,z
1/2-x,1/2+y,1/2-z
1/2-x,1/2-y,-z
1/2+x,1/2-y,1/2+z
loop_
_atom_site_type_symbol
_atom_site_label
_atom_site_fract_x
_atom_site_fract_y
_atom_site_fract_z
Si Si1 0.831340 0.315231 0.386817
Si Si2 0.942496 0.281476 0.907703
Si Si3 0.402234 0.788151 0.736013
Si Si4 0.089100 0.917008 0.025935
Si Si5 0.725229 0.034621 0.197268
Si Si6 0.500000 0.809461 0.250000
Si Si7 0.938259 0.820161 0.836382
Si Si8 0.673446 0.985392 0.313853
O O1 0.723489 0.252048 0.351172
O O2 0.787594 0.435475 0.357268
O O3 0.871987 0.266077 0.342096
O O4 0.930101 0.305511 0.496061
O O5 0.938881 0.266618 0.829632
O O6 0.891790 0.175744 0.910738
O O7 0.862942 0.379667 0.880741
O O8 0.500000 0.731301 0.750000
O O9 0.398431 0.910522 0.710798
O O10 0.205255 0.980843 0.081074
O O11 0.045082 0.869158 0.934415
O O12 0.000000 0.000000 0.000000
O O13 0.850892 0.086091 0.266805
O O14 0.694116 0.989790 0.249343
O O15 0.499488 0.734288 0.187739
O O16 0.610281 0.882487 0.305273
#
# Coordination Sequence:
#
# PCOD8145145 Si02
#       8
#     8   8   8   8   8   4   8   8
#     4  11  21  40  64  90 125 169 217 271 325 391
#     4  10  22  37  64  97 121 159 218 270 314 399
#     4  11  23  41  63  93 123 166 222 269 321 387
#     4  11  21  40  68  96 123 171 225 265 325 404
#     4  11  20  40  65  90 123 173 210 262 329 391
#     4  12  24  40  62  98 134 172 214 282 338 380
#     4  11  23  38  64  95 130 168 222 269 332 394
#     4  11  20  38  67  88 125 173 210 261 327 398
#
# _framework density 19.458469999999998
#
# number of rings (size 3 to 8) (size 9 to 14) (size 15 to 20)
#    0.000    1.067    6.000    2.800    0.000    1.067 
#    1.200    1.333    0.000    0.000    0.000    0.000 
#    0.000    0.000    0.000    0.000    0.000    0.000 
#
# Total GULP energy -371922.001145 kJ/mol
# GULP energy per Si atom -12397.400038 kJ/mol
# Density = 1.941418 g / cm^3
# Si number density = 19.458470 Si / 1000 Ang^3
#
#
#
# Elastic Constant Matrix: (Units=GPa)
#
#
# Indices 1 2 3 4 5 6 
#
# 1 94.1081 17.2549 45.9627 0.0000 8.1373 0.0000
# 2 17.2549 57.0129 39.3216 0.0000 -5.5869 0.0000
# 3 45.9627 39.3216 124.4650 0.0000 17.0192 0.0000
# 4 0.0000 0.0000 0.0000 32.2086 0.0000 8.4191
# 5 8.1373 -5.5869 17.0192 0.0000 16.3115 0.0000
# 6 0.0000 0.0000 0.0000 8.4191 0.0000 34.0119
#
#
#
# Elastic Compliance Matrix: (Units=1/GPa)
#
#
# Indices 1 2 3 4 5 6 
#
# 1 0.013089 -0.001522 -0.003952 0.000000 -0.002927 0.000000
# 2 -0.001522 0.027959 -0.011296 0.000000 0.022122 0.000000
# 3 -0.003952 -0.011296 0.015539 0.000000 -0.018110 0.000000
# 4 0.000000 0.000000 0.000000 0.033195 0.000000 -0.008217
# 5 -0.002927 0.022122 -0.018110 0.000000 0.089240 0.000000
# 6 0.000000 0.000000 0.000000 -0.008217 0.000000 0.031435
#
#
# Mechanical properties :
#
#
# Convention : Reuss Voigt Hill
#
# Bulk Modulus (GPa) = 43.39130 53.40715 48.39922
# Shear Modulus (GPa) = 19.86655 28.04286 23.95471
#
# Velocity S-wave (km/s) = 3.19873 3.80039 3.51246
# Velocity P-wave (km/s) = 5.99920 6.83839 6.43249
#
# Compressibility (1/GPa) = 0.02304609
#
# Stress axis : x y z
#
# Youngs Moduli (GPa) = 76.40261 35.76674 64.35503
#
# Poissons Ratio (x) = 0.05445 0.25434
# Poissons Ratio (y) = 0.11631 0.72693
# Poissons Ratio (z) = 0.30196 0.40401
#
# Static dielectric constant tensor:
#      x y z
#    x 3.278280 0.000000 0.053900 
#    y 0.000000 4.183800 0.000000 
#    z 0.053900 0.000000 3.194400 
# 
# 
# High freq. dielectric constant tensor:
#      x y z
#    x 1.739430 0.000000 0.018230 
#    y 0.000000 1.771900 0.000000 
#    z 0.018230 0.000000 1.763510 
# 
# From -- ./inp_files/248776.got.cif
#   From: 2010.06.25/outbox.cif.g09.slc.cpg/sg15_125_cif.got.tgz:248776.got - 2010.06.28 07:06:18.
