data_PCOD8145692
_publ_section_title
;
Structure prediction by ZEFSAII (Michael W. Deem and Ramdas Pophale) SiO2 
 PCOD8145692
Probable space group: C 2/C
;
_chemical_formula_sum "Si O2"
_cell_formula_units_Z 44
_cell_length_a 12.955553
_cell_length_b 19.399365
_cell_length_c 8.205439
_cell_angle_alpha 90.000000
_cell_angle_beta 94.293122
_cell_angle_gamma 90.000000
_cell_volume 2056.482428
_symmetry_space_group_name_H-M "C 2/C"
_symmetry_group_IT_number 15
_symmetry_cell_setting 'monoclinic'
loop_
_space_group_symop_operation_xyz
x,y,z
-x,y,1/2-z
-x,-y,-z
x,-y,1/2+z
1/2+x,1/2+y,z
1/2-x,1/2+y,1/2-z
1/2-x,1/2-y,-z
1/2+x,1/2-y,1/2+z
loop_
_atom_site_type_symbol
_atom_site_label
_atom_site_fract_x
_atom_site_fract_y
_atom_site_fract_z
Si Si1 0.358376 0.287983 0.515008
Si Si2 0.117786 0.925036 0.808226
Si Si3 0.000000 0.299895 0.250000
Si Si4 0.838957 0.073802 0.548799
Si Si5 0.500000 0.669182 0.750000
Si Si6 0.000000 0.470484 0.750000
Si Si7 0.892990 0.414052 0.439168
O O1 0.250000 0.250000 0.500000
O O2 0.340366 0.367590 0.561612
O O3 0.416169 0.249840 0.665491
O O4 0.423215 0.284401 0.352522
O O5 0.179323 0.922219 0.646704
O O6 0.000000 0.911243 0.750000
O O7 0.131239 0.996602 0.901819
O O8 0.050125 0.346520 0.116942
O O9 0.728767 0.096503 0.608203
O O10 0.930350 0.123099 0.621331
O O11 0.075872 0.516805 0.651331
O O12 0.926217 0.422488 0.631154
#
# Coordination Sequence:
#
# PCOD8145692 Si02
#       7
#     8   8   4   8   4   4   8
#     4  12  27  46  68  94 134 183 222 265 331 397
#     4  12  23  44  65  97 138 166 211 278 326 388
#     4  11  24  45  62  91 138 171 220 276 310 399
#     4  12  23  39  72 101 130 169 215 279 344 383
#     4  12  24  44  68  98 132 170 224 278 328 396
#     4   9  20  41  60  93 138 169 218 280 318 389
#     4  10  22  39  65  96 129 173 219 267 334 388
#
# _framework density 21.395758000000001
#
# number of rings (size 3 to 8) (size 9 to 14) (size 15 to 20)
#    0.000    0.727    3.636    3.818    0.000    8.000 
#    0.000    3.636    0.000    0.000    0.000    0.000 
#    0.000    0.000    0.000    0.000    0.000    0.000 
#
# Total GULP energy -272869.231451 kJ/mol
# GULP energy per Si atom -12403.146884 kJ/mol
# Density = 2.134706 g / cm^3
# Si number density = 21.395758 Si / 1000 Ang^3
#
#
#
# Elastic Constant Matrix: (Units=GPa)
#
#
# Indices 1 2 3 4 5 6 
#
# 1 141.1820 37.1806 37.3287 0.0000 5.4249 0.0000
# 2 37.1806 78.3592 27.1294 0.0000 8.2271 0.0000
# 3 37.3287 27.1294 112.7913 0.0000 -3.4902 0.0000
# 4 0.0000 0.0000 0.0000 17.1958 0.0000 -17.9803
# 5 5.4249 8.2271 -3.4902 0.0000 32.7579 0.0000
# 6 0.0000 0.0000 0.0000 -17.9803 0.0000 -29.2471
#
#
#
# Elastic Compliance Matrix: (Units=1/GPa)
#
#
# Indices 1 2 3 4 5 6 
#
# 1 0.008513 -0.003239 -0.002064 0.000000 -0.000816 0.000000
# 2 -0.003239 0.015659 -0.002809 0.000000 -0.003696 0.000000
# 3 -0.002064 -0.002809 0.010291 0.000000 0.002144 0.000000
# 4 0.000000 0.000000 0.000000 0.035399 0.000000 -0.021762
# 5 -0.000816 -0.003696 0.002144 0.000000 0.031819 0.000000
# 6 0.000000 0.000000 0.000000 -0.021762 0.000000 -0.020813
#
#
# Mechanical properties :
#
#
# Convention : Reuss Voigt Hill
#
# Bulk Modulus (GPa) = 54.82486 59.51220 57.16853
# Shear Modulus (GPa) = 48.46324 19.52092 33.99208
#
# Velocity S-wave (km/s) = 4.76446 3.02383 3.99021
# Velocity P-wave (km/s) = 7.47974 6.32983 6.92868
#
# Compressibility (1/GPa) = 0.01823990
#
# Stress axis : x y z
#
# Youngs Moduli (GPa) = 117.46625 63.86035 97.17422
#
# Poissons Ratio (x) = 0.20686 0.20053
# Poissons Ratio (y) = 0.38050 0.27294
# Poissons Ratio (z) = 0.24240 0.17937
#
# Static dielectric constant tensor:
#      x y z
#    x 3.910380 0.000000 -0.088570 
#    y 0.000000 3.847570 0.000000 
#    z -0.088570 0.000000 4.263020 
# 
# 
# High freq. dielectric constant tensor:
#      x y z
#    x 1.848810 0.000000 -0.001680 
#    y 0.000000 1.835830 0.000000 
#    z -0.001680 0.000000 1.851970 
# 
# From -- ./inp_files/30881.got.cif
#   From: 2010.06.25/outbox.cif.g09.slc.cpg/sg15_16_cif.got.tgz:30881.got - 2010.06.28 07:06:18.
