data_PCOD8145028
_publ_section_title
;
Structure prediction by ZEFSAII (Michael W. Deem and Ramdas Pophale) SiO2 
 PCOD8145028
Probable space group: C 2/C
;
_chemical_formula_sum "Si O2"
_cell_formula_units_Z 36
_cell_length_a 15.067038
_cell_length_b 24.805382
_cell_length_c 5.072461
_cell_angle_alpha 90.000000
_cell_angle_beta 107.425867
_cell_angle_gamma 90.000000
_cell_volume 1808.792689
_symmetry_space_group_name_H-M "C 2/C"
_symmetry_group_IT_number 15
_symmetry_cell_setting 'monoclinic'
loop_
_space_group_symop_operation_xyz
x,y,z
-x,y,1/2-z
-x,-y,-z
x,-y,1/2+z
1/2+x,1/2+y,z
1/2-x,1/2+y,1/2-z
1/2-x,1/2-y,-z
1/2+x,1/2-y,1/2+z
loop_
_atom_site_type_symbol
_atom_site_label
_atom_site_fract_x
_atom_site_fract_y
_atom_site_fract_z
Si Si1 0.646241 0.821410 0.639947
Si Si2 0.331744 0.037100 0.925217
Si Si3 0.000000 0.397052 0.750000
Si Si4 0.744101 0.645783 0.773493
Si Si5 0.437919 0.292719 0.449291
O O1 0.557158 0.860055 0.596805
O O2 0.796492 0.682495 0.036558
O O3 0.710796 0.845567 0.471334
O O4 0.615098 0.762226 0.524425
O O5 0.252387 0.082988 0.859106
O O6 0.319191 0.000213 0.663805
O O7 0.432462 0.065799 0.014841
O O8 0.635684 0.660120 0.671299
O O9 0.500000 0.311155 0.750000
O O10 0.500000 0.282480 0.250000
#
# Coordination Sequence:
#
# PCOD8145028 Si02
#       5
#     8   8   4   8   8
#     4  11  22  39  60  91 129 163 197 236 307 380
#     4  11  23  39  60  88 122 163 206 249 295 357
#     4  10  22  36  62  92 130 158 198 238 304 372
#     4  11  24  41  62  87 123 167 202 253 304 356
#     4  12  24  40  64  91 123 158 208 253 302 363
#
# _framework density 19.902778000000001
#
# number of rings (size 3 to 8) (size 9 to 14) (size 15 to 20)
#    0.000    0.889    1.111    7.333    3.111    3.556 
#    0.000    0.000    0.000    4.000    0.000    0.000 
#    0.000    0.000    0.000    0.000    0.000    0.000 
#
# Total GULP energy -223326.450419 kJ/mol
# GULP energy per Si atom -12407.025023 kJ/mol
# Density = 1.985748 g / cm^3
# Si number density = 19.902778 Si / 1000 Ang^3
#
#
#
# Elastic Constant Matrix: (Units=GPa)
#
#
# Indices 1 2 3 4 5 6 
#
# 1 65.4356 44.6691 36.0337 0.0000 10.8942 0.0000
# 2 44.6691 124.6035 48.9934 0.0000 24.4736 0.0000
# 3 36.0337 48.9934 120.4937 0.0000 5.1252 0.0000
# 4 0.0000 0.0000 0.0000 24.3610 0.0000 1.3397
# 5 10.8942 24.4736 5.1252 0.0000 39.3856 0.0000
# 6 0.0000 0.0000 0.0000 1.3397 0.0000 42.9157
#
#
#
# Elastic Compliance Matrix: (Units=1/GPa)
#
#
# Indices 1 2 3 4 5 6 
#
# 1 0.021834 -0.005861 -0.004067 0.000000 -0.001868 0.000000
# 2 -0.005861 0.012457 -0.003069 0.000000 -0.005720 0.000000
# 3 -0.004067 -0.003069 0.010693 0.000000 0.001640 0.000000
# 4 0.000000 0.000000 0.000000 0.041120 0.000000 -0.001284
# 5 -0.001868 -0.005720 0.001640 0.000000 0.029247 0.000000
# 6 0.000000 0.000000 0.000000 -0.001284 0.000000 0.023342
#
#
# Mechanical properties :
#
#
# Convention : Reuss Voigt Hill
#
# Bulk Modulus (GPa) = 52.65875 63.32501 57.99188
# Shear Modulus (GPa) = 29.23694 33.38824 31.31259
#
# Velocity S-wave (km/s) = 3.83690 4.10025 3.97076
# Velocity P-wave (km/s) = 6.79297 7.36901 7.08685
#
# Compressibility (1/GPa) = 0.01899020
#
# Stress axis : x y z
#
# Youngs Moduli (GPa) = 45.80059 80.27756 93.51568
#
# Poissons Ratio (x) = 0.47053 0.38030
# Poissons Ratio (y) = 0.26845 0.28699
# Poissons Ratio (z) = 0.18626 0.24636
#
# Static dielectric constant tensor:
#      x y z
#    x 3.523290 0.000000 0.120150 
#    y 0.000000 3.763650 0.000000 
#    z 0.120150 0.000000 3.571150 
# 
# 
# High freq. dielectric constant tensor:
#      x y z
#    x 1.760700 0.000000 -0.006950 
#    y 0.000000 1.775630 0.000000 
#    z -0.006950 0.000000 1.794540 
# 
# From -- ./inp_files/7411.got.cif
#   From: 2010.06.25/outbox.cif.g09.slc.cpg/sg15_4_cif.got.tgz:7411.got - 2010.06.28 07:06:18.
