data_PCOD8145550
_publ_section_title
;
Structure prediction by ZEFSAII (Michael W. Deem and Ramdas Pophale) SiO2 
 PCOD8145550
Probable space group: C 2/C
;
_chemical_formula_sum "Si O2"
_cell_formula_units_Z 32
_cell_length_a 7.571698
_cell_length_b 13.215164
_cell_length_c 18.009771
_cell_angle_alpha 90.000000
_cell_angle_beta 89.669946
_cell_angle_gamma 90.000000
_cell_volume 1802.049953
_symmetry_space_group_name_H-M "C 2/C"
_symmetry_group_IT_number 15
_symmetry_cell_setting 'monoclinic'
loop_
_space_group_symop_operation_xyz
x,y,z
-x,y,1/2-z
-x,-y,-z
x,-y,1/2+z
1/2+x,1/2+y,z
1/2-x,1/2+y,1/2-z
1/2-x,1/2-y,-z
1/2+x,1/2-y,1/2+z
loop_
_atom_site_type_symbol
_atom_site_label
_atom_site_fract_x
_atom_site_fract_y
_atom_site_fract_z
Si Si1 0.756010 0.210490 0.417206
Si Si2 0.567931 0.807358 0.668580
Si Si3 0.441108 0.980762 0.583338
Si Si4 0.569134 0.811496 0.332066
O O1 0.750000 0.250000 0.500000
O O2 0.585999 0.256886 0.373539
O O3 0.738045 0.087623 0.416579
O O4 0.935945 0.240443 0.377048
O O5 0.500000 0.834171 0.750000
O O6 0.593514 0.914984 0.625285
O O7 0.745853 0.744949 0.670663
O O8 0.500000 0.000000 0.500000
O O9 0.403129 0.083903 0.625711
O O10 0.500000 0.832942 0.250000
#
# Coordination Sequence:
#
# PCOD8145550 Si02
#       4
#     8   8   8   8
#     4  10  22  41  61  91 127 154 201 254 302 361
#     4  10  22  42  60  93 123 154 211 252 293 374
#     4  10  22  39  61  90 124 158 203 252 300 368
#     4  12  21  40  67  86 122 168 196 252 314 348
#
# _framework density 17.757556000000001
#
# number of rings (size 3 to 8) (size 9 to 14) (size 15 to 20)
#    1.500    0.000    5.000    0.750    0.000    4.000 
#    4.500    3.750    0.000    0.000    0.000    0.000 
#    0.000    0.000    0.000    0.000    0.000    0.000 
#
# Total GULP energy -198241.609092 kJ/mol
# GULP energy per Si atom -12390.100568 kJ/mol
# Density = 1.771714 g / cm^3
# Si number density = 17.757556 Si / 1000 Ang^3
#
#
#
# Elastic Constant Matrix: (Units=GPa)
#
#
# Indices 1 2 3 4 5 6 
#
# 1 112.0180 60.9873 59.0616 0.0000 -3.2063 0.0000
# 2 60.9873 144.9581 68.3594 0.0000 -12.1244 0.0000
# 3 59.0616 68.3594 177.3774 0.0000 -3.7404 0.0000
# 4 0.0000 0.0000 0.0000 24.7594 0.0000 3.1528
# 5 -3.2063 -12.1244 -3.7404 0.0000 28.4967 0.0000
# 6 0.0000 0.0000 0.0000 3.1528 0.0000 29.5162
#
#
#
# Elastic Compliance Matrix: (Units=1/GPa)
#
#
# Indices 1 2 3 4 5 6 
#
# 1 0.012507 -0.004092 -0.002602 0.000000 -0.000675 0.000000
# 2 -0.004092 0.010065 -0.002443 0.000000 0.003501 0.000000
# 3 -0.002602 -0.002443 0.007438 0.000000 -0.000356 0.000000
# 4 0.000000 0.000000 0.000000 0.040946 0.000000 -0.004374
# 5 -0.000675 0.003501 -0.000356 0.000000 0.036459 0.000000
# 6 0.000000 0.000000 0.000000 -0.004374 0.000000 0.034347
#
#
# Mechanical properties :
#
#
# Convention : Reuss Voigt Hill
#
# Bulk Modulus (GPa) = 85.19590 90.12999 87.66295
# Shear Modulus (GPa) = 30.49780 32.95079 31.72430
#
# Velocity S-wave (km/s) = 4.14871 4.31233 4.23131
# Velocity P-wave (km/s) = 8.42796 8.69833 8.56421
#
# Compressibility (1/GPa) = 0.01173765
#
# Stress axis : x y z
#
# Youngs Moduli (GPa) = 79.95316 99.35724 134.44577
#
# Poissons Ratio (x) = 0.40652 0.34983
# Poissons Ratio (y) = 0.32713 0.32840
# Poissons Ratio (z) = 0.20804 0.24269
#
# Static dielectric constant tensor:
#      x y z
#    x 3.474310 0.000000 -0.044530 
#    y 0.000000 3.248770 0.000000 
#    z -0.044530 0.000000 3.648930 
# 
# 
# High freq. dielectric constant tensor:
#      x y z
#    x 1.670180 0.000000 0.003240 
#    y 0.000000 1.679540 0.000000 
#    z 0.003240 0.000000 1.717270 
# 
# From -- ./inp_files/132397.got.cif
#   From: 2010.06.25/outbox.cif.g09.slc.cpg/sg15_67_cif.got.tgz:132397.got - 2010.06.28 07:06:18.
