data_PCOD8145763
_publ_section_title
;
Structure prediction by ZEFSAII (Michael W. Deem and Ramdas Pophale) SiO2 
 PCOD8145763
Probable space group: C 2/C
;
_chemical_formula_sum "Si O2"
_cell_formula_units_Z 60
_cell_length_a 15.650465
_cell_length_b 12.574436
_cell_length_c 14.539704
_cell_angle_alpha 90.000000
_cell_angle_beta 74.039116
_cell_angle_gamma 90.000000
_cell_volume 2751.046122
_symmetry_space_group_name_H-M "C 2/C"
_symmetry_group_IT_number 15
_symmetry_cell_setting 'monoclinic'
loop_
_space_group_symop_operation_xyz
x,y,z
-x,y,1/2-z
-x,-y,-z
x,-y,1/2+z
1/2+x,1/2+y,z
1/2-x,1/2+y,1/2-z
1/2-x,1/2-y,-z
1/2+x,1/2-y,1/2+z
loop_
_atom_site_type_symbol
_atom_site_label
_atom_site_fract_x
_atom_site_fract_y
_atom_site_fract_z
Si Si1 0.696609 0.140564 0.000181
Si Si2 0.584053 0.235419 0.889504
Si Si3 0.317342 0.367533 0.105600
Si Si4 0.000000 0.379911 0.250000
Si Si5 0.227514 0.166230 0.214649
Si Si6 0.843381 0.976231 0.913654
Si Si7 0.006823 0.897730 0.058647
Si Si8 0.832112 0.467660 0.811192
O O1 0.626618 0.141409 0.937231
O O2 0.755170 0.041233 0.956307
O O3 0.750000 0.250000 0.000000
O O4 0.647234 0.109665 0.109373
O O5 0.510383 0.194031 0.837938
O O6 0.667047 0.291473 0.815306
O O7 0.541159 0.307317 0.980419
O O8 0.262535 0.259636 0.137489
O O9 0.411994 0.365658 0.132845
O O10 0.259528 0.467575 0.153684
O O11 0.348672 0.384756 0.990825
O O12 0.086991 0.451695 0.222315
O O13 0.162697 0.086535 0.179751
O O14 0.315548 0.107277 0.227600
O O15 0.922460 0.064551 0.884786
O O16 0.000000 0.000000 0.000000
#
# Coordination Sequence:
#
# PCOD8145763 Si02
#       8
#     8   8   8   4   8   8   8   8
#     4  11  21  45  72  94 137 188 224 277 355 414
#     4  12  25  44  71  99 139 186 227 288 353 410
#     4  10  23  44  64  97 139 179 230 279 345 418
#     4  12  28  44  68 108 142 176 236 292 340 408
#     4  12  23  41  73 100 138 177 231 288 347 398
#     4  10  22  39  69  99 134 180 226 284 344 414
#     4  10  22  41  63  96 135 176 226 278 338 415
#     4  11  25  46  68 100 140 180 232 287 336 421
#
# _framework density 21.809885999999999
#
# number of rings (size 3 to 8) (size 9 to 14) (size 15 to 20)
#    0.000    1.067    4.000    2.800    3.733    3.733 
#    0.000    0.000    0.000    0.000    0.000    0.000 
#    0.000    0.000    0.000    0.000    0.000    0.000 
#
# Total GULP energy -371766.735263 kJ/mol
# GULP energy per Si atom -12392.224509 kJ/mol
# Density = 2.176025 g / cm^3
# Si number density = 21.809886 Si / 1000 Ang^3
#
#
#
# Elastic Constant Matrix: (Units=GPa)
#
#
# Indices 1 2 3 4 5 6 
#
# 1 125.9515 44.5179 48.3528 0.0000 9.4803 0.0000
# 2 44.5179 95.5697 38.4678 0.0000 12.8898 0.0000
# 3 48.3528 38.4678 74.3116 0.0000 15.0567 0.0000
# 4 0.0000 0.0000 0.0000 20.5916 0.0000 19.7179
# 5 9.4803 12.8898 15.0567 0.0000 43.7056 0.0000
# 6 0.0000 0.0000 0.0000 19.7179 0.0000 44.0254
#
#
#
# Elastic Compliance Matrix: (Units=1/GPa)
#
#
# Indices 1 2 3 4 5 6 
#
# 1 0.011185 -0.002912 -0.005862 0.000000 0.000452 0.000000
# 2 -0.002912 0.014088 -0.005036 0.000000 -0.001788 0.000000
# 3 -0.005862 -0.005036 0.020769 0.000000 -0.004398 0.000000
# 4 0.000000 0.000000 0.000000 0.085031 0.000000 -0.038083
# 5 0.000452 -0.001788 -0.004398 0.000000 0.024825 0.000000
# 6 0.000000 0.000000 0.000000 -0.038083 0.000000 0.039771
#
#
# Mechanical properties :
#
#
# Convention : Reuss Voigt Hill
#
# Bulk Modulus (GPa) = 54.28004 62.05665 58.16834
# Shear Modulus (GPa) = 21.79318 32.63081 27.21199
#
# Velocity S-wave (km/s) = 3.16450 3.87220 3.53610
# Velocity P-wave (km/s) = 6.18821 6.96471 6.58791
#
# Compressibility (1/GPa) = 0.01842298
#
# Stress axis : x y z
#
# Youngs Moduli (GPa) = 89.40394 70.98225 48.14781
#
# Poissons Ratio (x) = 0.20667 0.28226
# Poissons Ratio (y) = 0.26030 0.24247
# Poissons Ratio (z) = 0.52412 0.35746
#
# Static dielectric constant tensor:
#      x y z
#    x 5.046850 0.000000 0.133750 
#    y 0.000000 4.420410 0.000000 
#    z 0.133750 0.000000 3.901160 
# 
# 
# High freq. dielectric constant tensor:
#      x y z
#    x 1.864940 0.000000 0.010630 
#    y 0.000000 1.864840 0.000000 
#    z 0.010630 0.000000 1.840370 
# 
# From -- ./inp_files/161310.got.cif
#   From: 2010.06.25/outbox.cif.g09.slc.cpg/sg15_81_cif.got.tgz:161310.got - 2010.06.28 07:06:18.
