data_PCOD8145159
_publ_section_title
;
Structure prediction by ZEFSAII (Michael W. Deem and Ramdas Pophale) SiO2 
 PCOD8145159
Probable space group: C 2/C
;
_chemical_formula_sum "Si O2"
_cell_formula_units_Z 60
_cell_length_a 9.355533
_cell_length_b 20.624992
_cell_length_c 18.610127
_cell_angle_alpha 90.000000
_cell_angle_beta 126.060468
_cell_angle_gamma 90.000000
_cell_volume 2902.925781
_symmetry_space_group_name_H-M "C 2/C"
_symmetry_group_IT_number 15
_symmetry_cell_setting 'monoclinic'
loop_
_space_group_symop_operation_xyz
x,y,z
-x,y,1/2-z
-x,-y,-z
x,-y,1/2+z
1/2+x,1/2+y,z
1/2-x,1/2+y,1/2-z
1/2-x,1/2-y,-z
1/2+x,1/2-y,1/2+z
loop_
_atom_site_type_symbol
_atom_site_label
_atom_site_fract_x
_atom_site_fract_y
_atom_site_fract_z
Si Si1 0.061806 0.219413 0.937267
Si Si2 0.332821 0.917690 0.152939
Si Si3 0.571332 0.828244 0.694610
Si Si4 0.904239 0.893600 0.834469
Si Si5 0.550722 0.581568 0.891251
Si Si6 0.694453 0.943613 0.905996
Si Si7 0.833139 0.817939 0.500008
Si Si8 0.000000 0.997146 0.750000
O O1 0.078791 0.158134 0.889537
O O2 0.932150 0.272021 0.865162
O O3 0.998338 0.197088 0.996866
O O4 0.250000 0.250000 0.000000
O O5 0.500000 0.895195 0.250000
O O6 0.307080 0.861964 0.084886
O O7 0.154341 0.929089 0.146474
O O8 0.386988 0.985423 0.131477
O O9 0.500000 0.803522 0.750000
O O10 0.778608 0.839666 0.763660
O O11 0.465892 0.892288 0.637090
O O12 0.828933 0.924401 0.883893
O O13 0.898526 0.950506 0.774346
O O14 0.092075 0.859290 0.909501
O O15 0.607077 0.545890 0.834000
O O16 0.689127 0.552706 0.988496
O O17 0.750000 0.750000 0.500000
#
# Coordination Sequence:
#
# PCOD8145159 Si02
#       8
#     8   8   8   8   8   8   8   4
#     4  11  21  44  65  94 128 173 221 269 319 383
#     4  11  22  41  68  94 124 166 217 262 320 393
#     4  10  22  37  68 100 126 169 220 270 319 384
#     4  11  22  43  65  93 131 171 214 268 326 394
#     4  11  23  41  65  93 130 170 215 268 324 383
#     4  11  19  44  70  91 124 173 219 260 328 393
#     4  11  26  44  67  93 132 181 215 261 336 401
#     4  12  26  38  64  98 132 164 216 274 328 370
#
# _framework density 20.668803
#
# number of rings (size 3 to 8) (size 9 to 14) (size 15 to 20)
#    0.000    1.067    5.333    3.200    2.800    2.133 
#    2.400    0.667    0.000    0.000    0.000    0.000 
#    0.000    0.000    0.000    0.000    0.000    0.000 
#
# Total GULP energy -371833.720052 kJ/mol
# GULP energy per Si atom -12394.457335 kJ/mol
# Density = 2.062176 g / cm^3
# Si number density = 20.668803 Si / 1000 Ang^3
#
#
#
# Elastic Constant Matrix: (Units=GPa)
#
#
# Indices 1 2 3 4 5 6 
#
# 1 33.0908 30.4374 39.9585 0.0000 4.3149 0.0000
# 2 30.4374 156.4248 63.0344 0.0000 -5.5412 0.0000
# 3 39.9585 63.0344 161.0308 0.0000 7.2060 0.0000
# 4 0.0000 0.0000 0.0000 52.7022 0.0000 -3.9524
# 5 4.3149 -5.5412 7.2060 0.0000 33.4869 0.0000
# 6 0.0000 0.0000 0.0000 -3.9524 0.0000 33.9205
#
#
#
# Elastic Compliance Matrix: (Units=1/GPa)
#
#
# Indices 1 2 3 4 5 6 
#
# 1 0.047291 -0.005630 -0.009306 0.000000 -0.005022 0.000000
# 2 -0.005630 0.008384 -0.001999 0.000000 0.002543 0.000000
# 3 -0.009306 -0.001999 0.009353 0.000000 -0.001144 0.000000
# 4 0.000000 0.000000 0.000000 0.019142 0.000000 0.002230
# 5 -0.005022 0.002543 -0.001144 0.000000 0.031177 0.000000
# 6 0.000000 0.000000 0.000000 0.002230 0.000000 0.029741
#
#
# Mechanical properties :
#
#
# Convention : Reuss Voigt Hill
#
# Bulk Modulus (GPa) = 32.09438 68.60077 50.34758
# Shear Modulus (GPa) = 26.40731 38.49635 32.45183
#
# Velocity S-wave (km/s) = 3.57829 4.32039 3.96673
# Velocity P-wave (km/s) = 5.71260 7.62563 6.73736
#
# Compressibility (1/GPa) = 0.03115810
#
# Stress axis : x y z
#
# Youngs Moduli (GPa) = 21.14576 119.27888 106.91952
#
# Poissons Ratio (x) = 0.67150 0.99504
# Poissons Ratio (y) = 0.11904 0.21369
# Poissons Ratio (z) = 0.19679 0.23839
#
# Static dielectric constant tensor:
#      x y z
#    x 3.202190 0.000000 0.240690 
#    y 0.000000 5.245100 0.000000 
#    z 0.240690 0.000000 3.530400 
# 
# 
# High freq. dielectric constant tensor:
#      x y z
#    x 1.769500 0.000000 0.004340 
#    y 0.000000 1.829930 0.000000 
#    z 0.004340 0.000000 1.823460 
# 
# From -- ./inp_files/192579.got.cif
#   From: 2010.06.25/outbox.cif.g09.slc.cpg/sg15_97_cif.got.tgz:192579.got - 2010.06.28 07:06:18.
