data_PCOD8145572
_publ_section_title
;
Structure prediction by ZEFSAII (Michael W. Deem and Ramdas Pophale) SiO2 
 PCOD8145572
Probable space group: C 2/C
;
_chemical_formula_sum "Si O2"
_cell_formula_units_Z 32
_cell_length_a 25.911265
_cell_length_b 5.191612
_cell_length_c 20.657675
_cell_angle_alpha 90.000000
_cell_angle_beta 144.839758
_cell_angle_gamma 90.000000
_cell_volume 1600.269338
_symmetry_space_group_name_H-M "C 2/C"
_symmetry_group_IT_number 15
_symmetry_cell_setting 'monoclinic'
loop_
_space_group_symop_operation_xyz
x,y,z
-x,y,1/2-z
-x,-y,-z
x,-y,1/2+z
1/2+x,1/2+y,z
1/2-x,1/2+y,1/2-z
1/2-x,1/2-y,-z
1/2+x,1/2-y,1/2+z
loop_
_atom_site_type_symbol
_atom_site_label
_atom_site_fract_x
_atom_site_fract_y
_atom_site_fract_z
Si Si1 0.447495 0.895618 0.262257
Si Si2 0.375658 0.386363 0.238373
Si Si3 0.728025 0.188038 0.688063
Si Si4 0.973646 0.631831 0.039207
O O1 0.500000 0.864493 0.250000
O O2 0.384391 0.649143 0.207695
O O3 0.383006 0.147701 0.195327
O O4 0.518473 0.923389 0.394211
O O5 0.280736 0.383935 0.177016
O O6 0.455844 0.363560 0.374080
O O7 0.730285 0.947075 0.739316
O O8 0.625659 0.247318 0.565046
O O9 0.000000 0.500000 0.000000
#
# Coordination Sequence:
#
# PCOD8145572 Si02
#       4
#     8   8   8   8
#     4  10  22  42  63  84 124 167 199 245 303 357
#     4  10  22  39  62  87 123 156 205 242 300 356
#     4  12  23  36  61  93 127 154 196 253 308 356
#     4  10  22  40  63  91 123 155 204 249 307 349
#
# _framework density 19.996632000000002
#
# number of rings (size 3 to 8) (size 9 to 14) (size 15 to 20)
#    1.500    0.000    2.500    3.750    3.500    2.000 
#    0.000    2.500    0.000    0.000    0.000    0.000 
#    0.000    0.000    0.000    0.000    0.000    0.000 
#
# Total GULP energy -198337.611147 kJ/mol
# GULP energy per Si atom -12396.100697 kJ/mol
# Density = 1.995112 g / cm^3
# Si number density = 19.996632 Si / 1000 Ang^3
#
#
#
# Elastic Constant Matrix: (Units=GPa)
#
#
# Indices 1 2 3 4 5 6 
#
# 1 124.5013 4.1677 25.6543 -0.0039 2.7350 -0.0036
# 2 4.1677 102.8656 0.4426 -0.0030 -2.3852 -0.0040
# 3 25.6543 0.4426 55.0789 0.0002 15.5329 -0.0008
# 4 -0.0039 -0.0030 0.0002 9.6597 -0.0005 4.2989
# 5 2.7350 -2.3852 15.5329 -0.0005 38.8463 -0.0006
# 6 -0.0036 -0.0040 -0.0008 4.2989 -0.0006 37.2791
#
#
#
# Elastic Compliance Matrix: (Units=1/GPa)
#
#
# Indices 1 2 3 4 5 6 
#
# 1 0.008942 -0.000316 -0.004485 0.000004 0.001144 0.000000
# 2 -0.000316 0.009750 -0.000120 0.000003 0.000669 0.000001
# 3 -0.004485 -0.000120 0.022721 -0.000003 -0.008777 0.000000
# 4 0.000004 0.000003 -0.000003 0.109123 0.000002 -0.012584
# 5 0.001144 0.000669 -0.008777 0.000002 0.029212 0.000000
# 6 0.000000 0.000001 0.000000 -0.012584 0.000000 0.028276
#
#
# Mechanical properties :
#
#
# Convention : Reuss Voigt Hill
#
# Bulk Modulus (GPa) = 31.67485 38.10832 34.89158
# Shear Modulus (GPa) = 21.89243 33.96910 27.93077
#
# Velocity S-wave (km/s) = 3.31237 4.12605 3.74140
# Velocity P-wave (km/s) = 5.52300 6.46512 6.01254
#
# Compressibility (1/GPa) = 0.03157079
#
# Stress axis : x y z
#
# Youngs Moduli (GPa) = 111.83614 102.56130 44.01254
#
# Poissons Ratio (x) = 0.03245 0.19739
# Poissons Ratio (y) = 0.03539 0.00526
# Poissons Ratio (z) = 0.50158 0.01226
#
# Static dielectric constant tensor:
#      x y z
#    x 3.862860 0.000000 0.467250 
#    y 0.000000 3.638410 0.000000 
#    z 0.467250 0.000000 3.846690 
# 
# 
# High freq. dielectric constant tensor:
#      x y z
#    x 1.790410 0.000000 0.010650 
#    y 0.000000 1.785680 0.000000 
#    z 0.010650 0.000000 1.744470 
# 
# From -- ./inp_files/120443.got.cif
#   From: 2010.06.25/outbox.cif.g09.slc.cpg/sg15_61_cif.got.tgz:120443.got - 2010.06.28 07:06:18.
