data_PCOD8145686
_publ_section_title
;
Structure prediction by ZEFSAII (Michael W. Deem and Ramdas Pophale) SiO2 
 PCOD8145686
Probable space group: C 2/C
;
_chemical_formula_sum "Si O2"
_cell_formula_units_Z 32
_cell_length_a 7.622595
_cell_length_b 15.286777
_cell_length_c 12.932045
_cell_angle_alpha 90.000000
_cell_angle_beta 67.793115
_cell_angle_gamma 90.000000
_cell_volume 1395.130935
_symmetry_space_group_name_H-M "C 2/C"
_symmetry_group_IT_number 15
_symmetry_cell_setting 'monoclinic'
loop_
_space_group_symop_operation_xyz
x,y,z
-x,y,1/2-z
-x,-y,-z
x,-y,1/2+z
1/2+x,1/2+y,z
1/2-x,1/2+y,1/2-z
1/2-x,1/2-y,-z
1/2+x,1/2-y,1/2+z
loop_
_atom_site_type_symbol
_atom_site_label
_atom_site_fract_x
_atom_site_fract_y
_atom_site_fract_z
Si Si1 0.659644 0.390130 0.537330
Si Si2 0.000000 0.211017 0.250000
Si Si3 0.276026 0.585339 0.025541
Si Si4 0.500000 0.010173 0.250000
Si Si5 0.567621 0.857766 0.377766
O O1 0.644156 0.351023 0.655677
O O2 0.681771 0.494089 0.540815
O O3 0.470361 0.366881 0.514299
O O4 0.840439 0.348350 0.441428
O O5 0.125957 0.272891 0.298082
O O6 0.148555 0.571158 0.156256
O O7 0.170510 0.645439 0.965171
O O8 0.612707 0.947776 0.306123
#
# Coordination Sequence:
#
# PCOD8145686 Si02
#       5
#     8   4   8   4   8
#     4  10  22  40  62  92 123 163 210 256 299 369
#     4  11  24  40  66  90 133 168 196 257 328 358
#     4  10  22  39  65  94 121 159 216 255 298 373
#     4   9  18  36  64  90 117 164 200 253 310 356
#     4  10  22  42  59  90 132 161 199 259 311 368
#
# _framework density 22.936917000000001
#
# number of rings (size 3 to 8) (size 9 to 14) (size 15 to 20)
#    0.000    2.000    0.000    3.750    7.000    1.000 
#    0.000    2.500    0.000    0.000    0.000    0.000 
#    0.000    0.000    0.000    0.000    0.000    0.000 
#
# Total GULP energy -198403.406338 kJ/mol
# GULP energy per Si atom -12400.212896 kJ/mol
# Density = 2.288471 g / cm^3
# Si number density = 22.936917 Si / 1000 Ang^3
#
#
#
# Elastic Constant Matrix: (Units=GPa)
#
#
# Indices 1 2 3 4 5 6 
#
# 1 145.5434 36.4232 74.7597 0.0000 8.7719 0.0000
# 2 36.4232 52.5790 54.4126 0.0000 1.6407 0.0000
# 3 74.7597 54.4126 164.6262 0.0000 13.7335 0.0000
# 4 0.0000 0.0000 0.0000 52.6463 0.0000 4.3800
# 5 8.7719 1.6407 13.7335 0.0000 19.4578 0.0000
# 6 0.0000 0.0000 0.0000 4.3800 0.0000 10.7947
#
#
#
# Elastic Compliance Matrix: (Units=1/GPa)
#
#
# Indices 1 2 3 4 5 6 
#
# 1 0.009351 -0.003319 -0.002998 0.000000 -0.001820 0.000000
# 2 -0.003319 0.030473 -0.009006 0.000000 0.005283 0.000000
# 3 -0.002998 -0.009006 0.010877 0.000000 -0.005566 0.000000
# 4 0.000000 0.000000 0.000000 0.019658 0.000000 -0.007976
# 5 -0.001820 0.005283 -0.005566 0.000000 0.055697 0.000000
# 6 0.000000 0.000000 0.000000 -0.007976 0.000000 0.095875
#
#
# Mechanical properties :
#
#
# Convention : Reuss Voigt Hill
#
# Bulk Modulus (GPa) = 49.85958 77.10438 63.48198
# Shear Modulus (GPa) = 19.28574 29.72329 24.50451
#
# Velocity S-wave (km/s) = 2.90283 3.60373 3.27210
# Velocity P-wave (km/s) = 5.74631 7.14175 6.48169
#
# Compressibility (1/GPa) = 0.02005633
#
# Stress axis : x y z
#
# Youngs Moduli (GPa) = 106.94313 32.81628 91.94108
#
# Poissons Ratio (x) = 0.10890 0.27561
# Poissons Ratio (y) = 0.35490 0.82798
# Poissons Ratio (z) = 0.32058 0.29553
#
# Static dielectric constant tensor:
#      x y z
#    x 3.948590 0.000000 0.042820 
#    y 0.000000 3.946840 0.000000 
#    z 0.042820 0.000000 4.276970 
# 
# 
# High freq. dielectric constant tensor:
#      x y z
#    x 1.878530 0.000000 0.005440 
#    y 0.000000 1.896750 0.000000 
#    z 0.005440 0.000000 1.918440 
# 
# From -- ./inp_files/75553.got.cif
#   From: 2010.06.25/outbox.cif.g09.slc.cpg/sg15_38_cif.got.tgz:75553.got - 2010.06.28 07:06:18.
