data_PCOD8145968
_publ_section_title
;
Structure prediction by ZEFSAII (Michael W. Deem and Ramdas Pophale) SiO2 
 PCOD8145968
Probable space group: C 2/C
;
_chemical_formula_sum "Si O2"
_cell_formula_units_Z 60
_cell_length_a 9.619152
_cell_length_b 22.245267
_cell_length_c 19.431711
_cell_angle_alpha 90.000000
_cell_angle_beta 132.912074
_cell_angle_gamma 90.000000
_cell_volume 3045.323632
_symmetry_space_group_name_H-M "C 2/C"
_symmetry_group_IT_number 15
_symmetry_cell_setting 'monoclinic'
loop_
_space_group_symop_operation_xyz
x,y,z
-x,y,1/2-z
-x,-y,-z
x,-y,1/2+z
1/2+x,1/2+y,z
1/2-x,1/2+y,1/2-z
1/2-x,1/2-y,-z
1/2+x,1/2-y,1/2+z
loop_
_atom_site_type_symbol
_atom_site_label
_atom_site_fract_x
_atom_site_fract_y
_atom_site_fract_z
Si Si1 0.500000 0.079700 0.250000
Si Si2 0.483986 0.173793 0.362723
Si Si3 0.150139 0.160887 0.353933
Si Si4 0.903414 0.806244 0.286464
Si Si5 0.811364 0.885142 0.488458
Si Si6 0.782016 0.987333 0.939292
Si Si7 0.618663 0.629656 0.977854
Si Si8 0.518268 0.794535 0.333744
O O1 0.431080 0.121670 0.290007
O O2 0.329783 0.036768 0.165901
O O3 0.356232 0.166976 0.387932
O O4 0.450413 0.237846 0.317940
O O5 0.706166 0.175573 0.458180
O O6 0.151548 0.115030 0.417667
O O7 0.072047 0.224756 0.354116
O O8 0.000000 0.133266 0.250000
O O9 0.680172 0.809453 0.197172
O O10 0.000000 0.829355 0.250000
O O11 0.971290 0.851015 0.369736
O O12 0.677862 0.829360 0.428104
O O13 0.007655 0.875142 0.513218
O O14 0.700580 0.947829 0.434924
O O15 0.781656 0.936177 0.999433
O O16 0.000000 0.000000 0.000000
O O17 0.500000 0.817976 0.250000
#
# Coordination Sequence:
#
# PCOD8145968 Si02
#       8
#     4   8   8   8   8   8   8   8
#     4  10  22  40  64  92 122 164 212 260 298 388
#     4  11  22  39  62  91 125 162 205 251 317 371
#     4  11  24  39  62  93 127 158 209 259 315 369
#     4  12  24  37  63  93 128 164 199 253 317 376
#     4  11  23  41  67  89 125 168 209 261 308 365
#     4   9  22  39  66  89 119 162 219 251 306 361
#     4  10  23  41  60  91 124 161 212 253 303 372
#     4  11  22  40  61  93 127 160 208 254 311 378
#
# _framework density 19.70234
#
# number of rings (size 3 to 8) (size 9 to 14) (size 15 to 20)
#    0.000    1.333    4.667    0.800   10.267    0.000 
#    0.000    3.333    0.000    0.000    0.000    0.000 
#    0.000    0.000    0.000    0.000    0.000    0.000 
#
# Total GULP energy -371861.163964 kJ/mol
# GULP energy per Si atom -12395.372132 kJ/mol
# Density = 1.965750 g / cm^3
# Si number density = 19.702340 Si / 1000 Ang^3
#
#
#
# Elastic Constant Matrix: (Units=GPa)
#
#
# Indices 1 2 3 4 5 6 
#
# 1 105.4776 11.9233 32.0629 0.0000 -0.7213 0.0000
# 2 11.9233 61.3495 41.5743 0.0000 -10.4064 0.0000
# 3 32.0629 41.5743 101.5731 0.0000 -1.5243 0.0000
# 4 0.0000 0.0000 0.0000 22.0379 0.0000 -2.8012
# 5 -0.7213 -10.4064 -1.5243 0.0000 38.6373 0.0000
# 6 0.0000 0.0000 0.0000 -2.8012 0.0000 16.4207
#
#
#
# Elastic Compliance Matrix: (Units=1/GPa)
#
#
# Indices 1 2 3 4 5 6 
#
# 1 0.010491 0.000316 -0.003439 0.000000 0.000145 0.000000
# 2 0.000316 0.023902 -0.009792 0.000000 0.006057 0.000000
# 3 -0.003439 -0.009792 0.014907 0.000000 -0.002113 0.000000
# 4 0.000000 0.000000 0.000000 0.046382 0.000000 0.007912
# 5 0.000145 0.006057 -0.002113 0.000000 0.027432 0.000000
# 6 0.000000 0.000000 0.000000 0.007912 0.000000 0.062248
#
#
# Mechanical properties :
#
#
# Convention : Reuss Voigt Hill
#
# Bulk Modulus (GPa) = 42.60704 48.83569 45.72136
# Shear Modulus (GPa) = 22.82941 27.60851 25.21896
#
# Velocity S-wave (km/s) = 3.40768 3.74743 3.58159
# Velocity P-wave (km/s) = 6.09552 6.60037 6.35296
#
# Compressibility (1/GPa) = 0.02347030
#
# Stress axis : x y z
#
# Youngs Moduli (GPa) = 95.31700 41.83800 67.08332
#
# Poissons Ratio (x) = -0.01322 0.23069
# Poissons Ratio (y) = -0.03013 0.65688
# Poissons Ratio (z) = 0.32779 0.40968
#
# Static dielectric constant tensor:
#      x y z
#    x 3.936190 0.000000 -0.009310 
#    y 0.000000 4.105410 0.000000 
#    z -0.009310 0.000000 3.973400 
# 
# 
# High freq. dielectric constant tensor:
#      x y z
#    x 1.756800 0.000000 0.012550 
#    y 0.000000 1.764920 0.000000 
#    z 0.012550 0.000000 1.775540 
# 
# From -- ./inp_files/234087.got.cif
#   From: 2010.06.25/outbox.cif.g09.slc.cpg/sg15_118_cif.got.tgz:234087.got - 2010.06.28 07:06:18.
