data_PCOD8145947
_publ_section_title
;
Structure prediction by ZEFSAII (Michael W. Deem and Ramdas Pophale) SiO2 
 PCOD8145947
Probable space group: C 2/C
;
_chemical_formula_sum "Si O2"
_cell_formula_units_Z 56
_cell_length_a 10.951791
_cell_length_b 20.078518
_cell_length_c 12.179339
_cell_angle_alpha 90.000000
_cell_angle_beta 71.364864
_cell_angle_gamma 90.000000
_cell_volume 2537.774504
_symmetry_space_group_name_H-M "C 2/C"
_symmetry_group_IT_number 15
_symmetry_cell_setting 'monoclinic'
loop_
_space_group_symop_operation_xyz
x,y,z
-x,y,1/2-z
-x,-y,-z
x,-y,1/2+z
1/2+x,1/2+y,z
1/2-x,1/2+y,1/2-z
1/2-x,1/2-y,-z
1/2+x,1/2-y,1/2+z
loop_
_atom_site_type_symbol
_atom_site_label
_atom_site_fract_x
_atom_site_fract_y
_atom_site_fract_z
Si Si1 0.568531 0.308501 0.387891
Si Si2 0.546308 0.202002 0.952643
Si Si3 0.736923 0.282706 0.762654
Si Si4 0.480721 0.450813 0.139565
Si Si5 0.276168 0.509861 0.547420
Si Si6 0.263723 0.848779 0.522818
Si Si7 0.122957 0.618307 0.132769
O O1 0.451642 0.267323 0.472420
O O2 0.633666 0.260978 0.279171
O O3 0.504775 0.371735 0.350432
O O4 0.669004 0.324340 0.456212
O O5 0.628642 0.226909 0.823857
O O6 0.404200 0.180349 0.954264
O O7 0.600126 0.142767 0.014282
O O8 0.710354 0.321085 0.654803
O O9 0.759699 0.339760 0.847637
O O10 0.500000 0.486972 0.250000
O O11 0.332488 0.461669 0.145349
O O12 0.595787 0.473684 0.030542
O O13 0.229930 0.570022 0.480921
O O14 0.161407 0.459059 0.605826
O O15 0.000000 0.621676 0.250000
#
# Coordination Sequence:
#
# PCOD8145947 Si02
#       7
#     8   8   8   8   8   8   8
#     4  10  22  40  63  98 131 162 227 277 320 401
#     4  11  23  40  67 100 128 173 219 266 341 392
#     4  11  23  40  68  93 133 175 214 275 342 382
#     4  10  23  41  69  91 129 174 218 284 325 386
#     4  10  25  46  62 101 130 173 235 260 333 405
#     4  10  23  45  63  95 141 169 222 279 314 404
#     4  12  24  43  67  98 135 177 219 278 327 398
#
# _framework density 22.066578
#
# number of rings (size 3 to 8) (size 9 to 14) (size 15 to 20)
#    0.000    1.429    2.857    3.000    6.000    2.857 
#    5.143    0.000    0.000    0.000    0.000    0.000 
#    0.000    0.000    0.000    0.000    0.000    0.000 
#
# Total GULP energy -346909.467787 kJ/mol
# GULP energy per Si atom -12389.623850 kJ/mol
# Density = 2.201635 g / cm^3
# Si number density = 22.066578 Si / 1000 Ang^3
#
#
#
# Elastic Constant Matrix: (Units=GPa)
#
#
# Indices 1 2 3 4 5 6 
#
# 1 50.4083 25.5446 29.7374 0.0000 -10.3017 0.0000
# 2 25.5446 144.7457 37.8216 0.0000 -8.9793 0.0000
# 3 29.7374 37.8216 91.5146 0.0000 -4.2957 0.0000
# 4 0.0000 0.0000 0.0000 -52.2408 0.0000 13.4675
# 5 -10.3017 -8.9793 -4.2957 0.0000 21.2358 0.0000
# 6 0.0000 0.0000 0.0000 13.4675 0.0000 35.4112
#
#
#
# Elastic Compliance Matrix: (Units=1/GPa)
#
#
# Indices 1 2 3 4 5 6 
#
# 1 0.027661 -0.002229 -0.007553 0.000000 0.010948 0.000000
# 2 -0.002229 0.008076 -0.002528 0.000000 0.001822 0.000000
# 3 -0.007553 -0.002528 0.014340 0.000000 -0.001832 0.000000
# 4 0.000000 0.000000 0.000000 -0.017433 0.000000 0.006630
# 5 0.010948 0.001822 -0.001832 0.000000 0.052801 0.000000
# 6 0.000000 0.000000 0.000000 0.006630 0.000000 0.025718
#
#
# Mechanical properties :
#
#
# Convention : Reuss Voigt Hill
#
# Bulk Modulus (GPa) = 39.28179 52.54176 45.91177
# Shear Modulus (GPa) = 34.65770 13.78558 24.22164
#
# Velocity S-wave (km/s) = 3.96738 2.50217 3.31669
# Velocity P-wave (km/s) = 6.23112 5.67539 5.95974
#
# Compressibility (1/GPa) = 0.02545709
#
# Stress axis : x y z
#
# Youngs Moduli (GPa) = 36.15234 123.83106 69.73359
#
# Poissons Ratio (x) = 0.27599 0.52672
# Poissons Ratio (y) = 0.08057 0.17627
# Poissons Ratio (z) = 0.27307 0.31301
#
# Static dielectric constant tensor:
#      x y z
#    x 3.854380 0.000000 0.100550 
#    y 0.000000 4.391570 0.000000 
#    z 0.100550 0.000000 3.951150 
# 
# 
# High freq. dielectric constant tensor:
#      x y z
#    x 1.861790 0.000000 0.008460 
#    y 0.000000 1.881300 0.000000 
#    z 0.008460 0.000000 1.861140 
# 
# From -- ./inp_files/89572.got.cif
#   From: 2010.06.25/outbox.cif.g09.slc.cpg/sg15_45_cif.got.tgz:89572.got - 2010.06.28 07:06:18.
