data_PCOD8145093
_publ_section_title
;
Structure prediction by ZEFSAII (Michael W. Deem and Ramdas Pophale) SiO2 
 PCOD8145093
Probable space group: C 2/C
;
_chemical_formula_sum "Si O2"
_cell_formula_units_Z 64
_cell_length_a 15.101715
_cell_length_b 8.691863
_cell_length_c 23.612739
_cell_angle_alpha 90.000000
_cell_angle_beta 60.235273
_cell_angle_gamma 90.000000
_cell_volume 2690.548825
_symmetry_space_group_name_H-M "C 2/C"
_symmetry_group_IT_number 15
_symmetry_cell_setting 'monoclinic'
loop_
_space_group_symop_operation_xyz
x,y,z
-x,y,1/2-z
-x,-y,-z
x,-y,1/2+z
1/2+x,1/2+y,z
1/2-x,1/2+y,1/2-z
1/2-x,1/2-y,-z
1/2+x,1/2-y,1/2+z
loop_
_atom_site_type_symbol
_atom_site_label
_atom_site_fract_x
_atom_site_fract_y
_atom_site_fract_z
Si Si1 0.955506 0.741969 0.954590
Si Si2 0.616270 0.048340 0.086843
Si Si3 0.727575 0.753709 0.676752
Si Si4 0.403503 0.470918 0.642079
Si Si5 0.440620 0.776074 0.690075
Si Si6 0.789339 0.146430 0.585216
Si Si7 0.354434 0.164744 0.539689
Si Si8 0.697996 0.066965 0.356914
O O1 0.953014 0.581075 0.921529
O O2 0.994617 0.870426 0.898057
O O3 0.036633 0.741809 0.980828
O O4 0.843328 0.789866 0.011365
O O5 0.700106 0.969777 0.099169
O O6 0.555581 0.159803 0.149832
O O7 0.664059 0.153744 0.021442
O O8 0.807914 0.856977 0.687922
O O9 0.612510 0.803133 0.731117
O O10 0.760232 0.763519 0.599188
O O11 0.736829 0.572041 0.691373
O O12 0.431679 0.593763 0.681494
O O13 0.375838 0.560198 0.593381
O O14 0.383215 0.876115 0.661928
O O15 0.739901 0.285068 0.638767
O O16 0.359626 0.997272 0.568225
#
# Coordination Sequence:
#
# PCOD8145093 Si02
#       8
#     8   8   8   8   8   8   8   8
#     4  11  19  37  58  87 123 162 202 256 307 375
#     4  12  22  37  63  91 128 165 211 253 313 388
#     4   9  19  37  62  87 119 160 217 267 307 369
#     4  10  22  37  59  89 123 157 208 261 316 366
#     4  11  20  36  62  93 122 165 212 259 317 378
#     4  11  23  36  58  94 126 163 201 257 319 380
#     4   9  18  35  61  90 118 162 210 263 311 360
#     4   9  18  36  61  89 120 163 212 260 314 364
#
# _framework density 23.786968999999999
#
# number of rings (size 3 to 8) (size 9 to 14) (size 15 to 20)
#    0.750    1.000    2.500    3.375    0.000    1.000 
#    0.000    7.500    0.000    0.000    0.000    3.500 
#    0.000    0.000    0.000    0.000    0.000    0.000 
#
# Total GULP energy -396419.583496 kJ/mol
# GULP energy per Si atom -12388.111984 kJ/mol
# Density = 2.373283 g / cm^3
# Si number density = 23.786969 Si / 1000 Ang^3
#
#
#
# Elastic Constant Matrix: (Units=GPa)
#
#
# Indices 1 2 3 4 5 6 
#
# 1 36.9644 15.4378 42.1687 0.0000 4.3984 0.0000
# 2 15.4378 126.4602 64.3493 0.0000 -8.0754 0.0001
# 3 42.1687 64.3493 144.4240 0.0000 -18.7130 0.0000
# 4 0.0000 0.0000 0.0000 24.9437 0.0000 -6.8865
# 5 4.3984 -8.0754 -18.7130 0.0000 28.2302 0.0000
# 6 0.0000 0.0001 0.0000 -6.8865 0.0000 29.7818
#
#
#
# Elastic Compliance Matrix: (Units=1/GPa)
#
#
# Indices 1 2 3 4 5 6 
#
# 1 0.048167 0.001700 -0.017208 0.000000 -0.018425 0.000000
# 2 0.001700 0.010286 -0.005177 0.000000 -0.000754 0.000000
# 3 -0.017208 -0.005177 0.015765 0.000000 0.011650 0.000000
# 4 0.000000 0.000000 0.000000 0.042824 0.000000 0.009902
# 5 -0.018425 -0.000754 0.011650 0.000000 0.045801 0.000000
# 6 0.000000 0.000000 0.000000 0.009902 0.000000 0.035867
#
#
# Mechanical properties :
#
#
# Convention : Reuss Voigt Hill
#
# Bulk Modulus (GPa) = 30.44469 61.30670 45.87570
# Shear Modulus (GPa) = 19.91789 28.98398 24.45093
#
# Velocity S-wave (km/s) = 2.89683 3.49446 3.20959
# Velocity P-wave (km/s) = 4.90056 6.48929 5.75006
#
# Compressibility (1/GPa) = 0.03284645
#
# Stress axis : x y z
#
# Youngs Moduli (GPa) = 20.76117 97.21583 63.43227
#
# Poissons Ratio (x) = -0.16526 1.09157
# Poissons Ratio (y) = -0.03529 0.32840
# Poissons Ratio (z) = 0.35727 0.50331
#
# Static dielectric constant tensor:
#      x y z
#    x 3.702500 0.000000 -0.027360 
#    y 0.000000 4.668840 0.000000 
#    z -0.027360 0.000000 4.142610 
# 
# 
# High freq. dielectric constant tensor:
#      x y z
#    x 1.907740 0.000000 0.000110 
#    y 0.000000 1.965450 0.000000 
#    z 0.000110 0.000000 1.929580 
# 
# From -- ./inp_files/313136.got.cif
#   From: 2010.06.25/outbox.cif.g09.slc.cpg/sg15_157_cif.got.tgz:313136.got - 2010.06.28 07:06:18.
