data_PCOD8145494
_publ_section_title
;
Structure prediction by ZEFSAII (Michael W. Deem and Ramdas Pophale) SiO2 
 PCOD8145494
Probable space group: C 2/C
;
_chemical_formula_sum "Si O2"
_cell_formula_units_Z 60
_cell_length_a 19.824486
_cell_length_b 13.560476
_cell_length_c 11.294237
_cell_angle_alpha 90.000000
_cell_angle_beta 115.059754
_cell_angle_gamma 90.000000
_cell_volume 2750.413478
_symmetry_space_group_name_H-M "C 2/C"
_symmetry_group_IT_number 15
_symmetry_cell_setting 'monoclinic'
loop_
_space_group_symop_operation_xyz
x,y,z
-x,y,1/2-z
-x,-y,-z
x,-y,1/2+z
1/2+x,1/2+y,z
1/2-x,1/2+y,1/2-z
1/2-x,1/2-y,-z
1/2+x,1/2-y,1/2+z
loop_
_atom_site_type_symbol
_atom_site_label
_atom_site_fract_x
_atom_site_fract_y
_atom_site_fract_z
Si Si1 0.237526 0.825818 0.243330
Si Si2 0.391396 0.188780 0.753943
Si Si3 0.727095 0.501406 0.907612
Si Si4 0.630086 0.021021 0.338285
Si Si5 0.468533 0.760108 0.984306
Si Si6 0.500000 0.830519 0.750000
Si Si7 0.866052 0.855971 0.544058
Si Si8 0.824697 0.633537 0.338338
O O1 0.326270 0.825990 0.301929
O O2 0.206437 0.721407 0.270346
O O3 0.204785 0.914672 0.297338
O O4 0.207989 0.830335 0.086088
O O5 0.378382 0.283896 0.664105
O O6 0.398715 0.091404 0.676451
O O7 0.464467 0.202055 0.887045
O O8 0.651501 0.467272 0.920554
O O9 0.758183 0.400273 0.873772
O O10 0.793525 0.543675 0.036639
O O11 0.568559 0.098870 0.336259
O O12 0.649443 0.038837 0.215695
O O13 0.484106 0.762212 0.853910
O O14 0.397869 0.830045 0.963366
O O15 0.439112 0.652231 0.010766
#
# Coordination Sequence:
#
# PCOD8145494 Si02
#       8
#     8   8   8   8   8   4   8   8
#     4  11  22  39  63  92 132 171 209 275 323 374
#     4  12  21  38  64 101 133 168 212 265 325 397
#     4  12  21  38  63  93 130 168 224 265 321 387
#     4  11  23  35  61  99 132 173 205 258 331 394
#     4  10  24  39  63  91 132 177 211 262 329 393
#     4  10  24  40  56  98 146 168 206 258 332 416
#     4  11  23  41  64  94 129 175 221 265 325 389
#     4  10  22  39  58  93 129 169 213 261 326 384
#
# _framework density 21.814900000000002
#
# number of rings (size 3 to 8) (size 9 to 14) (size 15 to 20)
#    0.000    1.067    4.000    3.200    3.733    1.600 
#    0.000    1.333    0.000    7.200    3.467    0.000 
#    0.000    0.000    0.000    0.000    0.000    0.000 
#
# Total GULP energy -371683.154926 kJ/mol
# GULP energy per Si atom -12389.438498 kJ/mol
# Density = 2.176525 g / cm^3
# Si number density = 21.814900 Si / 1000 Ang^3
#
#
#
# Elastic Constant Matrix: (Units=GPa)
#
#
# Indices 1 2 3 4 5 6 
#
# 1 111.2523 52.5564 37.7793 0.0000 -1.4400 0.0000
# 2 52.5564 85.0906 45.5812 0.0000 5.3158 0.0000
# 3 37.7793 45.5812 98.0677 0.0000 11.2824 0.0000
# 4 0.0000 0.0000 0.0000 26.9350 0.0000 -8.0678
# 5 -1.4400 5.3158 11.2824 0.0000 30.1862 0.0000
# 6 0.0000 0.0000 0.0000 -8.0678 0.0000 26.0037
#
#
#
# Elastic Compliance Matrix: (Units=1/GPa)
#
#
# Indices 1 2 3 4 5 6 
#
# 1 0.013096 -0.007175 -0.002014 0.000000 0.002641 0.000000
# 2 -0.007175 0.019579 -0.006165 0.000000 -0.001486 0.000000
# 3 -0.002014 -0.006165 0.014341 0.000000 -0.004371 0.000000
# 4 0.000000 0.000000 0.000000 0.040930 0.000000 0.012699
# 5 0.002641 -0.001486 -0.004371 0.000000 0.035149 0.000000
# 6 0.000000 0.000000 0.000000 0.012699 0.000000 0.042396
#
#
# Mechanical properties :
#
#
# Convention : Reuss Voigt Hill
#
# Bulk Modulus (GPa) = 61.31936 62.91605 62.11771
# Shear Modulus (GPa) = 24.79707 27.19121 25.99414
#
# Velocity S-wave (km/s) = 3.37516 3.53434 3.45567
# Velocity P-wave (km/s) = 6.58475 6.74973 6.66775
#
# Compressibility (1/GPa) = 0.01630806
#
# Stress axis : x y z
#
# Youngs Moduli (GPa) = 76.35777 51.07439 69.72838
#
# Poissons Ratio (x) = 0.36646 0.14044
# Poissons Ratio (y) = 0.54787 0.42990
# Poissons Ratio (z) = 0.15379 0.31489
#
# Static dielectric constant tensor:
#      x y z
#    x 4.121570 0.000000 -0.040570 
#    y 0.000000 3.942690 0.000000 
#    z -0.040570 0.000000 3.837720 
# 
# 
# High freq. dielectric constant tensor:
#      x y z
#    x 1.854640 0.000000 -0.000760 
#    y 0.000000 1.836430 0.000000 
#    z -0.000760 0.000000 1.855810 
# 
# From -- ./inp_files/112765.got.cif
#   From: 2010.06.25/outbox.cif.g09.slc.cpg/sg15_57_cif.got.tgz:112765.got - 2010.06.28 07:06:18.
