data_PCOD8145335
_publ_section_title
;
Structure prediction by ZEFSAII (Michael W. Deem and Ramdas Pophale) SiO2 
 PCOD8145335
Probable space group: C 2/C
;
_chemical_formula_sum "Si O2"
_cell_formula_units_Z 52
_cell_length_a 5.220593
_cell_length_b 23.649284
_cell_length_c 21.312423
_cell_angle_alpha 90.000000
_cell_angle_beta 115.334299
_cell_angle_gamma 90.000000
_cell_volume 2378.240438
_symmetry_space_group_name_H-M "C 2/C"
_symmetry_group_IT_number 15
_symmetry_cell_setting 'monoclinic'
loop_
_space_group_symop_operation_xyz
x,y,z
-x,y,1/2-z
-x,-y,-z
x,-y,1/2+z
1/2+x,1/2+y,z
1/2-x,1/2+y,1/2-z
1/2-x,1/2-y,-z
1/2+x,1/2-y,1/2+z
loop_
_atom_site_type_symbol
_atom_site_label
_atom_site_fract_x
_atom_site_fract_y
_atom_site_fract_z
Si Si1 0.500000 0.567826 0.750000
Si Si2 0.658147 0.788915 0.830548
Si Si3 0.639028 0.400867 0.584277
Si Si4 0.515940 0.105324 0.869789
Si Si5 0.345221 0.218162 0.669930
Si Si6 0.253056 0.993474 0.174328
Si Si7 0.493794 0.068063 0.002103
O O1 0.767029 0.608563 0.790615
O O2 0.515240 0.526808 0.812937
O O3 0.500000 0.808199 0.750000
O O4 0.731764 0.841377 0.882228
O O5 0.461639 0.745469 0.848872
O O6 0.960092 0.761719 0.847401
O O7 0.741910 0.443922 0.648111
O O8 0.300019 0.405111 0.549492
O O9 0.761441 0.415294 0.529100
O O10 0.696991 0.162458 0.877858
O O11 0.712906 0.050467 0.879223
O O12 0.395699 0.098184 0.927403
O O13 0.500000 0.201048 0.750000
O O14 0.500000 0.987525 0.250000
O O15 0.500000 0.000000 0.000000
#
# Coordination Sequence:
#
# PCOD8145335 Si02
#       7
#     4   8   8   8   8   8   8
#     4  10  22  38  64 100 134 160 220 286 356 386
#     4  10  23  44  68  97 131 176 221 277 330 390
#     4  12  25  45  67  94 136 180 226 263 331 403
#     4  11  24  40  66  99 130 173 219 281 336 395
#     4  10  22  41  67  97 130 166 221 279 338 385
#     4  10  22  38  63  99 129 165 220 281 341 390
#     4  12  26  44  67  97 138 183 221 265 336 405
#
# _framework density 21.864903000000002
#
# number of rings (size 3 to 8) (size 9 to 14) (size 15 to 20)
#    0.000    1.231    1.538    4.154    9.692    0.000 
#    4.154    4.615    0.000    0.000    0.000    0.000 
#    0.000    0.000    0.000    0.000    0.000    0.000 
#
# Total GULP energy -322293.161358 kJ/mol
# GULP energy per Si atom -12395.890821 kJ/mol
# Density = 2.181514 g / cm^3
# Si number density = 21.864903 Si / 1000 Ang^3
#
#
#
# Elastic Constant Matrix: (Units=GPa)
#
#
# Indices 1 2 3 4 5 6 
#
# 1 85.5709 10.6169 20.4095 0.0000 -19.0721 0.0000
# 2 10.6169 101.3056 46.5301 0.0000 -6.7125 0.0000
# 3 20.4095 46.5301 83.2373 0.0000 -18.0604 0.0000
# 4 0.0000 0.0000 0.0000 28.8880 0.0000 -9.1781
# 5 -19.0721 -6.7125 -18.0604 0.0000 33.5257 0.0000
# 6 0.0000 0.0000 0.0000 -9.1781 0.0000 32.3496
#
#
#
# Elastic Compliance Matrix: (Units=1/GPa)
#
#
# Indices 1 2 3 4 5 6 
#
# 1 0.013640 -0.000160 -0.001787 0.000000 0.006765 0.000000
# 2 -0.000160 0.013352 -0.007773 0.000000 -0.001605 0.000000
# 3 -0.001787 -0.007773 0.018388 0.000000 0.007333 0.000000
# 4 0.000000 0.000000 0.000000 0.038046 0.000000 0.010794
# 5 0.006765 -0.001605 0.007333 0.000000 0.037305 0.000000
# 6 0.000000 0.000000 0.000000 0.010794 0.000000 0.033975
#
#
# Mechanical properties :
#
#
# Convention : Reuss Voigt Hill
#
# Bulk Modulus (GPa) = 38.55115 47.24744 42.89929
# Shear Modulus (GPa) = 27.35350 31.78981 29.57166
#
# Velocity S-wave (km/s) = 3.54082 3.81717 3.68159
# Velocity P-wave (km/s) = 5.86398 6.40963 6.14287
#
# Compressibility (1/GPa) = 0.02593957
#
# Stress axis : x y z
#
# Youngs Moduli (GPa) = 73.31327 74.89777 54.38343
#
# Poissons Ratio (x) = 0.01202 0.09718
# Poissons Ratio (y) = 0.01176 0.42270
# Poissons Ratio (z) = 0.13101 0.58214
#
# Static dielectric constant tensor:
#      x y z
#    x 5.172550 0.000000 -0.376070 
#    y 0.000000 3.821290 0.000000 
#    z -0.376070 0.000000 3.882400 
# 
# 
# High freq. dielectric constant tensor:
#      x y z
#    x 1.874290 0.000000 -0.013920 
#    y 0.000000 1.854720 0.000000 
#    z -0.013920 0.000000 1.853370 
# 
# From -- ./inp_files/227957.got.cif
#   From: 2010.06.25/outbox.cif.g09.slc.cpg/sg15_114_cif.got.tgz:227957.got - 2010.06.28 07:06:18.
