data_PCOD8145395
_publ_section_title
;
Structure prediction by ZEFSAII (Michael W. Deem and Ramdas Pophale) SiO2 
 PCOD8145395
Probable space group: C 2/C
;
_chemical_formula_sum "Si O2"
_cell_formula_units_Z 56
_cell_length_a 21.670617
_cell_length_b 11.246834
_cell_length_c 26.100979
_cell_angle_alpha 90.000000
_cell_angle_beta 24.598200
_cell_angle_gamma 90.000000
_cell_volume 2647.981396
_symmetry_space_group_name_H-M "C 2/C"
_symmetry_group_IT_number 15
_symmetry_cell_setting 'monoclinic'
loop_
_space_group_symop_operation_xyz
x,y,z
-x,y,1/2-z
-x,-y,-z
x,-y,1/2+z
1/2+x,1/2+y,z
1/2-x,1/2+y,1/2-z
1/2-x,1/2-y,-z
1/2+x,1/2-y,1/2+z
loop_
_atom_site_type_symbol
_atom_site_label
_atom_site_fract_x
_atom_site_fract_y
_atom_site_fract_z
Si Si1 0.852632 0.913970 0.735268
Si Si2 0.901716 0.990355 0.024677
Si Si3 0.884132 0.356710 0.233229
Si Si4 0.067651 0.468065 0.895121
Si Si5 0.398178 0.971753 0.888525
Si Si6 0.172900 0.653897 0.161871
Si Si7 0.766091 0.586192 0.586568
O O1 0.894913 0.784263 0.722884
O O2 0.999066 0.969290 0.600101
O O3 0.724403 0.903725 0.788246
O O4 0.805376 0.997145 0.818447
O O5 0.778966 0.887045 0.122197
O O6 0.818829 0.117336 0.082890
O O7 0.000000 0.000000 0.000000
O O8 0.906948 0.416113 0.159813
O O9 0.013889 0.401860 0.174270
O O10 0.000000 0.500000 0.000000
O O11 0.940007 0.385147 0.966755
O O12 0.332500 0.935340 0.883237
O O13 0.525607 0.872839 0.806189
O O14 0.265149 0.971452 0.030404
O O15 0.173484 0.793259 0.150756
#
# Coordination Sequence:
#
# PCOD8145395 Si02
#       7
#     8   8   8   8   8   8   8
#     4  11  24  38  63  98 133 172 215 267 322 388
#     4  11  24  40  61  97 125 167 219 259 326 381
#     4  10  22  41  64  88 133 175 210 268 319 392
#     4   9  20  37  56  93 132 173 210 253 334 370
#     4   9  21  44  66  91 126 170 210 262 343 365
#     4  10  22  41  70  89 127 167 217 271 315 396
#     4  10  22  38  65  97 124 168 215 266 323 379
#
# _framework density 21.148185999999999
#
# number of rings (size 3 to 8) (size 9 to 14) (size 15 to 20)
#    0.000    2.000    1.429    0.429   10.000    1.143 
#    0.000    0.714    6.286    0.000    0.000    0.000 
#    0.000    0.000    0.000    0.000    0.000    0.000 
#
# Total GULP energy -346880.619226 kJ/mol
# GULP energy per Si atom -12388.593544 kJ/mol
# Density = 2.110005 g / cm^3
# Si number density = 21.148186 Si / 1000 Ang^3
#
#
#
# Elastic Constant Matrix: (Units=GPa)
#
#
# Indices 1 2 3 4 5 6 
#
# 1 95.5264 44.8637 28.8026 -0.0008 12.9243 0.0000
# 2 44.8637 110.8185 25.9396 -0.0151 -1.2656 -0.0003
# 3 28.8026 25.9396 105.2642 -0.0317 23.5143 -0.0006
# 4 -0.0008 -0.0151 -0.0317 17.0633 0.0070 4.5075
# 5 12.9243 -1.2656 23.5143 0.0070 41.5833 0.0004
# 6 0.0000 -0.0003 -0.0006 4.5075 0.0004 25.3889
#
#
#
# Elastic Compliance Matrix: (Units=1/GPa)
#
#
# Indices 1 2 3 4 5 6 
#
# 1 0.013946 -0.005281 -0.001729 -0.000006 -0.003518 0.000001
# 2 -0.005281 0.011704 -0.002158 0.000005 0.003218 -0.000001
# 3 -0.001729 -0.002158 0.011903 0.000024 -0.006259 -0.000004
# 4 -0.000006 0.000005 0.000024 0.061489 -0.000022 -0.010917
# 5 -0.003518 0.003218 -0.006259 -0.000022 0.028779 0.000003
# 6 0.000001 -0.000001 -0.000004 -0.010917 0.000003 0.041325
#
#
# Mechanical properties :
#
#
# Convention : Reuss Voigt Hill
#
# Bulk Modulus (GPa) = 52.03793 56.75789 54.39791
# Shear Modulus (GPa) = 25.78825 30.94066 28.36445
#
# Velocity S-wave (km/s) = 3.49579 3.82912 3.66625
# Velocity P-wave (km/s) = 6.39952 6.81513 6.61059
#
# Compressibility (1/GPa) = 0.01921675
#
# Stress axis : x y z
#
# Youngs Moduli (GPa) = 71.70611 85.44310 84.01371
#
# Poissons Ratio (x) = 0.45126 0.14523
# Poissons Ratio (y) = 0.37871 0.18128
# Poissons Ratio (z) = 0.12395 0.18437
#
# Static dielectric constant tensor:
#      x y z
#    x 4.232660 0.000020 0.118390 
#    y 0.000020 3.565800 0.000020 
#    z 0.118390 0.000020 4.425200 
# 
# 
# High freq. dielectric constant tensor:
#      x y z
#    x 1.833320 0.000000 0.010270 
#    y 0.000000 1.796210 0.000000 
#    z 0.010270 0.000000 1.846950 
# 
# From -- ./inp_files/318770.got.cif
#   From: 2010.06.25/outbox.cif.g09.slc.cpg/sg15_160_cif.got.tgz:318770.got - 2010.06.28 07:06:18.
