data_PCOD8145882
_publ_section_title
;
Structure prediction by ZEFSAII (Michael W. Deem and Ramdas Pophale) SiO2 
 PCOD8145882
Probable space group: C 2/C
;
_chemical_formula_sum "Si O2"
_cell_formula_units_Z 40
_cell_length_a 26.113049
_cell_length_b 4.981606
_cell_length_c 11.425982
_cell_angle_alpha 90.000000
_cell_angle_beta 94.458415
_cell_angle_gamma 90.000000
_cell_volume 1481.850308
_symmetry_space_group_name_H-M "C 2/C"
_symmetry_group_IT_number 15
_symmetry_cell_setting 'monoclinic'
loop_
_space_group_symop_operation_xyz
x,y,z
-x,y,1/2-z
-x,-y,-z
x,-y,1/2+z
1/2+x,1/2+y,z
1/2-x,1/2+y,1/2-z
1/2-x,1/2-y,-z
1/2+x,1/2-y,1/2+z
loop_
_atom_site_type_symbol
_atom_site_label
_atom_site_fract_x
_atom_site_fract_y
_atom_site_fract_z
Si Si1 0.129358 0.719904 0.376996
Si Si2 0.809609 0.926247 0.309969
Si Si3 0.050812 0.510848 0.684636
Si Si4 0.581752 0.527777 0.558267
Si Si5 0.789608 0.581341 0.932433
O O1 0.179078 0.857575 0.323236
O O2 0.099763 0.532088 0.279925
O O3 0.088447 0.937095 0.423347
O O4 0.154962 0.559357 0.491068
O O5 0.773492 0.708601 0.375845
O O6 0.862602 0.904757 0.386342
O O7 0.791116 0.233511 0.314948
O O8 0.053753 0.803854 0.630999
O O9 0.000000 0.478312 0.750000
O O10 0.049022 0.299199 0.574735
O O11 0.750000 0.750000 0.000000
#
# Coordination Sequence:
#
# PCOD8145882 Si02
#       5
#     8   8   8   8   8
#     4  10  22  40  64  84 122 163 194 252 307 349
#     4  10  22  40  62  89 119 156 202 245 298 366
#     4  11  24  40  61  92 124 159 208 253 300 366
#     4  10  22  40  62  91 121 159 208 249 300 366
#     4  11  24  40  61  91 120 153 202 248 298 366
#
# _framework density 26.993281
#
# number of rings (size 3 to 8) (size 9 to 14) (size 15 to 20)
#    0.000    1.600    0.000    6.000    0.000   17.600 
#    0.000    0.000    0.000    0.000    0.000    0.000 
#    0.000    0.000    0.000    0.000    0.000    0.000 
#
# Total GULP energy -247764.756196 kJ/mol
# GULP energy per Si atom -12388.237810 kJ/mol
# Density = 2.693184 g / cm^3
# Si number density = 26.993281 Si / 1000 Ang^3
#
#
#
# Elastic Constant Matrix: (Units=GPa)
#
#
# Indices 1 2 3 4 5 6 
#
# 1 34.9116 -15.5894 -0.3910 0.0000 -7.7453 0.0000
# 2 -15.5894 102.1612 -1.2043 0.0000 8.4681 0.0000
# 3 -0.3910 -1.2043 90.0275 0.0000 -6.1060 0.0000
# 4 0.0000 0.0000 0.0000 14.4266 0.0000 -20.3376
# 5 -7.7453 8.4681 -6.1060 0.0000 37.9809 0.0000
# 6 0.0000 0.0000 0.0000 -20.3376 0.0000 22.6797
#
#
#
# Elastic Compliance Matrix: (Units=1/GPa)
#
#
# Indices 1 2 3 4 5 6 
#
# 1 0.031861 0.004404 0.000578 0.000000 0.005608 0.000000
# 2 0.004404 0.010581 0.000062 0.000000 -0.001451 0.000000
# 3 0.000578 0.000062 0.011241 0.000000 0.001911 0.000000
# 4 0.000000 0.000000 0.000000 -0.262415 0.000000 -0.235316
# 5 0.005608 -0.001451 0.001911 0.000000 0.028103 0.000000
# 6 0.000000 0.000000 0.000000 -0.235316 0.000000 -0.166922
#
#
# Mechanical properties :
#
#
# Convention : Reuss Voigt Hill
#
# Bulk Modulus (GPa) = 15.68124 21.41454 18.54789
# Shear Modulus (GPa) = -14.86408 31.30311 8.21952
#
# Velocity S-wave (km/s) = -2.34916 3.40908 1.74689
# Velocity P-wave (km/s) = 1.23941 4.84213 3.30984
#
# Compressibility (1/GPa) = 0.06377048
#
# Stress axis : x y z
#
# Youngs Moduli (GPa) = 31.38643 94.50480 88.96271
#
# Poissons Ratio (x) = -0.41618 -0.05139
# Poissons Ratio (y) = -0.13822 -0.00554
# Poissons Ratio (z) = -0.01813 -0.00588
#
# Static dielectric constant tensor:
#      x y z
#    x 5.292240 0.000000 -0.986470 
#    y 0.000000 5.877940 0.000000 
#    z -0.986470 0.000000 6.375850 
# 
# 
# High freq. dielectric constant tensor:
#      x y z
#    x 2.075300 0.000000 -0.016010 
#    y 0.000000 2.082270 0.000000 
#    z -0.016010 0.000000 2.096500 
# 
# From -- ./inp_files/124757.got.cif
#   From: 2010.06.25/outbox.cif.g09.slc.cpg/sg15_63_cif.got.tgz:124757.got - 2010.06.28 07:06:18.
