data_PCOD8145911
_publ_section_title
;
Structure prediction by ZEFSAII (Michael W. Deem and Ramdas Pophale) SiO2 
 PCOD8145911
Probable space group: C 2/C
;
_chemical_formula_sum "Si O2"
_cell_formula_units_Z 56
_cell_length_a 25.456378
_cell_length_b 17.109417
_cell_length_c 8.856324
_cell_angle_alpha 90.000000
_cell_angle_beta 136.597510
_cell_angle_gamma 90.000000
_cell_volume 2650.436056
_symmetry_space_group_name_H-M "C 2/C"
_symmetry_group_IT_number 15
_symmetry_cell_setting 'monoclinic'
loop_
_space_group_symop_operation_xyz
x,y,z
-x,y,1/2-z
-x,-y,-z
x,-y,1/2+z
1/2+x,1/2+y,z
1/2-x,1/2+y,1/2-z
1/2-x,1/2-y,-z
1/2+x,1/2-y,1/2+z
loop_
_atom_site_type_symbol
_atom_site_label
_atom_site_fract_x
_atom_site_fract_y
_atom_site_fract_z
Si Si1 0.668734 0.564995 0.029650
Si Si2 0.887206 0.227089 0.614428
Si Si3 0.541630 0.867802 0.183906
Si Si4 0.948263 0.790773 0.921468
Si Si5 0.080850 0.039959 0.138588
Si Si6 0.609091 0.896805 0.780179
Si Si7 0.338507 0.034251 0.429219
O O1 0.597893 0.551010 0.996498
O O2 0.748399 0.539663 0.270015
O O3 0.673513 0.656441 0.989999
O O4 0.650636 0.510240 0.849738
O O5 0.899909 0.240473 0.463049
O O6 0.859020 0.308297 0.631291
O O7 0.963924 0.196040 0.852458
O O8 0.500000 0.891086 0.250000
O O9 0.560536 0.775846 0.223193
O O10 0.620877 0.915109 0.352843
O O11 0.484173 0.892212 0.927076
O O12 0.918089 0.872358 0.789135
O O13 0.000000 0.000000 0.000000
O O14 0.644541 0.935742 0.704300
O O15 0.632410 0.945751 0.978055
#
# Coordination Sequence:
#
# PCOD8145911 Si02
#       7
#     8   8   8   8   8   8   8
#     4  11  23  40  60  90 126 159 197 250 311 364
#     4   9  19  38  60  85 117 158 199 245 312 359
#     4   9  20  38  59  87 116 156 206 252 292 353
#     4   9  18  36  61  87 114 151 204 251 295 353
#     4  11  21  39  64  90 116 160 203 246 297 363
#     4  10  22  40  63  85 117 164 206 248 299 362
#     4  11  23  40  58  89 126 154 204 252 304 359
#
# _framework density 21.128599000000001
#
# number of rings (size 3 to 8) (size 9 to 14) (size 15 to 20)
#    0.000    2.000    1.429    1.714    2.000    1.714 
#   10.286    1.429    0.000    0.000    0.000    0.000 
#    0.000    0.000    0.000    0.000    0.000    0.000 
#
# Total GULP energy -347093.683013 kJ/mol
# GULP energy per Si atom -12396.202965 kJ/mol
# Density = 2.108051 g / cm^3
# Si number density = 21.128599 Si / 1000 Ang^3
#
#
#
# Elastic Constant Matrix: (Units=GPa)
#
#
# Indices 1 2 3 4 5 6 
#
# 1 52.3861 37.8533 20.6169 0.0000 1.7205 0.0000
# 2 37.8533 178.4581 67.9925 0.0000 0.5737 0.0000
# 3 20.6169 67.9925 94.9966 0.0000 12.7342 0.0000
# 4 0.0000 0.0000 0.0000 27.1899 0.0000 -9.8993
# 5 1.7205 0.5737 12.7342 0.0000 21.8921 0.0000
# 6 0.0000 0.0000 0.0000 -9.8993 0.0000 26.9490
#
#
#
# Elastic Compliance Matrix: (Units=1/GPa)
#
#
# Indices 1 2 3 4 5 6 
#
# 1 0.022836 -0.004100 -0.001947 0.000000 -0.000555 0.000000
# 2 -0.004100 0.008661 -0.005772 0.000000 0.003453 0.000000
# 3 -0.001947 -0.005772 0.016312 0.000000 -0.009184 0.000000
# 4 0.000000 0.000000 0.000000 0.042456 0.000000 0.015596
# 5 -0.000555 0.003453 -0.009184 0.000000 0.050974 0.000000
# 6 0.000000 0.000000 0.000000 0.015596 0.000000 0.042836
#
#
# Mechanical properties :
#
#
# Convention : Reuss Voigt Hill
#
# Bulk Modulus (GPa) = 41.37306 64.30736 52.84021
# Shear Modulus (GPa) = 23.17266 28.49808 25.83537
#
# Velocity S-wave (km/s) = 3.31531 3.67657 3.50060
# Velocity P-wave (km/s) = 5.85483 6.96600 6.43445
#
# Compressibility (1/GPa) = 0.02417032
#
# Stress axis : x y z
#
# Youngs Moduli (GPa) = 43.78994 115.45472 61.30542
#
# Poissons Ratio (x) = 0.47339 0.11936
# Poissons Ratio (y) = 0.17955 0.35387
# Poissons Ratio (z) = 0.08526 0.66643
#
# Static dielectric constant tensor:
#      x y z
#    x 3.460680 0.000000 -0.003040 
#    y 0.000000 4.042660 0.000000 
#    z -0.003040 0.000000 3.771220 
# 
# 
# High freq. dielectric constant tensor:
#      x y z
#    x 1.801320 0.000000 -0.003080 
#    y 0.000000 1.845040 0.000000 
#    z -0.003080 0.000000 1.812490 
# 
# From -- ./inp_files/62684.got.cif
#   From: 2010.06.25/outbox.cif.g09.slc.cpg/sg15_32_cif.got.tgz:62684.got - 2010.06.28 07:06:18.
