data_PCOD8145674
_publ_section_title
;
Structure prediction by ZEFSAII (Michael W. Deem and Ramdas Pophale) SiO2 
 PCOD8145674
Probable space group: C 2/C
;
_chemical_formula_sum "Si O2"
_cell_formula_units_Z 44
_cell_length_a 6.697573
_cell_length_b 22.392304
_cell_length_c 17.147076
_cell_angle_alpha 90.000000
_cell_angle_beta 56.404377
_cell_angle_gamma 90.000000
_cell_volume 2142.063241
_symmetry_space_group_name_H-M "C 2/C"
_symmetry_group_IT_number 15
_symmetry_cell_setting 'monoclinic'
loop_
_space_group_symop_operation_xyz
x,y,z
-x,y,1/2-z
-x,-y,-z
x,-y,1/2+z
1/2+x,1/2+y,z
1/2-x,1/2+y,1/2-z
1/2-x,1/2-y,-z
1/2+x,1/2-y,1/2+z
loop_
_atom_site_type_symbol
_atom_site_label
_atom_site_fract_x
_atom_site_fract_y
_atom_site_fract_z
Si Si1 0.379436 0.626339 0.987096
Si Si2 0.536806 0.697452 0.100414
Si Si3 0.483857 0.054255 0.163710
Si Si4 0.542944 0.819871 0.438767
Si Si5 0.612010 0.082274 0.645889
Si Si6 0.000000 0.884955 0.750000
O O1 0.471600 0.672435 0.030390
O O2 0.179700 0.584129 0.066750
O O3 0.279293 0.666172 0.937630
O O4 0.599079 0.585137 0.910037
O O5 0.422401 0.764117 0.128644
O O6 0.432035 0.657194 0.192015
O O7 0.826280 0.698308 0.044390
O O8 0.500000 0.075580 0.250000
O O9 0.225499 0.072290 0.184532
O O10 0.520023 0.984009 0.149462
O O11 0.482685 0.879270 0.404966
O O12 0.500000 0.106971 0.750000
#
# Coordination Sequence:
#
# PCOD8145674 Si02
#       6
#     8   8   8   8   8   4
#     4  11  21  42  65  93 125 167 213 259 331 376
#     4  10  22  39  64  98 127 164 210 265 312 393
#     4  11  23  41  64  94 129 164 216 269 314 389
#     4  10  22  41  64  92 131 165 208 262 326 380
#     4  10  25  42  61  91 126 168 217 268 317 379
#     4  12  22  40  68  94 130 170 216 262 332 370
#
# _framework density 20.540944
#
# number of rings (size 3 to 8) (size 9 to 14) (size 15 to 20)
#    0.000    1.455    3.636    1.091    1.273    4.364 
#    0.000    1.818    0.000    0.000    0.000    0.000 
#    0.000    0.000    0.000    0.000    0.000    0.000 
#
# Total GULP energy -272845.536221 kJ/mol
# GULP energy per Si atom -12402.069828 kJ/mol
# Density = 2.049419 g / cm^3
# Si number density = 20.540944 Si / 1000 Ang^3
#
#
#
# Elastic Constant Matrix: (Units=GPa)
#
#
# Indices 1 2 3 4 5 6 
#
# 1 129.4041 60.7602 51.6266 0.0000 -8.2967 0.0000
# 2 60.7602 121.1601 44.4859 0.0000 -5.3342 0.0000
# 3 51.6266 44.4859 98.7251 0.0000 -19.1504 0.0000
# 4 0.0000 0.0000 0.0000 27.4051 0.0000 0.0092
# 5 -8.2967 -5.3342 -19.1504 0.0000 30.1711 0.0000
# 6 0.0000 0.0000 0.0000 0.0092 0.0000 29.7136
#
#
#
# Elastic Compliance Matrix: (Units=1/GPa)
#
#
# Indices 1 2 3 4 5 6 
#
# 1 0.011300 -0.004184 -0.004065 0.000000 -0.000213 0.000000
# 2 -0.004184 0.011479 -0.003209 0.000000 -0.001158 0.000000
# 3 -0.004065 -0.003209 0.015252 0.000000 0.007996 0.000000
# 4 0.000000 0.000000 0.000000 0.036490 0.000000 -0.000011
# 5 -0.000213 -0.001158 0.007996 0.000000 0.037956 0.000000
# 6 0.000000 0.000000 0.000000 -0.000011 0.000000 0.033655
#
#
# Mechanical properties :
#
#
# Convention : Reuss Voigt Hill
#
# Bulk Modulus (GPa) = 66.16064 73.67054 69.91559
# Shear Modulus (GPa) = 28.72127 30.28572 29.50350
#
# Velocity S-wave (km/s) = 3.74337 3.84397 3.79400
# Velocity P-wave (km/s) = 7.13882 7.45953 7.30094
#
# Compressibility (1/GPa) = 0.01511473
#
# Stress axis : x y z
#
# Youngs Moduli (GPa) = 88.49225 87.11574 65.56444
#
# Poissons Ratio (x) = 0.36447 0.26655
# Poissons Ratio (y) = 0.37022 0.21042
# Poissons Ratio (z) = 0.35976 0.27958
#
# Static dielectric constant tensor:
#      x y z
#    x 3.861280 0.000000 -0.138550 
#    y 0.000000 3.736320 0.000000 
#    z -0.138550 0.000000 3.805140 
# 
# 
# High freq. dielectric constant tensor:
#      x y z
#    x 1.807320 0.000000 -0.002530 
#    y 0.000000 1.812390 0.000000 
#    z -0.002530 0.000000 1.794910 
# 
# From -- ./inp_files/129334.got.cif
#   From: 2010.06.25/outbox.cif.g09.slc.cpg/sg15_65_cif.got.tgz:129334.got - 2010.06.28 07:06:18.
