data_PCOD8145602
_publ_section_title
;
Structure prediction by ZEFSAII (Michael W. Deem and Ramdas Pophale) SiO2 
 PCOD8145602
Probable space group: C 2/C
;
_chemical_formula_sum "Si O2"
_cell_formula_units_Z 40
_cell_length_a 20.046366
_cell_length_b 18.055611
_cell_length_c 5.398854
_cell_angle_alpha 90.000000
_cell_angle_beta 74.580414
_cell_angle_gamma 90.000000
_cell_volume 1883.772795
_symmetry_space_group_name_H-M "C 2/C"
_symmetry_group_IT_number 15
_symmetry_cell_setting 'monoclinic'
loop_
_space_group_symop_operation_xyz
x,y,z
-x,y,1/2-z
-x,-y,-z
x,-y,1/2+z
1/2+x,1/2+y,z
1/2-x,1/2+y,1/2-z
1/2-x,1/2-y,-z
1/2+x,1/2-y,1/2+z
loop_
_atom_site_type_symbol
_atom_site_label
_atom_site_fract_x
_atom_site_fract_y
_atom_site_fract_z
Si Si1 0.097000 0.325516 0.784572
Si Si2 0.578743 0.531999 0.700504
Si Si3 0.500000 0.951589 0.750000
Si Si4 0.890224 0.179503 0.026410
Si Si5 0.255379 0.203471 0.242736
Si Si6 0.000000 0.760272 0.750000
O O1 0.110945 0.263430 0.566778
O O2 0.171808 0.341654 0.839307
O O3 0.069016 0.400576 0.686401
O O4 0.037854 0.295100 0.024367
O O5 0.500000 0.505355 0.750000
O O6 0.614742 0.502850 0.408870
O O7 0.584928 0.621347 0.706366
O O8 0.500000 0.000000 0.500000
O O9 0.813837 0.152901 0.191558
O O10 0.944896 0.181439 0.194865
O O11 0.250000 0.250000 0.500000
O O12 0.250000 0.250000 0.000000
#
# Coordination Sequence:
#
# PCOD8145602 Si02
#       6
#     8   8   4   8   8   4
#     4  11  23  41  65  97 127 173 220 282 337 396
#     4  10  23  38  56  88 131 167 204 259 318 382
#     4  12  27  44  66  99 134 170 222 286 343 402
#     4  11  23  38  65  97 126 173 224 273 326 403
#     4  10  22  39  62  95 132 162 216 279 335 386
#     4  12  19  34  70  93 128 156 228 266 325 380
#
# _framework density 21.233982000000001
#
# number of rings (size 3 to 8) (size 9 to 14) (size 15 to 20)
#    0.000    1.200    4.000    1.800    7.000    0.000 
#    0.000    2.000    0.000    0.000    0.000    0.000 
#    0.000    0.000    0.000    0.000    0.000    0.000 
#
# Total GULP energy -247800.079197 kJ/mol
# GULP energy per Si atom -12390.003960 kJ/mol
# Density = 2.118565 g / cm^3
# Si number density = 21.233982 Si / 1000 Ang^3
#
#
#
# Elastic Constant Matrix: (Units=GPa)
#
#
# Indices 1 2 3 4 5 6 
#
# 1 177.2556 40.5735 36.6849 0.0000 1.4242 0.0000
# 2 40.5735 103.1135 33.2089 0.0000 11.1520 0.0000
# 3 36.6849 33.2089 116.6938 0.0000 17.6446 0.0000
# 4 0.0000 0.0000 0.0000 37.2849 0.0000 3.6036
# 5 1.4242 11.1520 17.6446 0.0000 26.0835 0.0000
# 6 0.0000 0.0000 0.0000 3.6036 0.0000 15.8184
#
#
#
# Elastic Compliance Matrix: (Units=1/GPa)
#
#
# Indices 1 2 3 4 5 6 
#
# 1 0.006476 -0.002196 -0.001670 0.000000 0.001715 0.000000
# 2 -0.002196 0.011607 -0.002095 0.000000 -0.003426 0.000000
# 3 -0.001670 -0.002095 0.010629 0.000000 -0.006203 0.000000
# 4 0.000000 0.000000 0.000000 0.027424 0.000000 -0.006248
# 5 0.001715 -0.003426 -0.006203 0.000000 0.043905 0.000000
# 6 0.000000 0.000000 0.000000 -0.006248 0.000000 0.064641
#
#
# Mechanical properties :
#
#
# Convention : Reuss Voigt Hill
#
# Bulk Modulus (GPa) = 59.55980 68.66638 64.11309
# Shear Modulus (GPa) = 27.44218 34.94374 31.19296
#
# Velocity S-wave (km/s) = 3.59886 4.06106 3.83693
# Velocity P-wave (km/s) = 6.73641 7.37549 7.06318
#
# Compressibility (1/GPa) = 0.01678985
#
# Stress axis : x y z
#
# Youngs Moduli (GPa) = 154.41405 86.15304 94.08534
#
# Poissons Ratio (x) = 0.18917 0.15715
# Poissons Ratio (y) = 0.33906 0.19710
# Poissons Ratio (z) = 0.25792 0.18049
#
# Static dielectric constant tensor:
#      x y z
#    x 4.795590 0.000000 -0.052520 
#    y 0.000000 3.580640 0.000000 
#    z -0.052520 0.000000 4.063890 
# 
# 
# High freq. dielectric constant tensor:
#      x y z
#    x 1.839990 0.000000 0.007180 
#    y 0.000000 1.798480 0.000000 
#    z 0.007180 0.000000 1.840980 
# 
# From -- ./inp_files/9831.got.cif
#   From: 2010.06.25/outbox.cif.g09.slc.cpg/sg15_5_cif.got.tgz:9831.got - 2010.06.28 07:06:18.
