data_PCOD8145422
_publ_section_title
;
Structure prediction by ZEFSAII (Michael W. Deem and Ramdas Pophale) SiO2 
 PCOD8145422
Probable space group: C 2/C
;
_chemical_formula_sum "Si O2"
_cell_formula_units_Z 36
_cell_length_a 4.982797
_cell_length_b 21.251832
_cell_length_c 15.450884
_cell_angle_alpha 90.000000
_cell_angle_beta 82.809329
_cell_angle_gamma 90.000000
_cell_volume 1623.281027
_symmetry_space_group_name_H-M "C 2/C"
_symmetry_group_IT_number 15
_symmetry_cell_setting 'monoclinic'
loop_
_space_group_symop_operation_xyz
x,y,z
-x,y,1/2-z
-x,-y,-z
x,-y,1/2+z
1/2+x,1/2+y,z
1/2-x,1/2+y,1/2-z
1/2-x,1/2-y,-z
1/2+x,1/2-y,1/2+z
loop_
_atom_site_type_symbol
_atom_site_label
_atom_site_fract_x
_atom_site_fract_y
_atom_site_fract_z
Si Si1 0.918471 0.927877 0.012197
Si Si2 0.000000 0.502558 0.250000
Si Si3 0.500000 0.214497 0.250000
Si Si4 0.337996 0.388098 0.669385
Si Si5 0.868536 0.403323 0.122480
Si Si6 0.000000 0.701963 0.750000
O O1 0.090042 0.895413 0.081885
O O2 0.603277 0.921618 0.045780
O O3 0.967800 0.890277 0.921106
O O4 0.000000 0.000000 0.000000
O O5 0.192838 0.544428 0.182328
O O6 0.177366 0.458871 0.306019
O O7 0.378543 0.168876 0.330510
O O8 0.736717 0.256473 0.282406
O O9 0.500000 0.373597 0.750000
O O10 0.936610 0.338608 0.167567
#
# Coordination Sequence:
#
# PCOD8145422 Si02
#       6
#     8   4   4   8   8   4
#     4  12  24  41  66 104 142 163 210 271 338 396
#     4  10  22  38  66  98 130 174 210 262 334 404
#     4  11  24  45  70  91 122 187 224 276 308 385
#     4  11  24  41  69  95 133 171 221 265 335 389
#     4  11  25  42  67 100 132 174 214 268 329 391
#     4  11  24  49  70  89 134 177 232 264 320 381
#
# _framework density 22.177306999999999
#
# number of rings (size 3 to 8) (size 9 to 14) (size 15 to 20)
#    0.000    0.889    3.333    3.333    6.222    1.778 
#    0.000    6.667    0.000    0.000    0.000    0.000 
#    0.000    0.000    0.000    0.000    0.000    0.000 
#
# Total GULP energy -223277.115748 kJ/mol
# GULP energy per Si atom -12404.284208 kJ/mol
# Density = 2.212683 g / cm^3
# Si number density = 22.177307 Si / 1000 Ang^3
#
#
#
# Elastic Constant Matrix: (Units=GPa)
#
#
# Indices 1 2 3 4 5 6 
#
# 1 73.8257 22.5243 5.3348 0.0000 10.4810 0.0000
# 2 22.5243 120.3296 27.8197 0.0000 0.8094 0.0000
# 3 5.3348 27.8197 95.9559 0.0000 8.9194 0.0000
# 4 0.0000 0.0000 0.0000 11.8283 0.0000 -3.9811
# 5 10.4810 0.8094 8.9194 0.0000 40.2334 0.0000
# 6 0.0000 0.0000 0.0000 -3.9811 0.0000 31.6822
#
#
#
# Elastic Compliance Matrix: (Units=1/GPa)
#
#
# Indices 1 2 3 4 5 6 
#
# 1 0.014946 -0.002855 0.000361 0.000000 -0.003916 0.000000
# 2 -0.002855 0.009459 -0.002691 0.000000 0.001150 0.000000
# 3 0.000361 -0.002691 0.011421 0.000000 -0.002572 0.000000
# 4 0.000000 0.000000 0.000000 0.088277 0.000000 0.011093
# 5 -0.003916 0.001150 -0.002572 0.000000 0.026422 0.000000
# 6 0.000000 0.000000 0.000000 0.011093 0.000000 0.032957
#
#
# Mechanical properties :
#
#
# Convention : Reuss Voigt Hill
#
# Bulk Modulus (GPa) = 39.28245 44.60763 41.94504
# Shear Modulus (GPa) = 24.71121 32.37761 28.54441
#
# Velocity S-wave (km/s) = 3.34167 3.82507 3.59151
# Velocity P-wave (km/s) = 5.71317 6.29809 6.01275
#
# Compressibility (1/GPa) = 0.02545666
#
# Stress axis : x y z
#
# Youngs Moduli (GPa) = 66.90601 105.71696 87.56179
#
# Poissons Ratio (x) = 0.30180 -0.03159
# Poissons Ratio (y) = 0.19101 0.23559
# Poissons Ratio (z) = -0.02414 0.28444
#
# Static dielectric constant tensor:
#      x y z
#    x 4.170650 0.000000 -0.104380 
#    y 0.000000 4.122950 0.000000 
#    z -0.104380 0.000000 3.930590 
# 
# 
# High freq. dielectric constant tensor:
#      x y z
#    x 1.883210 0.000000 -0.006380 
#    y 0.000000 1.874350 0.000000 
#    z -0.006380 0.000000 1.860390 
# 
# From -- ./inp_files/128708.got.cif
#   From: 2010.06.25/outbox.cif.g09.slc.cpg/sg15_65_cif.got.tgz:128708.got - 2010.06.28 07:06:18.
