data_PCOD8145853
_publ_section_title
;
Structure prediction by ZEFSAII (Michael W. Deem and Ramdas Pophale) SiO2 
 PCOD8145853
Probable space group: C 2/C
;
_chemical_formula_sum "Si O2"
_cell_formula_units_Z 56
_cell_length_a 23.139253
_cell_length_b 14.688586
_cell_length_c 9.036080
_cell_angle_alpha 90.000000
_cell_angle_beta 59.721282
_cell_angle_gamma 90.000000
_cell_volume 2652.243679
_symmetry_space_group_name_H-M "C 2/C"
_symmetry_group_IT_number 15
_symmetry_cell_setting 'monoclinic'
loop_
_space_group_symop_operation_xyz
x,y,z
-x,y,1/2-z
-x,-y,-z
x,-y,1/2+z
1/2+x,1/2+y,z
1/2-x,1/2+y,1/2-z
1/2-x,1/2-y,-z
1/2+x,1/2-y,1/2+z
loop_
_atom_site_type_symbol
_atom_site_label
_atom_site_fract_x
_atom_site_fract_y
_atom_site_fract_z
Si Si1 0.254239 0.087946 0.408201
Si Si2 0.917149 0.119375 0.161372
Si Si3 0.034858 0.802423 0.348724
Si Si4 0.665569 0.751841 0.837236
Si Si5 0.175388 0.728414 0.643193
Si Si6 0.729424 0.095251 0.788049
Si Si7 0.895082 0.039070 0.888968
O O1 0.276897 0.181202 0.300311
O O2 0.294900 0.082912 0.511043
O O3 0.176731 0.083551 0.555593
O O4 0.264075 0.004911 0.285118
O O5 0.854805 0.187207 0.228748
O O6 0.909499 0.066136 0.326605
O O7 0.908693 0.043261 0.046015
O O8 0.983952 0.180553 0.052244
O O9 0.100166 0.747380 0.317300
O O10 0.052489 0.902473 0.269762
O O11 0.000000 0.752291 0.250000
O O12 0.700727 0.652601 0.807921
O O13 0.638441 0.787385 0.032817
O O14 0.250000 0.750000 0.500000
O O15 0.172951 0.643662 0.759431
#
# Coordination Sequence:
#
# PCOD8145853 Si02
#       7
#     8   8   8   8   8   8   8
#     4  12  23  38  70  95 135 172 219 279 340 394
#     4  11  24  39  61  91 137 176 219 269 333 397
#     4  10  24  40  60  92 133 183 225 261 320 398
#     4  11  23  43  65  96 136 178 227 272 334 394
#     4  10  22  40  61  89 129 167 220 278 335 388
#     4  11  23  40  62 101 129 169 219 280 340 392
#     4  11  21  38  58  91 131 172 217 265 326 400
#
# _framework density 21.114198999999999
#
# number of rings (size 3 to 8) (size 9 to 14) (size 15 to 20)
#    0.000    1.143    1.429    6.000    6.000    0.571 
#    0.000    0.000    0.000    0.857    0.000    0.000 
#    0.000    0.000    0.000    0.000    0.000    0.000 
#
# Total GULP energy -346978.561260 kJ/mol
# GULP energy per Si atom -12392.091474 kJ/mol
# Density = 2.106614 g / cm^3
# Si number density = 21.114199 Si / 1000 Ang^3
#
#
#
# Elastic Constant Matrix: (Units=GPa)
#
#
# Indices 1 2 3 4 5 6 
#
# 1 87.0536 28.5083 20.5311 0.0000 9.6276 0.0000
# 2 28.5083 66.4186 27.7025 0.0000 -6.2898 0.0000
# 3 20.5311 27.7025 92.3798 0.0000 3.4638 0.0000
# 4 0.0000 0.0000 0.0000 30.2777 0.0000 11.1202
# 5 9.6276 -6.2898 3.4638 0.0000 42.1874 0.0000
# 6 0.0000 0.0000 0.0000 11.1202 0.0000 29.1737
#
#
#
# Elastic Compliance Matrix: (Units=1/GPa)
#
#
# Indices 1 2 3 4 5 6 
#
# 1 0.014169 -0.005957 -0.001212 0.000000 -0.004022 0.000000
# 2 -0.005957 0.020099 -0.004882 0.000000 0.004757 0.000000
# 3 -0.001212 -0.004882 0.012614 0.000000 -0.001487 0.000000
# 4 0.000000 0.000000 0.000000 0.038404 0.000000 -0.014639
# 5 -0.004022 0.004757 -0.001487 0.000000 0.025453 0.000000
# 6 0.000000 0.000000 0.000000 -0.014639 0.000000 0.039857
#
#
# Mechanical properties :
#
#
# Convention : Reuss Voigt Hill
#
# Bulk Modulus (GPa) = 43.89637 44.37064 44.13350
# Shear Modulus (GPa) = 27.42873 31.60178 29.51526
#
# Velocity S-wave (km/s) = 3.60817 3.87293 3.74289
# Velocity P-wave (km/s) = 6.18010 6.40778 6.29497
#
# Compressibility (1/GPa) = 0.02278093
#
# Stress axis : x y z
#
# Youngs Moduli (GPa) = 70.57895 49.75253 79.27768
#
# Poissons Ratio (x) = 0.29637 0.09607
# Poissons Ratio (y) = 0.42043 0.38702
# Poissons Ratio (z) = 0.08553 0.24288
#
# Static dielectric constant tensor:
#      x y z
#    x 4.352240 0.000000 0.583300 
#    y 0.000000 3.532470 0.000000 
#    z 0.583300 0.000000 4.293810 
# 
# 
# High freq. dielectric constant tensor:
#      x y z
#    x 1.819180 0.000000 0.025530 
#    y 0.000000 1.794640 0.000000 
#    z 0.025530 0.000000 1.841700 
# 
# From -- ./inp_files/61812.got.cif
#   From: 2010.06.25/outbox.cif.g09.slc.cpg/sg15_31_cif.got.tgz:61812.got - 2010.06.28 07:06:18.
