data_PCOD8145854
_publ_section_title
;
Structure prediction by ZEFSAII (Michael W. Deem and Ramdas Pophale) SiO2 
 PCOD8145854
Probable space group: C 2/C
;
_chemical_formula_sum "Si O2"
_cell_formula_units_Z 40
_cell_length_a 31.673405
_cell_length_b 5.313720
_cell_length_c 10.526564
_cell_angle_alpha 90.000000
_cell_angle_beta 78.364935
_cell_angle_gamma 90.000000
_cell_volume 1735.254645
_symmetry_space_group_name_H-M "C 2/C"
_symmetry_group_IT_number 15
_symmetry_cell_setting 'monoclinic'
loop_
_space_group_symop_operation_xyz
x,y,z
-x,y,1/2-z
-x,-y,-z
x,-y,1/2+z
1/2+x,1/2+y,z
1/2-x,1/2+y,1/2-z
1/2-x,1/2-y,-z
1/2+x,1/2-y,1/2+z
loop_
_atom_site_type_symbol
_atom_site_label
_atom_site_fract_x
_atom_site_fract_y
_atom_site_fract_z
Si Si1 0.574874 0.948424 0.028410
Si Si2 0.956342 0.060536 0.852977
Si Si3 0.386550 0.167858 0.261761
Si Si4 0.721240 0.758812 0.395113
Si Si5 0.197441 0.241246 0.818673
O O1 0.549065 0.687340 0.058157
O O2 0.598531 0.957258 0.879413
O O3 0.542383 0.188910 0.057817
O O4 0.609387 0.968790 0.124380
O O5 0.916554 0.090946 0.777366
O O6 0.000000 0.037435 0.750000
O O7 0.336827 0.253501 0.276486
O O8 0.750000 0.750000 0.500000
O O9 0.753123 0.763380 0.255442
O O10 0.690062 0.513477 0.405526
O O11 0.691647 0.009586 0.409690
#
# Coordination Sequence:
#
# PCOD8145854 Si02
#       5
#     8   8   8   8   8
#     4  10  25  41  66  95 129 171 217 268 324 386
#     4  10  24  43  66  98 130 170 218 271 327 388
#     4  10  26  42  67  97 133 171 223 263 333 383
#     4  10  22  40  61  90 123 164 207 257 314 371
#     4  10  23  38  62  90 123 164 209 257 314 374
#
# _framework density 23.051369000000001
#
# number of rings (size 3 to 8) (size 9 to 14) (size 15 to 20)
#    1.200    0.800    0.000    1.200    8.400    3.200 
#    0.000    0.000    0.000    0.000    0.000    0.000 
#    0.000    0.000    0.000    0.000    0.000    0.000 
#
# Total GULP energy -247836.428947 kJ/mol
# GULP energy per Si atom -12391.821447 kJ/mol
# Density = 2.299890 g / cm^3
# Si number density = 23.051369 Si / 1000 Ang^3
#
#
#
# Elastic Constant Matrix: (Units=GPa)
#
#
# Indices 1 2 3 4 5 6 
#
# 1 54.5284 12.9129 -18.3124 0.0000 0.3222 0.0000
# 2 12.9129 186.3796 17.8202 0.0000 8.0699 0.0000
# 3 -18.3124 17.8202 84.1855 0.0000 3.6554 0.0000
# 4 0.0000 0.0000 0.0000 15.2354 0.0000 6.5180
# 5 0.3222 8.0699 3.6554 0.0000 28.0232 0.0000
# 6 0.0000 0.0000 0.0000 6.5180 0.0000 17.1761
#
#
#
# Elastic Compliance Matrix: (Units=1/GPa)
#
#
# Indices 1 2 3 4 5 6 
#
# 1 0.020411 -0.001863 0.004849 0.000000 -0.000331 0.000000
# 2 -0.001863 0.005704 -0.001551 0.000000 -0.001419 0.000000
# 3 0.004849 -0.001551 0.013320 0.000000 -0.001347 0.000000
# 4 0.000000 0.000000 0.000000 0.078358 0.000000 -0.029735
# 5 -0.000331 -0.001419 -0.001347 0.000000 0.036273 0.000000
# 6 0.000000 0.000000 0.000000 -0.029735 0.000000 0.069504
#
#
# Mechanical properties :
#
#
# Convention : Reuss Voigt Hill
#
# Bulk Modulus (GPa) = 23.63902 38.88167 31.26034
# Shear Modulus (GPa) = 21.29449 32.93181 27.11315
#
# Velocity S-wave (km/s) = 3.04268 3.78382 3.43331
# Velocity P-wave (km/s) = 4.75616 5.99948 5.41363
#
# Compressibility (1/GPa) = 0.04230294
#
# Stress axis : x y z
#
# Youngs Moduli (GPa) = 48.99417 175.30813 75.07484
#
# Poissons Ratio (x) = 0.32667 -0.36401
# Poissons Ratio (y) = 0.09129 0.11645
# Poissons Ratio (z) = -0.23755 0.27194
#
# Static dielectric constant tensor:
#      x y z
#    x 3.998640 0.000000 -0.011930 
#    y 0.000000 4.471150 0.000000 
#    z -0.011930 0.000000 3.836830 
# 
# 
# High freq. dielectric constant tensor:
#      x y z
#    x 1.894830 0.000000 0.006280 
#    y 0.000000 1.918290 0.000000 
#    z 0.006280 0.000000 1.896930 
# 
# From -- ./inp_files/124792.got.cif
#   From: 2010.06.25/outbox.cif.g09.slc.cpg/sg15_63_cif.got.tgz:124792.got - 2010.06.28 07:06:18.
