data_PCOD8145673
_publ_section_title
;
Structure prediction by ZEFSAII (Michael W. Deem and Ramdas Pophale) SiO2 
 PCOD8145673
Probable space group: C 2/C
;
_chemical_formula_sum "Si O2"
_cell_formula_units_Z 60
_cell_length_a 24.451646
_cell_length_b 14.330890
_cell_length_c 15.179765
_cell_angle_alpha 90.000000
_cell_angle_beta 148.299966
_cell_angle_gamma 90.000000
_cell_volume 2795.091430
_symmetry_space_group_name_H-M "C 2/C"
_symmetry_group_IT_number 15
_symmetry_cell_setting 'monoclinic'
loop_
_space_group_symop_operation_xyz
x,y,z
-x,y,1/2-z
-x,-y,-z
x,-y,1/2+z
1/2+x,1/2+y,z
1/2-x,1/2+y,1/2-z
1/2-x,1/2-y,-z
1/2+x,1/2-y,1/2+z
loop_
_atom_site_type_symbol
_atom_site_label
_atom_site_fract_x
_atom_site_fract_y
_atom_site_fract_z
Si Si1 0.291172 0.699173 0.269917
Si Si2 0.005093 0.701467 0.484712
Si Si3 0.041512 0.449082 0.900358
Si Si4 0.500000 0.583150 0.750000
Si Si5 0.236121 0.128206 0.797857
Si Si6 0.151039 0.186526 0.847361
Si Si7 0.434980 0.836625 0.078724
Si Si8 0.419534 0.510606 0.468997
O O1 0.374245 0.767931 0.336926
O O2 0.252814 0.760847 0.302047
O O3 0.346866 0.602205 0.366762
O O4 0.188557 0.675216 0.070570
O O5 0.990866 0.600577 0.417099
O O6 0.947141 0.770342 0.338666
O O7 0.956018 0.711446 0.513751
O O8 0.021999 0.558848 0.876324
O O9 0.000000 0.406922 0.750000
O O10 0.162533 0.432538 0.073575
O O11 0.603430 0.645978 0.872760
O O12 0.485881 0.515951 0.648234
O O13 0.196299 0.109141 0.842882
O O14 0.150583 0.081829 0.616577
O O15 0.250000 0.250000 0.000000
O O16 0.500000 0.792933 0.250000
O O17 0.500000 0.500000 0.500000
#
# Coordination Sequence:
#
# PCOD8145673 Si02
#       8
#     8   8   8   4   8   8   8   8
#     4  11  23  45  71  97 137 181 234 287 346 417
#     4  11  23  41  67  97 138 175 220 294 352 398
#     4  10  22  39  64  97 131 171 224 280 341 410
#     4  12  26  42  68 106 134 182 230 286 352 426
#     4  11  22  43  68  99 135 183 217 285 350 399
#     4  12  24  38  67 105 136 172 231 285 356 412
#     4  11  24  44  66  95 133 185 236 278 340 420
#     4  12  24  47  69 100 145 181 233 289 353 416
#
# _framework density 21.466201999999999
#
# number of rings (size 3 to 8) (size 9 to 14) (size 15 to 20)
#    0.000    0.800    5.333    2.000    2.800    0.533 
#    1.200    5.333    0.000    0.000    0.000    0.000 
#    0.000    0.000    0.000    0.000    0.000    0.000 
#
# Total GULP energy -371683.244870 kJ/mol
# GULP energy per Si atom -12389.441496 kJ/mol
# Density = 2.141734 g / cm^3
# Si number density = 21.466202 Si / 1000 Ang^3
#
#
#
# Elastic Constant Matrix: (Units=GPa)
#
#
# Indices 1 2 3 4 5 6 
#
# 1 119.7310 26.2204 49.3010 0.0000 -4.6496 0.0000
# 2 26.2204 65.8886 16.1041 0.0000 -3.0691 0.0000
# 3 49.3010 16.1041 130.9552 0.0000 -1.5985 0.0000
# 4 0.0000 0.0000 0.0000 29.7609 0.0000 -3.9395
# 5 -4.6496 -3.0691 -1.5985 0.0000 31.7583 0.0000
# 6 0.0000 0.0000 0.0000 -3.9395 0.0000 21.9407
#
#
#
# Elastic Compliance Matrix: (Units=1/GPa)
#
#
# Indices 1 2 3 4 5 6 
#
# 1 0.010582 -0.003290 -0.003566 0.000000 0.001052 0.000000
# 2 -0.003290 0.016735 -0.000806 0.000000 0.001095 0.000000
# 3 -0.003566 -0.000806 0.009076 0.000000 -0.000143 0.000000
# 4 0.000000 0.000000 0.000000 0.034419 0.000000 0.006180
# 5 0.001052 0.001095 -0.000143 0.000000 0.031740 0.000000
# 6 0.000000 0.000000 0.000000 0.006180 0.000000 0.046687
#
#
# Mechanical properties :
#
#
# Convention : Reuss Voigt Hill
#
# Bulk Modulus (GPa) = 47.46644 55.53620 51.50132
# Shear Modulus (GPa) = 29.13974 31.68860 30.41417
#
# Velocity S-wave (km/s) = 3.68838 3.84631 3.76818
# Velocity P-wave (km/s) = 6.34816 6.75671 6.55562
#
# Compressibility (1/GPa) = 0.02106752
#
# Stress axis : x y z
#
# Youngs Moduli (GPa) = 94.50020 59.75669 110.17860
#
# Poissons Ratio (x) = 0.19663 0.39294
# Poissons Ratio (y) = 0.31095 0.08878
# Poissons Ratio (z) = 0.33702 0.04815
#
# Static dielectric constant tensor:
#      x y z
#    x 3.492700 0.000000 -0.248190 
#    y 0.000000 3.793200 0.000000 
#    z -0.248190 0.000000 3.985490 
# 
# 
# High freq. dielectric constant tensor:
#      x y z
#    x 1.843460 0.000000 0.018130 
#    y 0.000000 1.830620 0.000000 
#    z 0.018130 0.000000 1.848890 
# 
# From -- ./inp_files/178572.got.cif
#   From: 2010.06.25/outbox.cif.g09.slc.cpg/sg15_90_cif.got.tgz:178572.got - 2010.06.28 07:06:18.
