data_PCOD8145061
_publ_section_title
;
Structure prediction by ZEFSAII (Michael W. Deem and Ramdas Pophale) SiO2 
 PCOD8145061
Probable space group: C 2/C
;
_chemical_formula_sum "Si O2"
_cell_formula_units_Z 56
_cell_length_a 22.285906
_cell_length_b 15.097553
_cell_length_c 9.509411
_cell_angle_alpha 90.000000
_cell_angle_beta 123.016495
_cell_angle_gamma 90.000000
_cell_volume 2682.876348
_symmetry_space_group_name_H-M "C 2/C"
_symmetry_group_IT_number 15
_symmetry_cell_setting 'monoclinic'
loop_
_space_group_symop_operation_xyz
x,y,z
-x,y,1/2-z
-x,-y,-z
x,-y,1/2+z
1/2+x,1/2+y,z
1/2-x,1/2+y,1/2-z
1/2-x,1/2-y,-z
1/2+x,1/2-y,1/2+z
loop_
_atom_site_type_symbol
_atom_site_label
_atom_site_fract_x
_atom_site_fract_y
_atom_site_fract_z
Si Si1 0.756897 0.895806 0.975093
Si Si2 0.943276 0.484742 0.050611
Si Si3 0.714311 0.017390 0.144370
Si Si4 0.071619 0.287955 0.531454
Si Si5 0.362448 0.754740 0.603483
Si Si6 0.815650 0.692374 0.538733
Si Si7 0.073589 0.335340 0.092433
O O1 0.736401 0.971936 0.835541
O O2 0.695713 0.823327 0.915927
O O3 0.828202 0.841090 0.022613
O O4 0.768594 0.949138 0.136506
O O5 0.000000 0.473086 0.250000
O O6 0.864697 0.524525 0.993031
O O7 0.914461 0.393706 0.946620
O O8 0.966941 0.565982 0.974680
O O9 0.722493 0.115366 0.094008
O O10 0.085007 0.241347 0.697392
O O11 0.125698 0.252183 0.479533
O O12 0.985437 0.277109 0.396745
O O13 0.409117 0.790556 0.533427
O O14 0.750000 0.750000 0.500000
O O15 0.855155 0.653273 0.726453
#
# Coordination Sequence:
#
# PCOD8145061 Si02
#       7
#     8   8   8   8   8   8   8
#     4  11  23  37  58  83 119 156 202 249 288 348
#     4   9  18  31  49  77 113 152 187 218 270 355
#     4  11  21  39  55  84 118 159 198 242 294 353
#     4  10  22  37  54  83 121 157 202 236 290 363
#     4  11  22  37  57  85 120 155 202 245 295 341
#     4  11  23  36  56  86 121 155 200 244 289 352
#     4  11  21  35  58  83 118 165 191 240 296 349
#
# _framework density 20.873118999999999
#
# number of rings (size 3 to 8) (size 9 to 14) (size 15 to 20)
#    0.000    1.429    4.286    2.571    2.000    0.000 
#    0.000    6.429    0.000    0.000    0.000   18.000 
#    0.000    0.000    0.000    0.000    0.000    0.000 
#
# Total GULP energy -346931.258483 kJ/mol
# GULP energy per Si atom -12390.402089 kJ/mol
# Density = 2.082561 g / cm^3
# Si number density = 20.873119 Si / 1000 Ang^3
#
#
#
# Elastic Constant Matrix: (Units=GPa)
#
#
# Indices 1 2 3 4 5 6 
#
# 1 106.4906 26.3022 26.6645 0.0000 -0.9399 0.0000
# 2 26.3022 40.9754 24.7201 0.0000 5.1010 0.0000
# 3 26.6645 24.7201 93.8515 0.0000 -3.2425 0.0000
# 4 0.0000 0.0000 0.0000 22.9948 0.0000 -3.3426
# 5 -0.9399 5.1010 -3.2425 0.0000 30.6738 0.0000
# 6 0.0000 0.0000 0.0000 -3.3426 0.0000 33.1088
#
#
#
# Elastic Compliance Matrix: (Units=1/GPa)
#
#
# Indices 1 2 3 4 5 6 
#
# 1 0.011396 -0.006598 -0.001455 0.000000 0.001293 0.000000
# 2 -0.006598 0.033847 -0.007268 0.000000 -0.006599 0.000000
# 3 -0.001455 -0.007268 0.013071 0.000000 0.002546 0.000000
# 4 0.000000 0.000000 0.000000 0.044136 0.000000 0.004456
# 5 0.001293 -0.006599 0.002546 0.000000 0.034007 0.000000
# 6 0.000000 0.000000 0.000000 0.004456 0.000000 0.030653
#
#
# Mechanical properties :
#
#
# Convention : Reuss Voigt Hill
#
# Bulk Modulus (GPa) = 36.13993 44.07677 40.10835
# Shear Modulus (GPa) = 24.15726 28.26419 26.21073
#
# Velocity S-wave (km/s) = 3.40566 3.68380 3.54745
# Velocity P-wave (km/s) = 5.72856 6.26547 6.00302
#
# Compressibility (1/GPa) = 0.02767022
#
# Stress axis : x y z
#
# Youngs Moduli (GPa) = 87.75045 29.54489 76.50525
#
# Poissons Ratio (x) = 0.19494 0.11133
# Poissons Ratio (y) = 0.57899 0.55608
# Poissons Ratio (z) = 0.12769 0.21475
#
# Static dielectric constant tensor:
#      x y z
#    x 4.295070 0.000000 -0.194980 
#    y 0.000000 3.578710 0.000000 
#    z -0.194980 0.000000 3.805490 
# 
# 
# High freq. dielectric constant tensor:
#      x y z
#    x 1.833380 0.000000 -0.016060 
#    y 0.000000 1.771760 0.000000 
#    z -0.016060 0.000000 1.813810 
# 
# From -- ./inp_files/62013.got.cif
#   From: 2010.06.25/outbox.cif.g09.slc.cpg/sg15_32_cif.got.tgz:62013.got - 2010.06.28 07:06:18.
