data_PCOD8145428
_publ_section_title
;
Structure prediction by ZEFSAII (Michael W. Deem and Ramdas Pophale) SiO2 
 PCOD8145428
Probable space group: C 2/C
;
_chemical_formula_sum "Si O2"
_cell_formula_units_Z 48
_cell_length_a 16.903324
_cell_length_b 9.923662
_cell_length_c 27.028736
_cell_angle_alpha 90.000000
_cell_angle_beta 28.686699
_cell_angle_gamma 90.000000
_cell_volume 2176.351407
_symmetry_space_group_name_H-M "C 2/C"
_symmetry_group_IT_number 15
_symmetry_cell_setting 'monoclinic'
loop_
_space_group_symop_operation_xyz
x,y,z
-x,y,1/2-z
-x,-y,-z
x,-y,1/2+z
1/2+x,1/2+y,z
1/2-x,1/2+y,1/2-z
1/2-x,1/2-y,-z
1/2+x,1/2-y,1/2+z
loop_
_atom_site_type_symbol
_atom_site_label
_atom_site_fract_x
_atom_site_fract_y
_atom_site_fract_z
Si Si1 0.771617 0.370040 0.638091
Si Si2 0.520241 0.286780 0.064072
Si Si3 0.390711 0.610398 0.733744
Si Si4 0.500000 0.209856 0.250000
Si Si5 0.293555 0.992079 0.918331
Si Si6 0.000000 0.702467 0.750000
Si Si7 0.739262 0.971773 0.454568
O O1 0.750423 0.494632 0.688510
O O2 0.594515 0.295990 0.737307
O O3 0.817746 0.429436 0.558468
O O4 0.912918 0.265906 0.576861
O O5 0.395866 0.313373 0.178500
O O6 0.613487 0.429715 0.002478
O O7 0.653643 0.173839 0.003232
O O8 0.354151 0.707318 0.801391
O O9 0.566897 0.551411 0.653479
O O10 0.574064 0.123799 0.164738
O O11 0.346898 0.120368 0.857025
O O12 0.303964 0.040584 0.969295
#
# Coordination Sequence:
#
# PCOD8145428 Si02
#       7
#     8   8   8   4   8   4   8
#     4  12  24  41  65  97 133 172 214 274 328 384
#     4  11  23  39  64 104 128 159 228 275 313 380
#     4  11  19  39  68  91 130 176 212 263 327 392
#     4  11  15  36  68  94 123 169 228 250 312 395
#     4  10  22  38  67  92 126 177 217 269 316 392
#     4  11  25  44  62  90 133 177 222 252 348 395
#     4  11  19  40  69  92 124 170 222 259 330 390
#
# _framework density 22.055263
#
# number of rings (size 3 to 8) (size 9 to 14) (size 15 to 20)
#    0.000    1.000    6.667    1.500    0.000    2.667 
#    0.000    0.000    0.000    0.000    0.000    0.000 
#    0.000    0.000    0.000    0.000    0.000    0.000 
#
# Total GULP energy -297366.325282 kJ/mol
# GULP energy per Si atom -12390.263553 kJ/mol
# Density = 2.200506 g / cm^3
# Si number density = 22.055263 Si / 1000 Ang^3
#
#
#
# Elastic Constant Matrix: (Units=GPa)
#
#
# Indices 1 2 3 4 5 6 
#
# 1 107.0134 43.2153 41.7510 -0.0001 17.0092 -0.0001
# 2 43.2153 93.2390 36.3376 -0.0005 12.6782 -0.0003
# 3 41.7510 36.3376 76.8537 -0.0022 16.8489 0.0000
# 4 -0.0001 -0.0005 -0.0022 36.6581 -0.0001 -7.7683
# 5 17.0092 12.6782 16.8489 -0.0001 34.1265 0.0001
# 6 -0.0001 -0.0003 0.0000 -7.7683 0.0001 35.6295
#
#
#
# Elastic Compliance Matrix: (Units=1/GPa)
#
#
# Indices 1 2 3 4 5 6 
#
# 1 0.013205 -0.003902 -0.004714 0.000000 -0.002805 0.000000
# 2 -0.003902 0.014428 -0.004433 0.000000 -0.001227 0.000000
# 3 -0.004714 -0.004433 0.018831 0.000001 -0.005301 0.000000
# 4 0.000000 0.000000 0.000001 0.028601 0.000000 0.006236
# 5 -0.002805 -0.001227 -0.005301 0.000000 0.033773 0.000000
# 6 0.000000 0.000000 0.000000 0.006236 0.000000 0.029426
#
#
# Mechanical properties :
#
#
# Convention : Reuss Voigt Hill
#
# Bulk Modulus (GPa) = 49.10169 57.74598 53.42384
# Shear Modulus (GPa) = 29.21390 31.66963 30.44177
#
# Velocity S-wave (km/s) = 3.64342 3.79347 3.71920
# Velocity P-wave (km/s) = 6.32540 6.73991 6.53595
#
# Compressibility (1/GPa) = 0.02036590
#
# Stress axis : x y z
#
# Youngs Moduli (GPa) = 75.72703 69.30894 53.10454
#
# Poissons Ratio (x) = 0.27044 0.25034
# Poissons Ratio (y) = 0.29548 0.23542
# Poissons Ratio (z) = 0.35698 0.30726
#
# Static dielectric constant tensor:
#      x y z
#    x 3.744910 0.000000 0.225450 
#    y 0.000000 4.112830 0.000000 
#    z 0.225450 0.000000 4.022770 
# 
# 
# High freq. dielectric constant tensor:
#      x y z
#    x 1.842060 0.000000 0.020780 
#    y 0.000000 1.868680 0.000000 
#    z 0.020780 0.000000 1.866300 
# 
# From -- ./inp_files/222288.got.cif
#   From: 2010.06.25/outbox.cif.g09.slc.cpg/sg15_112_cif.got.tgz:222288.got - 2010.06.28 07:06:18.
