data_PCOD8145197
_publ_section_title
;
Structure prediction by ZEFSAII (Michael W. Deem and Ramdas Pophale) SiO2 
 PCOD8145197
Probable space group: C 2/C
;
_chemical_formula_sum "Si O2"
_cell_formula_units_Z 40
_cell_length_a 17.721508
_cell_length_b 19.912833
_cell_length_c 5.001428
_cell_angle_alpha 90.000000
_cell_angle_beta 96.442956
_cell_angle_gamma 90.000000
_cell_volume 1753.783884
_symmetry_space_group_name_H-M "C 2/C"
_symmetry_group_IT_number 15
_symmetry_cell_setting 'monoclinic'
loop_
_space_group_symop_operation_xyz
x,y,z
-x,y,1/2-z
-x,-y,-z
x,-y,1/2+z
1/2+x,1/2+y,z
1/2-x,1/2+y,1/2-z
1/2-x,1/2-y,-z
1/2+x,1/2-y,1/2+z
loop_
_atom_site_type_symbol
_atom_site_label
_atom_site_fract_x
_atom_site_fract_y
_atom_site_fract_z
Si Si1 0.349411 0.545414 0.845147
Si Si2 0.217902 0.358731 0.382942
Si Si3 0.412637 0.956716 0.214688
Si Si4 0.174473 0.216595 0.216362
Si Si5 0.581280 0.320979 0.178165
O O1 0.354663 0.484668 0.642579
O O2 0.419223 0.597958 0.850055
O O3 0.270890 0.585543 0.763952
O O4 0.135697 0.391888 0.392105
O O5 0.207693 0.291668 0.202047
O O6 0.258815 0.335779 0.675307
O O7 0.500000 0.933871 0.250000
O O8 0.393762 0.982850 0.503453
O O9 0.105497 0.212983 0.406986
O O10 0.145637 0.197893 0.914717
O O11 0.500000 0.295162 0.250000
#
# Coordination Sequence:
#
# PCOD8145197 Si02
#       5
#     8   8   8   8   8
#     4  11  23  38  62  92 119 161 206 244 305 362
#     4  10  22  41  64  89 125 157 204 258 298 362
#     4  10  22  38  58  87 121 158 198 246 305 361
#     4  10  24  40  64  93 118 164 208 247 312 362
#     4  11  24  43  63  91 129 161 204 258 303 365
#
# _framework density 22.807825999999999
#
# number of rings (size 3 to 8) (size 9 to 14) (size 15 to 20)
#    0.000    1.600    0.000    4.200    0.000   16.000 
#    0.000    2.000    0.000    0.000    0.000    0.000 
#    0.000    0.000    0.000    0.000    0.000    0.000 
#
# Total GULP energy -247991.012904 kJ/mol
# GULP energy per Si atom -12399.550645 kJ/mol
# Density = 2.275591 g / cm^3
# Si number density = 22.807826 Si / 1000 Ang^3
#
#
#
# Elastic Constant Matrix: (Units=GPa)
#
#
# Indices 1 2 3 4 5 6 
#
# 1 84.6476 15.4316 -0.9649 0.0000 10.8539 0.0000
# 2 15.4316 69.2927 7.8958 0.0000 8.8136 0.0000
# 3 -0.9649 7.8958 61.4780 0.0000 -4.5853 0.0000
# 4 0.0000 0.0000 0.0000 33.3050 0.0000 -0.4983
# 5 10.8539 8.8136 -4.5853 0.0000 27.3108 0.0000
# 6 0.0000 0.0000 0.0000 -0.4983 0.0000 27.0596
#
#
#
# Elastic Compliance Matrix: (Units=1/GPa)
#
#
# Indices 1 2 3 4 5 6 
#
# 1 0.012791 -0.002321 0.000178 0.000000 -0.004304 0.000000
# 2 -0.002321 0.015806 -0.002408 0.000000 -0.004583 0.000000
# 3 0.000178 -0.002408 0.016842 0.000000 0.003534 0.000000
# 4 0.000000 0.000000 0.000000 0.030034 0.000000 0.000553
# 5 -0.004304 -0.004583 0.003534 0.000000 0.040398 0.000000
# 6 0.000000 0.000000 0.000000 0.000553 0.000000 0.036966
#
#
# Mechanical properties :
#
#
# Convention : Reuss Voigt Hill
#
# Bulk Modulus (GPa) = 27.52173 28.90481 28.21327
# Shear Modulus (GPa) = 28.72719 30.40546 29.56633
#
# Velocity S-wave (km/s) = 3.55284 3.65515 3.60436
# Velocity P-wave (km/s) = 5.37803 5.52396 5.45148
#
# Compressibility (1/GPa) = 0.03633492
#
# Stress axis : x y z
#
# Youngs Moduli (GPa) = 78.18100 63.26794 59.37663
#
# Poissons Ratio (x) = 0.14686 -0.01056
# Poissons Ratio (y) = 0.18148 0.14299
# Poissons Ratio (z) = -0.01390 0.15236
#
# Static dielectric constant tensor:
#      x y z
#    x 4.064480 0.000000 0.036020 
#    y 0.000000 4.128340 0.000000 
#    z 0.036020 0.000000 3.934710 
# 
# 
# High freq. dielectric constant tensor:
#      x y z
#    x 1.897890 0.000000 -0.000640 
#    y 0.000000 1.899360 0.000000 
#    z -0.000640 0.000000 1.901910 
# 
# From -- ./inp_files/9902.got.cif
#   From: 2010.06.25/outbox.cif.g09.slc.cpg/sg15_5_cif.got.tgz:9902.got - 2010.06.28 07:06:18.
