data_PCOD8145469
_publ_section_title
;
Structure prediction by ZEFSAII (Michael W. Deem and Ramdas Pophale) SiO2 
 PCOD8145469
Probable space group: C 2/C
;
_chemical_formula_sum "Si O2"
_cell_formula_units_Z 36
_cell_length_a 14.538718
_cell_length_b 5.704095
_cell_length_c 31.183731
_cell_angle_alpha 90.000000
_cell_angle_beta 142.526136
_cell_angle_gamma 90.000000
_cell_volume 1573.366016
_symmetry_space_group_name_H-M "C 2/C"
_symmetry_group_IT_number 15
_symmetry_cell_setting 'monoclinic'
loop_
_space_group_symop_operation_xyz
x,y,z
-x,y,1/2-z
-x,-y,-z
x,-y,1/2+z
1/2+x,1/2+y,z
1/2-x,1/2+y,1/2-z
1/2-x,1/2-y,-z
1/2+x,1/2-y,1/2+z
loop_
_atom_site_type_symbol
_atom_site_label
_atom_site_fract_x
_atom_site_fract_y
_atom_site_fract_z
Si Si1 0.000000 0.241303 0.250000
Si Si2 0.431478 0.749176 0.458984
Si Si3 0.454040 0.715514 0.365839
Si Si4 0.884890 0.070992 0.639030
Si Si5 0.873028 0.435646 0.771501
O O1 0.111288 0.386231 0.261524
O O2 0.124885 0.108424 0.325127
O O3 0.500000 0.500000 0.500000
O O4 0.451516 0.736562 0.415538
O O5 0.258963 0.755842 0.412095
O O6 0.500000 0.000000 0.500000
O O7 0.597264 0.564136 0.400495
O O8 0.305078 0.599555 0.289656
O O9 0.453188 0.975452 0.345180
O O10 0.040123 0.200663 0.707944
#
# Coordination Sequence:
#
# PCOD8145469 Si02
#       5
#     4   8   8   8   8
#     4  10  22  38  72 106 142 178 234 308 398 434
#     4  12  32  51  72 102 151 211 257 297 354 451
#     4  11  25  43  76 109 146 183 247 309 391 443
#     4  11  25  44  72 105 145 192 246 314 377 449
#     4  11  22  42  73 111 141 177 233 324 385 446
#
# _framework density 22.880880000000001
#
# number of rings (size 3 to 8) (size 9 to 14) (size 15 to 20)
#    0.000    0.889    2.222    3.333   15.556    1.778 
#    0.000    0.000    0.000    0.000    0.000    0.000 
#    0.000    0.000    0.000    0.000    0.000    0.000 
#
# Total GULP energy -223011.555697 kJ/mol
# GULP energy per Si atom -12389.530872 kJ/mol
# Density = 2.282880 g / cm^3
# Si number density = 22.880880 Si / 1000 Ang^3
#
#
#
# Elastic Constant Matrix: (Units=GPa)
#
#
# Indices 1 2 3 4 5 6 
#
# 1 140.8580 44.5977 58.1838 -0.0024 -24.6035 0.0026
# 2 44.5977 117.2252 41.2153 -0.0126 -11.0661 0.0065
# 3 58.1838 41.2153 75.8771 -0.0127 -18.7618 0.0071
# 4 -0.0024 -0.0126 -0.0127 13.7940 0.0007 38.5083
# 5 -24.6035 -11.0661 -18.7618 0.0007 45.5407 -0.0018
# 6 0.0026 0.0065 0.0071 38.5083 -0.0018 -21.7227
#
#
#
# Elastic Compliance Matrix: (Units=1/GPa)
#
#
# Indices 1 2 3 4 5 6 
#
# 1 0.010873 -0.001465 -0.006878 0.000000 0.002685 -0.000002
# 2 -0.001465 0.010744 -0.004746 0.000000 -0.000136 0.000002
# 3 -0.006878 -0.004746 0.022077 0.000000 0.004226 0.000005
# 4 0.000000 0.000000 0.000000 0.012186 0.000001 0.021603
# 5 0.002685 -0.000136 0.004226 0.000001 0.025117 0.000001
# 6 -0.000002 0.000002 0.000005 0.021603 0.000001 -0.007738
#
#
# Mechanical properties :
#
#
# Convention : Reuss Voigt Hill
#
# Bulk Modulus (GPa) = 57.09445 69.10601 63.10023
# Shear Modulus (GPa) = 47.49452 20.18662 33.84057
#
# Velocity S-wave (km/s) = 4.56096 2.97349 3.84993
# Velocity P-wave (km/s) = 7.26248 6.48513 6.88478
#
# Compressibility (1/GPa) = 0.01751484
#
# Stress axis : x y z
#
# Youngs Moduli (GPa) = 91.96861 93.07714 45.29695
#
# Poissons Ratio (x) = 0.13635 0.31156
# Poissons Ratio (y) = 0.13473 0.21499
# Poissons Ratio (z) = 0.63258 0.44176
#
# Static dielectric constant tensor:
#      x y z
#    x 6.461880 -0.000690 -3.108120 
#    y -0.000690 4.700890 0.000980 
#    z -3.108120 0.000980 8.201640 
# 
# 
# High freq. dielectric constant tensor:
#      x y z
#    x 1.929190 0.000000 -0.007980 
#    y 0.000000 1.923160 0.000000 
#    z -0.007980 0.000000 1.871140 
# 
# From -- ./inp_files/241431.got.cif
#   From: 2010.06.25/outbox.cif.g09.slc.cpg/sg15_121_cif.got.tgz:241431.got - 2010.06.28 07:06:18.
