data_PCOD8145955
_publ_section_title
;
Structure prediction by ZEFSAII (Michael W. Deem and Ramdas Pophale) SiO2 
 PCOD8145955
Probable space group: C 2/C
;
_chemical_formula_sum "Si O2"
_cell_formula_units_Z 52
_cell_length_a 7.637610
_cell_length_b 15.700344
_cell_length_c 21.419310
_cell_angle_alpha 90.000000
_cell_angle_beta 72.010017
_cell_angle_gamma 90.000000
_cell_volume 2442.885497
_symmetry_space_group_name_H-M "C 2/C"
_symmetry_group_IT_number 15
_symmetry_cell_setting 'monoclinic'
loop_
_space_group_symop_operation_xyz
x,y,z
-x,y,1/2-z
-x,-y,-z
x,-y,1/2+z
1/2+x,1/2+y,z
1/2-x,1/2+y,1/2-z
1/2-x,1/2-y,-z
1/2+x,1/2-y,1/2+z
loop_
_atom_site_type_symbol
_atom_site_label
_atom_site_fract_x
_atom_site_fract_y
_atom_site_fract_z
Si Si1 0.044860 0.743293 0.338396
Si Si2 0.939879 0.910259 0.589735
Si Si3 0.193632 0.650380 0.507122
Si Si4 0.202565 0.772046 0.797800
Si Si5 0.208387 0.909795 0.371333
Si Si6 0.847590 0.664399 0.467158
Si Si7 0.500000 0.136529 0.750000
O O1 0.871342 0.768755 0.315831
O O2 0.988665 0.672760 0.394204
O O3 0.215539 0.703523 0.280049
O O4 0.084322 0.828679 0.371563
O O5 0.884390 0.849818 0.654131
O O6 0.816070 0.896458 0.540327
O O7 0.153750 0.897033 0.551391
O O8 0.918145 0.007281 0.612560
O O9 0.250000 0.750000 0.500000
O O10 0.186984 0.608351 0.575804
O O11 0.983999 0.631905 0.506646
O O12 0.058014 0.696691 0.802026
O O13 0.345506 0.923522 0.297244
O O14 0.750000 0.750000 0.500000
#
# Coordination Sequence:
#
# PCOD8145955 Si02
#       7
#     8   8   8   8   8   8   4
#     4   9  19  38  62  84 119 164 205 253 308 382
#     4  11  24  41  63  96 128 159 207 274 311 364
#     4  12  22  40  67  92 125 172 212 252 311 386
#     4   9  20  38  63  85 116 163 214 247 311 381
#     4  11  23  40  61  92 131 158 207 268 321 361
#     4  11  22  38  64  93 122 165 216 251 307 377
#     4  10  22  40  64  86 120 166 210 250 312 394
#
# _framework density 21.286303
#
# number of rings (size 3 to 8) (size 9 to 14) (size 15 to 20)
#    0.000    1.538    3.077    1.385    4.308    3.077 
#    2.769    3.077    0.000    0.000    0.000    0.000 
#    0.000    0.000    0.000    0.000    0.000    0.000 
#
# Total GULP energy -322187.121589 kJ/mol
# GULP energy per Si atom -12391.812369 kJ/mol
# Density = 2.123785 g / cm^3
# Si number density = 21.286303 Si / 1000 Ang^3
#
#
#
# Elastic Constant Matrix: (Units=GPa)
#
#
# Indices 1 2 3 4 5 6 
#
# 1 94.6977 15.1407 24.0705 0.0000 1.5585 0.0000
# 2 15.1407 55.3434 25.1352 0.0000 2.7357 0.0000
# 3 24.0705 25.1352 90.1931 0.0000 3.4087 0.0000
# 4 0.0000 0.0000 0.0000 28.6115 0.0000 -5.7379
# 5 1.5585 2.7357 3.4087 0.0000 30.9605 0.0000
# 6 0.0000 0.0000 0.0000 -5.7379 0.0000 19.5066
#
#
#
# Elastic Compliance Matrix: (Units=1/GPa)
#
#
# Indices 1 2 3 4 5 6 
#
# 1 0.011521 -0.002005 -0.002511 0.000000 -0.000126 0.000000
# 2 -0.002005 0.021081 -0.005295 0.000000 -0.001179 0.000000
# 3 -0.002511 -0.005295 0.013266 0.000000 -0.000866 0.000000
# 4 0.000000 0.000000 0.000000 0.037142 0.000000 0.010925
# 5 -0.000126 -0.001179 -0.000866 0.000000 0.032505 0.000000
# 6 0.000000 0.000000 0.000000 0.010925 0.000000 0.054478
#
#
# Mechanical properties :
#
#
# Convention : Reuss Voigt Hill
#
# Bulk Modulus (GPa) = 38.10291 40.99188 39.54739
# Shear Modulus (GPa) = 25.20617 27.54156 26.37386
#
# Velocity S-wave (km/s) = 3.44488 3.60093 3.52377
# Velocity P-wave (km/s) = 5.81051 6.04881 5.93086
#
# Compressibility (1/GPa) = 0.02624471
#
# Stress axis : x y z
#
# Youngs Moduli (GPa) = 86.79902 47.43666 75.38137
#
# Poissons Ratio (x) = 0.09512 0.18929
# Poissons Ratio (y) = 0.17405 0.39916
# Poissons Ratio (z) = 0.21796 0.25118
#
# Static dielectric constant tensor:
#      x y z
#    x 4.101390 0.000000 0.105010 
#    y 0.000000 3.483640 0.000000 
#    z 0.105010 0.000000 4.273800 
# 
# 
# High freq. dielectric constant tensor:
#      x y z
#    x 1.844910 0.000000 -0.004450 
#    y 0.000000 1.796650 0.000000 
#    z -0.004450 0.000000 1.855810 
# 
# From -- ./inp_files/264245.got.cif
#   From: 2010.06.25/outbox.cif.g09.slc.cpg/sg15_133_cif.got.tgz:264245.got - 2010.06.28 07:06:18.
