data_PCOD8145224
_publ_section_title
;
Structure prediction by ZEFSAII (Michael W. Deem and Ramdas Pophale) SiO2 
 PCOD8145224
Probable space group: C 2/C
;
_chemical_formula_sum "Si O2"
_cell_formula_units_Z 40
_cell_length_a 29.701479
_cell_length_b 12.022463
_cell_length_c 5.129879
_cell_angle_alpha 90.000000
_cell_angle_beta 73.586152
_cell_angle_gamma 90.000000
_cell_volume 1757.148679
_symmetry_space_group_name_H-M "C 2/C"
_symmetry_group_IT_number 15
_symmetry_cell_setting 'monoclinic'
loop_
_space_group_symop_operation_xyz
x,y,z
-x,y,1/2-z
-x,-y,-z
x,-y,1/2+z
1/2+x,1/2+y,z
1/2-x,1/2+y,1/2-z
1/2-x,1/2-y,-z
1/2+x,1/2-y,1/2+z
loop_
_atom_site_type_symbol
_atom_site_label
_atom_site_fract_x
_atom_site_fract_y
_atom_site_fract_z
Si Si1 0.478982 0.376469 0.035866
Si Si2 0.264790 0.072275 0.941709
Si Si3 0.945685 0.568636 0.348190
Si Si4 0.825125 0.214164 0.393588
Si Si5 0.885517 0.217908 0.803884
O O1 0.500000 0.311652 0.250000
O O2 0.422545 0.375697 0.143196
O O3 0.500000 0.312320 0.750000
O O4 0.500000 0.500000 0.000000
O O5 0.300405 0.173307 0.836935
O O6 0.274046 0.979632 0.709241
O O7 0.211720 0.115377 0.003819
O O8 0.933650 0.527885 0.658768
O O9 0.913311 0.671262 0.326924
O O10 0.000000 0.603113 0.250000
O O11 0.849623 0.238055 0.628433
O O12 0.860059 0.174927 0.106833
#
# Coordination Sequence:
#
# PCOD8145224 Si02
#       5
#     8   8   8   8   8
#     4  10  22  42  61  88 128 181 215 258 328 378
#     4  11  24  48  71  94 137 178 211 275 364 407
#     4  10  22  38  59  89 128 174 218 266 331 387
#     4  11  26  43  67 105 130 170 229 278 333 415
#     4  12  23  41  66  97 136 167 228 285 315 394
#
# _framework density 22.764154000000001
#
# number of rings (size 3 to 8) (size 9 to 14) (size 15 to 20)
#    0.000    1.200    0.000    5.400    0.000   10.400 
#   21.600    0.000    0.000    0.000    0.000    0.000 
#    0.000    0.000    0.000    0.000    0.000    0.000 
#
# Total GULP energy -248016.755876 kJ/mol
# GULP energy per Si atom -12400.837794 kJ/mol
# Density = 2.271234 g / cm^3
# Si number density = 22.764154 Si / 1000 Ang^3
#
#
#
# Elastic Constant Matrix: (Units=GPa)
#
#
# Indices 1 2 3 4 5 6 
#
# 1 75.6517 11.7662 33.4672 0.0000 6.7053 0.0000
# 2 11.7662 60.3126 5.9987 0.0000 -5.6701 0.0000
# 3 33.4672 5.9987 164.5325 0.0000 4.9605 0.0000
# 4 0.0000 0.0000 0.0000 8.6899 0.0000 -0.9111
# 5 6.7053 -5.6701 4.9605 0.0000 49.8206 0.0000
# 6 0.0000 0.0000 0.0000 -0.9111 0.0000 27.7394
#
#
#
# Elastic Compliance Matrix: (Units=1/GPa)
#
#
# Indices 1 2 3 4 5 6 
#
# 1 0.015135 -0.002858 -0.002912 0.000000 -0.002072 0.000000
# 2 -0.002858 0.017373 -0.000124 0.000000 0.002374 0.000000
# 3 -0.002912 -0.000124 0.006683 0.000000 -0.000288 0.000000
# 4 0.000000 0.000000 0.000000 0.115473 0.000000 0.003793
# 5 -0.002072 0.002374 -0.000288 0.000000 0.020650 0.000000
# 6 0.000000 0.000000 0.000000 0.003793 0.000000 0.036174
#
#
# Mechanical properties :
#
#
# Convention : Reuss Voigt Hill
#
# Bulk Modulus (GPa) = 36.49011 44.77343 40.63177
# Shear Modulus (GPa) = 21.51366 33.86764 27.69065
#
# Velocity S-wave (km/s) = 3.07753 3.86134 3.49150
# Velocity P-wave (km/s) = 5.35656 6.29214 5.84310
#
# Compressibility (1/GPa) = 0.02740469
#
# Stress axis : x y z
#
# Youngs Moduli (GPa) = 66.07292 57.55954 149.62667
#
# Poissons Ratio (x) = 0.16449 0.43569
# Poissons Ratio (y) = 0.18882 0.01851
# Poissons Ratio (z) = 0.19240 0.00712
#
# Static dielectric constant tensor:
#      x y z
#    x 4.293020 0.000000 -0.230730 
#    y 0.000000 4.248510 0.000000 
#    z -0.230730 0.000000 3.580480 
# 
# 
# High freq. dielectric constant tensor:
#      x y z
#    x 1.907660 0.000000 0.006850 
#    y 0.000000 1.888030 0.000000 
#    z 0.006850 0.000000 1.921560 
# 
# From -- ./inp_files/16724.got.cif
#   From: 2010.06.25/outbox.cif.g09.slc.cpg/sg15_9_cif.got.tgz:16724.got - 2010.06.28 07:06:18.
