data_PCOD8145745
_publ_section_title
;
Structure prediction by ZEFSAII (Michael W. Deem and Ramdas Pophale) SiO2 
 PCOD8145745
Probable space group: C 2/C
;
_chemical_formula_sum "Si O2"
_cell_formula_units_Z 64
_cell_length_a 23.694892
_cell_length_b 9.440721
_cell_length_c 14.390005
_cell_angle_alpha 90.000000
_cell_angle_beta 72.298200
_cell_angle_gamma 90.000000
_cell_volume 3066.585606
_symmetry_space_group_name_H-M "C 2/C"
_symmetry_group_IT_number 15
_symmetry_cell_setting 'monoclinic'
loop_
_space_group_symop_operation_xyz
x,y,z
-x,y,1/2-z
-x,-y,-z
x,-y,1/2+z
1/2+x,1/2+y,z
1/2-x,1/2+y,1/2-z
1/2-x,1/2-y,-z
1/2+x,1/2-y,1/2+z
loop_
_atom_site_type_symbol
_atom_site_label
_atom_site_fract_x
_atom_site_fract_y
_atom_site_fract_z
Si Si1 0.679902 0.354813 0.216987
Si Si2 0.625715 0.838414 0.890546
Si Si3 0.489033 0.248135 0.154152
Si Si4 0.894638 0.858485 0.927150
Si Si5 0.480987 0.448285 0.611322
Si Si6 0.314854 0.859982 0.120198
Si Si7 0.636777 0.345239 0.764908
Si Si8 0.381363 0.678706 0.941826
O O1 0.673239 0.234925 0.298730
O O2 0.744926 0.373749 0.141972
O O3 0.665707 0.503954 0.271726
O O4 0.633784 0.310339 0.159599
O O5 0.558980 0.842152 0.880379
O O6 0.649393 0.994076 0.898800
O O7 0.624384 0.757382 0.988855
O O8 0.500000 0.179355 0.250000
O O9 0.464435 0.409651 0.178234
O O10 0.552745 0.259224 0.070915
O O11 0.865403 0.818023 0.844033
O O12 0.964951 0.860226 0.872282
O O13 0.876274 0.013908 0.973878
O O14 0.500000 0.500000 0.500000
O O15 0.425284 0.343633 0.646971
O O16 0.325023 0.782360 0.213186
O O17 0.334941 0.766312 0.023776
#
# Coordination Sequence:
#
# PCOD8145745 Si02
#       8
#     8   8   8   8   8   8   8   8
#     4  11  22  46  69  88 120 173 230 269 307 379
#     4  12  24  41  64  96 133 170 206 265 338 395
#     4  11  19  38  65  95 123 161 217 266 321 385
#     4  10  22  39  67  94 123 162 212 265 321 381
#     4  11  17  34  67  96 122 156 213 271 307 370
#     4  12  27  40  61  96 134 171 209 264 330 395
#     4  11  22  42  63  94 125 165 220 266 311 377
#     4  10  22  41  69  94 122 163 219 274 316 380
#
# _framework density 20.870117
#
# number of rings (size 3 to 8) (size 9 to 14) (size 15 to 20)
#    0.000    1.000    3.750    5.250    0.000    1.500 
#    0.000    6.875    0.000    0.000    0.000    0.000 
#    0.000    0.000    0.000    0.000    0.000    0.000 
#
# Total GULP energy -396808.512765 kJ/mol
# GULP energy per Si atom -12400.266024 kJ/mol
# Density = 2.082262 g / cm^3
# Si number density = 20.870117 Si / 1000 Ang^3
#
#
#
# Elastic Constant Matrix: (Units=GPa)
#
#
# Indices 1 2 3 4 5 6 
#
# 1 85.7035 36.3236 21.7235 0.0000 -12.5585 0.0000
# 2 36.3236 105.5836 46.5061 0.0000 -3.3927 0.0000
# 3 21.7235 46.5061 99.1658 0.0000 0.7388 0.0000
# 4 0.0000 0.0000 0.0000 24.9097 0.0000 0.7126
# 5 -12.5585 -3.3927 0.7388 0.0000 30.4450 0.0000
# 6 0.0000 0.0000 0.0000 0.7126 0.0000 18.7815
#
#
#
# Elastic Compliance Matrix: (Units=1/GPa)
#
#
# Indices 1 2 3 4 5 6 
#
# 1 0.014624 -0.004313 -0.001222 0.000000 0.005581 0.000000
# 2 -0.004313 0.013275 -0.005279 0.000000 -0.000172 0.000000
# 3 -0.001222 -0.005279 0.012838 0.000000 -0.001404 0.000000
# 4 0.000000 0.000000 0.000000 0.040189 0.000000 -0.001525
# 5 0.005581 -0.000172 -0.001404 0.000000 0.035163 0.000000
# 6 0.000000 0.000000 0.000000 -0.001525 0.000000 0.053302
#
#
# Mechanical properties :
#
#
# Convention : Reuss Voigt Hill
#
# Bulk Modulus (GPa) = 52.33671 55.50658 53.92164
# Shear Modulus (GPa) = 25.33058 27.22056 26.27557
#
# Velocity S-wave (km/s) = 3.48764 3.61541 3.55209
# Velocity P-wave (km/s) = 6.43039 6.63944 6.53575
#
# Compressibility (1/GPa) = 0.01910705
#
# Stress axis : x y z
#
# Youngs Moduli (GPa) = 68.38114 75.32982 77.89217
#
# Poissons Ratio (x) = 0.32492 0.09521
# Poissons Ratio (y) = 0.29495 0.41123
# Poissons Ratio (z) = 0.08358 0.39770
#
# Static dielectric constant tensor:
#      x y z
#    x 3.919220 0.000000 0.073740 
#    y 0.000000 3.515490 0.000000 
#    z 0.073740 0.000000 3.669440 
# 
# 
# High freq. dielectric constant tensor:
#      x y z
#    x 1.824250 0.000000 0.001370 
#    y 0.000000 1.786540 0.000000 
#    z 0.001370 0.000000 1.827820 
# 
# From -- ./inp_files/176551.got.cif
#   From: 2010.06.25/outbox.cif.g09.slc.cpg/sg15_89_cif.got.tgz:176551.got - 2010.06.28 07:06:18.
