data_PCOD8145653
_publ_section_title
;
Structure prediction by ZEFSAII (Michael W. Deem and Ramdas Pophale) SiO2 
 PCOD8145653
Probable space group: C 2/C
;
_chemical_formula_sum "Si O2"
_cell_formula_units_Z 48
_cell_length_a 8.790763
_cell_length_b 29.596919
_cell_length_c 11.428645
_cell_angle_alpha 90.000000
_cell_angle_beta 47.447896
_cell_angle_gamma 90.000000
_cell_volume 2190.465790
_symmetry_space_group_name_H-M "C 2/C"
_symmetry_group_IT_number 15
_symmetry_cell_setting 'monoclinic'
loop_
_space_group_symop_operation_xyz
x,y,z
-x,y,1/2-z
-x,-y,-z
x,-y,1/2+z
1/2+x,1/2+y,z
1/2-x,1/2+y,1/2-z
1/2-x,1/2-y,-z
1/2+x,1/2-y,1/2+z
loop_
_atom_site_type_symbol
_atom_site_label
_atom_site_fract_x
_atom_site_fract_y
_atom_site_fract_z
Si Si1 0.953640 0.055528 0.143138
Si Si2 0.303298 0.112770 0.653611
Si Si3 0.637295 0.375698 0.997113
Si Si4 0.929208 0.224425 0.975909
Si Si5 0.891698 0.707424 0.683764
Si Si6 0.304407 0.026484 0.789209
O O1 0.000000 0.073065 0.250000
O O2 0.817484 0.010133 0.224292
O O3 0.829025 0.093541 0.135045
O O4 0.163827 0.046040 0.965745
O O5 0.300221 0.110960 0.513781
O O6 0.441637 0.156154 0.617123
O O7 0.393053 0.065839 0.657350
O O8 0.082438 0.117378 0.828927
O O9 0.665371 0.324138 0.939812
O O10 0.855091 0.215925 0.703292
O O11 0.750000 0.250000 0.000000
O O12 0.998635 0.254812 0.048723
O O13 0.000000 0.714675 0.750000
O O14 0.500000 0.003390 0.750000
#
# Coordination Sequence:
#
# PCOD8145653 Si02
#       6
#     8   8   8   8   8   8
#     4  10  23  40  61  90 124 157 198 253 309 352
#     4   9  18  36  63  87 114 161 212 243 291 368
#     4   9  19  37  61  86 121 159 201 248 302 362
#     4  11  21  39  62  88 120 164 202 247 304 369
#     4  11  22  37  61  92 123 156 205 257 304 357
#     4  10  22  39  64  88 118 161 205 249 298 364
#
# _framework density 21.913146999999999
#
# number of rings (size 3 to 8) (size 9 to 14) (size 15 to 20)
#    0.000    2.000    1.667    1.500    7.000    1.333 
#    0.000    5.000    0.000    0.000    0.000    0.000 
#    0.000    0.000    0.000    0.000    0.000    0.000 
#
# Total GULP energy -297475.853442 kJ/mol
# GULP energy per Si atom -12394.827227 kJ/mol
# Density = 2.186327 g / cm^3
# Si number density = 21.913147 Si / 1000 Ang^3
#
#
#
# Elastic Constant Matrix: (Units=GPa)
#
#
# Indices 1 2 3 4 5 6 
#
# 1 96.9377 31.0630 25.5042 0.0000 26.1086 0.0000
# 2 31.0630 146.3640 48.3757 0.0000 25.9630 0.0000
# 3 25.5042 48.3757 56.6969 0.0000 37.3499 0.0000
# 4 0.0000 0.0000 0.0000 32.1510 0.0000 11.6747
# 5 26.1086 25.9630 37.3499 0.0000 45.6686 0.0000
# 6 0.0000 0.0000 0.0000 11.6747 0.0000 34.4184
#
#
#
# Elastic Compliance Matrix: (Units=1/GPa)
#
#
# Indices 1 2 3 4 5 6 
#
# 1 0.012503 -0.001440 -0.000490 0.000000 -0.005928 0.000000
# 2 -0.001440 0.009834 -0.009978 0.000000 0.003393 0.000000
# 3 -0.000490 -0.009978 0.048675 0.000000 -0.033855 0.000000
# 4 0.000000 0.000000 0.000000 0.035472 0.000000 -0.012032
# 5 -0.005928 0.003393 -0.033855 0.000000 0.051045 0.000000
# 6 0.000000 0.000000 0.000000 -0.012032 0.000000 0.033136
#
#
# Mechanical properties :
#
#
# Convention : Reuss Voigt Hill
#
# Bulk Modulus (GPa) = 21.18888 56.65383 38.92135
# Shear Modulus (GPa) = 21.71896 35.45129 28.58513
#
# Velocity S-wave (km/s) = 3.15165 4.02656 3.61567
# Velocity P-wave (km/s) = 4.78898 6.89402 5.93557
#
# Compressibility (1/GPa) = 0.04719457
#
# Stress axis : x y z
#
# Youngs Moduli (GPa) = 79.98071 101.68863 20.54458
#
# Poissons Ratio (x) = 0.14641 0.01008
# Poissons Ratio (y) = 0.11516 0.20500
# Poissons Ratio (z) = 0.03923 1.01467
#
# Static dielectric constant tensor:
#      x y z
#    x 3.812370 0.000000 0.193040 
#    y 0.000000 4.322670 0.000000 
#    z 0.193040 0.000000 3.928860 
# 
# 
# High freq. dielectric constant tensor:
#      x y z
#    x 1.859410 0.000000 0.019990 
#    y 0.000000 1.873100 0.000000 
#    z 0.019990 0.000000 1.830890 
# 
# From -- ./inp_files/81803.got.cif
#   From: 2010.06.25/outbox.cif.g09.slc.cpg/sg15_41_cif.got.tgz:81803.got - 2010.06.28 07:06:18.
