data_PCOD8145174
_publ_section_title
;
Structure prediction by ZEFSAII (Michael W. Deem and Ramdas Pophale) SiO2 
 PCOD8145174
Probable space group: C 2/C
;
_chemical_formula_sum "Si O2"
_cell_formula_units_Z 56
_cell_length_a 12.423747
_cell_length_b 39.758333
_cell_length_c 7.880093
_cell_angle_alpha 90.000000
_cell_angle_beta 50.633598
_cell_angle_gamma 90.000000
_cell_volume 3009.199302
_symmetry_space_group_name_H-M "C 2/C"
_symmetry_group_IT_number 15
_symmetry_cell_setting 'monoclinic'
loop_
_space_group_symop_operation_xyz
x,y,z
-x,y,1/2-z
-x,-y,-z
x,-y,1/2+z
1/2+x,1/2+y,z
1/2-x,1/2+y,1/2-z
1/2-x,1/2-y,-z
1/2+x,1/2-y,1/2+z
loop_
_atom_site_type_symbol
_atom_site_label
_atom_site_fract_x
_atom_site_fract_y
_atom_site_fract_z
Si Si1 0.156477 0.034940 0.895558
Si Si2 0.345044 0.394496 0.208606
Si Si3 0.343523 0.534940 0.208511
Si Si4 0.338539 0.167065 0.214863
Si Si5 0.661635 0.783434 0.088365
Si Si6 0.845044 0.105504 0.101307
Si Si7 0.661461 0.832935 0.391942
O O1 0.226516 0.068913 0.752252
O O2 0.234330 1.000000 0.765670
O O3 0.156243 0.038511 0.093757
O O4 0.000000 0.033371 0.975481
O O5 0.361012 0.388229 0.388988
O O6 0.246401 0.365136 0.237231
O O7 0.500000 0.392830 0.968308
O O8 0.273484 0.568913 0.205285
O O9 0.253599 0.134864 0.230032
O O10 0.301686 0.176926 0.448314
O O11 0.300546 0.196879 0.123134
O O12 0.500000 0.157513 0.039330
O O13 0.500000 0.773822 0.250000
O O14 0.699454 0.803121 0.224227
O O15 0.750000 0.750000 0.000000
#
# Coordination Sequence:
#
# PCOD8145174 Si02
#       7
#     8   8   8   8   8   8   8
#     4   9  16  25  39  62  94 130 164 204 254 300
#     4   9  17  29  47  72  98 126 166 213 253 294
#     4   9  16  25  39  62  94 130 164 204 254 300
#     4   9  19  36  55  75 103 137 168 201 248 303
#     4  10  22  38  56  80 106 134 168 206 250 302
#     4   9  17  29  47  72  98 126 166 213 253 294
#     4   9  19  36  55  75 103 137 168 201 248 303
#
# _framework density 18.6096
#
# number of rings (size 3 to 8) (size 9 to 14) (size 15 to 20)
#    0.000    2.857    0.000    0.857    2.000    5.143 
#    0.000    0.000    0.000    0.857    0.000    0.000 
#    0.000    0.000    0.000    0.000    0.000    0.000 
#
# Total GULP energy -346920.948378 kJ/mol
# GULP energy per Si atom -12390.033871 kJ/mol
# Density = 1.856724 g / cm^3
# Si number density = 18.609600 Si / 1000 Ang^3
#
#
#
# Elastic Constant Matrix: (Units=GPa)
#
#
# Indices 1 2 3 4 5 6 
#
# 1 56.3846 66.4512 30.9130 0.0000 5.2593 0.0000
# 2 66.4512 194.6336 63.9374 0.0000 -5.3279 0.0000
# 3 30.9130 63.9374 61.8597 0.0000 6.3453 0.0000
# 4 0.0000 0.0000 0.0000 30.6242 0.0000 2.6632
# 5 5.2593 -5.3279 6.3453 0.0000 16.2784 0.0000
# 6 0.0000 0.0000 0.0000 2.6632 0.0000 29.3676
#
#
#
# Elastic Compliance Matrix: (Units=1/GPa)
#
#
# Indices 1 2 3 4 5 6 
#
# 1 0.033602 -0.010147 -0.005052 0.000000 -0.012208 0.000000
# 2 -0.010147 0.011432 -0.007776 0.000000 0.010051 0.000000
# 3 -0.005052 -0.007776 0.027938 0.000000 -0.011803 0.000000
# 4 0.000000 0.000000 0.000000 0.032914 0.000000 -0.002985
# 5 -0.012208 0.010051 -0.011803 0.000000 0.073266 0.000000
# 6 0.000000 0.000000 0.000000 -0.002985 0.000000 0.034322
#
#
# Mechanical properties :
#
#
# Convention : Reuss Voigt Hill
#
# Bulk Modulus (GPa) = 37.00636 70.60900 53.80768
# Shear Modulus (GPa) = 18.62675 25.35912 21.99294
#
# Velocity S-wave (km/s) = 3.16717 3.69547 3.44147
# Velocity P-wave (km/s) = 5.77091 7.49888 6.69091
#
# Compressibility (1/GPa) = 0.02702238
#
# Stress axis : x y z
#
# Youngs Moduli (GPa) = 29.75976 87.47533 35.79345
#
# Poissons Ratio (x) = 0.88762 0.18083
# Poissons Ratio (y) = 0.30197 0.27833
# Poissons Ratio (z) = 0.15034 0.68021
#
# Static dielectric constant tensor:
#      x y z
#    x 3.402500 0.000000 0.061230 
#    y 0.000000 3.712280 0.000000 
#    z 0.061230 0.000000 3.431380 
# 
# 
# High freq. dielectric constant tensor:
#      x y z
#    x 1.693030 0.000000 0.027680 
#    y 0.000000 1.730230 0.000000 
#    z 0.027680 0.000000 1.706090 
# 
# From -- ./inp_files/44507.got.cif
#   From: 2010.06.25/outbox.cif.g09.slc.cpg/sg15_23_cif.got.tgz:44507.got - 2010.06.28 07:06:18.
