data_PCOD8145418
_publ_section_title
;
Structure prediction by ZEFSAII (Michael W. Deem and Ramdas Pophale) SiO2 
 PCOD8145418
Probable space group: C 2/C
;
_chemical_formula_sum "Si O2"
_cell_formula_units_Z 56
_cell_length_a 12.154273
_cell_length_b 28.392844
_cell_length_c 8.561358
_cell_angle_alpha 90.000000
_cell_angle_beta 63.164514
_cell_angle_gamma 90.000000
_cell_volume 2636.298288
_symmetry_space_group_name_H-M "C 2/C"
_symmetry_group_IT_number 15
_symmetry_cell_setting 'monoclinic'
loop_
_space_group_symop_operation_xyz
x,y,z
-x,y,1/2-z
-x,-y,-z
x,-y,1/2+z
1/2+x,1/2+y,z
1/2-x,1/2+y,1/2-z
1/2-x,1/2-y,-z
1/2+x,1/2-y,1/2+z
loop_
_atom_site_type_symbol
_atom_site_label
_atom_site_fract_x
_atom_site_fract_y
_atom_site_fract_z
Si Si1 0.040380 0.094947 0.904001
Si Si2 0.857564 0.356800 0.873172
Si Si3 0.627860 0.519020 0.077528
Si Si4 0.624116 0.761717 0.754097
Si Si5 0.622385 0.778804 0.092829
Si Si6 0.797678 0.066942 0.172000
Si Si7 0.750036 0.333754 0.250500
O O1 0.124052 0.140498 0.880454
O O2 0.000000 0.088687 0.750000
O O3 0.108604 0.048843 0.930431
O O4 0.917585 0.101024 0.087482
O O5 0.801394 0.304577 0.876403
O O6 0.817226 0.399571 0.788102
O O7 0.000000 0.351241 0.750000
O O8 0.817330 0.366384 0.077887
O O9 0.500000 0.508531 0.250000
O O10 0.717685 0.544795 0.144902
O O11 0.689759 0.471208 0.976147
O O12 0.500000 0.743861 0.750000
O O13 0.717623 0.718572 0.711193
O O14 0.580001 0.786563 0.943575
O O15 0.500000 0.754838 0.250000
O O16 0.656523 0.827329 0.162973
O O17 0.750000 0.750000 0.000000
#
# Coordination Sequence:
#
# PCOD8145418 Si02
#       7
#     8   8   8   8   8   8   8
#     4  11  20  38  64 100 120 161 204 265 324 383
#     4  11  24  40  62  88 128 172 217 255 315 381
#     4  10  22  38  66  96 128 157 201 265 345 381
#     4  10  22  41  64  93 126 172 216 265 317 367
#     4  10  22  42  63  89 125 170 221 272 320 375
#     4  11  22  40  66  93 130 160 210 266 325 387
#     4  11  23  40  66  91 131 168 215 261 320 383
#
# _framework density 21.241904999999999
#
# number of rings (size 3 to 8) (size 9 to 14) (size 15 to 20)
#    0.000    1.429    1.429    5.571    2.000    1.143 
#    5.143    1.429    0.000    0.000    0.000    0.000 
#    0.000    0.000    0.000    0.000    0.000    0.000 
#
# Total GULP energy -346893.216515 kJ/mol
# GULP energy per Si atom -12389.043447 kJ/mol
# Density = 2.119356 g / cm^3
# Si number density = 21.241905 Si / 1000 Ang^3
#
#
#
# Elastic Constant Matrix: (Units=GPa)
#
#
# Indices 1 2 3 4 5 6 
#
# 1 89.1856 38.0103 45.3169 0.0000 13.8344 0.0000
# 2 38.0103 96.2200 19.1449 0.0000 -4.9466 0.0000
# 3 45.3169 19.1449 89.2803 0.0000 6.7835 0.0000
# 4 0.0000 0.0000 0.0000 24.9035 0.0000 0.9381
# 5 13.8344 -4.9466 6.7835 0.0000 32.7283 0.0000
# 6 0.0000 0.0000 0.0000 0.9381 0.0000 35.9169
#
#
#
# Elastic Compliance Matrix: (Units=1/GPa)
#
#
# Indices 1 2 3 4 5 6 
#
# 1 0.018980 -0.006343 -0.007713 0.000000 -0.007383 0.000000
# 2 -0.006343 0.013128 0.000051 0.000000 0.004655 0.000000
# 3 -0.007713 0.000051 0.015094 0.000000 0.000139 0.000000
# 4 0.000000 0.000000 0.000000 0.040195 0.000000 -0.001050
# 5 -0.007383 0.004655 0.000139 0.000000 0.034350 0.000000
# 6 0.000000 0.000000 0.000000 -0.001050 0.000000 0.027869
#
#
# Mechanical properties :
#
#
# Convention : Reuss Voigt Hill
#
# Bulk Modulus (GPa) = 52.10461 53.29223 52.69842
# Shear Modulus (GPa) = 27.17048 30.19064 28.68056
#
# Velocity S-wave (km/s) = 3.58033 3.77407 3.67848
# Velocity P-wave (km/s) = 6.45555 6.64336 6.55013
#
# Compressibility (1/GPa) = 0.01919216
#
# Stress axis : x y z
#
# Youngs Moduli (GPa) = 52.68669 76.17499 66.25110
#
# Poissons Ratio (x) = 0.48316 0.51098
# Poissons Ratio (y) = 0.33418 -0.00336
# Poissons Ratio (z) = 0.40636 -0.00387
#
# Static dielectric constant tensor:
#      x y z
#    x 3.938870 0.000000 0.447540 
#    y 0.000000 3.766450 0.000000 
#    z 0.447540 0.000000 4.100070 
# 
# 
# High freq. dielectric constant tensor:
#      x y z
#    x 1.821290 0.000000 0.023090 
#    y 0.000000 1.815960 0.000000 
#    z 0.023090 0.000000 1.839360 
# 
# From -- ./inp_files/35572.got.cif
#   From: 2010.06.25/outbox.cif.g09.slc.cpg/sg15_18_cif.got.tgz:35572.got - 2010.06.28 07:06:18.
