data_PCOD8145893
_publ_section_title
;
Structure prediction by ZEFSAII (Michael W. Deem and Ramdas Pophale) SiO2 
 PCOD8145893
Probable space group: C 2/C
;
_chemical_formula_sum "Si O2"
_cell_formula_units_Z 36
_cell_length_a 17.581885
_cell_length_b 9.188376
_cell_length_c 14.844646
_cell_angle_alpha 90.000000
_cell_angle_beta 35.745326
_cell_angle_gamma 90.000000
_cell_volume 1400.952126
_symmetry_space_group_name_H-M "C 2/C"
_symmetry_group_IT_number 15
_symmetry_cell_setting 'monoclinic'
loop_
_space_group_symop_operation_xyz
x,y,z
-x,y,1/2-z
-x,-y,-z
x,-y,1/2+z
1/2+x,1/2+y,z
1/2-x,1/2+y,1/2-z
1/2-x,1/2-y,-z
1/2+x,1/2-y,1/2+z
loop_
_atom_site_type_symbol
_atom_site_label
_atom_site_fract_x
_atom_site_fract_y
_atom_site_fract_z
Si Si1 0.348342 0.386546 0.994461
Si Si2 0.500000 0.149975 0.250000
Si Si3 0.010479 0.163857 0.572943
Si Si4 0.312026 0.068202 0.017606
Si Si5 0.769470 0.633656 0.719625
O O1 0.393892 0.216712 0.951907
O O2 0.216321 0.397786 0.186173
O O3 0.455769 0.499465 0.928567
O O4 0.318254 0.412659 0.917453
O O5 0.543956 0.250809 0.289159
O O6 0.380373 0.053824 0.393787
O O7 0.135245 0.238259 0.405029
O O8 0.885375 0.171755 0.629221
O O9 0.285429 0.010363 0.143979
#
# Coordination Sequence:
#
# PCOD8145893 Si02
#       5
#     8   4   8   8   8
#     4  11  23  41  66  96 131 172 219 271 326 388
#     4  10  22  40  62  92 130 172 218 266 324 386
#     4  11  23  42  69  95 132 177 221 267 324 392
#     4  10  24  41  63  97 133 170 216 272 328 386
#     4  11  24  44  67  98 133 174 219 269 327 390
#
# _framework density 25.696809999999999
#
# number of rings (size 3 to 8) (size 9 to 14) (size 15 to 20)
#    0.000    1.333    0.000    4.667    0.000    9.778 
#    0.000    5.556    0.000    0.000    0.000    0.000 
#    0.000    0.000    0.000    0.000    0.000    0.000 
#
# Total GULP energy -222986.331168 kJ/mol
# GULP energy per Si atom -12388.129509 kJ/mol
# Density = 2.563832 g / cm^3
# Si number density = 25.696810 Si / 1000 Ang^3
#
#
#
# Elastic Constant Matrix: (Units=GPa)
#
#
# Indices 1 2 3 4 5 6 
#
# 1 60.7904 34.4675 20.8673 0.0000 9.3328 0.0000
# 2 34.4675 142.7818 62.1508 0.0000 4.8933 0.0000
# 3 20.8673 62.1508 97.3785 0.0000 10.8939 0.0000
# 4 0.0000 0.0000 0.0000 15.3471 0.0000 11.3507
# 5 9.3328 4.8933 10.8939 0.0000 57.3457 0.0000
# 6 0.0000 0.0000 0.0000 11.3507 0.0000 23.4946
#
#
#
# Elastic Compliance Matrix: (Units=1/GPa)
#
#
# Indices 1 2 3 4 5 6 
#
# 1 0.019608 -0.004074 -0.001312 0.000000 -0.002594 0.000000
# 2 -0.004074 0.010551 -0.005961 0.000000 0.000895 0.000000
# 3 -0.001312 -0.005961 0.014584 0.000000 -0.002048 0.000000
# 4 0.000000 0.000000 0.000000 0.101386 0.000000 -0.048981
# 5 -0.002594 0.000895 -0.002048 0.000000 0.018173 0.000000
# 6 0.000000 0.000000 0.000000 -0.048981 0.000000 0.066227
#
#
# Mechanical properties :
#
#
# Convention : Reuss Voigt Hill
#
# Bulk Modulus (GPa) = 45.35080 59.54688 52.44884
# Shear Modulus (GPa) = 19.18848 31.46848 25.32848
#
# Velocity S-wave (km/s) = 2.73559 3.50323 3.14294
# Velocity P-wave (km/s) = 5.25972 6.29180 5.79877
#
# Compressibility (1/GPa) = 0.02205033
#
# Stress axis : x y z
#
# Youngs Moduli (GPa) = 50.99912 94.77495 68.56680
#
# Poissons Ratio (x) = 0.38607 0.08994
# Poissons Ratio (y) = 0.20775 0.40876
# Poissons Ratio (z) = 0.06690 0.56500
#
# Static dielectric constant tensor:
#      x y z
#    x 4.873400 0.000000 0.740330 
#    y 0.000000 5.033980 0.000000 
#    z 0.740330 0.000000 4.710840 
# 
# 
# High freq. dielectric constant tensor:
#      x y z
#    x 2.029620 0.000000 0.040600 
#    y 0.000000 2.045780 0.000000 
#    z 0.040600 0.000000 2.018290 
# 
# From -- ./inp_files/109504.got.cif
#   From: 2010.06.25/outbox.cif.g09.slc.cpg/sg15_55_cif.got.tgz:109504.got - 2010.06.28 07:06:18.
