data_PCOD8145831
_publ_section_title
;
Structure prediction by ZEFSAII (Michael W. Deem and Ramdas Pophale) SiO2 
 PCOD8145831
Probable space group: C 2/C
;
_chemical_formula_sum "Si O2"
_cell_formula_units_Z 44
_cell_length_a 6.556199
_cell_length_b 24.003635
_cell_length_c 19.581283
_cell_angle_alpha 90.000000
_cell_angle_beta 137.585434
_cell_angle_gamma 90.000000
_cell_volume 2078.480071
_symmetry_space_group_name_H-M "C 2/C"
_symmetry_group_IT_number 15
_symmetry_cell_setting 'monoclinic'
loop_
_space_group_symop_operation_xyz
x,y,z
-x,y,1/2-z
-x,-y,-z
x,-y,1/2+z
1/2+x,1/2+y,z
1/2-x,1/2+y,1/2-z
1/2-x,1/2-y,-z
1/2+x,1/2-y,1/2+z
loop_
_atom_site_type_symbol
_atom_site_label
_atom_site_fract_x
_atom_site_fract_y
_atom_site_fract_z
Si Si1 0.000000 0.209196 0.250000
Si Si2 0.642194 0.385628 0.359100
Si Si3 0.282585 0.564579 0.006948
Si Si4 0.191603 0.969823 0.140375
Si Si5 0.338030 0.663629 0.349463
Si Si6 0.357909 0.259594 0.102597
O O1 0.972729 0.171574 0.174596
O O2 0.285727 0.248484 0.307796
O O3 0.500000 0.394050 0.250000
O O4 0.399063 0.410207 0.351184
O O5 0.709847 0.321636 0.390419
O O6 0.948553 0.419795 0.448269
O O7 0.434177 0.516646 0.091494
O O8 0.495878 0.618833 0.062229
O O9 0.255535 0.539498 0.925611
O O10 0.500000 0.991964 0.250000
O O11 0.321574 0.720634 0.388716
O O12 0.000000 0.642095 0.250000
O O13 0.250000 0.250000 0.000000
#
# Coordination Sequence:
#
# PCOD8145831 Si02
#       6
#     4   8   8   8   8   8
#     4  10  22  40  60  92 132 172 212 262 318 380
#     4  12  24  40  63  97 128 165 213 265 322 383
#     4  11  24  43  67  91 128 168 213 270 322 385
#     4  11  24  44  66  93 125 168 215 266 328 385
#     4  10  22  42  63  96 128 171 221 262 323 387
#     4  11  24  39  64  95 131 172 215 266 322 393
#
# _framework density 21.169315999999998
#
# number of rings (size 3 to 8) (size 9 to 14) (size 15 to 20)
#    0.000    1.091    1.818    4.909    1.273    7.273 
#    1.636    0.000    0.000    0.000    0.000    0.000 
#    0.000    0.000    0.000    0.000    0.000    0.000 
#
# Total GULP energy -272850.336161 kJ/mol
# GULP energy per Si atom -12402.288007 kJ/mol
# Density = 2.112113 g / cm^3
# Si number density = 21.169316 Si / 1000 Ang^3
#
#
#
# Elastic Constant Matrix: (Units=GPa)
#
#
# Indices 1 2 3 4 5 6 
#
# 1 76.8254 25.8118 27.3949 0.0000 -5.1347 0.0000
# 2 25.8118 111.7464 44.1837 0.0000 6.9747 0.0000
# 3 27.3949 44.1837 131.1567 0.0000 3.2978 0.0000
# 4 0.0000 0.0000 0.0000 26.1246 0.0000 5.8260
# 5 -5.1347 6.9747 3.2978 0.0000 31.3048 0.0000
# 6 0.0000 0.0000 0.0000 5.8260 0.0000 34.6389
#
#
#
# Elastic Compliance Matrix: (Units=1/GPa)
#
#
# Indices 1 2 3 4 5 6 
#
# 1 0.014980 -0.002765 -0.002281 0.000000 0.003313 0.000000
# 2 -0.002765 0.010953 -0.003048 0.000000 -0.002573 0.000000
# 3 -0.002281 -0.003048 0.009144 0.000000 -0.000658 0.000000
# 4 0.000000 0.000000 0.000000 0.039770 0.000000 -0.006689
# 5 0.003313 -0.002573 -0.000658 0.000000 0.033130 0.000000
# 6 0.000000 0.000000 0.000000 -0.006689 0.000000 0.029994
#
#
# Mechanical properties :
#
#
# Convention : Reuss Voigt Hill
#
# Bulk Modulus (GPa) = 52.93699 57.16771 55.05235
# Shear Modulus (GPa) = 31.16124 33.23621 32.19872
#
# Velocity S-wave (km/s) = 3.84083 3.96664 3.90424
# Velocity P-wave (km/s) = 6.68805 6.93128 6.81075
#
# Compressibility (1/GPa) = 0.01889038
#
# Stress axis : x y z
#
# Youngs Moduli (GPa) = 66.75415 91.29793 109.36059
#
# Poissons Ratio (x) = 0.25246 0.24942
# Poissons Ratio (y) = 0.18459 0.33329
# Poissons Ratio (z) = 0.15225 0.27824
#
# Static dielectric constant tensor:
#      x y z
#    x 3.764880 0.000000 0.035670 
#    y 0.000000 3.852400 0.000000 
#    z 0.035670 0.000000 4.131490 
# 
# 
# High freq. dielectric constant tensor:
#      x y z
#    x 1.827630 0.000000 0.003000 
#    y 0.000000 1.830950 0.000000 
#    z 0.003000 0.000000 1.850120 
# 
# From -- ./inp_files/129499.got.cif
#   From: 2010.06.25/outbox.cif.g09.slc.cpg/sg15_65_cif.got.tgz:129499.got - 2010.06.28 07:06:18.
