data_PCOD8145393
_publ_section_title
;
Structure prediction by ZEFSAII (Michael W. Deem and Ramdas Pophale) SiO2 
 PCOD8145393
Probable space group: C 2/C
;
_chemical_formula_sum "Si O2"
_cell_formula_units_Z 52
_cell_length_a 24.309945
_cell_length_b 19.536454
_cell_length_c 9.987623
_cell_angle_alpha 90.000000
_cell_angle_beta 32.378446
_cell_angle_gamma 90.000000
_cell_volume 2540.146334
_symmetry_space_group_name_H-M "C 2/C"
_symmetry_group_IT_number 15
_symmetry_cell_setting 'monoclinic'
loop_
_space_group_symop_operation_xyz
x,y,z
-x,y,1/2-z
-x,-y,-z
x,-y,1/2+z
1/2+x,1/2+y,z
1/2-x,1/2+y,1/2-z
1/2-x,1/2-y,-z
1/2+x,1/2-y,1/2+z
loop_
_atom_site_type_symbol
_atom_site_label
_atom_site_fract_x
_atom_site_fract_y
_atom_site_fract_z
Si Si1 0.631395 0.862192 0.750225
Si Si2 0.786136 0.962450 0.049173
Si Si3 0.349306 0.006339 0.421843
Si Si4 0.500000 0.904298 0.250000
Si Si5 0.955965 0.767039 0.203534
Si Si6 0.963380 0.854521 0.681254
Si Si7 0.360325 0.601567 0.845199
O O1 0.617445 0.791817 0.701029
O O2 0.751396 0.878474 0.507444
O O3 0.585463 0.929982 0.772504
O O4 0.575507 0.856048 0.008505
O O5 0.728561 0.971758 0.025240
O O6 0.854350 0.893539 0.907093
O O7 0.857058 0.029678 0.929548
O O8 0.707829 0.961068 0.332580
O O9 0.429738 0.949401 0.298291
O O10 0.890665 0.834826 0.379356
O O11 0.000000 0.736828 0.250000
O O12 0.039806 0.790005 0.917335
O O13 0.000000 0.826626 0.750000
O O14 0.054572 0.905984 0.447097
#
# Coordination Sequence:
#
# PCOD8145393 Si02
#       7
#     8   8   8   4   8   8   8
#     4  11  23  42  64  89 129 172 213 262 316 385
#     4  11  22  39  66 100 130 161 216 271 331 374
#     4  11  24  41  67  97 127 166 213 276 325 377
#     4  12  24  42  68  94 120 166 224 272 320 374
#     4  10  25  39  63  94 129 175 212 259 322 387
#     4  10  22  38  65  96 132 167 209 260 324 392
#     4   9  21  40  63  91 131 174 206 256 327 383
#
# _framework density 20.471260999999998
#
# number of rings (size 3 to 8) (size 9 to 14) (size 15 to 20)
#    0.923    0.615    3.077    3.231    4.308    0.615 
#    0.000    0.000    0.000    3.692    0.000    0.000 
#    0.000    0.000    0.000    0.000    0.000    0.000 
#
# Total GULP energy -322119.525785 kJ/mol
# GULP energy per Si atom -12389.212530 kJ/mol
# Density = 2.042467 g / cm^3
# Si number density = 20.471261 Si / 1000 Ang^3
#
#
#
# Elastic Constant Matrix: (Units=GPa)
#
#
# Indices 1 2 3 4 5 6 
#
# 1 83.3799 17.1830 25.3603 0.0000 7.5787 0.0000
# 2 17.1830 50.4245 -5.2514 0.0000 2.0520 0.0000
# 3 25.3603 -5.2514 83.6135 0.0000 7.2977 0.0000
# 4 0.0000 0.0000 0.0000 27.4292 0.0000 1.4449
# 5 7.5787 2.0520 7.2977 0.0000 27.6047 0.0000
# 6 0.0000 0.0000 0.0000 1.4449 0.0000 17.9845
#
#
#
# Elastic Compliance Matrix: (Units=1/GPa)
#
#
# Indices 1 2 3 4 5 6 
#
# 1 0.014723 -0.005397 -0.004593 0.000000 -0.002427 0.000000
# 2 -0.005397 0.022034 0.003106 0.000000 -0.000977 0.000000
# 3 -0.004593 0.003106 0.013776 0.000000 -0.002612 0.000000
# 4 0.000000 0.000000 0.000000 0.036612 0.000000 -0.002941
# 5 -0.002427 -0.000977 -0.002612 0.000000 0.037655 0.000000
# 6 0.000000 0.000000 0.000000 -0.002941 0.000000 0.055840
#
#
# Mechanical properties :
#
#
# Convention : Reuss Voigt Hill
#
# Bulk Modulus (GPa) = 27.19906 32.44462 29.82184
# Shear Modulus (GPa) = 24.19412 26.61208 25.40310
#
# Velocity S-wave (km/s) = 3.44155 3.60943 3.52648
# Velocity P-wave (km/s) = 5.39515 5.76662 5.58397
#
# Compressibility (1/GPa) = 0.03676598
#
# Stress axis : x y z
#
# Youngs Moduli (GPa) = 67.92154 45.38472 72.59114
#
# Poissons Ratio (x) = 0.24492 0.33338
# Poissons Ratio (y) = 0.36655 -0.22547
# Poissons Ratio (z) = 0.31194 -0.14096
#
# Static dielectric constant tensor:
#      x y z
#    x 3.594830 0.000000 0.092810 
#    y 0.000000 3.687610 0.000000 
#    z 0.092810 0.000000 3.761960 
# 
# 
# High freq. dielectric constant tensor:
#      x y z
#    x 1.789420 0.000000 0.007100 
#    y 0.000000 1.791260 0.000000 
#    z 0.007100 0.000000 1.803490 
# 
# From -- ./inp_files/63362.got.cif
#   From: 2010.06.25/outbox.cif.g09.slc.cpg/sg15_32_cif.got.tgz:63362.got - 2010.06.28 07:06:18.
