data_PCOD8145488
_publ_section_title
;
Structure prediction by ZEFSAII (Michael W. Deem and Ramdas Pophale) SiO2 
 PCOD8145488
Probable space group: C 2/C
;
_chemical_formula_sum "Si O2"
_cell_formula_units_Z 40
_cell_length_a 7.707740
_cell_length_b 16.972798
_cell_length_c 26.388721
_cell_angle_alpha 90.000000
_cell_angle_beta 144.360619
_cell_angle_gamma 90.000000
_cell_volume 2011.547160
_symmetry_space_group_name_H-M "C 2/C"
_symmetry_group_IT_number 15
_symmetry_cell_setting 'monoclinic'
loop_
_space_group_symop_operation_xyz
x,y,z
-x,y,1/2-z
-x,-y,-z
x,-y,1/2+z
1/2+x,1/2+y,z
1/2-x,1/2+y,1/2-z
1/2-x,1/2-y,-z
1/2+x,1/2-y,1/2+z
loop_
_atom_site_type_symbol
_atom_site_label
_atom_site_fract_x
_atom_site_fract_y
_atom_site_fract_z
Si Si1 0.904288 0.158285 0.934735
Si Si2 0.197032 0.500492 0.845354
Si Si3 0.803498 0.521801 0.344897
Si Si4 0.086782 0.334076 0.568932
Si Si5 0.777853 0.406574 0.001868
O O1 0.837761 0.143184 0.977969
O O2 0.798047 0.245559 0.893003
O O3 0.728166 0.094793 0.859086
O O4 0.253156 0.151206 0.008270
O O5 0.000000 0.480824 0.750000
O O6 0.042078 0.462641 0.857505
O O7 0.520605 0.461873 0.917623
O O8 0.500000 0.485618 0.250000
O O9 0.718237 0.603527 0.352881
O O10 0.938858 0.460495 0.417108
O O11 0.112698 0.346757 0.514962
#
# Coordination Sequence:
#
# PCOD8145488 Si02
#       5
#     8   8   8   8   8
#     4  10  22  39  58  89 118 155 191 238 292 346
#     4  11  22  39  61  86 119 152 196 244 286 340
#     4  11  22  37  62  90 115 150 202 238 286 349
#     4  11  21  37  64  85 118 156 191 237 296 342
#     4  11  21  41  62  86 117 155 193 244 284 345
#
# _framework density 19.885190000000001
#
# number of rings (size 3 to 8) (size 9 to 14) (size 15 to 20)
#    0.000    1.200    4.000    3.600    2.800    0.800 
#    0.000    0.000    0.000    2.400    0.000    0.000 
#    0.000    0.000    0.000    0.000    0.000    0.000 
#
# Total GULP energy -248042.158695 kJ/mol
# GULP energy per Si atom -12402.107935 kJ/mol
# Density = 1.983993 g / cm^3
# Si number density = 19.885190 Si / 1000 Ang^3
#
#
#
# Elastic Constant Matrix: (Units=GPa)
#
#
# Indices 1 2 3 4 5 6 
#
# 1 71.2485 43.0704 2.4634 -0.0036 -0.3734 -0.0017
# 2 43.0704 97.2858 34.1618 -0.0010 1.0259 -0.0006
# 3 2.4634 34.1618 105.5891 -0.0049 5.1062 -0.0033
# 4 -0.0036 -0.0010 -0.0049 7.8919 -0.0030 -9.2527
# 5 -0.3734 1.0259 5.1062 -0.0030 26.3502 -0.0017
# 6 -0.0017 -0.0006 -0.0033 -9.2527 -0.0017 13.4788
#
#
#
# Elastic Compliance Matrix: (Units=1/GPa)
#
#
# Indices 1 2 3 4 5 6 
#
# 1 0.019815 -0.009713 0.002673 0.000066 0.000141 0.000048
# 2 -0.009713 0.016359 -0.005076 -0.000039 0.000209 -0.000028
# 3 0.002673 -0.005076 0.011144 0.000051 -0.001924 0.000037
# 4 0.000066 -0.000039 0.000051 0.649223 0.000095 0.445668
# 5 0.000141 0.000209 -0.001924 0.000095 0.038317 0.000070
# 6 0.000048 -0.000028 0.000037 0.445668 0.000070 0.380125
#
#
# Mechanical properties :
#
#
# Convention : Reuss Voigt Hill
#
# Bulk Modulus (GPa) = 43.31506 48.16828 45.74167
# Shear Modulus (GPa) = 4.35954 22.50606 13.43280
#
# Velocity S-wave (km/s) = 1.48227 3.36787 2.60189
# Velocity P-wave (km/s) = 4.97588 6.27688 5.66386
#
# Compressibility (1/GPa) = 0.02308666
#
# Stress axis : x y z
#
# Youngs Moduli (GPa) = 50.46637 61.12696 89.73657
#
# Poissons Ratio (x) = 0.59371 -0.23990
# Poissons Ratio (y) = 0.49017 0.45554
# Poissons Ratio (z) = -0.13491 0.31030
#
# Static dielectric constant tensor:
#      x y z
#    x 3.739630 0.000000 -0.013630 
#    y 0.000000 3.674160 0.000000 
#    z -0.013630 0.000000 3.422110 
# 
# 
# High freq. dielectric constant tensor:
#      x y z
#    x 1.794980 0.000000 -0.002260 
#    y 0.000000 1.771130 0.000000 
#    z -0.002260 0.000000 1.757130 
# 
# From -- ./inp_files/133174.got.cif
#   From: 2010.06.25/outbox.cif.g09.slc.cpg/sg15_67_cif.got.tgz:133174.got - 2010.06.28 07:06:18.
