data_PCOD8145251
_publ_section_title
;
Structure prediction by ZEFSAII (Michael W. Deem and Ramdas Pophale) SiO2 
 PCOD8145251
Probable space group: C 2/C
;
_chemical_formula_sum "Si O2"
_cell_formula_units_Z 44
_cell_length_a 10.567485
_cell_length_b 8.571934
_cell_length_c 24.765733
_cell_angle_alpha 90.000000
_cell_angle_beta 64.203506
_cell_angle_gamma 90.000000
_cell_volume 2019.811293
_symmetry_space_group_name_H-M "C 2/C"
_symmetry_group_IT_number 15
_symmetry_cell_setting 'monoclinic'
loop_
_space_group_symop_operation_xyz
x,y,z
-x,y,1/2-z
-x,-y,-z
x,-y,1/2+z
1/2+x,1/2+y,z
1/2-x,1/2+y,1/2-z
1/2-x,1/2-y,-z
1/2+x,1/2-y,1/2+z
loop_
_atom_site_type_symbol
_atom_site_label
_atom_site_fract_x
_atom_site_fract_y
_atom_site_fract_z
Si Si1 0.500000 0.146329 0.750000
Si Si2 0.827982 0.420540 0.840281
Si Si3 0.344781 0.565366 0.533069
Si Si4 0.145726 0.067809 0.660342
Si Si5 0.843687 0.433694 0.534842
Si Si6 0.856057 0.924288 0.728973
O O1 0.371616 0.254463 0.753794
O O2 0.456691 0.040865 0.809911
O O3 0.718550 0.482773 0.903354
O O4 0.880998 0.249894 0.847188
O O5 0.763486 0.416037 0.792580
O O6 0.500000 0.500000 0.500000
O O7 0.250723 0.519174 0.499002
O O8 0.350552 0.749239 0.540523
O O9 0.274591 0.006912 0.600760
O O10 0.184465 0.046533 0.716319
O O11 0.003395 0.973578 0.673192
O O12 0.000000 0.500000 0.500000
#
# Coordination Sequence:
#
# PCOD8145251 Si02
#       6
#     4   8   8   8   8   8
#     4  10  22  38  60  90 120 158 200 244 304 364
#     4  12  23  38  64  91 120 158 202 250 304 362
#     4  11  25  43  65  92 123 164 210 254 305 367
#     4  10  22  40  62  90 122 159 203 249 303 363
#     4  11  25  44  64  90 126 165 206 255 308 364
#     4  10  22  41  61  87 125 159 196 251 304 360
#
# _framework density 21.784213999999999
#
# number of rings (size 3 to 8) (size 9 to 14) (size 15 to 20)
#    0.000    1.455    0.000    6.545    0.000   10.182 
#    0.000    0.000    0.000    0.000    0.000    0.000 
#    0.000    0.000    0.000    0.000    0.000    0.000 
#
# Total GULP energy -272847.809254 kJ/mol
# GULP energy per Si atom -12402.173148 kJ/mol
# Density = 2.173463 g / cm^3
# Si number density = 21.784214 Si / 1000 Ang^3
#
#
#
# Elastic Constant Matrix: (Units=GPa)
#
#
# Indices 1 2 3 4 5 6 
#
# 1 83.2363 24.7489 19.2153 0.0000 1.4781 0.0000
# 2 24.7489 137.0855 51.5737 0.0000 -9.1886 0.0000
# 3 19.2153 51.5737 146.7339 0.0000 -21.1232 0.0000
# 4 0.0000 0.0000 0.0000 42.9551 0.0000 -6.7123
# 5 1.4781 -9.1886 -21.1232 0.0000 33.7937 0.0000
# 6 0.0000 0.0000 0.0000 -6.7123 0.0000 23.9886
#
#
#
# Elastic Compliance Matrix: (Units=1/GPa)
#
#
# Indices 1 2 3 4 5 6 
#
# 1 0.012931 -0.001984 -0.001269 0.000000 -0.001898 0.000000
# 2 -0.001984 0.008718 -0.002693 0.000000 0.000774 0.000000
# 3 -0.001269 -0.002693 0.008605 0.000000 0.004702 0.000000
# 4 0.000000 0.000000 0.000000 0.024345 0.000000 0.006812
# 5 -0.001898 0.000774 0.004702 0.000000 0.032824 0.000000
# 6 0.000000 0.000000 0.000000 0.006812 0.000000 0.043593
#
#
# Mechanical properties :
#
#
# Convention : Reuss Voigt Hill
#
# Bulk Modulus (GPa) = 54.46452 62.01463 58.23957
# Shear Modulus (GPa) = 33.55100 38.24865 35.89982
#
# Velocity S-wave (km/s) = 3.92873 4.19477 4.06393
# Velocity P-wave (km/s) = 6.75545 7.21047 6.98667
#
# Compressibility (1/GPa) = 0.01836058
#
# Stress axis : x y z
#
# Youngs Moduli (GPa) = 77.33549 114.70615 116.21700
#
# Poissons Ratio (x) = 0.22760 0.14750
# Poissons Ratio (y) = 0.15345 0.31296
# Poissons Ratio (z) = 0.09815 0.30889
#
# Static dielectric constant tensor:
#      x y z
#    x 3.811660 0.000000 0.030670 
#    y 0.000000 4.196910 0.000000 
#    z 0.030670 0.000000 4.393750 
# 
# 
# High freq. dielectric constant tensor:
#      x y z
#    x 1.846670 0.000000 -0.006120 
#    y 0.000000 1.876610 0.000000 
#    z -0.006120 0.000000 1.865610 
# 
# From -- ./inp_files/291428.got.cif
#   From: 2010.06.25/outbox.cif.g09.slc.cpg/sg15_146_cif.got.tgz:291428.got - 2010.06.28 07:06:18.
