data_PCOD8145647
_publ_section_title
;
Structure prediction by ZEFSAII (Michael W. Deem and Ramdas Pophale) SiO2 
 PCOD8145647
Probable space group: C 2/C
;
_chemical_formula_sum "Si O2"
_cell_formula_units_Z 48
_cell_length_a 12.500846
_cell_length_b 19.568836
_cell_length_c 12.552014
_cell_angle_alpha 90.000000
_cell_angle_beta 132.811784
_cell_angle_gamma 90.000000
_cell_volume 2252.533613
_symmetry_space_group_name_H-M "C 2/C"
_symmetry_group_IT_number 15
_symmetry_cell_setting 'monoclinic'
loop_
_space_group_symop_operation_xyz
x,y,z
-x,y,1/2-z
-x,-y,-z
x,-y,1/2+z
1/2+x,1/2+y,z
1/2-x,1/2+y,1/2-z
1/2-x,1/2-y,-z
1/2+x,1/2-y,1/2+z
loop_
_atom_site_type_symbol
_atom_site_label
_atom_site_fract_x
_atom_site_fract_y
_atom_site_fract_z
Si Si1 0.659313 0.763725 0.336430
Si Si2 0.085245 0.024690 0.410246
Si Si3 0.878704 0.896364 0.916294
Si Si4 0.583308 0.267000 0.413165
Si Si5 0.633269 0.167116 0.128566
Si Si6 0.123909 0.598488 0.898969
O O1 0.500000 0.731408 0.250000
O O2 0.750000 0.750000 0.500000
O O3 0.740982 0.726262 0.294739
O O4 0.653679 0.845909 0.323829
O O5 0.239770 0.053394 0.477329
O O6 0.000000 0.997113 0.250000
O O7 0.994989 0.086660 0.402435
O O8 0.121113 0.961389 0.508162
O O9 0.714403 0.888999 0.757353
O O10 0.929961 0.828758 0.012540
O O11 0.500000 0.289188 0.250000
O O12 0.750000 0.250000 0.500000
O O13 0.508503 0.198912 0.411234
O O14 0.578046 0.136021 0.978691
O O15 0.000000 0.554730 0.750000
#
# Coordination Sequence:
#
# PCOD8145647 Si02
#       6
#     8   8   8   8   8   8
#     4   9  20  31  58  97 130 163 200 274 344 399
#     4  11  23  45  71  99 135 181 230 280 336 412
#     4  11  25  42  72  99 132 183 232 274 340 418
#     4  12  26  45  67  98 137 182 230 283 340 413
#     4  11  23  40  67  99 134 178 227 281 348 401
#     4  10  22  39  64 103 138 166 219 287 347 403
#
# _framework density 21.309336999999999
#
# number of rings (size 3 to 8) (size 9 to 14) (size 15 to 20)
#    0.000    1.333    3.333    1.500   11.667    1.333 
#    3.000    0.833    0.000    0.000    0.000    0.000 
#    0.000    0.000    0.000    0.000    0.000    0.000 
#
# Total GULP energy -297418.960492 kJ/mol
# GULP energy per Si atom -12392.456687 kJ/mol
# Density = 2.126084 g / cm^3
# Si number density = 21.309337 Si / 1000 Ang^3
#
#
#
# Elastic Constant Matrix: (Units=GPa)
#
#
# Indices 1 2 3 4 5 6 
#
# 1 102.2779 31.9516 46.7108 0.0000 17.2032 0.0000
# 2 31.9516 68.5242 42.5787 0.0000 2.9397 0.0000
# 3 46.7108 42.5787 167.7558 0.0000 10.3048 0.0000
# 4 0.0000 0.0000 0.0000 34.9933 0.0000 -3.5303
# 5 17.2032 2.9397 10.3048 0.0000 38.8526 0.0000
# 6 0.0000 0.0000 0.0000 -3.5303 0.0000 20.3913
#
#
#
# Elastic Compliance Matrix: (Units=1/GPa)
#
#
# Indices 1 2 3 4 5 6 
#
# 1 0.012990 -0.004496 -0.002179 0.000000 -0.004834 0.000000
# 2 -0.004496 0.018883 -0.003635 0.000000 0.001526 0.000000
# 3 -0.002179 -0.003635 0.007537 0.000000 -0.000759 0.000000
# 4 0.000000 0.000000 0.000000 0.029085 0.000000 0.005035
# 5 -0.004834 0.001526 -0.000759 0.000000 0.027964 0.000000
# 6 0.000000 0.000000 0.000000 0.005035 0.000000 0.049912
#
#
# Mechanical properties :
#
#
# Convention : Reuss Voigt Hill
#
# Bulk Modulus (GPa) = 53.21717 64.56001 58.88859
# Shear Modulus (GPa) = 28.85952 33.33523 31.09738
#
# Velocity S-wave (km/s) = 3.68409 3.95948 3.82426
# Velocity P-wave (km/s) = 6.56693 7.16000 6.86987
#
# Compressibility (1/GPa) = 0.01879093
#
# Stress axis : x y z
#
# Youngs Moduli (GPa) = 76.98300 52.95892 132.68011
#
# Poissons Ratio (x) = 0.23808 0.28911
# Poissons Ratio (y) = 0.34609 0.48224
# Poissons Ratio (z) = 0.16775 0.19248
#
# Static dielectric constant tensor:
#      x y z
#    x 2.517870 0.000000 -0.201260 
#    y 0.000000 2.364320 0.000000 
#    z -0.201260 0.000000 4.083130 
# 
# 
# High freq. dielectric constant tensor:
#      x y z
#    x 1.819770 0.000000 0.004060 
#    y 0.000000 1.814390 0.000000 
#    z 0.004060 0.000000 1.867620 
# 
# From -- ./inp_files/89765.got.cif
#   From: 2010.06.25/outbox.cif.g09.slc.cpg/sg15_45_cif.got.tgz:89765.got - 2010.06.28 07:06:18.
