data_PCOD8145153
_publ_section_title
;
Structure prediction by ZEFSAII (Michael W. Deem and Ramdas Pophale) SiO2 
 PCOD8145153
Probable space group: C 2/C
;
_chemical_formula_sum "Si O2"
_cell_formula_units_Z 64
_cell_length_a 16.601361
_cell_length_b 29.983962
_cell_length_c 9.796492
_cell_angle_alpha 90.000000
_cell_angle_beta 139.801017
_cell_angle_gamma 90.000000
_cell_volume 3147.472586
_symmetry_space_group_name_H-M "C 2/C"
_symmetry_group_IT_number 15
_symmetry_cell_setting 'monoclinic'
loop_
_space_group_symop_operation_xyz
x,y,z
-x,y,1/2-z
-x,-y,-z
x,-y,1/2+z
1/2+x,1/2+y,z
1/2-x,1/2+y,1/2-z
1/2-x,1/2-y,-z
1/2+x,1/2-y,1/2+z
loop_
_atom_site_type_symbol
_atom_site_label
_atom_site_fract_x
_atom_site_fract_y
_atom_site_fract_z
Si Si1 0.106530 0.192268 0.779365
Si Si2 0.888944 0.297956 0.710546
Si Si3 0.912953 0.512722 0.009380
Si Si4 0.937562 0.647890 0.524050
Si Si5 0.409493 0.634029 0.002981
Si Si6 0.222960 0.571417 0.086938
Si Si7 0.508641 0.542460 0.107341
Si Si8 0.658590 0.903377 0.217289
O O1 0.106166 0.245119 0.777361
O O2 0.063875 0.169826 0.581052
O O3 0.000000 0.175725 0.750000
O O4 0.253392 0.180243 0.995739
O O5 0.000000 0.314542 0.750000
O O6 0.905500 0.309201 0.892504
O O7 0.000000 0.517399 0.250000
O O8 0.810005 0.474071 0.879671
O O9 0.837140 0.559137 0.894826
O O10 0.000000 0.500000 0.000000
O O11 0.816288 0.616729 0.386928
O O12 0.000000 0.661574 0.750000
O O13 0.027902 0.621429 0.539341
O O14 0.500000 0.643144 0.250000
O O15 0.409372 0.581836 0.952505
O O16 0.263845 0.635616 0.856062
O O17 0.369664 0.572385 0.257918
O O18 0.154554 0.569376 0.853565
O O19 0.500000 0.523705 0.250000
O O20 0.500000 0.500000 0.000000
#
# Coordination Sequence:
#
# PCOD8145153 Si02
#       8
#     8   8   8   8   8   8   8   8
#     4  10  24  42  68  96 129 166 203 259 320 376
#     4  10  22  45  65  95 135 162 199 259 322 381
#     4  12  22  37  58  86 121 160 204 254 312 371
#     4  10  22  37  66  92 121 161 201 255 311 371
#     4  11  23  42  65  88 124 167 214 258 305 376
#     4  11  21  39  59  83 124 156 200 257 309 355
#     4  11  24  42  60  85 123 170 210 259 308 359
#     4  11  21  40  58  87 121 159 202 254 313 358
#
# _framework density 20.333774999999999
#
# number of rings (size 3 to 8) (size 9 to 14) (size 15 to 20)
#    0.000    1.250    5.000    1.875    1.750    2.500 
#    0.000    0.000    0.000    6.750    0.000    0.000 
#    0.000    0.000    0.000    0.000    0.000    0.000 
#
# Total GULP energy -396422.259691 kJ/mol
# GULP energy per Si atom -12388.195615 kJ/mol
# Density = 2.028749 g / cm^3
# Si number density = 20.333775 Si / 1000 Ang^3
#
#
#
# Elastic Constant Matrix: (Units=GPa)
#
#
# Indices 1 2 3 4 5 6 
#
# 1 127.4109 26.2446 51.7785 0.0000 1.3589 0.0000
# 2 26.2446 31.7705 29.8358 0.0000 -12.9148 0.0000
# 3 51.7785 29.8358 93.2238 0.0000 -8.8423 0.0000
# 4 0.0000 0.0000 0.0000 22.1714 0.0000 -9.1307
# 5 1.3589 -12.9148 -8.8423 0.0000 35.7608 0.0000
# 6 0.0000 0.0000 0.0000 -9.1307 0.0000 29.9277
#
#
#
# Elastic Compliance Matrix: (Units=1/GPa)
#
#
# Indices 1 2 3 4 5 6 
#
# 1 0.011026 -0.006557 -0.004393 0.000000 -0.003873 0.000000
# 2 -0.006557 0.055688 -0.012544 0.000000 0.017259 0.000000
# 3 -0.004393 -0.012544 0.017170 0.000000 -0.000118 0.000000
# 4 0.000000 0.000000 0.000000 0.051584 0.000000 0.015738
# 5 -0.003873 0.017259 -0.000118 0.000000 0.034315 0.000000
# 6 0.000000 0.000000 0.000000 0.015738 0.000000 0.038215
#
#
# Mechanical properties :
#
#
# Convention : Reuss Voigt Hill
#
# Bulk Modulus (GPa) = 27.10262 52.01365 39.55814
# Shear Modulus (GPa) = 18.70662 27.20839 22.95750
#
# Velocity S-wave (km/s) = 3.03640 3.66196 3.36375
# Velocity P-wave (km/s) = 5.06466 6.59662 5.88074
#
# Compressibility (1/GPa) = 0.03689680
#
# Stress axis : x y z
#
# Youngs Moduli (GPa) = 90.69641 17.95707 58.24101
#
# Poissons Ratio (x) = 0.11775 0.25583
# Poissons Ratio (y) = 0.59473 0.73055
# Poissons Ratio (z) = 0.39840 0.22525
#
# Static dielectric constant tensor:
#      x y z
#    x 4.110330 0.000000 0.241220 
#    y 0.000000 2.871680 0.000000 
#    z 0.241220 0.000000 3.569120 
# 
# 
# High freq. dielectric constant tensor:
#      x y z
#    x 1.813130 0.000000 0.011540 
#    y 0.000000 1.778900 0.000000 
#    z 0.011540 0.000000 1.789170 
# 
# From -- ./inp_files/44870.got.cif
#   From: 2010.06.25/outbox.cif.g09.slc.cpg/sg15_23_cif.got.tgz:44870.got - 2010.06.28 07:06:18.
