data_PCOD8145465
_publ_section_title
;
Structure prediction by ZEFSAII (Michael W. Deem and Ramdas Pophale) SiO2 
 PCOD8145465
Probable space group: C 2/C
;
_chemical_formula_sum "Si O2"
_cell_formula_units_Z 56
_cell_length_a 9.752954
_cell_length_b 18.891303
_cell_length_c 16.152149
_cell_angle_alpha 90.000000
_cell_angle_beta 114.123433
_cell_angle_gamma 90.000000
_cell_volume 2716.068992
_symmetry_space_group_name_H-M "C 2/C"
_symmetry_group_IT_number 15
_symmetry_cell_setting 'monoclinic'
loop_
_space_group_symop_operation_xyz
x,y,z
-x,y,1/2-z
-x,-y,-z
x,-y,1/2+z
1/2+x,1/2+y,z
1/2-x,1/2+y,1/2-z
1/2-x,1/2-y,-z
1/2+x,1/2-y,1/2+z
loop_
_atom_site_type_symbol
_atom_site_label
_atom_site_fract_x
_atom_site_fract_y
_atom_site_fract_z
Si Si1 0.309884 0.229681 0.303795
Si Si2 0.321150 0.118115 0.700590
Si Si3 0.160842 0.718902 0.370595
Si Si4 0.329130 0.544216 0.686851
Si Si5 0.186615 0.139209 0.964708
Si Si6 0.862276 0.112339 0.159540
Si Si7 0.916815 0.923664 0.482950
O O1 0.235989 0.301764 0.316707
O O2 0.486187 0.233894 0.334153
O O3 0.258585 0.209485 0.198362
O O4 0.268138 0.170184 0.361136
O O5 0.500000 0.115584 0.750000
O O6 0.275518 0.080038 0.772919
O O7 0.246488 0.076273 0.603352
O O8 0.228818 0.791061 0.423488
O O9 0.202598 0.646218 0.429223
O O10 0.500000 0.566060 0.750000
O O11 0.281746 0.570683 0.583691
O O12 0.304162 0.460821 0.683863
O O13 0.016625 0.133664 0.957588
O O14 0.000000 0.139652 0.250000
O O15 0.902532 0.102345 0.073553
O O16 0.000000 0.000000 0.500000
#
# Coordination Sequence:
#
# PCOD8145465 Si02
#       7
#     8   8   8   8   8   8   8
#     4  11  22  45  63  95 140 178 218 287 348 399
#     4  12  26  43  70 103 138 178 230 291 347 408
#     4  10  22  38  70  97 125 173 237 272 327 414
#     4  11  20  44  70  90 132 186 232 270 338 420
#     4  11  20  39  70  97 121 171 237 276 322 404
#     4  11  24  41  66  98 136 180 226 284 351 406
#     4  12  23  44  71 100 134 183 233 281 339 418
#
# _framework density 20.618031999999999
#
# number of rings (size 3 to 8) (size 9 to 14) (size 15 to 20)
#    0.000    0.857    5.714    2.143    0.000    1.714 
#    5.143    1.429    0.000    0.000    0.000    0.000 
#    0.000    0.000    0.000    0.000    0.000    0.000 
#
# Total GULP energy -347005.190535 kJ/mol
# GULP energy per Si atom -12393.042519 kJ/mol
# Density = 2.057110 g / cm^3
# Si number density = 20.618032 Si / 1000 Ang^3
#
#
#
# Elastic Constant Matrix: (Units=GPa)
#
#
# Indices 1 2 3 4 5 6 
#
# 1 109.1531 41.9580 42.9901 0.0000 -8.1434 0.0000
# 2 41.9580 90.1634 32.6651 0.0000 -4.9517 0.0000
# 3 42.9901 32.6651 119.8666 0.0000 -7.0543 0.0000
# 4 0.0000 0.0000 0.0000 32.2150 0.0000 -7.5745
# 5 -8.1434 -4.9517 -7.0543 0.0000 39.4318 0.0000
# 6 0.0000 0.0000 0.0000 -7.5745 0.0000 21.8875
#
#
#
# Elastic Compliance Matrix: (Units=1/GPa)
#
#
# Indices 1 2 3 4 5 6 
#
# 1 0.012201 -0.004488 -0.003070 0.000000 0.001407 0.000000
# 2 -0.004488 0.013993 -0.002178 0.000000 0.000441 0.000000
# 3 -0.003070 -0.002178 0.010090 0.000000 0.000898 0.000000
# 4 0.000000 0.000000 0.000000 0.033791 0.000000 0.011694
# 5 0.001407 0.000441 0.000898 0.000000 0.025867 0.000000
# 6 0.000000 0.000000 0.000000 0.011694 0.000000 0.049735
#
#
# Mechanical properties :
#
#
# Convention : Reuss Voigt Hill
#
# Bulk Modulus (GPa) = 59.48146 61.60105 60.54126
# Shear Modulus (GPa) = 29.28233 32.14483 30.71358
#
# Velocity S-wave (km/s) = 3.77268 3.95278 3.86378
# Velocity P-wave (km/s) = 6.92021 7.12564 7.02368
#
# Compressibility (1/GPa) = 0.01681196
#
# Stress axis : x y z
#
# Youngs Moduli (GPa) = 81.96219 71.46580 99.10938
#
# Poissons Ratio (x) = 0.32076 0.30426
# Poissons Ratio (y) = 0.36787 0.21581
# Poissons Ratio (z) = 0.25162 0.15562
#
# Static dielectric constant tensor:
#      x y z
#    x 3.698640 0.000000 -0.109700 
#    y 0.000000 3.762920 0.000000 
#    z -0.109700 0.000000 4.161580 
# 
# 
# High freq. dielectric constant tensor:
#      x y z
#    x 1.793220 0.000000 -0.014290 
#    y 0.000000 1.806330 0.000000 
#    z -0.014290 0.000000 1.818630 
# 
# From -- ./inp_files/191036.got.cif
#   From: 2010.06.25/outbox.cif.g09.slc.cpg/sg15_96_cif.got.tgz:191036.got - 2010.06.28 07:06:18.
