data_PCOD8145800
_publ_section_title
;
Structure prediction by ZEFSAII (Michael W. Deem and Ramdas Pophale) SiO2 
 PCOD8145800
Probable space group: C 2/C
;
_chemical_formula_sum "Si O2"
_cell_formula_units_Z 52
_cell_length_a 28.529927
_cell_length_b 10.584833
_cell_length_c 8.928790
_cell_angle_alpha 90.000000
_cell_angle_beta 80.724917
_cell_angle_gamma 90.000000
_cell_volume 2661.103871
_symmetry_space_group_name_H-M "C 2/C"
_symmetry_group_IT_number 15
_symmetry_cell_setting 'monoclinic'
loop_
_space_group_symop_operation_xyz
x,y,z
-x,y,1/2-z
-x,-y,-z
x,-y,1/2+z
1/2+x,1/2+y,z
1/2-x,1/2+y,1/2-z
1/2-x,1/2-y,-z
1/2+x,1/2-y,1/2+z
loop_
_atom_site_type_symbol
_atom_site_label
_atom_site_fract_x
_atom_site_fract_y
_atom_site_fract_z
Si Si1 0.158736 0.429394 0.454452
Si Si2 0.000000 0.532447 0.750000
Si Si3 0.802424 0.356295 0.748974
Si Si4 0.064184 0.411895 0.962611
Si Si5 0.694072 0.665168 0.347868
Si Si6 0.621223 0.329093 0.374136
Si Si7 0.648727 0.503771 0.117439
O O1 0.167408 0.406300 0.625065
O O2 0.196676 0.531826 0.374149
O O3 0.105330 0.482203 0.458525
O O4 0.165985 0.298138 0.361385
O O5 0.026421 0.447115 0.857101
O O6 0.038649 0.612845 0.636294
O O7 0.750284 0.313228 0.822742
O O8 0.826188 0.231218 0.666713
O O9 0.082595 0.278922 0.895015
O O10 0.681614 0.589755 0.204975
O O11 0.681978 0.587219 0.502748
O O12 0.612739 0.420761 0.236568
O O13 0.616890 0.408195 0.528707
#
# Coordination Sequence:
#
# PCOD8145800 Si02
#       7
#     8   4   8   8   8   8   8
#     4  11  23  37  61  86 124 162 199 257 292 358
#     4  10  22  40  70  96 116 144 180 264 320 376
#     4  11  23  36  55  87 122 165 208 259 287 334
#     4  10  22  41  65  98 117 146 197 247 324 356
#     4  11  23  37  56  83 123 167 216 244 290 340
#     4  10  22  40  59  85 124 155 208 243 294 368
#     4  10  23  38  56  84 113 175 196 248 283 349
#
# _framework density 19.540762999999998
#
# number of rings (size 3 to 8) (size 9 to 14) (size 15 to 20)
#    0.000    1.538    1.538    3.231   10.769    0.615 
#    0.000    0.000    0.000    2.769    0.000    0.000 
#    0.000    0.000    0.000    0.000    0.000    0.000 
#
# Total GULP energy -322408.829159 kJ/mol
# GULP energy per Si atom -12400.339583 kJ/mol
# Density = 1.949629 g / cm^3
# Si number density = 19.540763 Si / 1000 Ang^3
#
#
#
# Elastic Constant Matrix: (Units=GPa)
#
#
# Indices 1 2 3 4 5 6 
#
# 1 81.6785 32.1278 35.4613 0.0000 -11.3947 0.0000
# 2 32.1278 113.8609 48.5829 0.0000 -3.3181 0.0000
# 3 35.4613 48.5829 125.2114 0.0000 -2.1022 0.0000
# 4 0.0000 0.0000 0.0000 18.4266 0.0000 -4.7591
# 5 -11.3947 -3.3181 -2.1022 0.0000 24.6992 0.0000
# 6 0.0000 0.0000 0.0000 -4.7591 0.0000 11.5622
#
#
#
# Elastic Compliance Matrix: (Units=1/GPa)
#
#
# Indices 1 2 3 4 5 6 
#
# 1 0.015684 -0.002859 -0.003222 0.000000 0.006577 0.000000
# 2 -0.002859 0.011075 -0.003489 0.000000 -0.000128 0.000000
# 3 -0.003222 -0.003489 0.010235 0.000000 -0.001084 0.000000
# 4 0.000000 0.000000 0.000000 0.060725 0.000000 0.024995
# 5 0.006577 -0.000128 -0.001084 0.000000 0.043412 0.000000
# 6 0.000000 0.000000 0.000000 0.024995 0.000000 0.096776
#
#
# Mechanical properties :
#
#
# Convention : Reuss Voigt Hill
#
# Bulk Modulus (GPa) = 56.01546 61.45498 58.73522
# Shear Modulus (GPa) = 19.01147 24.57618 21.79383
#
# Velocity S-wave (km/s) = 3.12254 3.55024 3.34323
# Velocity P-wave (km/s) = 6.45976 6.95151 6.71014
#
# Compressibility (1/GPa) = 0.01785222
#
# Stress axis : x y z
#
# Youngs Moduli (GPa) = 63.75817 90.29728 97.70596
#
# Poissons Ratio (x) = 0.25816 0.31483
# Poissons Ratio (y) = 0.18229 0.34094
# Poissons Ratio (z) = 0.20544 0.31509
#
# Static dielectric constant tensor:
#      x y z
#    x 3.312340 0.000000 -0.150280 
#    y 0.000000 3.726850 0.000000 
#    z -0.150280 0.000000 3.953500 
# 
# 
# High freq. dielectric constant tensor:
#      x y z
#    x 1.731090 0.000000 -0.003820 
#    y 0.000000 1.766420 0.000000 
#    z -0.003820 0.000000 1.787060 
# 
# From -- ./inp_files/65141.got.cif
#   From: 2010.06.25/outbox.cif.g09.slc.cpg/sg15_33_cif.got.tgz:65141.got - 2010.06.28 07:06:18.
