data_PCOD8145268
_publ_section_title
;
Structure prediction by ZEFSAII (Michael W. Deem and Ramdas Pophale) SiO2 
 PCOD8145268
Probable space group: C 2/C
;
_chemical_formula_sum "Si O2"
_cell_formula_units_Z 56
_cell_length_a 8.518668
_cell_length_b 12.196106
_cell_length_c 28.059569
_cell_angle_alpha 90.000000
_cell_angle_beta 70.633797
_cell_angle_gamma 90.000000
_cell_volume 2750.288373
_symmetry_space_group_name_H-M "C 2/C"
_symmetry_group_IT_number 15
_symmetry_cell_setting 'monoclinic'
loop_
_space_group_symop_operation_xyz
x,y,z
-x,y,1/2-z
-x,-y,-z
x,-y,1/2+z
1/2+x,1/2+y,z
1/2-x,1/2+y,1/2-z
1/2-x,1/2-y,-z
1/2+x,1/2-y,1/2+z
loop_
_atom_site_type_symbol
_atom_site_label
_atom_site_fract_x
_atom_site_fract_y
_atom_site_fract_z
Si Si1 0.355178 0.250647 0.698526
Si Si2 0.619262 0.445782 0.449941
Si Si3 0.280247 0.602761 0.868317
Si Si4 0.112078 0.014872 0.345699
Si Si5 0.509073 0.753349 0.590322
Si Si6 0.532237 0.992605 0.552294
Si Si7 0.777067 0.293891 0.312361
O O1 0.257643 0.160393 0.677937
O O2 0.324951 0.369956 0.679732
O O3 0.549811 0.223488 0.678161
O O4 0.280478 0.252718 0.758841
O O5 0.500000 0.500000 0.500000
O O6 0.610180 0.518818 0.403160
O O7 0.562154 0.321696 0.445142
O O8 0.805345 0.437472 0.451359
O O9 0.428183 0.515401 0.844812
O O10 0.332356 0.693449 0.902141
O O11 0.121060 0.538644 0.902826
O O12 0.242453 0.923757 0.314692
O O13 0.567523 0.867311 0.562931
O O14 0.367010 0.770084 0.644745
O O15 0.500000 0.000000 0.500000
#
# Coordination Sequence:
#
# PCOD8145268 Si02
#       7
#     8   8   8   8   8   8   8
#     4  11  21  38  63  85 116 157 193 238 289 340
#     4  10  22  41  62  86 119 154 193 242 292 344
#     4  10  22  38  61  88 114 152 199 236 285 349
#     4  10  22  40  59  86 120 152 193 244 290 340
#     4  10  23  42  58  84 124 151 188 247 290 337
#     4  12  24  38  62  90 115 155 198 234 290 354
#     4   9  22  39  57  88 119 151 193 236 290 345
#
# _framework density 20.361502999999999
#
# number of rings (size 3 to 8) (size 9 to 14) (size 15 to 20)
#    0.000    2.000    0.000    5.143    0.000    9.714 
#    0.000    4.286    0.000    0.000    0.000    0.000 
#    0.000    0.000    0.000    0.000    0.000    0.000 
#
# Total GULP energy -347309.451468 kJ/mol
# GULP energy per Si atom -12403.908981 kJ/mol
# Density = 2.031516 g / cm^3
# Si number density = 20.361503 Si / 1000 Ang^3
#
#
#
# Elastic Constant Matrix: (Units=GPa)
#
#
# Indices 1 2 3 4 5 6 
#
# 1 77.3714 14.9010 7.1619 0.0000 18.5586 0.0000
# 2 14.9010 70.5477 34.1824 0.0000 4.3216 0.0000
# 3 7.1619 34.1824 84.8051 0.0000 10.9133 0.0000
# 4 0.0000 0.0000 0.0000 24.3323 0.0000 1.6003
# 5 18.5586 4.3216 10.9133 0.0000 35.4068 0.0000
# 6 0.0000 0.0000 0.0000 1.6003 0.0000 22.1573
#
#
#
# Elastic Compliance Matrix: (Units=1/GPa)
#
#
# Indices 1 2 3 4 5 6 
#
# 1 0.015371 -0.003264 0.001044 0.000000 -0.007980 0.000000
# 2 -0.003264 0.018308 -0.007327 0.000000 0.001734 0.000000
# 3 0.001044 -0.007327 0.015216 0.000000 -0.004343 0.000000
# 4 0.000000 0.000000 0.000000 0.041294 0.000000 -0.002983
# 5 -0.007980 0.001734 -0.004343 0.000000 0.033553 0.000000
# 6 0.000000 0.000000 0.000000 -0.002983 0.000000 0.045347
#
#
# Mechanical properties :
#
#
# Convention : Reuss Voigt Hill
#
# Bulk Modulus (GPa) = 33.55512 38.35721 35.95616
# Shear Modulus (GPa) = 25.23784 28.14454 26.69119
#
# Velocity S-wave (km/s) = 3.52446 3.72189 3.62452
# Velocity P-wave (km/s) = 5.75133 6.11138 5.93409
#
# Compressibility (1/GPa) = 0.02980172
#
# Stress axis : x y z
#
# Youngs Moduli (GPa) = 65.05882 54.62072 65.72148
#
# Poissons Ratio (x) = 0.17827 -0.06864
# Poissons Ratio (y) = 0.21234 0.48154
# Poissons Ratio (z) = -0.06795 0.40021
#
# Static dielectric constant tensor:
#      x y z
#    x 3.864130 0.000000 0.051600 
#    y 0.000000 3.646980 0.000000 
#    z 0.051600 0.000000 3.658330 
# 
# 
# High freq. dielectric constant tensor:
#      x y z
#    x 1.809840 0.000000 0.003790 
#    y 0.000000 1.792710 0.000000 
#    z 0.003790 0.000000 1.798880 
# 
# From -- ./inp_files/307063.got.cif
#   From: 2010.06.25/outbox.cif.g09.slc.cpg/sg15_154_cif.got.tgz:307063.got - 2010.06.28 07:06:18.
