data_PCOD8145805
_publ_section_title
;
Structure prediction by ZEFSAII (Michael W. Deem and Ramdas Pophale) SiO2 
 PCOD8145805
Probable space group: C 2/C
;
_chemical_formula_sum "Si O2"
_cell_formula_units_Z 36
_cell_length_a 12.106557
_cell_length_b 17.615084
_cell_length_c 10.534324
_cell_angle_alpha 90.000000
_cell_angle_beta 127.825192
_cell_angle_gamma 90.000000
_cell_volume 1774.500622
_symmetry_space_group_name_H-M "C 2/C"
_symmetry_group_IT_number 15
_symmetry_cell_setting 'monoclinic'
loop_
_space_group_symop_operation_xyz
x,y,z
-x,y,1/2-z
-x,-y,-z
x,-y,1/2+z
1/2+x,1/2+y,z
1/2-x,1/2+y,1/2-z
1/2-x,1/2-y,-z
1/2+x,1/2-y,1/2+z
loop_
_atom_site_type_symbol
_atom_site_label
_atom_site_fract_x
_atom_site_fract_y
_atom_site_fract_z
Si Si1 0.588254 0.713181 0.187148
Si Si2 0.000000 0.586222 0.250000
Si Si3 0.864466 0.478243 0.979939
Si Si4 0.105059 0.321312 0.584656
Si Si5 0.574694 0.462481 0.670688
O O1 0.500000 0.732547 0.250000
O O2 0.754226 0.730135 0.315417
O O3 0.572322 0.626145 0.136822
O O4 0.526493 0.767524 0.035152
O O5 0.926807 0.638590 0.303612
O O6 0.126696 0.530668 0.388120
O O7 0.870704 0.386699 0.006981
O O8 0.729543 0.496502 0.798640
O O9 0.000000 0.500000 0.000000
O O10 0.500000 0.480130 0.750000
O O11 0.500000 0.500000 0.500000
#
# Coordination Sequence:
#
# PCOD8145805 Si02
#       5
#     8   4   8   8   8
#     4  10  22  40  59  91 123 165 210 252 311 376
#     4  10  22  40  64  96 124 162 212 260 314 372
#     4   9  21  38  62  88 122 162 207 253 307 374
#     4  10  22  40  62  89 126 161 210 255 311 374
#     4  10  23  40  62  91 126 163 210 262 315 370
#
# _framework density 20.287398
#
# number of rings (size 3 to 8) (size 9 to 14) (size 15 to 20)
#    0.000    2.222    0.000    0.667   10.889    4.444 
#    2.000    0.000    0.000    0.000    0.000    0.000 
#    0.000    0.000    0.000    0.000    0.000    0.000 
#
# Total GULP energy -223058.486526 kJ/mol
# GULP energy per Si atom -12392.138140 kJ/mol
# Density = 2.024122 g / cm^3
# Si number density = 20.287398 Si / 1000 Ang^3
#
#
#
# Elastic Constant Matrix: (Units=GPa)
#
#
# Indices 1 2 3 4 5 6 
#
# 1 84.6528 38.4651 53.5845 0.0000 16.7374 0.0000
# 2 38.4651 85.8254 84.4535 0.0000 6.2177 0.0000
# 3 53.5845 84.4535 172.0667 0.0000 23.0926 0.0000
# 4 0.0000 0.0000 0.0000 49.1187 0.0000 5.0608
# 5 16.7374 6.2177 23.0926 0.0000 43.5973 0.0000
# 6 0.0000 0.0000 0.0000 5.0608 0.0000 24.4219
#
#
#
# Elastic Compliance Matrix: (Units=1/GPa)
#
#
# Indices 1 2 3 4 5 6 
#
# 1 0.016227 -0.004962 -0.002020 0.000000 -0.004452 0.000000
# 2 -0.004962 0.024386 -0.010994 0.000000 0.004250 0.000000
# 3 -0.002020 -0.010994 0.012404 0.000000 -0.004227 0.000000
# 4 0.000000 0.000000 0.000000 0.020803 0.000000 -0.004311
# 5 -0.004452 0.004250 -0.004227 0.000000 0.026279 0.000000
# 6 0.000000 0.000000 0.000000 -0.004311 0.000000 0.041840
#
#
# Mechanical properties :
#
#
# Convention : Reuss Voigt Hill
#
# Bulk Modulus (GPa) = 58.60341 77.28347 67.94344
# Shear Modulus (GPa) = 27.23605 34.49704 30.86654
#
# Velocity S-wave (km/s) = 3.66800 4.12809 3.90483
# Velocity P-wave (km/s) = 6.84750 7.80375 7.34121
#
# Compressibility (1/GPa) = 0.01706385
#
# Stress axis : x y z
#
# Youngs Moduli (GPa) = 61.62712 41.00713 80.61642
#
# Poissons Ratio (x) = 0.20347 0.16289
# Poissons Ratio (y) = 0.30578 0.88633
# Poissons Ratio (z) = 0.12452 0.45085
#
# Static dielectric constant tensor:
#      x y z
#    x 3.662570 0.000000 0.182680 
#    y 0.000000 4.048820 0.000000 
#    z 0.182680 0.000000 3.817350 
# 
# 
# High freq. dielectric constant tensor:
#      x y z
#    x 1.792670 0.000000 0.014950 
#    y 0.000000 1.789830 0.000000 
#    z 0.014950 0.000000 1.793440 
# 
# From -- ./inp_files/30115.got.cif
#   From: 2010.06.25/outbox.cif.g09.slc.cpg/sg15_16_cif.got.tgz:30115.got - 2010.06.28 07:06:18.
