data_PCOD8145318
_publ_section_title
;
Structure prediction by ZEFSAII (Michael W. Deem and Ramdas Pophale) SiO2 
 PCOD8145318
Probable space group: C 2/C
;
_chemical_formula_sum "Si O2"
_cell_formula_units_Z 64
_cell_length_a 18.388361
_cell_length_b 13.353026
_cell_length_c 15.611836
_cell_angle_alpha 90.000000
_cell_angle_beta 48.014738
_cell_angle_gamma 90.000000
_cell_volume 2849.382249
_symmetry_space_group_name_H-M "C 2/C"
_symmetry_group_IT_number 15
_symmetry_cell_setting 'monoclinic'
loop_
_space_group_symop_operation_xyz
x,y,z
-x,y,1/2-z
-x,-y,-z
x,-y,1/2+z
1/2+x,1/2+y,z
1/2-x,1/2+y,1/2-z
1/2-x,1/2-y,-z
1/2+x,1/2-y,1/2+z
loop_
_atom_site_type_symbol
_atom_site_label
_atom_site_fract_x
_atom_site_fract_y
_atom_site_fract_z
Si Si1 0.226564 0.059577 0.945466
Si Si2 0.585662 0.410957 0.125580
Si Si3 0.037166 0.704198 0.089966
Si Si4 0.784075 0.283647 0.269732
Si Si5 0.483646 0.861322 0.086753
Si Si6 0.797791 0.393950 0.569379
Si Si7 0.232278 0.378822 0.400027
Si Si8 0.925312 0.531408 0.240067
O O1 0.217414 0.142270 0.879543
O O2 0.314880 0.981880 0.858648
O O3 0.239918 0.115078 0.025833
O O4 0.127494 0.993763 0.027063
O O5 0.500000 0.460557 0.250000
O O6 0.536002 0.321735 0.110395
O O7 0.669800 0.370508 0.122323
O O8 0.951165 0.649483 0.211540
O O9 0.143492 0.659117 0.030351
O O10 0.016326 0.678242 0.008789
O O11 0.753662 0.170730 0.315540
O O12 0.760780 0.308575 0.189272
O O13 0.899751 0.296010 0.201908
O O14 0.446212 0.976260 0.131890
O O15 0.593367 0.852070 0.035256
O O16 0.793465 0.507535 0.607609
O O17 0.000000 0.481545 0.250000
#
# Coordination Sequence:
#
# PCOD8145318 Si02
#       8
#     8   8   8   8   8   8   8   8
#     4  10  23  43  65  93 127 169 217 274 319 381
#     4  11  25  43  61  89 134 178 215 256 330 404
#     4  11  22  37  64  97 128 164 215 265 328 388
#     4  10  24  39  67  99 125 168 219 267 325 384
#     4  10  22  38  62  97 127 163 213 270 321 375
#     4  11  21  42  64  91 136 165 216 268 322 386
#     4  10  23  43  64  95 133 170 211 277 323 381
#     4  11  18  36  64  96 120 163 208 273 327 361
#
# _framework density 22.461010999999999
#
# number of rings (size 3 to 8) (size 9 to 14) (size 15 to 20)
#    0.000    1.500    2.500    2.250    5.250    3.000 
#    4.500    0.625    0.000    0.000    0.000    0.000 
#    0.000    0.000    0.000    0.000    0.000    0.000 
#
# Total GULP energy -396655.542356 kJ/mol
# GULP energy per Si atom -12395.485699 kJ/mol
# Density = 2.240989 g / cm^3
# Si number density = 22.461011 Si / 1000 Ang^3
#
#
#
# Elastic Constant Matrix: (Units=GPa)
#
#
# Indices 1 2 3 4 5 6 
#
# 1 36.2378 4.2830 3.2330 0.0000 0.7790 0.0000
# 2 4.2830 84.1412 41.3719 0.0000 -5.2311 0.0000
# 3 3.2330 41.3719 97.3362 0.0000 -10.6013 0.0000
# 4 0.0000 0.0000 0.0000 35.9915 0.0000 -5.6330
# 5 0.7790 -5.2311 -10.6013 0.0000 37.4250 0.0000
# 6 0.0000 0.0000 0.0000 -5.6330 0.0000 22.3834
#
#
#
# Elastic Compliance Matrix: (Units=1/GPa)
#
#
# Indices 1 2 3 4 5 6 
#
# 1 0.027804 -0.001225 -0.000500 0.000000 -0.000892 0.000000
# 2 -0.001225 0.015082 -0.006333 0.000000 0.000340 0.000000
# 3 -0.000500 -0.006333 0.013297 0.000000 0.002892 0.000000
# 4 0.000000 0.000000 0.000000 0.028924 0.000000 0.007279
# 5 -0.000892 0.000340 0.002892 0.000000 0.027605 0.000000
# 6 0.000000 0.000000 0.000000 0.007279 0.000000 0.046508
#
#
# Mechanical properties :
#
#
# Convention : Reuss Voigt Hill
#
# Bulk Modulus (GPa) = 24.95774 35.05453 30.00614
# Shear Modulus (GPa) = 26.49835 30.41513 28.45674
#
# Velocity S-wave (km/s) = 3.43847 3.68384 3.56327
# Velocity P-wave (km/s) = 5.18651 5.80818 5.50612
#
# Compressibility (1/GPa) = 0.04006773
#
# Stress axis : x y z
#
# Youngs Moduli (GPa) = 35.96599 66.30386 75.20529
#
# Poissons Ratio (x) = 0.08121 0.03760
# Poissons Ratio (y) = 0.04405 0.47626
# Poissons Ratio (z) = 0.01798 0.41989
#
# Static dielectric constant tensor:
#      x y z
#    x 3.921780 0.000000 -0.144070 
#    y 0.000000 3.845750 0.000000 
#    z -0.144070 0.000000 4.376350 
# 
# 
# High freq. dielectric constant tensor:
#      x y z
#    x 1.867870 0.000000 -0.001460 
#    y 0.000000 1.864800 0.000000 
#    z -0.001460 0.000000 1.901420 
# 
# From -- ./inp_files/162519.got.cif
#   From: 2010.06.25/outbox.cif.g09.slc.cpg/sg15_82_cif.got.tgz:162519.got - 2010.06.28 07:06:18.
