data_PCOD8145371
_publ_section_title
;
Structure prediction by ZEFSAII (Michael W. Deem and Ramdas Pophale) SiO2 
 PCOD8145371
Probable space group: C 2/C
;
_chemical_formula_sum "Si O2"
_cell_formula_units_Z 48
_cell_length_a 6.788366
_cell_length_b 28.013338
_cell_length_c 15.413061
_cell_angle_alpha 90.000000
_cell_angle_beta 129.918460
_cell_angle_gamma 90.000000
_cell_volume 2247.971712
_symmetry_space_group_name_H-M "C 2/C"
_symmetry_group_IT_number 15
_symmetry_cell_setting 'monoclinic'
loop_
_space_group_symop_operation_xyz
x,y,z
-x,y,1/2-z
-x,-y,-z
x,-y,1/2+z
1/2+x,1/2+y,z
1/2-x,1/2+y,1/2-z
1/2-x,1/2-y,-z
1/2+x,1/2-y,1/2+z
loop_
_atom_site_type_symbol
_atom_site_label
_atom_site_fract_x
_atom_site_fract_y
_atom_site_fract_z
Si Si1 0.500000 0.161171 0.250000
Si Si2 0.015510 0.278069 0.581580
Si Si3 0.014787 0.654157 0.916662
Si Si4 0.500000 0.786364 0.250000
Si Si5 0.959241 0.895517 0.949507
Si Si6 0.156054 0.032128 0.375102
Si Si7 0.709265 0.930009 0.050914
O O1 0.469256 0.193980 0.324707
O O2 0.250560 0.128165 0.172185
O O3 0.026696 0.314270 0.505603
O O4 0.262435 0.243972 0.646262
O O5 0.750000 0.250000 0.500000
O O6 0.895640 0.681774 0.800734
O O7 0.840174 0.607329 0.884992
O O8 0.303395 0.640049 0.973911
O O9 0.045026 0.945833 0.932428
O O10 0.853865 0.902916 0.015549
O O11 0.444636 0.048949 0.439043
O O12 0.000000 0.052422 0.250000
O O13 0.125332 0.974853 0.369330
#
# Coordination Sequence:
#
# PCOD8145371 Si02
#       7
#     4   8   8   4   8   8   8
#     4  12  22  38  72  99 124 184 221 266 344 396
#     4  12  25  46  67 100 135 172 228 288 335 398
#     4  11  25  44  66  96 133 170 224 273 328 404
#     4  12  26  44  68  99 132 182 223 276 348 400
#     4  11  22  40  66  97 133 171 219 272 325 397
#     4  10  22  38  64  96 128 174 215 267 327 392
#     4  10  22  43  62  94 136 168 217 273 323 393
#
# _framework density 21.35258
#
# number of rings (size 3 to 8) (size 9 to 14) (size 15 to 20)
#    0.000    1.000    1.667    5.000    2.333    1.333 
#    0.000    0.000    0.000    0.000    0.000    0.000 
#    0.000    0.000    0.000    0.000    0.000    0.000 
#
# Total GULP energy -297724.965192 kJ/mol
# GULP energy per Si atom -12405.206883 kJ/mol
# Density = 2.130398 g / cm^3
# Si number density = 21.352580 Si / 1000 Ang^3
#
#
#
# Elastic Constant Matrix: (Units=GPa)
#
#
# Indices 1 2 3 4 5 6 
#
# 1 110.0135 40.1603 16.3198 0.0000 -11.2167 0.0000
# 2 40.1603 114.6111 15.8386 0.0000 -9.4267 0.0000
# 3 16.3198 15.8386 48.3472 0.0000 -17.7455 0.0000
# 4 0.0000 0.0000 0.0000 34.9169 0.0000 -0.6386
# 5 -11.2167 -9.4267 -17.7455 0.0000 43.5060 0.0000
# 6 0.0000 0.0000 0.0000 -0.6386 0.0000 47.7511
#
#
#
# Elastic Compliance Matrix: (Units=1/GPa)
#
#
# Indices 1 2 3 4 5 6 
#
# 1 0.010755 -0.003383 -0.002086 0.000000 0.001189 0.000000
# 2 -0.003383 0.010232 -0.002019 0.000000 0.000522 0.000000
# 3 -0.002086 -0.002019 0.025510 0.000000 0.009430 0.000000
# 4 0.000000 0.000000 0.000000 0.028646 0.000000 0.000383
# 5 0.001189 0.000522 0.009430 0.000000 0.027251 0.000000
# 6 0.000000 0.000000 0.000000 0.000383 0.000000 0.020947
#
#
# Mechanical properties :
#
#
# Convention : Reuss Voigt Hill
#
# Bulk Modulus (GPa) = 31.72253 46.40102 39.06177
# Shear Modulus (GPa) = 33.59640 38.61168 36.10404
#
# Velocity S-wave (km/s) = 3.97093 4.25701 4.11646
# Velocity P-wave (km/s) = 5.99276 6.77797 6.39742
#
# Compressibility (1/GPa) = 0.03152334
#
# Stress axis : x y z
#
# Youngs Moduli (GPa) = 92.97747 97.72926 39.19960
#
# Poissons Ratio (x) = 0.33058 0.08176
# Poissons Ratio (y) = 0.31451 0.07914
# Poissons Ratio (z) = 0.19394 0.19730
#
# Static dielectric constant tensor:
#      x y z
#    x 2.989790 0.000000 -0.312850 
#    y 0.000000 4.044890 0.000000 
#    z -0.312850 0.000000 3.683920 
# 
# 
# High freq. dielectric constant tensor:
#      x y z
#    x 1.848340 0.000000 -0.001380 
#    y 0.000000 1.854670 0.000000 
#    z -0.001380 0.000000 1.835800 
# 
# From -- ./inp_files/130946.got.cif
#   From: 2010.06.25/outbox.cif.g09.slc.cpg/sg15_66_cif.got.tgz:130946.got - 2010.06.28 07:06:18.
