data_PCOD8145455
_publ_section_title
;
Structure prediction by ZEFSAII (Michael W. Deem and Ramdas Pophale) SiO2 
 PCOD8145455
Probable space group: C 2/C
;
_chemical_formula_sum "Si O2"
_cell_formula_units_Z 44
_cell_length_a 14.374310
_cell_length_b 25.635410
_cell_length_c 5.265953
_cell_angle_alpha 90.000000
_cell_angle_beta 96.405988
_cell_angle_gamma 90.000000
_cell_volume 1928.342319
_symmetry_space_group_name_H-M "C 2/C"
_symmetry_group_IT_number 15
_symmetry_cell_setting 'monoclinic'
loop_
_space_group_symop_operation_xyz
x,y,z
-x,y,1/2-z
-x,-y,-z
x,-y,1/2+z
1/2+x,1/2+y,z
1/2-x,1/2+y,1/2-z
1/2-x,1/2-y,-z
1/2+x,1/2-y,1/2+z
loop_
_atom_site_type_symbol
_atom_site_label
_atom_site_fract_x
_atom_site_fract_y
_atom_site_fract_z
Si Si1 0.500000 0.650801 0.750000
Si Si2 0.638210 0.693682 0.439593
Si Si3 0.398583 0.407843 0.840946
Si Si4 0.329597 0.198208 0.744293
Si Si5 0.391086 0.139079 0.260286
Si Si6 0.281351 0.968118 0.730684
O O1 0.536210 0.688119 0.537742
O O2 0.416642 0.612490 0.632195
O O3 0.658978 0.639079 0.308167
O O4 0.631607 0.742634 0.248588
O O5 0.717866 0.701692 0.675818
O O6 0.500000 0.421320 0.750000
O O7 0.330665 0.457469 0.817302
O O8 0.376049 0.164990 0.530963
O O9 0.350765 0.176059 0.027688
O O10 0.500000 0.129651 0.250000
O O11 0.340735 0.083943 0.225614
O O12 0.307992 0.004829 0.503192
#
# Coordination Sequence:
#
# PCOD8145455 Si02
#       6
#     4   8   8   8   8   8
#     4  10  22  38  68  98 154 174 230 268 346 410
#     4  10  23  40  68 105 146 192 225 270 339 417
#     4  10  23  42  67 102 141 182 225 282 343 423
#     4  11  25  43  73 103 146 187 230 275 340 416
#     4  12  27  47  72 104 140 180 236 294 345 412
#     4  12  28  48  74  97 132 178 235 300 358 408
#
# _framework density 22.817523999999999
#
# number of rings (size 3 to 8) (size 9 to 14) (size 15 to 20)
#    0.000    1.091    1.818    2.727    8.909    5.818 
#    0.000    0.000    0.000    0.000    0.000    0.000 
#    0.000    0.000    0.000    0.000    0.000    0.000 
#
# Total GULP energy -272806.090616 kJ/mol
# GULP energy per Si atom -12400.276846 kJ/mol
# Density = 2.276559 g / cm^3
# Si number density = 22.817524 Si / 1000 Ang^3
#
#
#
# Elastic Constant Matrix: (Units=GPa)
#
#
# Indices 1 2 3 4 5 6 
#
# 1 58.2111 37.9793 -5.0775 0.0000 0.4630 0.0000
# 2 37.9793 80.0380 21.2601 0.0000 -10.5490 0.0000
# 3 -5.0775 21.2601 84.7614 0.0000 -6.9895 0.0000
# 4 0.0000 0.0000 0.0000 37.3371 0.0000 -3.4787
# 5 0.4630 -10.5490 -6.9895 0.0000 30.4036 0.0000
# 6 0.0000 0.0000 0.0000 -3.4787 0.0000 24.3219
#
#
#
# Elastic Compliance Matrix: (Units=1/GPa)
#
#
# Indices 1 2 3 4 5 6 
#
# 1 0.027378 -0.014908 0.005013 0.000000 -0.004437 0.000000
# 2 -0.014908 0.021985 -0.005871 0.000000 0.006505 0.000000
# 3 0.005013 -0.005871 0.013655 0.000000 0.001026 0.000000
# 4 0.000000 0.000000 0.000000 0.027145 0.000000 0.003882
# 5 -0.004437 0.006505 0.001026 0.000000 0.035451 0.000000
# 6 0.000000 0.000000 0.000000 0.003882 0.000000 0.041670
#
#
# Mechanical properties :
#
#
# Convention : Reuss Voigt Hill
#
# Bulk Modulus (GPa) = 31.75861 36.81492 34.28676
# Shear Modulus (GPa) = 23.88798 29.66912 26.77855
#
# Velocity S-wave (km/s) = 3.23912 3.60985 3.42950
# Velocity P-wave (km/s) = 5.28563 5.79174 5.54446
#
# Compressibility (1/GPa) = 0.03148752
#
# Stress axis : x y z
#
# Youngs Moduli (GPa) = 36.52609 45.48606 73.23180
#
# Poissons Ratio (x) = 0.67809 -0.36713
# Poissons Ratio (y) = 0.54451 0.42993
# Poissons Ratio (z) = -0.18312 0.26704
#
# Static dielectric constant tensor:
#      x y z
#    x 4.177770 0.000000 0.010250 
#    y 0.000000 4.103430 0.000000 
#    z 0.010250 0.000000 4.207570 
# 
# 
# High freq. dielectric constant tensor:
#      x y z
#    x 1.907440 0.000000 0.002270 
#    y 0.000000 1.897640 0.000000 
#    z 0.002270 0.000000 1.908590 
# 
# From -- ./inp_files/7621.got.cif
#   From: 2010.06.25/outbox.cif.g09.slc.cpg/sg15_4_cif.got.tgz:7621.got - 2010.06.28 07:06:18.
