data_PCOD8145577
_publ_section_title
;
Structure prediction by ZEFSAII (Michael W. Deem and Ramdas Pophale) SiO2 
 PCOD8145577
Probable space group: C 2/C
;
_chemical_formula_sum "Si O2"
_cell_formula_units_Z 60
_cell_length_a 11.605386
_cell_length_b 8.814611
_cell_length_c 26.121303
_cell_angle_alpha 90.000000
_cell_angle_beta 106.547059
_cell_angle_gamma 90.000000
_cell_volume 2561.466752
_symmetry_space_group_name_H-M "C 2/C"
_symmetry_group_IT_number 15
_symmetry_cell_setting 'monoclinic'
loop_
_space_group_symop_operation_xyz
x,y,z
-x,y,1/2-z
-x,-y,-z
x,-y,1/2+z
1/2+x,1/2+y,z
1/2-x,1/2+y,1/2-z
1/2-x,1/2-y,-z
1/2+x,1/2-y,1/2+z
loop_
_atom_site_type_symbol
_atom_site_label
_atom_site_fract_x
_atom_site_fract_y
_atom_site_fract_z
Si Si1 0.912339 0.450961 0.783689
Si Si2 0.269264 0.243843 0.381599
Si Si3 0.471378 0.832146 0.603187
Si Si4 0.500000 0.555161 0.250000
Si Si5 0.662497 0.909497 0.464189
Si Si6 0.716005 0.773444 0.262993
Si Si7 0.577367 0.595738 0.468907
Si Si8 0.896131 0.971161 0.132189
O O1 0.843020 0.296180 0.760368
O O2 0.811747 0.582764 0.776480
O O3 0.000000 0.502052 0.750000
O O4 0.985450 0.439198 0.845174
O O5 0.412656 0.247101 0.407782
O O6 0.207425 0.344518 0.416134
O O7 0.232317 0.323818 0.323948
O O8 0.226196 0.066927 0.374436
O O9 0.378085 0.703177 0.611308
O O10 0.409397 0.935361 0.552416
O O11 0.609180 0.655415 0.244066
O O12 0.468445 0.458743 0.195008
O O13 0.576883 0.779132 0.479225
O O14 0.779984 0.949411 0.512713
O O15 0.500000 0.500000 0.500000
O O16 0.531914 0.556444 0.405494
#
# Coordination Sequence:
#
# PCOD8145577 Si02
#       8
#     8   8   8   4   8   8   8   8
#     4  11  24  39  58  94 129 170 225 267 325 398
#     4   9  21  43  60  90 133 168 217 273 333 389
#     4  11  24  39  65  97 129 173 222 273 330 395
#     4  10  22  42  70  92 136 178 222 272 342 400
#     4  10  22  42  68  96 130 170 220 281 330 398
#     4  10  22  39  62  88 129 176 215 272 332 389
#     4  10  22  43  68  99 133 175 225 275 345 401
#     4  10  23  41  66  95 133 176 219 277 332 404
#
# _framework density 23.42408
#
# number of rings (size 3 to 8) (size 9 to 14) (size 15 to 20)
#    0.000    1.867    0.667    1.600    8.400    3.733 
#    2.400    9.333    0.000    0.000    0.000    0.000 
#    0.000    0.000    0.000    0.000    0.000    0.000 
#
# Total GULP energy -371803.657753 kJ/mol
# GULP energy per Si atom -12393.455258 kJ/mol
# Density = 2.337077 g / cm^3
# Si number density = 23.424080 Si / 1000 Ang^3
#
#
#
# Elastic Constant Matrix: (Units=GPa)
#
#
# Indices 1 2 3 4 5 6 
#
# 1 50.7818 11.7596 10.5931 0.0000 1.4073 0.0000
# 2 11.7596 85.3046 26.4527 0.0000 3.5409 0.0000
# 3 10.5931 26.4527 83.3607 0.0000 -0.0702 0.0000
# 4 0.0000 0.0000 0.0000 44.5321 0.0000 -1.2291
# 5 1.4073 3.5409 -0.0702 0.0000 28.7028 0.0000
# 6 0.0000 0.0000 0.0000 -1.2291 0.0000 36.2280
#
#
#
# Elastic Compliance Matrix: (Units=1/GPa)
#
#
# Indices 1 2 3 4 5 6 
#
# 1 0.020626 -0.002218 -0.001918 0.000000 -0.000742 0.000000
# 2 -0.002218 0.013316 -0.003945 0.000000 -0.001544 0.000000
# 3 -0.001918 -0.003945 0.013492 0.000000 0.000614 0.000000
# 4 0.000000 0.000000 0.000000 0.022477 0.000000 0.000763
# 5 -0.000742 -0.001544 0.000614 0.000000 0.035068 0.000000
# 6 0.000000 0.000000 0.000000 0.000763 0.000000 0.027629
#
#
# Mechanical properties :
#
#
# Convention : Reuss Voigt Hill
#
# Bulk Modulus (GPa) = 31.97664 35.22865 33.60264
# Shear Modulus (GPa) = 31.40824 33.26867 32.33845
#
# Velocity S-wave (km/s) = 3.66574 3.77274 3.71963
# Velocity P-wave (km/s) = 5.62118 5.83526 5.72922
#
# Compressibility (1/GPa) = 0.03127283
#
# Stress axis : x y z
#
# Youngs Moduli (GPa) = 48.48169 75.09853 74.11716
#
# Poissons Ratio (x) = 0.16656 0.14215
# Poissons Ratio (y) = 0.10753 0.29239
# Poissons Ratio (z) = 0.09298 0.29626
#
# Static dielectric constant tensor:
#      x y z
#    x 4.145340 0.000000 0.071900 
#    y 0.000000 4.134120 0.000000 
#    z 0.071900 0.000000 4.421620 
# 
# 
# High freq. dielectric constant tensor:
#      x y z
#    x 1.909740 0.000000 -0.003390 
#    y 0.000000 1.919420 0.000000 
#    z -0.003390 0.000000 1.936480 
# 
# From -- ./inp_files/310360.got.cif
#   From: 2010.06.25/outbox.cif.g09.slc.cpg/sg15_156_cif.got.tgz:310360.got - 2010.06.28 07:06:18.
