data_PCOD8145920
_publ_section_title
;
Structure prediction by ZEFSAII (Michael W. Deem and Ramdas Pophale) SiO2 
 PCOD8145920
Probable space group: C 2/C
;
_chemical_formula_sum "Si O2"
_cell_formula_units_Z 56
_cell_length_a 24.909811
_cell_length_b 8.063650
_cell_length_c 13.170628
_cell_angle_alpha 90.000000
_cell_angle_beta 69.776949
_cell_angle_gamma 90.000000
_cell_volume 2482.420262
_symmetry_space_group_name_H-M "C 2/C"
_symmetry_group_IT_number 15
_symmetry_cell_setting 'monoclinic'
loop_
_space_group_symop_operation_xyz
x,y,z
-x,y,1/2-z
-x,-y,-z
x,-y,1/2+z
1/2+x,1/2+y,z
1/2-x,1/2+y,1/2-z
1/2-x,1/2-y,-z
1/2+x,1/2-y,1/2+z
loop_
_atom_site_type_symbol
_atom_site_label
_atom_site_fract_x
_atom_site_fract_y
_atom_site_fract_z
Si Si1 0.152717 0.062637 0.889126
Si Si2 0.184538 0.776584 0.570223
Si Si3 0.500000 0.732791 0.250000
Si Si4 0.289744 0.396060 0.346613
Si Si5 0.500000 0.795112 0.750000
Si Si6 0.467151 0.464342 0.121934
Si Si7 0.092758 0.473973 0.132530
Si Si8 0.831095 0.286034 0.013359
O O1 0.201831 0.129558 0.779877
O O2 0.096176 0.092636 0.861766
O O3 0.151311 0.178168 0.988441
O O4 0.160198 0.871586 0.919545
O O5 0.250000 0.750000 0.500000
O O6 0.150575 0.616414 0.638336
O O7 0.182038 0.924595 0.651884
O O8 0.462120 0.622538 0.199136
O O9 0.543417 0.835164 0.147507
O O10 0.222267 0.392400 0.411543
O O11 0.320407 0.264659 0.401980
O O12 0.495518 0.681043 0.851868
O O13 0.441397 0.899796 0.771382
O O14 0.500000 0.500000 0.000000
O O15 0.114384 0.587239 0.022605
#
# Coordination Sequence:
#
# PCOD8145920 Si02
#       8
#     8   8   4   8   4   8   8   8
#     4  11  24  40  66  94 127 176 219 262 336 402
#     4  11  23  42  64  94 133 171 209 276 326 389
#     4  10  24  42  68  96 126 172 216 278 330 384
#     4  10  22  42  61  90 129 174 215 261 329 394
#     4  10  24  42  70  96 130 176 218 280 328 388
#     4  11  22  45  68  94 129 172 221 269 335 391
#     4  11  21  42  66  94 130 168 218 267 331 384
#     4  10  22  40  63  90 129 172 216 271 320 396
#
# _framework density 22.558630999999998
#
# number of rings (size 3 to 8) (size 9 to 14) (size 15 to 20)
#    0.000    1.429    1.429    3.429    2.000    4.571 
#    0.000   20.000    0.000    0.000    0.000    0.000 
#    0.000    0.000    0.000    0.000    0.000    0.000 
#
# Total GULP energy -346869.663890 kJ/mol
# GULP energy per Si atom -12388.202282 kJ/mol
# Density = 2.250729 g / cm^3
# Si number density = 22.558631 Si / 1000 Ang^3
#
#
#
# Elastic Constant Matrix: (Units=GPa)
#
#
# Indices 1 2 3 4 5 6 
#
# 1 103.0634 42.6905 30.6076 0.0000 -19.0035 0.0000
# 2 42.6905 116.1336 41.7276 0.0000 -12.1499 0.0000
# 3 30.6076 41.7276 106.8617 0.0000 -12.1818 0.0000
# 4 0.0000 0.0000 0.0000 29.5020 0.0000 -16.7956
# 5 -19.0035 -12.1499 -12.1818 0.0000 43.8984 0.0000
# 6 0.0000 0.0000 0.0000 -16.7956 0.0000 35.7559
#
#
#
# Elastic Compliance Matrix: (Units=1/GPa)
#
#
# Indices 1 2 3 4 5 6 
#
# 1 0.012398 -0.003528 -0.001728 0.000000 0.003911 0.000000
# 2 -0.003528 0.011150 -0.003269 0.000000 0.000652 0.000000
# 3 -0.001728 -0.003269 0.011298 0.000000 0.001482 0.000000
# 4 0.000000 0.000000 0.000000 0.046269 0.000000 0.021734
# 5 0.003911 0.000652 0.001482 0.000000 0.025065 0.000000
# 6 0.000000 0.000000 0.000000 0.021734 0.000000 0.038177
#
#
# Mechanical properties :
#
#
# Convention : Reuss Voigt Hill
#
# Bulk Modulus (GPa) = 56.18735 61.79003 58.98869
# Shear Modulus (GPa) = 29.87932 35.90010 32.88971
#
# Velocity S-wave (km/s) = 3.64334 3.99358 3.82247
# Velocity P-wave (km/s) = 6.53146 6.97963 6.75926
#
# Compressibility (1/GPa) = 0.01779760
#
# Stress axis : x y z
#
# Youngs Moduli (GPa) = 80.65638 89.68289 88.50815
#
# Poissons Ratio (x) = 0.31636 0.15293
# Poissons Ratio (y) = 0.28452 0.28936
# Poissons Ratio (z) = 0.13936 0.29321
#
# Static dielectric constant tensor:
#      x y z
#    x 4.793220 0.000000 -1.225120 
#    y 0.000000 4.242260 0.000000 
#    z -1.225120 0.000000 5.030610 
# 
# 
# High freq. dielectric constant tensor:
#      x y z
#    x 1.879690 0.000000 -0.030740 
#    y 0.000000 1.901900 0.000000 
#    z -0.030740 0.000000 1.880140 
# 
# From -- ./inp_files/171837.got.cif
#   From: 2010.06.25/outbox.cif.g09.slc.cpg/sg15_86_cif.got.tgz:171837.got - 2010.06.28 07:06:18.
