data_PCOD8145569
_publ_section_title
;
Structure prediction by ZEFSAII (Michael W. Deem and Ramdas Pophale) SiO2 
 PCOD8145569
Probable space group: C 2/C
;
_chemical_formula_sum "Si O2"
_cell_formula_units_Z 56
_cell_length_a 9.613296
_cell_length_b 13.933426
_cell_length_c 30.747404
_cell_angle_alpha 90.000000
_cell_angle_beta 135.622723
_cell_angle_gamma 90.000000
_cell_volume 2880.393690
_symmetry_space_group_name_H-M "C 2/C"
_symmetry_group_IT_number 15
_symmetry_cell_setting 'monoclinic'
loop_
_space_group_symop_operation_xyz
x,y,z
-x,y,1/2-z
-x,-y,-z
x,-y,1/2+z
1/2+x,1/2+y,z
1/2-x,1/2+y,1/2-z
1/2-x,1/2-y,-z
1/2+x,1/2-y,1/2+z
loop_
_atom_site_type_symbol
_atom_site_label
_atom_site_fract_x
_atom_site_fract_y
_atom_site_fract_z
Si Si1 0.165180 0.867723 0.096073
Si Si2 0.933187 0.539892 0.130261
Si Si3 0.171523 0.000832 0.822464
Si Si4 0.808248 0.198442 0.469074
Si Si5 0.043518 0.790781 0.807942
Si Si6 0.605346 0.197518 0.228663
Si Si7 0.581496 0.652645 0.872629
O O1 0.331055 0.786568 0.137898
O O2 0.023716 0.878831 0.106307
O O3 0.265265 0.969765 0.110786
O O4 0.034267 0.839084 0.024232
O O5 0.837912 0.609161 0.072724
O O6 0.112394 0.477718 0.149696
O O7 0.017632 0.599397 0.189903
O O8 0.150531 0.058981 0.862320
O O9 0.000000 0.029964 0.750000
O O10 0.169955 0.888003 0.832440
O O11 0.750000 0.250000 0.500000
O O12 0.775157 0.279003 0.424168
O O13 0.000000 0.750817 0.750000
O O14 0.841088 0.813829 0.788721
O O15 0.500000 0.222552 0.250000
O O16 0.577931 0.287121 0.190422
#
# Coordination Sequence:
#
# PCOD8145569 Si02
#       7
#     8   8   8   8   8   8   8
#     4  11  23  39  65  88 117 163 203 247 297 360
#     4  11  23  39  63  92 121 158 201 250 300 356
#     4  11  22  38  59  90 126 157 197 247 305 361
#     4   9  20  44  65  83 118 162 205 247 299 357
#     4  11  21  40  59  86 126 160 196 242 306 364
#     4  11  23  38  59  87 125 158 198 247 300 362
#     4  10  22  39  62  87 118 160 202 244 301 356
#
# _framework density 19.441787999999999
#
# number of rings (size 3 to 8) (size 9 to 14) (size 15 to 20)
#    0.000    1.429    4.286    2.571    6.000    0.571 
#    0.000    7.143    0.000    0.000    0.000    0.000 
#    0.000    0.000    0.000    0.000    0.000    0.000 
#
# Total GULP energy -347228.124113 kJ/mol
# GULP energy per Si atom -12401.004433 kJ/mol
# Density = 1.939754 g / cm^3
# Si number density = 19.441788 Si / 1000 Ang^3
#
#
#
# Elastic Constant Matrix: (Units=GPa)
#
#
# Indices 1 2 3 4 5 6 
#
# 1 101.8608 33.4838 44.4255 0.0000 7.0796 0.0000
# 2 33.4838 87.8619 51.7950 0.0000 2.4522 0.0000
# 3 44.4255 51.7950 116.2584 0.0000 15.7367 0.0000
# 4 0.0000 0.0000 0.0000 24.8319 0.0000 1.6857
# 5 7.0796 2.4522 15.7367 0.0000 26.3374 0.0000
# 6 0.0000 0.0000 0.0000 1.6857 0.0000 35.4802
#
#
#
# Elastic Compliance Matrix: (Units=1/GPa)
#
#
# Indices 1 2 3 4 5 6 
#
# 1 0.012222 -0.002656 -0.003347 0.000000 -0.001038 0.000000
# 2 -0.002656 0.016220 -0.006641 0.000000 0.003172 0.000000
# 3 -0.003347 -0.006641 0.013745 0.000000 -0.006695 0.000000
# 4 0.000000 0.000000 0.000000 0.040401 0.000000 -0.001919
# 5 -0.001038 0.003172 -0.006695 0.000000 0.041953 0.000000
# 6 0.000000 0.000000 0.000000 -0.001919 0.000000 0.028276
#
#
# Mechanical properties :
#
#
# Convention : Reuss Voigt Hill
#
# Bulk Modulus (GPa) = 59.16898 62.82109 60.99503
# Shear Modulus (GPa) = 27.21284 29.08168 28.14726
#
# Velocity S-wave (km/s) = 3.74533 3.87180 3.80909
# Velocity P-wave (km/s) = 7.01451 7.23673 7.12649
#
# Compressibility (1/GPa) = 0.01690075
#
# Stress axis : x y z
#
# Youngs Moduli (GPa) = 81.81864 61.65295 72.75352
#
# Poissons Ratio (x) = 0.16375 0.24347
# Poissons Ratio (y) = 0.21731 0.48312
# Poissons Ratio (z) = 0.27381 0.40941
#
# Static dielectric constant tensor:
#      x y z
#    x 3.465070 0.000000 0.112240 
#    y 0.000000 3.543140 0.000000 
#    z 0.112240 0.000000 3.943300 
# 
# 
# High freq. dielectric constant tensor:
#      x y z
#    x 1.743260 0.000000 0.010090 
#    y 0.000000 1.761060 0.000000 
#    z 0.010090 0.000000 1.759920 
# 
# From -- ./inp_files/308083.got.cif
#   From: 2010.06.25/outbox.cif.g09.slc.cpg/sg15_155_cif.got.tgz:308083.got - 2010.06.28 07:06:18.
