data_PCOD8145315
_publ_section_title
;
Structure prediction by ZEFSAII (Michael W. Deem and Ramdas Pophale) SiO2 
 PCOD8145315
Probable space group: C 2/C
;
_chemical_formula_sum "Si O2"
_cell_formula_units_Z 36
_cell_length_a 12.362366
_cell_length_b 17.263632
_cell_length_c 10.421763
_cell_angle_alpha 90.000000
_cell_angle_beta 129.639051
_cell_angle_gamma 90.000000
_cell_volume 1712.813287
_symmetry_space_group_name_H-M "C 2/C"
_symmetry_group_IT_number 15
_symmetry_cell_setting 'monoclinic'
loop_
_space_group_symop_operation_xyz
x,y,z
-x,y,1/2-z
-x,-y,-z
x,-y,1/2+z
1/2+x,1/2+y,z
1/2-x,1/2+y,1/2-z
1/2-x,1/2-y,-z
1/2+x,1/2-y,1/2+z
loop_
_atom_site_type_symbol
_atom_site_label
_atom_site_fract_x
_atom_site_fract_y
_atom_site_fract_z
Si Si1 0.395394 0.789455 0.786534
Si Si2 0.574509 0.541880 0.176476
Si Si3 0.407909 0.720339 0.373330
Si Si4 0.000000 0.340132 0.250000
Si Si5 0.615501 0.062600 0.064718
O O1 0.500000 0.773165 0.750000
O O2 0.230821 0.768955 0.641219
O O3 0.402556 0.878730 0.831247
O O4 0.450458 0.734921 0.941693
O O5 0.500000 0.514116 0.250000
O O6 0.577167 0.634703 0.170982
O O7 0.736850 0.517121 0.313401
O O8 0.500000 0.500000 0.000000
O O9 0.395661 0.784279 0.251242
O O10 0.096958 0.393870 0.414312
O O11 0.500000 0.000000 0.000000
#
# Coordination Sequence:
#
# PCOD8145315 Si02
#       5
#     8   8   8   4   8
#     4  10  22  38  62  95 129 166 211 274 333 390
#     4  11  26  42  65  97 137 177 222 280 337 398
#     4  10  22  40  66  95 126 172 221 270 326 395
#     4  10  22  42  74  96 126 174 230 274 316 398
#     4  10  25  40  66  94 130 176 220 269 334 402
#
# _framework density 21.018053999999999
#
# number of rings (size 3 to 8) (size 9 to 14) (size 15 to 20)
#    0.000    1.778    1.111    0.667    7.778    7.111 
#    0.000    0.000    0.000    0.000    0.000    0.000 
#    0.000    0.000    0.000    0.000    0.000    0.000 
#
# Total GULP energy -223123.822848 kJ/mol
# GULP energy per Si atom -12395.767936 kJ/mol
# Density = 2.097022 g / cm^3
# Si number density = 21.018054 Si / 1000 Ang^3
#
#
#
# Elastic Constant Matrix: (Units=GPa)
#
#
# Indices 1 2 3 4 5 6 
#
# 1 133.5967 43.7939 54.3360 0.0000 4.7257 0.0000
# 2 43.7939 77.6339 48.4002 0.0000 9.0884 0.0000
# 3 54.3360 48.4002 122.3927 0.0000 15.7940 0.0000
# 4 0.0000 0.0000 0.0000 28.5607 0.0000 2.9163
# 5 4.7257 9.0884 15.7940 0.0000 43.4748 0.0000
# 6 0.0000 0.0000 0.0000 2.9163 0.0000 33.6714
#
#
#
# Elastic Compliance Matrix: (Units=1/GPa)
#
#
# Indices 1 2 3 4 5 6 
#
# 1 0.009931 -0.003827 -0.003000 0.000000 0.000810 0.000000
# 2 -0.003827 0.018627 -0.005475 0.000000 -0.001489 0.000000
# 3 -0.003000 -0.005475 0.012042 0.000000 -0.002904 0.000000
# 4 0.000000 0.000000 0.000000 0.035326 0.000000 -0.003060
# 5 0.000810 -0.001489 -0.002904 0.000000 0.024280 0.000000
# 6 0.000000 0.000000 0.000000 -0.003060 0.000000 0.029964
#
#
# Mechanical properties :
#
#
# Convention : Reuss Voigt Hill
#
# Bulk Modulus (GPa) = 62.51311 69.63150 66.07230
# Shear Modulus (GPa) = 31.22913 33.61426 32.42170
#
# Velocity S-wave (km/s) = 3.85882 4.00347 3.93181
# Velocity P-wave (km/s) = 7.04707 7.38726 7.21917
#
# Compressibility (1/GPa) = 0.01599665
#
# Stress axis : x y z
#
# Youngs Moduli (GPa) = 100.69264 53.68425 83.04044
#
# Poissons Ratio (x) = 0.20543 0.24914
# Poissons Ratio (y) = 0.38532 0.45467
# Poissons Ratio (z) = 0.30210 0.29393
#
# Static dielectric constant tensor:
#      x y z
#    x 4.017520 0.000000 0.093520 
#    y 0.000000 3.733830 0.000000 
#    z 0.093520 0.000000 4.013210 
# 
# 
# High freq. dielectric constant tensor:
#      x y z
#    x 1.829830 0.000000 0.008030 
#    y 0.000000 1.818300 0.000000 
#    z 0.008030 0.000000 1.828560 
# 
# From -- ./inp_files/29422.got.cif
#   From: 2010.06.25/outbox.cif.g09.slc.cpg/sg15_15_cif.got.tgz:29422.got - 2010.06.28 07:06:18.
