data_PCOD8145949
_publ_section_title
;
Structure prediction by ZEFSAII (Michael W. Deem and Ramdas Pophale) SiO2 
 PCOD8145949
Probable space group: C 2/C
;
_chemical_formula_sum "Si O2"
_cell_formula_units_Z 40
_cell_length_a 17.936637
_cell_length_b 9.974440
_cell_length_c 9.849115
_cell_angle_alpha 90.000000
_cell_angle_beta 92.406766
_cell_angle_gamma 90.000000
_cell_volume 1760.530202
_symmetry_space_group_name_H-M "C 2/C"
_symmetry_group_IT_number 15
_symmetry_cell_setting 'monoclinic'
loop_
_space_group_symop_operation_xyz
x,y,z
-x,y,1/2-z
-x,-y,-z
x,-y,1/2+z
1/2+x,1/2+y,z
1/2-x,1/2+y,1/2-z
1/2-x,1/2-y,-z
1/2+x,1/2-y,1/2+z
loop_
_atom_site_type_symbol
_atom_site_label
_atom_site_fract_x
_atom_site_fract_y
_atom_site_fract_z
Si Si1 0.031149 0.815777 0.900604
Si Si2 0.773157 0.139698 0.678073
Si Si3 0.938745 0.897429 0.128447
Si Si4 0.446666 0.027468 0.618818
Si Si5 0.715875 0.933150 0.887057
O O1 0.081708 0.682047 0.901198
O O2 0.000000 0.837437 0.750000
O O3 0.075286 0.953223 0.936545
O O4 0.964511 0.800625 0.006814
O O5 0.861932 0.150730 0.684738
O O6 0.740751 0.060324 0.545863
O O7 0.748934 0.297016 0.675605
O O8 0.746278 0.063301 0.810517
O O9 0.000000 0.891246 0.250000
O O10 0.500000 0.006621 0.750000
O O11 0.500000 0.000000 0.500000
O O12 0.374448 0.933140 0.623897
#
# Coordination Sequence:
#
# PCOD8145949 Si02
#       5
#     8   8   8   8   8
#     4   9  21  37  65  96 129 165 217 267 336 372
#     4  11  27  46  67  96 143 174 222 278 333 409
#     4  10  22  40  64 100 128 171 222 271 319 392
#     4  11  23  43  69  95 128 169 223 278 321 393
#     4  11  27  46  67 101 137 181 218 274 348 391
#
# _framework density 22.720428999999999
#
# number of rings (size 3 to 8) (size 9 to 14) (size 15 to 20)
#    0.000    1.600    0.000    2.400   11.200    8.800 
#    0.000    0.000    0.000    0.000    0.000    0.000 
#    0.000    0.000    0.000    0.000    0.000    0.000 
#
# Total GULP energy -247879.719033 kJ/mol
# GULP energy per Si atom -12393.985952 kJ/mol
# Density = 2.266872 g / cm^3
# Si number density = 22.720429 Si / 1000 Ang^3
#
#
#
# Elastic Constant Matrix: (Units=GPa)
#
#
# Indices 1 2 3 4 5 6 
#
# 1 102.8376 14.3919 39.5336 0.0000 1.9201 0.0000
# 2 14.3919 91.1743 35.2679 0.0000 2.5082 0.0000
# 3 39.5336 35.2679 126.9441 0.0000 -5.3757 0.0000
# 4 0.0000 0.0000 0.0000 49.4564 0.0000 -1.1438
# 5 1.9201 2.5082 -5.3757 0.0000 36.3216 0.0000
# 6 0.0000 0.0000 0.0000 -1.1438 0.0000 31.0617
#
#
#
# Elastic Compliance Matrix: (Units=1/GPa)
#
#
# Indices 1 2 3 4 5 6 
#
# 1 0.011104 -0.000413 -0.003388 0.000000 -0.001060 0.000000
# 2 -0.000413 0.012371 -0.003365 0.000000 -0.001330 0.000000
# 3 -0.003388 -0.003365 0.009947 0.000000 0.001884 0.000000
# 4 0.000000 0.000000 0.000000 0.020237 0.000000 0.000745
# 5 -0.001060 -0.001330 0.001884 0.000000 0.027959 0.000000
# 6 0.000000 0.000000 0.000000 0.000745 0.000000 0.032221
#
#
# Mechanical properties :
#
#
# Convention : Reuss Voigt Hill
#
# Bulk Modulus (GPa) = 52.38142 55.48253 53.93197
# Shear Modulus (GPa) = 37.16493 38.81879 37.99186
#
# Velocity S-wave (km/s) = 4.04883 4.13793 4.09362
# Velocity P-wave (km/s) = 6.70538 6.87769 6.79208
#
# Compressibility (1/GPa) = 0.01909074
#
# Stress axis : x y z
#
# Youngs Moduli (GPa) = 90.05597 80.83188 100.53024
#
# Poissons Ratio (x) = 0.03338 0.34062
# Poissons Ratio (y) = 0.03719 0.33826
# Poissons Ratio (z) = 0.30513 0.27198
#
# Static dielectric constant tensor:
#      x y z
#    x 4.295750 0.000000 -0.307970 
#    y 0.000000 6.317480 0.000000 
#    z -0.307970 0.000000 4.112950 
# 
# 
# High freq. dielectric constant tensor:
#      x y z
#    x 1.872490 0.000000 -0.007650 
#    y 0.000000 1.917280 0.000000 
#    z -0.007650 0.000000 1.903320 
# 
# From -- ./inp_files/46208.got.cif
#   From: 2010.06.25/outbox.cif.g09.slc.cpg/sg15_24_cif.got.tgz:46208.got - 2010.06.28 07:06:18.
