data_PCOD8145304
_publ_section_title
;
Structure prediction by ZEFSAII (Michael W. Deem and Ramdas Pophale) SiO2 
 PCOD8145304
Probable space group: C 2/C
;
_chemical_formula_sum "Si O2"
_cell_formula_units_Z 56
_cell_length_a 27.484782
_cell_length_b 9.270804
_cell_length_c 13.770322
_cell_angle_alpha 90.000000
_cell_angle_beta 53.659404
_cell_angle_gamma 90.000000
_cell_volume 2826.337257
_symmetry_space_group_name_H-M "C 2/C"
_symmetry_group_IT_number 15
_symmetry_cell_setting 'monoclinic'
loop_
_space_group_symop_operation_xyz
x,y,z
-x,y,1/2-z
-x,-y,-z
x,-y,1/2+z
1/2+x,1/2+y,z
1/2-x,1/2+y,1/2-z
1/2-x,1/2-y,-z
1/2+x,1/2-y,1/2+z
loop_
_atom_site_type_symbol
_atom_site_label
_atom_site_fract_x
_atom_site_fract_y
_atom_site_fract_z
Si Si1 0.133080 0.495382 0.266792
Si Si2 0.676177 0.246303 0.589290
Si Si3 0.350340 0.012113 0.029202
Si Si4 0.150105 0.927619 0.144854
Si Si5 0.431200 0.823845 0.801440
Si Si6 0.728213 0.393353 0.229410
Si Si7 0.757956 0.103014 0.123367
O O1 0.148042 0.329724 0.219585
O O2 0.125631 0.522221 0.389422
O O3 0.075555 0.567667 0.282565
O O4 0.191902 0.579336 0.155188
O O5 0.750000 0.250000 0.500000
O O6 0.646497 0.163307 0.532218
O O7 0.646474 0.404206 0.623186
O O8 0.279698 0.977887 0.110486
O O9 0.390519 0.886255 0.935881
O O10 0.087918 0.841006 0.201274
O O11 0.167929 0.905467 0.236403
O O12 0.199195 0.853958 0.015555
O O13 0.500000 0.820268 0.750000
O O14 0.751323 0.228749 0.212255
O O15 0.718219 0.459331 0.348613
#
# Coordination Sequence:
#
# PCOD8145304 Si02
#       7
#     8   8   8   8   8   8   8
#     4  10  22  38  62  92 121 154 200 248 307 370
#     4  11  21  35  58  96 126 155 181 240 315 385
#     4  10  22  38  62  92 121 154 200 248 307 370
#     4  12  22  36  57  87 129 151 197 245 301 362
#     4  11  24  44  62  80 117 173 219 252 282 333
#     4  11  22  34  58  91 127 152 186 242 315 375
#     4  11  22  34  58  91 127 152 186 242 315 375
#
# _framework density 19.813628999999999
#
# number of rings (size 3 to 8) (size 9 to 14) (size 15 to 20)
#    0.000    1.143    5.714    1.286    8.000    0.571 
#    0.000    2.857    0.000    6.000    0.000    0.000 
#    0.000    0.000    0.000    0.000    0.000    0.000 
#
# Total GULP energy -347022.012828 kJ/mol
# GULP energy per Si atom -12393.643315 kJ/mol
# Density = 1.976853 g / cm^3
# Si number density = 19.813629 Si / 1000 Ang^3
#
#
#
# Elastic Constant Matrix: (Units=GPa)
#
#
# Indices 1 2 3 4 5 6 
#
# 1 131.5975 40.6375 31.0613 0.0000 4.8356 0.0000
# 2 40.6375 123.1642 3.4987 0.0000 -1.6918 0.0000
# 3 31.0613 3.4987 41.0770 0.0000 14.6804 0.0000
# 4 0.0000 0.0000 0.0000 23.7911 0.0000 2.7745
# 5 4.8356 -1.6918 14.6804 0.0000 24.7999 0.0000
# 6 0.0000 0.0000 0.0000 2.7745 0.0000 26.5193
#
#
#
# Elastic Compliance Matrix: (Units=1/GPa)
#
#
# Indices 1 2 3 4 5 6 
#
# 1 0.010539 -0.003189 -0.008733 0.000000 0.002897 0.000000
# 2 -0.003189 0.009134 0.001508 0.000000 0.000352 0.000000
# 3 -0.008733 0.001508 0.038270 0.000000 -0.020849 0.000000
# 4 0.000000 0.000000 0.000000 0.042552 0.000000 -0.004452
# 5 0.002897 0.000352 -0.020849 0.000000 0.052124 0.000000
# 6 0.000000 0.000000 0.000000 -0.004452 0.000000 0.038174
#
#
# Mechanical properties :
#
#
# Convention : Reuss Voigt Hill
#
# Bulk Modulus (GPa) = 26.94379 49.58155 38.26267
# Shear Modulus (GPa) = 22.32227 29.73147 26.02687
#
# Velocity S-wave (km/s) = 3.36015 3.87790 3.62827
# Velocity P-wave (km/s) = 5.35558 6.71782 6.07501
#
# Compressibility (1/GPa) = 0.03711431
#
# Stress axis : x y z
#
# Youngs Moduli (GPa) = 94.89011 109.48653 26.12980
#
# Poissons Ratio (x) = 0.34918 0.22818
# Poissons Ratio (y) = 0.30263 -0.03940
# Poissons Ratio (z) = 0.82863 -0.16508
#
# Static dielectric constant tensor:
#      x y z
#    x 3.365280 0.000000 0.284250 
#    y 0.000000 3.903480 0.000000 
#    z 0.284250 0.000000 3.396380 
# 
# 
# High freq. dielectric constant tensor:
#      x y z
#    x 1.744750 0.000000 0.039190 
#    y 0.000000 1.790220 0.000000 
#    z 0.039190 0.000000 1.748560 
# 
# From -- ./inp_files/171993.got.cif
#   From: 2010.06.25/outbox.cif.g09.slc.cpg/sg15_86_cif.got.tgz:171993.got - 2010.06.28 07:06:18.
