data_PCOD8145675
_publ_section_title
;
Structure prediction by ZEFSAII (Michael W. Deem and Ramdas Pophale) SiO2 
 PCOD8145675
Probable space group: C 2/C
;
_chemical_formula_sum "Si O2"
_cell_formula_units_Z 32
_cell_length_a 5.028609
_cell_length_b 20.903027
_cell_length_c 13.588172
_cell_angle_alpha 90.000000
_cell_angle_beta 115.732495
_cell_angle_gamma 90.000000
_cell_volume 1286.652814
_symmetry_space_group_name_H-M "C 2/C"
_symmetry_group_IT_number 15
_symmetry_cell_setting 'monoclinic'
loop_
_space_group_symop_operation_xyz
x,y,z
-x,y,1/2-z
-x,-y,-z
x,-y,1/2+z
1/2+x,1/2+y,z
1/2-x,1/2+y,1/2-z
1/2-x,1/2-y,-z
1/2+x,1/2-y,1/2+z
loop_
_atom_site_type_symbol
_atom_site_label
_atom_site_fract_x
_atom_site_fract_y
_atom_site_fract_z
Si Si1 0.984178 0.105088 0.505854
Si Si2 0.077850 0.705328 0.870681
Si Si3 0.347637 0.500427 0.825160
Si Si4 0.576623 0.791150 0.870543
O O1 0.705117 0.152365 0.458472
O O2 0.278852 0.148234 0.542923
O O3 0.011605 0.066785 0.612897
O O4 0.950600 0.055854 0.412622
O O5 0.300482 0.764785 0.887855
O O6 0.000000 0.678051 0.750000
O O7 0.802051 0.731940 0.888769
O O8 0.500000 0.481731 0.750000
O O9 0.000000 0.505640 0.750000
O O10 0.500000 0.819140 0.750000
#
# Coordination Sequence:
#
# PCOD8145675 Si02
#       4
#     8   8   8   8
#     4  11  24  44  72  94 130 177 218 264 328 389
#     4  10  22  39  64  99 133 166 209 263 322 388
#     4  11  28  47  66  96 130 171 224 277 320 374
#     4  10  22  39  64  99 133 166 209 263 322 388
#
# _framework density 24.870736999999998
#
# number of rings (size 3 to 8) (size 9 to 14) (size 15 to 20)
#    0.000    1.500    0.000    3.000    0.000   18.000 
#    0.000    0.000    0.000    0.000    0.000    0.000 
#    0.000    0.000    0.000    0.000    0.000    0.000 
#
# Total GULP energy -198352.959263 kJ/mol
# GULP energy per Si atom -12397.059954 kJ/mol
# Density = 2.481413 g / cm^3
# Si number density = 24.870737 Si / 1000 Ang^3
#
#
#
# Elastic Constant Matrix: (Units=GPa)
#
#
# Indices 1 2 3 4 5 6 
#
# 1 102.5173 20.0019 22.7720 0.0000 11.7528 0.0000
# 2 20.0019 105.6400 59.9570 0.0000 25.2702 0.0000
# 3 22.7720 59.9570 118.9142 0.0000 39.1406 0.0000
# 4 0.0000 0.0000 0.0000 19.2191 0.0000 8.6037
# 5 11.7528 25.2702 39.1406 0.0000 44.7765 0.0000
# 6 0.0000 0.0000 0.0000 8.6037 0.0000 21.1038
#
#
#
# Elastic Compliance Matrix: (Units=1/GPa)
#
#
# Indices 1 2 3 4 5 6 
#
# 1 0.010333 -0.001080 -0.001042 0.000000 -0.001192 0.000000
# 2 -0.001080 0.013545 -0.005896 0.000000 -0.002207 0.000000
# 3 -0.001042 -0.005896 0.014596 0.000000 -0.009158 0.000000
# 4 0.000000 0.000000 0.000000 0.063648 0.000000 -0.025948
# 5 -0.001192 -0.002207 -0.009158 0.000000 0.031897 0.000000
# 6 0.000000 0.000000 0.000000 -0.025948 0.000000 0.057964
#
#
# Mechanical properties :
#
#
# Convention : Reuss Voigt Hill
#
# Bulk Modulus (GPa) = 44.56738 59.17038 51.86888
# Shear Modulus (GPa) = 23.20207 31.97592 27.58900
#
# Velocity S-wave (km/s) = 3.05767 3.58953 3.33422
# Velocity P-wave (km/s) = 5.51582 6.40488 5.97690
#
# Compressibility (1/GPa) = 0.02243794
#
# Stress axis : x y z
#
# Youngs Moduli (GPa) = 96.77490 73.82831 68.51101
#
# Poissons Ratio (x) = 0.07974 0.07138
# Poissons Ratio (y) = 0.10452 0.40396
# Poissons Ratio (z) = 0.10083 0.43531
#
# Static dielectric constant tensor:
#      x y z
#    x 4.156710 0.000000 0.497230 
#    y 0.000000 4.587270 0.000000 
#    z 0.497230 0.000000 5.236930 
# 
# 
# High freq. dielectric constant tensor:
#      x y z
#    x 1.977510 0.000000 0.016520 
#    y 0.000000 1.991000 0.000000 
#    z 0.016520 0.000000 2.030000 
# 
# From -- ./inp_files/72744.got.cif
#   From: 2010.06.25/outbox.cif.g09.slc.cpg/sg15_37_cif.got.tgz:72744.got - 2010.06.28 07:06:18.
