data_PCOD8145442
_publ_section_title
;
Structure prediction by ZEFSAII (Michael W. Deem and Ramdas Pophale) SiO2 
 PCOD8145442
Probable space group: C 2/C
;
_chemical_formula_sum "Si O2"
_cell_formula_units_Z 44
_cell_length_a 9.049357
_cell_length_b 16.879332
_cell_length_c 14.730594
_cell_angle_alpha 90.000000
_cell_angle_beta 110.512215
_cell_angle_gamma 90.000000
_cell_volume 2107.396401
_symmetry_space_group_name_H-M "C 2/C"
_symmetry_group_IT_number 15
_symmetry_cell_setting 'monoclinic'
loop_
_space_group_symop_operation_xyz
x,y,z
-x,y,1/2-z
-x,-y,-z
x,-y,1/2+z
1/2+x,1/2+y,z
1/2-x,1/2+y,1/2-z
1/2-x,1/2-y,-z
1/2+x,1/2-y,1/2+z
loop_
_atom_site_type_symbol
_atom_site_label
_atom_site_fract_x
_atom_site_fract_y
_atom_site_fract_z
Si Si1 0.820899 0.218074 0.293569
Si Si2 0.281448 0.801932 0.920279
Si Si3 0.365598 0.190441 0.972128
Si Si4 0.024817 0.084096 0.401285
Si Si5 0.000000 0.217082 0.750000
Si Si6 0.426578 0.404834 0.085638
O O1 0.810458 0.240107 0.184515
O O2 0.913059 0.279349 0.379957
O O3 0.893549 0.130033 0.313665
O O4 0.643967 0.222952 0.294357
O O5 0.202017 0.887029 0.919842
O O6 0.250000 0.750000 0.000000
O O7 0.467298 0.817319 0.939563
O O8 0.264268 0.108596 0.945491
O O9 0.250000 0.250000 0.000000
O O10 0.981874 0.106039 0.494987
O O11 0.021490 0.992438 0.372949
O O12 0.019084 0.159607 0.666461
#
# Coordination Sequence:
#
# PCOD8145442 Si02
#       6
#     8   8   8   8   4   8
#     4  11  22  37  65  94 123 170 217 258 315 384
#     4  12  23  37  64  96 129 162 217 269 315 374
#     4  11  21  41  64  92 126 166 217 261 316 387
#     4  11  23  40  64  92 131 168 211 267 327 380
#     4  10  22  38  68  92 124 168 222 258 312 390
#     4  10  23  42  62  91 130 171 207 264 332 380
#
# _framework density 20.878843
#
# number of rings (size 3 to 8) (size 9 to 14) (size 15 to 20)
#    0.000    1.091    3.636    3.818    2.545    0.727 
#    0.000    0.000    0.000    0.000    0.000    0.000 
#    0.000    0.000    0.000    0.000    0.000    0.000 
#
# Total GULP energy -272570.994881 kJ/mol
# GULP energy per Si atom -12389.590676 kJ/mol
# Density = 2.083132 g / cm^3
# Si number density = 20.878843 Si / 1000 Ang^3
#
#
#
# Elastic Constant Matrix: (Units=GPa)
#
#
# Indices 1 2 3 4 5 6 
#
# 1 111.3484 67.4004 37.9545 0.0000 13.9328 0.0000
# 2 67.4004 98.2721 39.2334 0.0000 11.9450 0.0000
# 3 37.9545 39.2334 124.2837 0.0000 1.2897 0.0000
# 4 0.0000 0.0000 0.0000 19.8338 0.0000 4.4054
# 5 13.9328 11.9450 1.2897 0.0000 38.9657 0.0000
# 6 0.0000 0.0000 0.0000 4.4054 0.0000 35.1668
#
#
#
# Elastic Compliance Matrix: (Units=1/GPa)
#
#
# Indices 1 2 3 4 5 6 
#
# 1 0.015872 -0.009894 -0.001697 0.000000 -0.002586 0.000000
# 2 -0.009894 0.018293 -0.002733 0.000000 -0.001980 0.000000
# 3 -0.001697 -0.002733 0.009415 0.000000 0.001133 0.000000
# 4 0.000000 0.000000 0.000000 0.051862 0.000000 -0.006497
# 5 -0.002586 -0.001980 0.001133 0.000000 0.027158 0.000000
# 6 0.000000 0.000000 0.000000 -0.006497 0.000000 0.029250
#
#
# Mechanical properties :
#
#
# Convention : Reuss Voigt Hill
#
# Bulk Modulus (GPa) = 66.96534 69.23119 68.09827
# Shear Modulus (GPa) = 26.95792 31.41433 29.18612
#
# Velocity S-wave (km/s) = 3.59717 3.88313 3.74288
# Velocity P-wave (km/s) = 7.02821 7.30311 7.16698
#
# Compressibility (1/GPa) = 0.01493310
#
# Stress axis : x y z
#
# Youngs Moduli (GPa) = 63.00527 54.66507 106.21101
#
# Poissons Ratio (x) = 0.54085 0.18023
# Poissons Ratio (y) = 0.62337 0.29025
# Poissons Ratio (z) = 0.10691 0.14939
#
# Static dielectric constant tensor:
#      x y z
#    x 4.214140 0.000000 0.157530 
#    y 0.000000 3.709210 0.000000 
#    z 0.157530 0.000000 4.470260 
# 
# 
# High freq. dielectric constant tensor:
#      x y z
#    x 1.823550 0.000000 -0.004750 
#    y 0.000000 1.779800 0.000000 
#    z -0.004750 0.000000 1.845540 
# 
# From -- ./inp_files/134565.got.cif
#   From: 2010.06.25/outbox.cif.g09.slc.cpg/sg15_68_cif.got.tgz:134565.got - 2010.06.28 07:06:18.
