data_PCOD8145772
_publ_section_title
;
Structure prediction by ZEFSAII (Michael W. Deem and Ramdas Pophale) SiO2 
 PCOD8145772
Probable space group: C 2/C
;
_chemical_formula_sum "Si O2"
_cell_formula_units_Z 56
_cell_length_a 12.175387
_cell_length_b 9.656267
_cell_length_c 21.990603
_cell_angle_alpha 90.000000
_cell_angle_beta 103.121776
_cell_angle_gamma 90.000000
_cell_volume 2517.902886
_symmetry_space_group_name_H-M "C 2/C"
_symmetry_group_IT_number 15
_symmetry_cell_setting 'monoclinic'
loop_
_space_group_symop_operation_xyz
x,y,z
-x,y,1/2-z
-x,-y,-z
x,-y,1/2+z
1/2+x,1/2+y,z
1/2-x,1/2+y,1/2-z
1/2-x,1/2-y,-z
1/2+x,1/2-y,1/2+z
loop_
_atom_site_type_symbol
_atom_site_label
_atom_site_fract_x
_atom_site_fract_y
_atom_site_fract_z
Si Si1 0.393049 0.361063 0.509183
Si Si2 0.459635 0.972610 0.895180
Si Si3 0.546573 0.251531 0.322577
Si Si4 0.609023 0.862760 0.221218
Si Si5 0.754429 0.103523 0.299258
Si Si6 0.839692 0.555183 0.501995
Si Si7 0.045266 0.035437 0.605994
O O1 0.292135 0.474953 0.502862
O O2 0.358435 0.211102 0.527085
O O3 0.493320 0.402439 0.566656
O O4 0.431163 0.351483 0.443782
O O5 0.458849 0.846933 0.847166
O O6 0.362296 0.964764 0.933362
O O7 0.436175 0.111620 0.853143
O O8 0.579877 0.963692 0.945294
O O9 0.500000 0.277054 0.250000
O O10 0.670842 0.184858 0.334845
O O11 0.543157 0.398942 0.356861
O O12 0.500000 0.848957 0.250000
O O13 0.679633 0.719104 0.232656
O O14 0.685658 0.994664 0.249361
O O15 0.839610 0.010346 0.348212
#
# Coordination Sequence:
#
# PCOD8145772 Si02
#       7
#     8   8   8   8   8   8   8
#     4  10  22  44  63  99 137 176 231 293 345 416
#     4  11  21  43  66 102 136 178 237 287 347 426
#     4  12  23  46  69  98 143 188 230 286 354 420
#     4  12  27  47  71 106 141 185 239 292 350 424
#     4  12  26  45  72 102 139 188 230 290 354 413
#     4  10  22  39  70  96 133 184 225 290 355 407
#     4  11  25  44  67 101 138 182 235 288 350 422
#
# _framework density 22.240729999999999
#
# number of rings (size 3 to 8) (size 9 to 14) (size 15 to 20)
#    0.000    0.857    4.286    2.571    2.000    1.714 
#    2.571    2.143    0.000    0.000    0.000    0.000 
#    0.000    0.000    0.000    0.000    0.000    0.000 
#
# Total GULP energy -347149.963267 kJ/mol
# GULP energy per Si atom -12398.212974 kJ/mol
# Density = 2.219011 g / cm^3
# Si number density = 22.240730 Si / 1000 Ang^3
#
#
#
# Elastic Constant Matrix: (Units=GPa)
#
#
# Indices 1 2 3 4 5 6 
#
# 1 82.6554 24.4718 33.7820 0.0000 -3.0521 0.0000
# 2 24.4718 76.9078 34.1608 0.0000 -6.1476 0.0000
# 3 33.7820 34.1608 121.7597 0.0000 -12.0603 0.0000
# 4 0.0000 0.0000 0.0000 13.1995 0.0000 -4.6933
# 5 -3.0521 -6.1476 -12.0603 0.0000 30.1454 0.0000
# 6 0.0000 0.0000 0.0000 -4.6933 0.0000 43.8756
#
#
#
# Elastic Compliance Matrix: (Units=1/GPa)
#
#
# Indices 1 2 3 4 5 6 
#
# 1 0.014303 -0.003204 -0.003114 0.000000 -0.000451 0.000000
# 2 -0.003204 0.015630 -0.003345 0.000000 0.001525 0.000000
# 3 -0.003114 -0.003345 0.010326 0.000000 0.003134 0.000000
# 4 0.000000 0.000000 0.000000 0.078756 0.000000 0.008424
# 5 -0.000451 0.001525 0.003134 0.000000 0.034691 0.000000
# 6 0.000000 0.000000 0.000000 0.008424 0.000000 0.023693
#
#
# Mechanical properties :
#
#
# Convention : Reuss Voigt Hill
#
# Bulk Modulus (GPa) = 47.77336 51.79468 49.78402
# Shear Modulus (GPa) = 24.54556 30.03799 27.29178
#
# Velocity S-wave (km/s) = 3.32570 3.67902 3.50681
# Velocity P-wave (km/s) = 6.02277 6.43317 6.23135
#
# Compressibility (1/GPa) = 0.02093217
#
# Stress axis : x y z
#
# Youngs Moduli (GPa) = 69.91459 63.98040 96.84482
#
# Poissons Ratio (x) = 0.20500 0.30159
# Poissons Ratio (y) = 0.22401 0.32396
# Poissons Ratio (z) = 0.21772 0.21402
#
# Static dielectric constant tensor:
#      x y z
#    x 4.243100 0.000000 -0.024440 
#    y 0.000000 3.869230 0.000000 
#    z -0.024440 0.000000 4.089350 
# 
# 
# High freq. dielectric constant tensor:
#      x y z
#    x 1.879150 0.000000 -0.001480 
#    y 0.000000 1.865680 0.000000 
#    z -0.001480 0.000000 1.884320 
# 
# From -- ./inp_files/268502.got.cif
#   From: 2010.06.25/outbox.cif.g09.slc.cpg/sg15_135_cif.got.tgz:268502.got - 2010.06.28 07:06:18.
