data_PCOD8145651
_publ_section_title
;
Structure prediction by ZEFSAII (Michael W. Deem and Ramdas Pophale) SiO2 
 PCOD8145651
Probable space group: C 2/C
;
_chemical_formula_sum "Si O2"
_cell_formula_units_Z 64
_cell_length_a 14.693267
_cell_length_b 8.351947
_cell_length_c 29.900764
_cell_angle_alpha 90.000000
_cell_angle_beta 123.695547
_cell_angle_gamma 90.000000
_cell_volume 3052.883783
_symmetry_space_group_name_H-M "C 2/C"
_symmetry_group_IT_number 15
_symmetry_cell_setting 'monoclinic'
loop_
_space_group_symop_operation_xyz
x,y,z
-x,y,1/2-z
-x,-y,-z
x,-y,1/2+z
1/2+x,1/2+y,z
1/2-x,1/2+y,1/2-z
1/2-x,1/2-y,-z
1/2+x,1/2-y,1/2+z
loop_
_atom_site_type_symbol
_atom_site_label
_atom_site_fract_x
_atom_site_fract_y
_atom_site_fract_z
Si Si1 0.992607 0.381643 0.957060
Si Si2 0.896815 0.055908 0.498536
Si Si3 0.989948 0.459975 0.132911
Si Si4 0.335405 0.527107 0.820248
Si Si5 0.257576 0.363444 0.621641
Si Si6 0.717174 0.994300 0.376677
Si Si7 0.215601 0.399583 0.705470
Si Si8 0.569912 0.591697 0.399793
O O1 0.018550 0.468111 0.918364
O O2 0.867681 0.322701 0.925003
O O3 0.000000 0.500000 0.000000
O O4 0.082255 0.241218 0.984154
O O5 0.790664 0.038275 0.439174
O O6 0.883734 0.941185 0.538019
O O7 0.000000 0.000000 0.500000
O O8 0.108681 0.493616 0.186891
O O9 0.904600 0.552668 0.142737
O O10 0.968002 0.272419 0.119421
O O11 0.270682 0.444982 0.844700
O O12 0.304072 0.425763 0.768108
O O13 0.310199 0.712465 0.806180
O O14 0.465025 0.520857 0.863554
O O15 0.310323 0.190539 0.638406
O O16 0.265381 0.456255 0.671235
O O17 0.329429 0.461774 0.605167
#
# Coordination Sequence:
#
# PCOD8145651 Si02
#       8
#     8   8   8   8   8   8   8   8
#     4  11  23  39  56  87 126 163 198 251 296 350
#     4  12  21  39  62  88 125 167 207 243 297 362
#     4  10  23  40  59  94 123 154 205 251 304 366
#     4  11  22  42  67  87 118 163 202 254 307 362
#     4   9  21  40  60  86 121 158 202 248 302 367
#     4  10  22  39  64  87 121 166 204 244 303 372
#     4  10  22  44  63  88 124 155 202 258 307 359
#     4  11  22  38  66  90 118 162 207 244 303 374
#
# _framework density 20.963785000000001
#
# number of rings (size 3 to 8) (size 9 to 14) (size 15 to 20)
#    0.000    1.500    2.500    3.000    1.750    2.500 
#    2.250    5.000    0.000    0.000    0.000    0.000 
#    0.000    0.000    0.000    0.000    0.000    0.000 
#
# Total GULP energy -396582.225341 kJ/mol
# GULP energy per Si atom -12393.194542 kJ/mol
# Density = 2.091607 g / cm^3
# Si number density = 20.963785 Si / 1000 Ang^3
#
#
#
# Elastic Constant Matrix: (Units=GPa)
#
#
# Indices 1 2 3 4 5 6 
#
# 1 155.0952 13.2709 40.3096 0.0000 -14.5332 0.0000
# 2 13.2709 57.5505 11.9269 0.0000 -2.7349 0.0000
# 3 40.3096 11.9269 106.7740 0.0000 -16.7741 0.0000
# 4 0.0000 0.0000 0.0000 31.3545 0.0000 0.4847
# 5 -14.5332 -2.7349 -16.7741 0.0000 21.9119 0.0000
# 6 0.0000 0.0000 0.0000 0.4847 0.0000 23.6918
#
#
#
# Elastic Compliance Matrix: (Units=1/GPa)
#
#
# Indices 1 2 3 4 5 6 
#
# 1 0.007400 -0.001107 -0.002183 0.000000 0.003099 0.000000
# 2 -0.001107 0.017966 -0.001537 0.000000 0.000332 0.000000
# 3 -0.002183 -0.001537 0.011485 0.000000 0.007152 0.000000
# 4 0.000000 0.000000 0.000000 0.031903 0.000000 -0.000653
# 5 0.003099 0.000332 0.007152 0.000000 0.053209 0.000000
# 6 0.000000 0.000000 0.000000 -0.000653 0.000000 0.042222
#
#
# Mechanical properties :
#
#
# Convention : Reuss Voigt Hill
#
# Bulk Modulus (GPa) = 36.76871 50.04828 43.40850
# Shear Modulus (GPa) = 27.33664 32.31914 29.82789
#
# Velocity S-wave (km/s) = 3.61500 3.93066 3.77613
# Velocity P-wave (km/s) = 5.91621 6.67276 6.30584
#
# Compressibility (1/GPa) = 0.02719703
#
# Stress axis : x y z
#
# Youngs Moduli (GPa) = 135.13226 55.66219 87.06942
#
# Poissons Ratio (x) = 0.06160 0.19010
# Poissons Ratio (y) = 0.14955 0.13381
# Poissons Ratio (z) = 0.29503 0.08554
#
# Static dielectric constant tensor:
#      x y z
#    x 5.022880 0.000000 0.503220 
#    y 0.000000 2.986300 0.000000 
#    z 0.503220 0.000000 4.421690 
# 
# 
# High freq. dielectric constant tensor:
#      x y z
#    x 1.838410 0.000000 -0.007390 
#    y 0.000000 1.807770 0.000000 
#    z -0.007390 0.000000 1.818970 
# 
# From -- ./inp_files/313178.got.cif
#   From: 2010.06.25/outbox.cif.g09.slc.cpg/sg15_157_cif.got.tgz:313178.got - 2010.06.28 07:06:18.
