data_PCOD8145829
_publ_section_title
;
Structure prediction by ZEFSAII (Michael W. Deem and Ramdas Pophale) SiO2 
 PCOD8145829
Probable space group: C 2/C
;
_chemical_formula_sum "Si O2"
_cell_formula_units_Z 40
_cell_length_a 11.858758
_cell_length_b 25.385000
_cell_length_c 8.601153
_cell_angle_alpha 90.000000
_cell_angle_beta 134.109934
_cell_angle_gamma 90.000000
_cell_volume 1859.092061
_symmetry_space_group_name_H-M "C 2/C"
_symmetry_group_IT_number 15
_symmetry_cell_setting 'monoclinic'
loop_
_space_group_symop_operation_xyz
x,y,z
-x,y,1/2-z
-x,-y,-z
x,-y,1/2+z
1/2+x,1/2+y,z
1/2-x,1/2+y,1/2-z
1/2-x,1/2-y,-z
1/2+x,1/2-y,1/2+z
loop_
_atom_site_type_symbol
_atom_site_label
_atom_site_fract_x
_atom_site_fract_y
_atom_site_fract_z
Si Si1 0.674776 0.438649 0.860291
Si Si2 0.278084 0.626132 0.815724
Si Si3 0.179540 0.693508 0.466659
Si Si4 0.404415 0.611223 0.515852
Si Si5 0.608874 0.030668 0.486227
O O1 0.500000 0.451538 0.750000
O O2 0.685249 0.429258 0.683885
O O3 0.780026 0.489172 0.997088
O O4 0.744091 0.387514 0.022528
O O5 0.189101 0.677439 0.660418
O O6 0.462823 0.638109 0.965106
O O7 0.217845 0.574925 0.664733
O O8 0.250000 0.750000 0.500000
O O9 0.280663 0.652785 0.462401
O O10 0.000000 0.692311 0.250000
O O11 0.500000 0.583547 0.750000
O O12 0.500000 0.000000 0.500000
O O13 0.500000 0.057921 0.250000
#
# Coordination Sequence:
#
# PCOD8145829 Si02
#       5
#     8   8   8   8   8
#     4  10  23  41  60  88 127 169 211 257 315 382
#     4  10  22  40  60  90 126 169 205 263 313 373
#     4  11  23  41  67  96 123 161 211 263 319 380
#     4   9  21  38  64  88 120 162 209 258 314 376
#     4  12  25  39  59  92 131 168 219 262 314 378
#
# _framework density 21.515879000000002
#
# number of rings (size 3 to 8) (size 9 to 14) (size 15 to 20)
#    0.000    1.600    2.000    2.400    8.400    5.600 
#    0.000    1.000    0.000    2.400    0.000    0.000 
#    0.000    0.000    0.000    0.000    0.000    0.000 
#
# Total GULP energy -247774.815510 kJ/mol
# GULP energy per Si atom -12388.740776 kJ/mol
# Density = 2.146691 g / cm^3
# Si number density = 21.515879 Si / 1000 Ang^3
#
#
#
# Elastic Constant Matrix: (Units=GPa)
#
#
# Indices 1 2 3 4 5 6 
#
# 1 85.1971 39.3741 44.2222 0.0000 3.8613 0.0000
# 2 39.3741 82.2095 42.5384 0.0000 2.4981 0.0000
# 3 44.2222 42.5384 139.8111 0.0000 -7.4777 0.0000
# 4 0.0000 0.0000 0.0000 26.5210 0.0000 6.3852
# 5 3.8613 2.4981 -7.4777 0.0000 44.7543 0.0000
# 6 0.0000 0.0000 0.0000 6.3852 0.0000 26.3481
#
#
#
# Elastic Compliance Matrix: (Units=1/GPa)
#
#
# Indices 1 2 3 4 5 6 
#
# 1 0.016377 -0.006014 -0.003438 0.000000 -0.001652 0.000000
# 2 -0.006014 0.016753 -0.003246 0.000000 -0.000959 0.000000
# 3 -0.003438 -0.003246 0.009337 0.000000 0.002038 0.000000
# 4 0.000000 0.000000 0.000000 0.040042 0.000000 -0.009704
# 5 -0.001652 -0.000959 0.002038 0.000000 0.022881 0.000000
# 6 0.000000 0.000000 0.000000 -0.009704 0.000000 0.040305
#
#
# Mechanical properties :
#
#
# Convention : Reuss Voigt Hill
#
# Bulk Modulus (GPa) = 58.58581 62.16522 60.37552
# Shear Modulus (GPa) = 28.28339 31.59688 29.94013
#
# Velocity S-wave (km/s) = 3.62959 3.83631 3.73438
# Velocity P-wave (km/s) = 6.69727 6.96982 6.83491
#
# Compressibility (1/GPa) = 0.01706898
#
# Stress axis : x y z
#
# Youngs Moduli (GPa) = 61.06294 59.68933 107.10333
#
# Poissons Ratio (x) = 0.35898 0.36826
# Poissons Ratio (y) = 0.36724 0.34769
# Poissons Ratio (z) = 0.20996 0.19377
#
# Static dielectric constant tensor:
#      x y z
#    x 4.160340 0.000000 -0.077500 
#    y 0.000000 3.866710 0.000000 
#    z -0.077500 0.000000 4.637680 
# 
# 
# High freq. dielectric constant tensor:
#      x y z
#    x 1.847360 0.000000 0.008440 
#    y 0.000000 1.802890 0.000000 
#    z 0.008440 0.000000 1.871860 
# 
# From -- ./inp_files/33309.got.cif
#   From: 2010.06.25/outbox.cif.g09.slc.cpg/sg15_17_cif.got.tgz:33309.got - 2010.06.28 07:06:18.
