data_PCOD8145655
_publ_section_title
;
Structure prediction by ZEFSAII (Michael W. Deem and Ramdas Pophale) SiO2 
 PCOD8145655
Probable space group: C 2/C
;
_chemical_formula_sum "Si O2"
_cell_formula_units_Z 48
_cell_length_a 14.351135
_cell_length_b 15.972419
_cell_length_c 18.950454
_cell_angle_alpha 90.000000
_cell_angle_beta 149.809985
_cell_angle_gamma 90.000000
_cell_volume 2184.397667
_symmetry_space_group_name_H-M "C 2/C"
_symmetry_group_IT_number 15
_symmetry_cell_setting 'monoclinic'
loop_
_space_group_symop_operation_xyz
x,y,z
-x,y,1/2-z
-x,-y,-z
x,-y,1/2+z
1/2+x,1/2+y,z
1/2-x,1/2+y,1/2-z
1/2-x,1/2-y,-z
1/2+x,1/2-y,1/2+z
loop_
_atom_site_type_symbol
_atom_site_label
_atom_site_fract_x
_atom_site_fract_y
_atom_site_fract_z
Si Si1 0.000000 0.857013 0.750000
Si Si2 0.276364 0.253271 0.838436
Si Si3 0.678327 0.934505 0.822300
Si Si4 0.839767 0.520382 0.340046
Si Si5 0.816186 0.704457 0.368667
Si Si6 0.438278 0.507637 0.609509
Si Si7 0.500000 0.645772 0.750000
O O1 0.841700 0.792807 0.674085
O O2 0.914010 0.918240 0.633135
O O3 0.281753 0.349968 0.866038
O O4 0.207310 0.234298 0.713685
O O5 0.148869 0.203392 0.808965
O O6 0.482858 0.217795 0.968218
O O7 0.500000 0.908904 0.750000
O O8 0.609693 0.990037 0.709904
O O9 0.817882 0.992246 0.959363
O O10 0.787022 0.615382 0.314826
O O11 0.653356 0.469202 0.234558
O O12 0.000000 0.500000 0.500000
O O13 0.376415 0.585786 0.618170
#
# Coordination Sequence:
#
# PCOD8145655 Si02
#       7
#     4   8   8   8   8   8   4
#     4   9  22  44  66  88 122 163 222 262 314 367
#     4  11  23  39  60  93 128 166 207 253 320 378
#     4  11  24  37  62  96 132 164 208 261 311 378
#     4  10  22  41  63  90 126 169 212 255 315 378
#     4  10  23  40  63  87 123 166 211 262 309 376
#     4  10  22  39  64  89 126 166 206 265 317 364
#     4  11  22  36  64  94 130 165 208 256 318 383
#
# _framework density 21.974022000000001
#
# number of rings (size 3 to 8) (size 9 to 14) (size 15 to 20)
#    0.000    1.667    0.833    2.500   11.667    2.000 
#    0.000    0.000    0.000    0.000    0.000    0.000 
#    0.000    0.000    0.000    0.000    0.000    0.000 
#
# Total GULP energy -297445.848148 kJ/mol
# GULP energy per Si atom -12393.577006 kJ/mol
# Density = 2.192401 g / cm^3
# Si number density = 21.974022 Si / 1000 Ang^3
#
#
#
# Elastic Constant Matrix: (Units=GPa)
#
#
# Indices 1 2 3 4 5 6 
#
# 1 156.6632 33.0977 59.0259 0.0090 6.6684 0.0066
# 2 33.0977 43.7257 17.8486 0.0007 1.0122 -0.0004
# 3 59.0259 17.8486 140.3611 0.0167 -6.4496 0.0134
# 4 0.0090 0.0007 0.0167 14.1534 -0.0007 -5.2762
# 5 6.6684 1.0122 -6.4496 -0.0007 44.5542 -0.0012
# 6 0.0066 -0.0004 0.0134 -5.2762 -0.0012 20.1671
#
#
#
# Elastic Compliance Matrix: (Units=1/GPa)
#
#
# Indices 1 2 3 4 5 6 
#
# 1 0.008733 -0.005319 -0.003071 -0.000002 -0.001631 -0.000002
# 2 -0.005319 0.027406 -0.001248 0.000005 -0.000007 0.000004
# 3 -0.003071 -0.001248 0.008655 -0.000011 0.001741 -0.000008
# 4 -0.000002 0.000005 -0.000011 0.078290 0.000000 0.020483
# 5 -0.001631 -0.000007 0.001741 0.000000 0.022941 0.000001
# 6 -0.000002 0.000004 -0.000008 0.020483 0.000001 0.054944
#
#
# Mechanical properties :
#
#
# Convention : Reuss Voigt Hill
#
# Bulk Modulus (GPa) = 39.19049 62.29937 50.74493
# Shear Modulus (GPa) = 21.85765 31.16013 26.50889
#
# Velocity S-wave (km/s) = 3.15731 3.76978 3.47706
# Velocity P-wave (km/s) = 5.58258 6.88195 6.26603
#
# Compressibility (1/GPa) = 0.02551639
#
# Stress axis : x y z
#
# Youngs Moduli (GPa) = 114.50213 36.48837 115.54345
#
# Poissons Ratio (x) = 0.19409 0.35486
# Poissons Ratio (y) = 0.60907 0.14425
# Poissons Ratio (z) = 0.35166 0.04555
#
# Static dielectric constant tensor:
#      x y z
#    x 4.615430 0.000050 -0.352310 
#    y 0.000050 3.885130 -0.000120 
#    z -0.352310 -0.000120 4.023200 
# 
# 
# High freq. dielectric constant tensor:
#      x y z
#    x 1.881370 0.000000 -0.007820 
#    y 0.000000 1.841430 0.000000 
#    z -0.007820 0.000000 1.862070 
# 
# From -- ./inp_files/155304.got.cif
#   From: 2010.06.25/outbox.cif.g09.slc.cpg/sg15_78_cif.got.tgz:155304.got - 2010.06.28 07:06:18.
