data_PCOD8145281
_publ_section_title
;
Structure prediction by ZEFSAII (Michael W. Deem and Ramdas Pophale) SiO2 
 PCOD8145281
Probable space group: C 2/C
;
_chemical_formula_sum "Si O2"
_cell_formula_units_Z 52
_cell_length_a 21.432440
_cell_length_b 11.547108
_cell_length_c 12.093632
_cell_angle_alpha 90.000000
_cell_angle_beta 129.597066
_cell_angle_gamma 90.000000
_cell_volume 2306.216622
_symmetry_space_group_name_H-M "C 2/C"
_symmetry_group_IT_number 15
_symmetry_cell_setting 'monoclinic'
loop_
_space_group_symop_operation_xyz
x,y,z
-x,y,1/2-z
-x,-y,-z
x,-y,1/2+z
1/2+x,1/2+y,z
1/2-x,1/2+y,1/2-z
1/2-x,1/2-y,-z
1/2+x,1/2-y,1/2+z
loop_
_atom_site_type_symbol
_atom_site_label
_atom_site_fract_x
_atom_site_fract_y
_atom_site_fract_z
Si Si1 0.600773 0.307463 0.643319
Si Si2 0.072584 0.206567 0.468771
Si Si3 0.683722 0.431701 0.927419
Si Si4 0.500000 0.096154 0.750000
Si Si5 0.165788 0.692303 0.271282
Si Si6 0.657313 0.684722 0.972056
Si Si7 0.355224 0.061313 0.721271
O O1 0.514620 0.345732 0.596571
O O2 0.667480 0.382261 0.785750
O O3 0.597777 0.335341 0.508935
O O4 0.618479 0.169944 0.674110
O O5 0.121102 0.121426 0.444142
O O6 0.058668 0.326471 0.391607
O O7 0.123843 0.226216 0.635965
O O8 0.670960 0.568795 0.916073
O O9 0.777005 0.401042 0.061141
O O10 0.434846 0.020844 0.742475
O O11 0.259308 0.730084 0.379876
O O12 0.126883 0.718785 0.349355
O O13 0.162549 0.556640 0.231873
#
# Coordination Sequence:
#
# PCOD8145281 Si02
#       7
#     8   8   8   4   8   8   8
#     4  11  23  42  64  99 125 173 222 267 324 398
#     4  11  22  41  65  93 133 165 218 271 326 386
#     4  11  22  42  66  95 123 178 215 271 323 389
#     4  10  22  38  62 100 126 162 212 278 312 394
#     4  10  24  44  62  97 129 175 211 277 329 385
#     4  10  25  43  64  95 135 165 228 267 327 391
#     4  10  22  40  68  94 127 170 218 266 330 390
#
# _framework density 22.547751999999999
#
# number of rings (size 3 to 8) (size 9 to 14) (size 15 to 20)
#    0.000    1.538    3.077    1.385    4.308    6.154 
#    8.308    0.000    0.000    0.000    0.000    0.000 
#    0.000    0.000    0.000    0.000    0.000    0.000 
#
# Total GULP energy -322284.257430 kJ/mol
# GULP energy per Si atom -12395.548363 kJ/mol
# Density = 2.249643 g / cm^3
# Si number density = 22.547752 Si / 1000 Ang^3
#
#
#
# Elastic Constant Matrix: (Units=GPa)
#
#
# Indices 1 2 3 4 5 6 
#
# 1 74.0163 13.6082 6.9744 0.0000 -0.0863 0.0000
# 2 13.6082 68.1703 27.3366 0.0000 -1.2470 0.0000
# 3 6.9744 27.3366 88.4303 0.0000 -7.0146 0.0000
# 4 0.0000 0.0000 0.0000 -0.3783 0.0000 -2.3543
# 5 -0.0863 -1.2470 -7.0146 0.0000 34.4669 0.0000
# 6 0.0000 0.0000 0.0000 -2.3543 0.0000 21.7861
#
#
#
# Elastic Compliance Matrix: (Units=1/GPa)
#
#
# Indices 1 2 3 4 5 6 
#
# 1 0.014032 -0.002689 -0.000285 0.000000 -0.000120 0.000000
# 2 -0.002689 0.017267 -0.005160 0.000000 -0.000432 0.000000
# 3 -0.000285 -0.005160 0.013123 0.000000 0.002483 0.000000
# 4 0.000000 0.000000 0.000000 -1.580522 0.000000 -0.170800
# 5 -0.000120 -0.000432 0.002483 0.000000 0.029503 0.000000
# 6 0.000000 0.000000 0.000000 -0.170800 0.000000 0.027443
#
#
# Mechanical properties :
#
#
# Convention : Reuss Voigt Hill
#
# Bulk Modulus (GPa) = 35.51908 36.27283 35.89596
# Shear Modulus (GPa) = -3.43997 23.35478 9.95741
#
# Velocity S-wave (km/s) = -1.23651 3.22186 2.10374
# Velocity P-wave (km/s) = 3.70789 5.47381 4.67499
#
# Compressibility (1/GPa) = 0.02815388
#
# Stress axis : x y z
#
# Youngs Moduli (GPa) = 71.26761 57.91323 76.20243
#
# Poissons Ratio (x) = 0.15572 0.02171
# Poissons Ratio (y) = 0.19163 0.39321
# Poissons Ratio (z) = 0.02031 0.29884
#
# Static dielectric constant tensor:
#      x y z
#    x 4.284920 0.000000 0.117190 
#    y 0.000000 3.867280 0.000000 
#    z 0.117190 0.000000 4.080770 
# 
# 
# High freq. dielectric constant tensor:
#      x y z
#    x 1.890560 0.000000 0.006670 
#    y 0.000000 1.879590 0.000000 
#    z 0.006670 0.000000 1.884900 
# 
# From -- ./inp_files/111740.got.cif
#   From: 2010.06.25/outbox.cif.g09.slc.cpg/sg15_56_cif.got.tgz:111740.got - 2010.06.28 07:06:18.
