data_PCOD8145648
_publ_section_title
;
Structure prediction by ZEFSAII (Michael W. Deem and Ramdas Pophale) SiO2 
 PCOD8145648
Probable space group: C 2/C
;
_chemical_formula_sum "Si O2"
_cell_formula_units_Z 56
_cell_length_a 15.548807
_cell_length_b 14.383833
_cell_length_c 11.278550
_cell_angle_alpha 90.000000
_cell_angle_beta 82.067563
_cell_angle_gamma 90.000000
_cell_volume 2498.327770
_symmetry_space_group_name_H-M "C 2/C"
_symmetry_group_IT_number 15
_symmetry_cell_setting 'monoclinic'
loop_
_space_group_symop_operation_xyz
x,y,z
-x,y,1/2-z
-x,-y,-z
x,-y,1/2+z
1/2+x,1/2+y,z
1/2-x,1/2+y,1/2-z
1/2-x,1/2-y,-z
1/2+x,1/2-y,1/2+z
loop_
_atom_site_type_symbol
_atom_site_label
_atom_site_fract_x
_atom_site_fract_y
_atom_site_fract_z
Si Si1 0.525196 0.285087 0.002196
Si Si2 0.681922 0.916254 0.712280
Si Si3 0.809609 0.891187 0.479299
Si Si4 0.000000 0.322832 0.750000
Si Si5 0.685414 0.302271 0.665440
Si Si6 0.000000 0.780533 0.750000
Si Si7 0.743588 0.111150 0.739947
Si Si8 0.373557 0.585587 0.522309
O O1 0.627450 0.309272 0.985944
O O2 0.493849 0.235240 0.128631
O O3 0.473959 0.383789 0.006781
O O4 0.503682 0.228804 0.881030
O O5 0.726022 0.906721 0.576345
O O6 0.582905 0.887475 0.723655
O O7 0.732747 0.850883 0.792420
O O8 0.681203 0.021916 0.758941
O O9 0.771893 0.854026 0.363242
O O10 0.862426 0.987935 0.455320
O O11 0.590759 0.338780 0.733732
O O12 0.690642 0.191682 0.682667
O O13 0.684109 0.332334 0.528427
O O14 0.833030 0.079118 0.660577
#
# Coordination Sequence:
#
# PCOD8145648 Si02
#       8
#     8   8   8   4   8   4   8   8
#     4  11  22  41  67 107 132 182 219 283 352 410
#     4  11  25  46  66 100 138 178 230 286 331 400
#     4  11  22  41  70 100 135 177 224 276 351 407
#     4  12  28  45  69  96 142 180 238 283 333 398
#     4  11  21  43  68  94 139 176 223 278 336 411
#     4  10  24  39  67 104 136 176 228 275 349 402
#     4  11  24  40  69  96 132 188 226 273 337 397
#     4  10  22  39  64 104 139 170 217 282 343 408
#
# _framework density 22.414992000000002
#
# number of rings (size 3 to 8) (size 9 to 14) (size 15 to 20)
#    0.000    1.143    2.857    3.429    2.000    2.857 
#    0.000    2.143    0.000    0.000    0.000    0.000 
#    0.000    0.000    0.000    0.000    0.000    0.000 
#
# Total GULP energy -346951.154456 kJ/mol
# GULP energy per Si atom -12391.112659 kJ/mol
# Density = 2.236397 g / cm^3
# Si number density = 22.414992 Si / 1000 Ang^3
#
#
#
# Elastic Constant Matrix: (Units=GPa)
#
#
# Indices 1 2 3 4 5 6 
#
# 1 130.4998 28.9457 25.7334 0.0000 -2.6252 0.0000
# 2 28.9457 90.5793 14.3386 0.0000 5.8431 0.0000
# 3 25.7334 14.3386 148.2528 0.0000 16.6677 0.0000
# 4 0.0000 0.0000 0.0000 23.4851 0.0000 1.3613
# 5 -2.6252 5.8431 16.6677 0.0000 30.8673 0.0000
# 6 0.0000 0.0000 0.0000 1.3613 0.0000 25.5382
#
#
#
# Elastic Compliance Matrix: (Units=1/GPa)
#
#
# Indices 1 2 3 4 5 6 
#
# 1 0.008577 -0.002640 -0.001460 0.000000 0.002018 0.000000
# 2 -0.002640 0.012102 -0.000457 0.000000 -0.002269 0.000000
# 3 -0.001460 -0.000457 0.007503 0.000000 -0.004089 0.000000
# 4 0.000000 0.000000 0.000000 0.042712 0.000000 -0.002277
# 5 0.002018 -0.002269 -0.004089 0.000000 0.035206 0.000000
# 6 0.000000 0.000000 0.000000 -0.002277 0.000000 0.039278
#
#
# Mechanical properties :
#
#
# Convention : Reuss Voigt Hill
#
# Bulk Modulus (GPa) = 52.44618 56.37415 54.41016
# Shear Modulus (GPa) = 31.08514 35.99909 33.54211
#
# Velocity S-wave (km/s) = 3.72802 4.01187 3.87255
# Velocity P-wave (km/s) = 6.47915 6.83118 6.65749
#
# Compressibility (1/GPa) = 0.01906717
#
# Stress axis : x y z
#
# Youngs Moduli (GPa) = 116.59185 82.62845 133.28644
#
# Poissons Ratio (x) = 0.21813 0.19464
# Poissons Ratio (y) = 0.30779 0.06094
# Poissons Ratio (z) = 0.17026 0.03778
#
# Static dielectric constant tensor:
#      x y z
#    x 3.994250 0.000000 0.031700 
#    y 0.000000 3.815710 0.000000 
#    z 0.031700 0.000000 4.306910 
# 
# 
# High freq. dielectric constant tensor:
#      x y z
#    x 1.888400 0.000000 0.003160 
#    y 0.000000 1.851920 0.000000 
#    z 0.003160 0.000000 1.900370 
# 
# From -- ./inp_files/97093.got.cif
#   From: 2010.06.25/outbox.cif.g09.slc.cpg/sg15_49_cif.got.tgz:97093.got - 2010.06.28 07:06:18.
