data_PCOD8145231
_publ_section_title
;
Structure prediction by ZEFSAII (Michael W. Deem and Ramdas Pophale) SiO2 
 PCOD8145231
Probable space group: C 2/C
;
_chemical_formula_sum "Si O2"
_cell_formula_units_Z 52
_cell_length_a 5.527788
_cell_length_b 21.531572
_cell_length_c 21.684853
_cell_angle_alpha 90.000000
_cell_angle_beta 84.640816
_cell_angle_gamma 90.000000
_cell_volume 2569.691746
_symmetry_space_group_name_H-M "C 2/C"
_symmetry_group_IT_number 15
_symmetry_cell_setting 'monoclinic'
loop_
_space_group_symop_operation_xyz
x,y,z
-x,y,1/2-z
-x,-y,-z
x,-y,1/2+z
1/2+x,1/2+y,z
1/2-x,1/2+y,1/2-z
1/2-x,1/2-y,-z
1/2+x,1/2-y,1/2+z
loop_
_atom_site_type_symbol
_atom_site_label
_atom_site_fract_x
_atom_site_fract_y
_atom_site_fract_z
Si Si1 0.500000 0.805492 0.750000
Si Si2 0.399157 0.774337 0.186143
Si Si3 0.137541 0.049744 0.925575
Si Si4 0.733616 0.827504 0.863940
Si Si5 0.488400 0.417499 0.938616
Si Si6 0.374910 0.115421 0.595369
Si Si7 0.848182 0.315065 0.974589
O O1 0.347370 0.762637 0.799151
O O2 0.650802 0.845689 0.795951
O O3 0.500000 0.795078 0.250000
O O4 0.576004 0.728726 0.144548
O O5 0.332302 0.835105 0.149733
O O6 0.388756 0.074936 0.889843
O O7 0.882028 0.078674 0.906418
O O8 0.143063 0.976167 0.910807
O O9 0.163053 0.059932 0.998447
O O10 0.539401 0.800866 0.916705
O O11 0.819845 0.894322 0.886895
O O12 0.639885 0.356711 0.950513
O O13 0.458326 0.148505 0.530223
O O14 0.750000 0.250000 0.000000
#
# Coordination Sequence:
#
# PCOD8145231 Si02
#       7
#     4   8   8   8   8   8   8
#     4  10  22  40  60  92 120 166 210 262 340 386
#     4  10  24  40  65  89 124 166 213 269 330 385
#     4  10  24  39  64  93 131 173 216 250 324 369
#     4  11  21  38  62  91 126 165 211 262 327 385
#     4  10  22  38  59  92 133 172 206 263 309 392
#     4  11  23  41  64  96 125 170 211 267 311 394
#     4  11  23  35  62  96 133 162 205 264 328 378
#
# _framework density 20.235889
#
# number of rings (size 3 to 8) (size 9 to 14) (size 15 to 20)
#    0.000    1.538    1.538    2.769   10.769    3.077 
#    0.000    0.000    1.692    1.846    0.000    0.000 
#    0.000    0.000    0.000    0.000    0.000    0.000 
#
# Total GULP energy -322221.982503 kJ/mol
# GULP energy per Si atom -12393.153173 kJ/mol
# Density = 2.018983 g / cm^3
# Si number density = 20.235889 Si / 1000 Ang^3
#
#
#
# Elastic Constant Matrix: (Units=GPa)
#
#
# Indices 1 2 3 4 5 6 
#
# 1 103.8472 55.5918 35.9596 0.0000 2.4726 0.0000
# 2 55.5918 135.8773 55.3376 0.0000 15.3324 0.0000
# 3 35.9596 55.3376 100.3571 0.0000 7.5303 0.0000
# 4 0.0000 0.0000 0.0000 106.3547 0.0000 -88.5033
# 5 2.4726 15.3324 7.5303 0.0000 34.1384 0.0000
# 6 0.0000 0.0000 0.0000 -88.5033 0.0000 126.9255
#
#
#
# Elastic Compliance Matrix: (Units=1/GPa)
#
#
# Indices 1 2 3 4 5 6 
#
# 1 0.012767 -0.004502 -0.002211 0.000000 0.001585 0.000000
# 2 -0.004502 0.011426 -0.004399 0.000000 -0.003835 0.000000
# 3 -0.002211 -0.004399 0.013242 0.000000 -0.000785 0.000000
# 4 0.000000 0.000000 0.000000 0.022400 0.000000 0.015619
# 5 0.001585 -0.003835 -0.000785 0.000000 0.031073 0.000000
# 6 0.000000 0.000000 0.000000 0.015619 0.000000 0.018770
#
#
# Mechanical properties :
#
#
# Convention : Reuss Voigt Hill
#
# Bulk Modulus (GPa) = 65.74797 70.42887 68.08842
# Shear Modulus (GPa) = 36.50345 66.36322 51.43334
#
# Velocity S-wave (km/s) = 4.25184 5.73289 5.04699
# Velocity P-wave (km/s) = 7.52765 8.87135 8.22698
#
# Compressibility (1/GPa) = 0.01520959
#
# Stress axis : x y z
#
# Youngs Moduli (GPa) = 78.32402 87.52025 75.51961
#
# Poissons Ratio (x) = 0.39400 0.16700
# Poissons Ratio (y) = 0.35260 0.33225
# Poissons Ratio (z) = 0.17321 0.38504
#
# Static dielectric constant tensor:
#      x y z
#    x 3.827060 0.000000 0.127080 
#    y 0.000000 3.646150 0.000000 
#    z 0.127080 0.000000 4.005770 
# 
# 
# High freq. dielectric constant tensor:
#      x y z
#    x 1.798860 0.000000 0.007070 
#    y 0.000000 1.782380 0.000000 
#    z 0.007070 0.000000 1.783540 
# 
# From -- ./inp_files/227486.got.cif
#   From: 2010.06.25/outbox.cif.g09.slc.cpg/sg15_114_cif.got.tgz:227486.got - 2010.06.28 07:06:18.
