data_PCOD8145342
_publ_section_title
;
Structure prediction by ZEFSAII (Michael W. Deem and Ramdas Pophale) SiO2 
 PCOD8145342
Probable space group: C 2/C
;
_chemical_formula_sum "Si O2"
_cell_formula_units_Z 52
_cell_length_a 11.341217
_cell_length_b 15.369607
_cell_length_c 14.467760
_cell_angle_alpha 90.000000
_cell_angle_beta 74.150654
_cell_angle_gamma 90.000000
_cell_volume 2426.002126
_symmetry_space_group_name_H-M "C 2/C"
_symmetry_group_IT_number 15
_symmetry_cell_setting 'monoclinic'
loop_
_space_group_symop_operation_xyz
x,y,z
-x,y,1/2-z
-x,-y,-z
x,-y,1/2+z
1/2+x,1/2+y,z
1/2-x,1/2+y,1/2-z
1/2-x,1/2-y,-z
1/2+x,1/2-y,1/2+z
loop_
_atom_site_type_symbol
_atom_site_label
_atom_site_fract_x
_atom_site_fract_y
_atom_site_fract_z
Si Si1 0.493159 0.353897 0.592112
Si Si2 0.514764 0.835900 0.143041
Si Si3 0.746368 0.087930 0.521580
Si Si4 0.816025 0.540058 0.611074
Si Si5 0.000000 0.842157 0.250000
Si Si6 0.157254 0.013851 0.814027
Si Si7 0.848005 0.181682 0.942166
O O1 0.465788 0.262361 0.647350
O O2 0.638049 0.370630 0.555242
O O3 0.429175 0.428634 0.666869
O O4 0.440885 0.348736 0.500498
O O5 0.500000 0.869437 0.250000
O O6 0.656961 0.838125 0.082080
O O7 0.435418 0.900325 0.096255
O O8 0.789449 0.024749 0.594701
O O9 0.660995 0.037991 0.465346
O O10 0.769385 0.500963 0.718673
O O11 0.709489 0.594393 0.584923
O O12 0.918139 0.901482 0.199861
O O13 0.922281 0.780167 0.336713
O O14 0.750000 0.250000 0.000000
#
# Coordination Sequence:
#
# PCOD8145342 Si02
#       7
#     8   8   8   8   4   8   8
#     4  12  24  43  69 102 134 170 232 281 332 400
#     4  12  27  45  65  97 144 177 215 282 349 401
#     4  12  24  44  70  98 134 182 226 275 333 407
#     4  11  24  44  71  96 137 176 226 276 339 412
#     4  10  22  38  64 100 136 168 228 278 332 404
#     4  11  22  41  68 104 128 170 229 280 330 396
#     4  11  21  40  68  97 133 180 219 284 346 390
#
# _framework density 21.434441
#
# number of rings (size 3 to 8) (size 9 to 14) (size 15 to 20)
#    0.000    0.615    6.154    3.231    3.231    0.000 
#    0.000    0.000    1.692    0.000    0.000    0.000 
#    0.000    0.000    0.000    0.000    0.000    0.000 
#
# Total GULP energy -322404.351292 kJ/mol
# GULP energy per Si atom -12400.167357 kJ/mol
# Density = 2.138565 g / cm^3
# Si number density = 21.434441 Si / 1000 Ang^3
#
#
#
# Elastic Constant Matrix: (Units=GPa)
#
#
# Indices 1 2 3 4 5 6 
#
# 1 89.1188 36.0850 32.2569 0.0000 -3.2523 0.0000
# 2 36.0850 84.5004 47.5462 0.0000 -12.1292 0.0000
# 3 32.2569 47.5462 121.6712 0.0000 -13.3683 0.0000
# 4 0.0000 0.0000 0.0000 26.0798 0.0000 -2.3512
# 5 -3.2523 -12.1292 -13.3683 0.0000 45.3374 0.0000
# 6 0.0000 0.0000 0.0000 -2.3512 0.0000 34.6938
#
#
#
# Elastic Compliance Matrix: (Units=1/GPa)
#
#
# Indices 1 2 3 4 5 6 
#
# 1 0.013883 -0.005038 -0.001809 0.000000 -0.000885 0.000000
# 2 -0.005038 0.017252 -0.005104 0.000000 0.002749 0.000000
# 3 -0.001809 -0.005104 0.010881 0.000000 0.001713 0.000000
# 4 0.000000 0.000000 0.000000 0.038580 0.000000 0.002615
# 5 -0.000885 0.002749 0.001713 0.000000 0.023234 0.000000
# 6 0.000000 0.000000 0.000000 0.002615 0.000000 0.029001
#
#
# Mechanical properties :
#
#
# Convention : Reuss Voigt Hill
#
# Bulk Modulus (GPa) = 55.20440 58.56296 56.88368
# Shear Modulus (GPa) = 30.71786 33.18236 31.95011
#
# Velocity S-wave (km/s) = 3.78975 3.93884 3.86501
# Velocity P-wave (km/s) = 6.70526 6.93305 6.82011
#
# Compressibility (1/GPa) = 0.01811450
#
# Stress axis : x y z
#
# Youngs Moduli (GPa) = 72.02839 57.96378 91.90043
#
# Poissons Ratio (x) = 0.29201 0.16628
# Poissons Ratio (y) = 0.36286 0.46907
# Poissons Ratio (z) = 0.13032 0.29585
#
# Static dielectric constant tensor:
#      x y z
#    x 3.884630 0.000000 -0.006080 
#    y 0.000000 3.547890 0.000000 
#    z -0.006080 0.000000 4.194710 
# 
# 
# High freq. dielectric constant tensor:
#      x y z
#    x 1.844500 0.000000 0.002390 
#    y 0.000000 1.814200 0.000000 
#    z 0.002390 0.000000 1.861340 
# 
# From -- ./inp_files/144161.got.cif
#   From: 2010.06.25/outbox.cif.g09.slc.cpg/sg15_73_cif.got.tgz:144161.got - 2010.06.28 07:06:18.
