data_PCOD8145217
_publ_section_title
;
Structure prediction by ZEFSAII (Michael W. Deem and Ramdas Pophale) SiO2 
 PCOD8145217
Probable space group: C 2/C
;
_chemical_formula_sum "Si O2"
_cell_formula_units_Z 48
_cell_length_a 12.278389
_cell_length_b 21.581652
_cell_length_c 12.550475
_cell_angle_alpha 90.000000
_cell_angle_beta 135.638379
_cell_angle_gamma 90.000000
_cell_volume 2325.295181
_symmetry_space_group_name_H-M "C 2/C"
_symmetry_group_IT_number 15
_symmetry_cell_setting 'monoclinic'
loop_
_space_group_symop_operation_xyz
x,y,z
-x,y,1/2-z
-x,-y,-z
x,-y,1/2+z
1/2+x,1/2+y,z
1/2-x,1/2+y,1/2-z
1/2-x,1/2-y,-z
1/2+x,1/2-y,1/2+z
loop_
_atom_site_type_symbol
_atom_site_label
_atom_site_fract_x
_atom_site_fract_y
_atom_site_fract_z
Si Si1 0.879959 0.913015 0.911599
Si Si2 0.032701 0.590424 0.109852
Si Si3 0.948181 0.810084 0.336244
Si Si4 0.656189 0.207599 0.519869
Si Si5 0.905989 0.020646 0.088976
Si Si6 0.568304 0.953922 0.405613
O O1 0.708406 0.887965 0.762405
O O2 0.979940 0.925750 0.875588
O O3 0.983217 0.868940 0.056947
O O4 0.853828 0.976160 0.957900
O O5 0.990175 0.524928 0.131260
O O6 0.010478 0.585247 0.966637
O O7 0.910430 0.641655 0.070010
O O8 0.759814 0.806616 0.197645
O O9 0.000000 0.812502 0.250000
O O10 0.005989 0.749468 0.441785
O O11 0.750000 0.250000 0.500000
O O12 0.000000 0.985912 0.250000
O O13 0.753912 0.050956 0.033872
O O14 0.500000 0.923589 0.250000
#
# Coordination Sequence:
#
# PCOD8145217 Si02
#       6
#     8   8   8   8   8   8
#     4  11  23  37  62  90 126 168 209 265 312 381
#     4  11  24  40  61  93 131 168 213 260 320 382
#     4  10  22  38  59  88 116 161 200 258 312 368
#     4  10  23  39  60  88 123 161 207 259 314 371
#     4  11  23  39  58  91 128 166 213 255 321 376
#     4  11  24  39  62  93 128 172 208 261 321 387
#
# _framework density 20.64254
#
# number of rings (size 3 to 8) (size 9 to 14) (size 15 to 20)
#    0.000    1.333    3.333    1.500    9.333    3.333 
#    0.000    0.000    0.000    2.000    0.000    0.000 
#    0.000    0.000    0.000    0.000    0.000    0.000 
#
# Total GULP energy -297423.513291 kJ/mol
# GULP energy per Si atom -12392.646387 kJ/mol
# Density = 2.059556 g / cm^3
# Si number density = 20.642540 Si / 1000 Ang^3
#
#
#
# Elastic Constant Matrix: (Units=GPa)
#
#
# Indices 1 2 3 4 5 6 
#
# 1 77.3327 21.3379 39.1652 0.0000 5.9163 0.0000
# 2 21.3379 79.9307 34.5274 0.0000 12.2885 0.0000
# 3 39.1652 34.5274 155.5970 0.0000 20.4053 0.0000
# 4 0.0000 0.0000 0.0000 35.9321 0.0000 8.7521
# 5 5.9163 12.2885 20.4053 0.0000 42.3037 0.0000
# 6 0.0000 0.0000 0.0000 8.7521 0.0000 26.1072
#
#
#
# Elastic Compliance Matrix: (Units=1/GPa)
#
#
# Indices 1 2 3 4 5 6 
#
# 1 0.015325 -0.002706 -0.003287 0.000000 0.000228 0.000000
# 2 -0.002706 0.014612 -0.002193 0.000000 -0.002808 0.000000
# 3 -0.003287 -0.002193 0.008110 0.000000 -0.002815 0.000000
# 4 0.000000 0.000000 0.000000 0.030305 0.000000 -0.010159
# 5 0.000228 -0.002808 -0.002815 0.000000 0.025780 0.000000
# 6 0.000000 0.000000 0.000000 -0.010159 0.000000 0.041709
#
#
# Mechanical properties :
#
#
# Convention : Reuss Voigt Hill
#
# Bulk Modulus (GPa) = 46.13624 55.88016 51.00820
# Shear Modulus (GPa) = 31.35988 35.39060 33.37524
#
# Velocity S-wave (km/s) = 3.90190 4.14508 4.02533
# Velocity P-wave (km/s) = 6.53440 7.07376 6.80942
#
# Compressibility (1/GPa) = 0.02167494
#
# Stress axis : x y z
#
# Youngs Moduli (GPa) = 65.25267 68.43508 123.30442
#
# Poissons Ratio (x) = 0.18521 0.40528
# Poissons Ratio (y) = 0.17660 0.27041
# Poissons Ratio (z) = 0.21447 0.15008
#
# Static dielectric constant tensor:
#      x y z
#    x 3.946060 0.000000 0.675470 
#    y 0.000000 3.535830 0.000000 
#    z 0.675470 0.000000 5.248110 
# 
# 
# High freq. dielectric constant tensor:
#      x y z
#    x 1.786270 0.000000 0.020620 
#    y 0.000000 1.776520 0.000000 
#    z 0.020620 0.000000 1.836780 
# 
# From -- ./inp_files/89803.got.cif
#   From: 2010.06.25/outbox.cif.g09.slc.cpg/sg15_45_cif.got.tgz:89803.got - 2010.06.28 07:06:18.
