data_PCOD8145043
_publ_section_title
;
Structure prediction by ZEFSAII (Michael W. Deem and Ramdas Pophale) SiO2 
 PCOD8145043
Probable space group: C 2/C
;
_chemical_formula_sum "Si O2"
_cell_formula_units_Z 56
_cell_length_a 17.711933
_cell_length_b 8.726869
_cell_length_c 25.456818
_cell_angle_alpha 90.000000
_cell_angle_beta 44.873778
_cell_angle_gamma 90.000000
_cell_volume 2776.225125
_symmetry_space_group_name_H-M "C 2/C"
_symmetry_group_IT_number 15
_symmetry_cell_setting 'monoclinic'
loop_
_space_group_symop_operation_xyz
x,y,z
-x,y,1/2-z
-x,-y,-z
x,-y,1/2+z
1/2+x,1/2+y,z
1/2-x,1/2+y,1/2-z
1/2-x,1/2-y,-z
1/2+x,1/2-y,1/2+z
loop_
_atom_site_type_symbol
_atom_site_label
_atom_site_fract_x
_atom_site_fract_y
_atom_site_fract_z
Si Si1 0.899880 0.429191 0.580296
Si Si2 0.624250 0.256235 0.504702
Si Si3 0.084222 0.793316 0.335468
Si Si4 0.368531 0.713165 0.882504
Si Si5 0.243022 0.207620 0.667235
Si Si6 0.072053 0.069565 0.418032
Si Si7 0.725841 0.001828 0.522927
O O1 0.849545 0.298672 0.567425
O O2 0.939779 0.350895 0.614661
O O3 0.809146 0.551250 0.637415
O O4 0.000000 0.500000 0.500000
O O5 0.499256 0.297385 0.573966
O O6 0.647742 0.123921 0.534704
O O7 0.691844 0.410195 0.480151
O O8 0.190985 0.761518 0.249562
O O9 0.987299 0.824426 0.343142
O O10 0.104016 0.943871 0.359951
O O11 0.352660 0.693958 0.828014
O O12 0.344894 0.889471 0.907441
O O13 0.286331 0.595468 0.949157
O O14 0.320804 0.348912 0.613261
O O15 0.000000 0.000000 0.500000
#
# Coordination Sequence:
#
# PCOD8145043 Si02
#       7
#     8   8   8   8   8   8   8
#     4  12  23  41  69  97 126 168 222 269 318 387
#     4  11  20  38  64  99 124 158 218 277 314 372
#     4  12  26  43  64  96 136 172 210 269 335 386
#     4  11  23  40  65  91 129 176 214 265 312 401
#     4  12  26  43  64  96 136 172 210 269 335 386
#     4  12  23  41  69  97 126 168 222 269 318 387
#     4  10  22  36  65  99 125 165 221 272 318 366
#
# _framework density 20.171272999999999
#
# number of rings (size 3 to 8) (size 9 to 14) (size 15 to 20)
#    0.000    0.571    5.714    3.000    4.000    0.000 
#    0.000    0.000    0.000    0.000    0.000    0.000 
#    0.000    0.000    0.000    0.000    0.000    0.000 
#
# Total GULP energy -347269.714314 kJ/mol
# GULP energy per Si atom -12402.489797 kJ/mol
# Density = 2.012536 g / cm^3
# Si number density = 20.171273 Si / 1000 Ang^3
#
#
#
# Elastic Constant Matrix: (Units=GPa)
#
#
# Indices 1 2 3 4 5 6 
#
# 1 97.9919 22.7782 12.3283 0.0000 15.8436 0.0005
# 2 22.7782 91.6549 23.4103 0.0001 11.3371 0.0010
# 3 12.3283 23.4103 95.5877 0.0000 15.4975 0.0000
# 4 0.0000 0.0001 0.0000 30.6879 0.0000 1.3158
# 5 15.8436 11.3371 15.4975 0.0000 20.6220 0.0001
# 6 0.0005 0.0010 0.0000 1.3158 0.0001 39.5446
#
#
#
# Elastic Compliance Matrix: (Units=1/GPa)
#
#
# Indices 1 2 3 4 5 6 
#
# 1 0.011983 -0.002026 0.000299 0.000000 -0.008318 0.000000
# 2 -0.002026 0.012422 -0.002193 0.000000 -0.003625 0.000000
# 3 0.000299 -0.002193 0.012301 0.000000 -0.008268 0.000000
# 4 0.000000 0.000000 0.000000 0.032633 0.000000 -0.001086
# 5 -0.008318 -0.003625 -0.008268 0.000000 0.063088 0.000000
# 6 0.000000 0.000000 0.000000 -0.001086 0.000000 0.025324
#
#
# Mechanical properties :
#
#
# Convention : Reuss Voigt Hill
#
# Bulk Modulus (GPa) = 34.64253 44.69644 39.66948
# Shear Modulus (GPa) = 28.53666 33.28540 30.91103
#
# Velocity S-wave (km/s) = 3.76535 4.06660 3.91887
# Velocity P-wave (km/s) = 6.00960 6.65253 6.33922
#
# Compressibility (1/GPa) = 0.02886626
#
# Stress axis : x y z
#
# Youngs Moduli (GPa) = 83.45200 80.49914 81.29624
#
# Poissons Ratio (x) = 0.16306 -0.02432
# Poissons Ratio (y) = 0.16904 0.17832
# Poissons Ratio (z) = -0.02496 0.17657
#
# Static dielectric constant tensor:
#      x y z
#    x 3.902340 0.000000 0.076020 
#    y 0.000000 3.906250 0.000000 
#    z 0.076020 0.000000 3.413030 
# 
# 
# High freq. dielectric constant tensor:
#      x y z
#    x 1.803810 0.000000 0.005960 
#    y 0.000000 1.805000 0.000000 
#    z 0.005960 0.000000 1.762030 
# 
# From -- ./inp_files/276535.got.cif
#   From: 2010.06.25/outbox.cif.g09.slc.cpg/sg15_139_cif.got.tgz:276535.got - 2010.06.28 07:06:18.
