data_PCOD8145848
_publ_section_title
;
Structure prediction by ZEFSAII (Michael W. Deem and Ramdas Pophale) SiO2 
 PCOD8145848
Probable space group: C 2/C
;
_chemical_formula_sum "Si O2"
_cell_formula_units_Z 52
_cell_length_a 22.745626
_cell_length_b 9.385647
_cell_length_c 12.212475
_cell_angle_alpha 90.000000
_cell_angle_beta 48.463676
_cell_angle_gamma 90.000000
_cell_volume 1951.543302
_symmetry_space_group_name_H-M "C 2/C"
_symmetry_group_IT_number 15
_symmetry_cell_setting 'monoclinic'
loop_
_space_group_symop_operation_xyz
x,y,z
-x,y,1/2-z
-x,-y,-z
x,-y,1/2+z
1/2+x,1/2+y,z
1/2-x,1/2+y,1/2-z
1/2-x,1/2-y,-z
1/2+x,1/2-y,1/2+z
loop_
_atom_site_type_symbol
_atom_site_label
_atom_site_fract_x
_atom_site_fract_y
_atom_site_fract_z
Si Si1 0.557550 0.458829 0.568247
Si Si2 0.244373 0.179889 0.161005
Si Si3 0.000000 0.426296 0.750000
Si Si4 0.139248 0.679364 0.204145
Si Si5 0.887759 0.995748 0.239200
Si Si6 0.412521 0.861497 0.496142
Si Si7 0.272809 0.492714 0.598259
O O1 0.579807 0.528161 0.423825
O O2 0.467906 0.502189 0.716264
O O3 0.548106 0.291172 0.565994
O O4 0.633700 0.499250 0.555605
O O5 0.333158 0.133743 0.019977
O O6 0.238945 0.352047 0.171269
O O7 0.181329 0.115583 0.150853
O O8 0.224931 0.113877 0.302160
O O9 0.073946 0.328838 0.690173
O O10 0.024393 0.522637 0.617721
O O11 0.156686 0.844491 0.205355
O O12 0.107033 0.605530 0.354012
O O13 0.218668 0.590256 0.075645
#
# Coordination Sequence:
#
# PCOD8145848 Si02
#       7
#     8   8   4   8   8   8   8
#     4   8  16  33  60  91 117 159 203 247 291 365
#     4   9  17  33  60  92 122 153 206 246 298 372
#     4  12  24  40  58  88 126 156 206 262 298 356
#     4  10  22  40  61  89 122 161 203 248 306 363
#     4   9  17  34  60  89 125 155 206 244 301 357
#     4   9  20  39  61  90 117 158 204 247 306 361
#     4   9  17  33  59  91 122 158 200 248 303 356
#
# _framework density 26.645576999999999
#
# number of rings (size 3 to 8) (size 9 to 14) (size 15 to 20)
#    0.000    2.769    0.000    3.231    2.154    0.000 
#   16.615    4.615    0.000    0.000    0.000    0.000 
#    0.000    0.000    0.000    0.000    0.000    0.000 
#
# Total GULP energy -322296.286437 kJ/mol
# GULP energy per Si atom -12396.011017 kJ/mol
# Density = 2.658493 g / cm^3
# Si number density = 26.645577 Si / 1000 Ang^3
#
#
#
# Elastic Constant Matrix: (Units=GPa)
#
#
# Indices 1 2 3 4 5 6 
#
# 1 167.9757 46.8036 38.0287 0.0000 -39.9263 0.0000
# 2 46.8036 135.4199 48.1690 0.0000 -32.8095 0.0000
# 3 38.0287 48.1690 126.4631 0.0000 -31.8844 0.0000
# 4 0.0000 0.0000 0.0000 24.7120 0.0000 -13.2487
# 5 -39.9263 -32.8095 -31.8844 0.0000 44.2148 0.0000
# 6 0.0000 0.0000 0.0000 -13.2487 0.0000 38.0624
#
#
#
# Elastic Compliance Matrix: (Units=1/GPa)
#
#
# Indices 1 2 3 4 5 6 
#
# 1 0.007754 -0.001104 -0.000431 0.000000 0.005872 0.000000
# 2 -0.001104 0.009657 -0.002189 0.000000 0.004590 0.000000
# 3 -0.000431 -0.002189 0.010222 0.000000 0.005358 0.000000
# 4 0.000000 0.000000 0.000000 0.049750 0.000000 0.017317
# 5 0.005872 0.004590 0.005358 0.000000 0.035189 0.000000
# 6 0.000000 0.000000 0.000000 0.017317 0.000000 0.032300
#
#
# Mechanical properties :
#
#
# Convention : Reuss Voigt Hill
#
# Bulk Modulus (GPa) = 49.54126 77.31793 63.42959
# Shear Modulus (GPa) = 31.43702 41.18833 36.31268
#
# Velocity S-wave (km/s) = 3.43858 3.93591 3.69562
# Velocity P-wave (km/s) = 5.86499 7.05233 6.48589
#
# Compressibility (1/GPa) = 0.02018520
#
# Stress axis : x y z
#
# Youngs Moduli (GPa) = 128.96336 103.55443 97.83282
#
# Poissons Ratio (x) = 0.11433 0.04214
# Poissons Ratio (y) = 0.14238 0.21414
# Poissons Ratio (z) = 0.05554 0.22667
#
# Static dielectric constant tensor:
#      x y z
#    x 5.572820 0.000000 -0.445720 
#    y 0.000000 4.568810 0.000000 
#    z -0.445720 0.000000 5.326160 
# 
# 
# High freq. dielectric constant tensor:
#      x y z
#    x 2.098390 0.000000 -0.006400 
#    y 0.000000 2.053290 0.000000 
#    z -0.006400 0.000000 2.097030 
# 
# From -- ./inp_files/221826.got.cif
#   From: 2010.06.25/outbox.cif.g09.slc.cpg/sg15_111_cif.got.tgz:221826.got - 2010.06.28 07:06:18.
