data_PCOD8145273
_publ_section_title
;
Structure prediction by ZEFSAII (Michael W. Deem and Ramdas Pophale) SiO2 
 PCOD8145273
Probable space group: C 2/C
;
_chemical_formula_sum "Si O2"
_cell_formula_units_Z 56
_cell_length_a 29.207453
_cell_length_b 11.779551
_cell_length_c 8.494877
_cell_angle_alpha 90.000000
_cell_angle_beta 118.393238
_cell_angle_gamma 90.000000
_cell_volume 2571.084974
_symmetry_space_group_name_H-M "C 2/C"
_symmetry_group_IT_number 15
_symmetry_cell_setting 'monoclinic'
loop_
_space_group_symop_operation_xyz
x,y,z
-x,y,1/2-z
-x,-y,-z
x,-y,1/2+z
1/2+x,1/2+y,z
1/2-x,1/2+y,1/2-z
1/2-x,1/2-y,-z
1/2+x,1/2-y,1/2+z
loop_
_atom_site_type_symbol
_atom_site_label
_atom_site_fract_x
_atom_site_fract_y
_atom_site_fract_z
Si Si1 0.844253 0.378484 0.535571
Si Si2 0.793597 0.047122 0.218385
Si Si3 0.949029 0.547608 0.060613
Si Si4 0.012869 0.681161 0.945547
Si Si5 0.353189 0.622490 0.598814
Si Si6 0.968408 0.094614 0.852730
Si Si7 0.218893 0.552045 0.847470
O O1 0.900689 0.427176 0.590550
O O2 0.850253 0.256622 0.628678
O O3 0.816729 0.465955 0.608914
O O4 0.815147 0.364076 0.317528
O O5 0.839525 0.109033 0.389301
O O6 0.814718 0.935904 0.161347
O O7 0.751869 0.021609 0.282223
O O8 0.760211 0.117636 0.031277
O O9 0.000000 0.544741 0.250000
O O10 0.944879 0.421664 0.977328
O O11 0.958709 0.642918 0.942261
O O12 0.000000 0.719839 0.750000
O O13 0.038555 0.790101 0.063763
O O14 0.409280 0.561371 0.712899
O O15 0.000000 0.124352 0.750000
O O16 0.000000 0.000000 0.000000
#
# Coordination Sequence:
#
# PCOD8145273 Si02
#       7
#     8   8   8   8   8   8   8
#     4  11  23  39  66 101 130 176 220 272 350 394
#     4   9  21  44  62  93 126 169 229 274 341 392
#     4  10  22  39  62  93 139 174 213 265 322 411
#     4  10  22  38  61  93 133 179 210 264 325 381
#     4  11  23  41  71  92 128 182 219 273 336 407
#     4  12  25  43  66  98 136 174 224 275 323 393
#     4   9  22  40  64  94 132 163 219 298 323 403
#
# _framework density 21.78069
#
# number of rings (size 3 to 8) (size 9 to 14) (size 15 to 20)
#    0.000    1.714    0.000    3.429    8.000    6.286 
#    0.000    5.714    0.000    0.000    0.000    0.000 
#    0.000    0.000    0.000    0.000    0.000    0.000 
#
# Total GULP energy -346883.079023 kJ/mol
# GULP energy per Si atom -12388.681394 kJ/mol
# Density = 2.173112 g / cm^3
# Si number density = 21.780690 Si / 1000 Ang^3
#
#
#
# Elastic Constant Matrix: (Units=GPa)
#
#
# Indices 1 2 3 4 5 6 
#
# 1 133.5760 31.1709 41.3188 0.0000 -2.6131 0.0000
# 2 31.1709 93.2605 29.2735 0.0000 1.3405 0.0000
# 3 41.3188 29.2735 116.0472 0.0000 5.1179 0.0000
# 4 0.0000 0.0000 0.0000 25.1215 0.0000 -0.5993
# 5 -2.6131 1.3405 5.1179 0.0000 41.3336 0.0000
# 6 0.0000 0.0000 0.0000 -0.5993 0.0000 7.7236
#
#
#
# Elastic Compliance Matrix: (Units=1/GPa)
#
#
# Indices 1 2 3 4 5 6 
#
# 1 0.008821 -0.002132 -0.002645 0.000000 0.000954 0.000000
# 2 -0.002132 0.012160 -0.002298 0.000000 -0.000245 0.000000
# 3 -0.002645 -0.002298 0.010198 0.000000 -0.001355 0.000000
# 4 0.000000 0.000000 0.000000 0.039880 0.000000 0.003094
# 5 0.000954 -0.000245 -0.001355 0.000000 0.024429 0.000000
# 6 0.000000 0.000000 0.000000 0.003094 0.000000 0.129714
#
#
# Mechanical properties :
#
#
# Convention : Reuss Voigt Hill
#
# Bulk Modulus (GPa) = 58.71887 60.71222 59.71554
# Shear Modulus (GPa) = 20.40583 30.91044 25.65814
#
# Velocity S-wave (km/s) = 3.06417 3.77127 3.43596
# Velocity P-wave (km/s) = 6.28780 6.84822 6.57399
#
# Compressibility (1/GPa) = 0.01703030
#
# Stress axis : x y z
#
# Youngs Moduli (GPa) = 113.37048 82.23799 98.05566
#
# Poissons Ratio (x) = 0.17530 0.25935
# Poissons Ratio (y) = 0.24167 0.22529
# Poissons Ratio (z) = 0.29986 0.18895
#
# Static dielectric constant tensor:
#      x y z
#    x 3.960900 0.000000 -0.095270 
#    y 0.000000 3.693720 0.000000 
#    z -0.095270 0.000000 4.746520 
# 
# 
# High freq. dielectric constant tensor:
#      x y z
#    x 1.860660 0.000000 -0.005810 
#    y 0.000000 1.826550 0.000000 
#    z -0.005810 0.000000 1.883830 
# 
# From -- ./inp_files/69441.got.cif
#   From: 2010.06.25/outbox.cif.g09.slc.cpg/sg15_35_cif.got.tgz:69441.got - 2010.06.28 07:06:18.
