data_PCOD8145247
_publ_section_title
;
Structure prediction by ZEFSAII (Michael W. Deem and Ramdas Pophale) SiO2 
 PCOD8145247
Probable space group: C 2/C
;
_chemical_formula_sum "Si O2"
_cell_formula_units_Z 48
_cell_length_a 12.111974
_cell_length_b 16.034238
_cell_length_c 11.472307
_cell_angle_alpha 90.000000
_cell_angle_beta 72.348052
_cell_angle_gamma 90.000000
_cell_volume 2123.091411
_symmetry_space_group_name_H-M "C 2/C"
_symmetry_group_IT_number 15
_symmetry_cell_setting 'monoclinic'
loop_
_space_group_symop_operation_xyz
x,y,z
-x,y,1/2-z
-x,-y,-z
x,-y,1/2+z
1/2+x,1/2+y,z
1/2-x,1/2+y,1/2-z
1/2-x,1/2-y,-z
1/2+x,1/2-y,1/2+z
loop_
_atom_site_type_symbol
_atom_site_label
_atom_site_fract_x
_atom_site_fract_y
_atom_site_fract_z
Si Si1 0.212978 0.373644 0.059991
Si Si2 0.032851 0.375714 0.449454
Si Si3 0.884778 0.322340 0.829050
Si Si4 0.817530 0.251734 0.232692
Si Si5 0.627553 0.578940 0.188849
Si Si6 0.662744 0.995228 0.770275
O O1 0.235098 0.289908 0.129605
O O2 0.173661 0.449762 0.152547
O O3 0.106980 0.364288 0.999603
O O4 0.332513 0.396413 0.955285
O O5 0.103708 0.351663 0.542088
O O6 0.078732 0.311565 0.337519
O O7 0.068850 0.468217 0.392355
O O8 0.779351 0.258637 0.838155
O O9 0.878364 0.402955 0.747112
O O10 0.000000 0.273891 0.750000
O O11 0.870872 0.161330 0.233402
O O12 0.500000 0.541029 0.250000
O O13 0.712315 0.507048 0.208155
#
# Coordination Sequence:
#
# PCOD8145247 Si02
#       6
#     8   8   8   8   8   8
#     4  11  22  39  63  86 114 156 200 242 286 343
#     4  11  21  39  63  86 116 153 199 244 287 342
#     4  11  22  36  57  89 123 154 190 240 295 345
#     4  10  22  39  59  87 117 153 199 242 291 343
#     4  11  23  38  58  85 118 155 195 239 292 350
#     4  10  22  38  60  89 117 152 197 244 289 339
#
# _framework density 22.608543000000001
#
# number of rings (size 3 to 8) (size 9 to 14) (size 15 to 20)
#    0.000    1.333    0.000    8.000    0.000    4.000 
#    0.000    3.333    0.000    0.000    0.000    0.000 
#    0.000    0.000    0.000    0.000    0.000    0.000 
#
# Total GULP energy -297563.949982 kJ/mol
# GULP energy per Si atom -12398.497916 kJ/mol
# Density = 2.255709 g / cm^3
# Si number density = 22.608543 Si / 1000 Ang^3
#
#
#
# Elastic Constant Matrix: (Units=GPa)
#
#
# Indices 1 2 3 4 5 6 
#
# 1 122.2287 21.9924 50.1799 0.0000 -6.6526 0.0000
# 2 21.9924 46.5536 -4.4704 0.0000 4.5523 0.0000
# 3 50.1799 -4.4704 101.7959 0.0000 -0.0612 0.0000
# 4 0.0000 0.0000 0.0000 17.2967 0.0000 10.3984
# 5 -6.6526 4.5523 -0.0612 0.0000 45.7760 0.0000
# 6 0.0000 0.0000 0.0000 10.3984 0.0000 24.2170
#
#
#
# Elastic Compliance Matrix: (Units=1/GPa)
#
#
# Indices 1 2 3 4 5 6 
#
# 1 0.012037 -0.006517 -0.006218 0.000000 0.002389 0.000000
# 2 -0.006517 0.025313 0.004322 0.000000 -0.003459 0.000000
# 3 -0.006218 0.004322 0.013078 0.000000 -0.001316 0.000000
# 4 0.000000 0.000000 0.000000 0.077931 0.000000 -0.033462
# 5 0.002389 -0.003459 -0.001316 0.000000 0.022535 0.000000
# 6 0.000000 0.000000 0.000000 -0.033462 0.000000 0.055661
#
#
# Mechanical properties :
#
#
# Convention : Reuss Voigt Hill
#
# Bulk Modulus (GPa) = 29.76119 45.10911 37.43515
# Shear Modulus (GPa) = 21.31452 30.98303 26.14877
#
# Velocity S-wave (km/s) = 3.07378 3.70592 3.40455
# Velocity P-wave (km/s) = 5.07836 6.18930 5.66115
#
# Compressibility (1/GPa) = 0.03360080
#
# Stress axis : x y z
#
# Youngs Moduli (GPa) = 83.07779 39.50599 76.46491
#
# Poissons Ratio (x) = 0.25747 0.47548
# Poissons Ratio (y) = 0.54143 -0.33049
# Poissons Ratio (z) = 0.51660 -0.17075
#
# Static dielectric constant tensor:
#      x y z
#    x 4.227890 0.000000 0.108870 
#    y 0.000000 3.941840 0.000000 
#    z 0.108870 0.000000 4.049530 
# 
# 
# High freq. dielectric constant tensor:
#      x y z
#    x 1.889250 0.000000 0.003340 
#    y 0.000000 1.879170 0.000000 
#    z 0.003340 0.000000 1.901470 
# 
# From -- ./inp_files/87802.got.cif
#   From: 2010.06.25/outbox.cif.g09.slc.cpg/sg15_44_cif.got.tgz:87802.got - 2010.06.28 07:06:18.
