data_PCOD8145924
_publ_section_title
;
Structure prediction by ZEFSAII (Michael W. Deem and Ramdas Pophale) SiO2 
 PCOD8145924
Probable space group: C 2/C
;
_chemical_formula_sum "Si O2"
_cell_formula_units_Z 56
_cell_length_a 8.972185
_cell_length_b 16.806966
_cell_length_c 27.509461
_cell_angle_alpha 90.000000
_cell_angle_beta 39.673666
_cell_angle_gamma 90.000000
_cell_volume 2648.330048
_symmetry_space_group_name_H-M "C 2/C"
_symmetry_group_IT_number 15
_symmetry_cell_setting 'monoclinic'
loop_
_space_group_symop_operation_xyz
x,y,z
-x,y,1/2-z
-x,-y,-z
x,-y,1/2+z
1/2+x,1/2+y,z
1/2-x,1/2+y,1/2-z
1/2-x,1/2-y,-z
1/2+x,1/2-y,1/2+z
loop_
_atom_site_type_symbol
_atom_site_label
_atom_site_fract_x
_atom_site_fract_y
_atom_site_fract_z
Si Si1 0.252836 0.190614 0.044510
Si Si2 0.500000 0.019573 0.750000
Si Si3 0.161897 0.423852 0.460877
Si Si4 0.762767 0.643227 0.460045
Si Si5 0.377817 0.741082 0.604666
Si Si6 0.137544 0.870340 0.302201
Si Si7 0.000000 0.243173 0.750000
Si Si8 0.302450 0.616219 0.131043
O O1 0.180830 0.232357 0.114663
O O2 0.068809 0.119810 0.082066
O O3 0.250000 0.250000 0.000000
O O4 0.510849 0.153527 0.984580
O O5 0.639422 0.070395 0.756379
O O6 0.305677 0.964026 0.822022
O O7 0.247572 0.421957 0.494968
O O8 0.392767 0.419457 0.368628
O O9 0.000000 0.500000 0.500000
O O10 0.574618 0.710742 0.517997
O O11 0.704411 0.602224 0.424423
O O12 0.020517 0.682814 0.391874
O O13 0.299071 0.677568 0.664147
O O14 0.127241 0.813432 0.257751
O O15 0.183261 0.300375 0.676779
#
# Coordination Sequence:
#
# PCOD8145924 Si02
#       8
#     8   4   8   8   8   8   4   8
#     4  11  20  35  67  99 121 149 210 272 320 368
#     4  11  28  42  58  83 144 172 200 257 312 390
#     4  10  22  40  63  91 127 162 201 266 330 380
#     4   9  17  36  63  89 124 152 200 270 321 352
#     4   9  18  35  62  94 116 150 203 276 307 355
#     4  11  23  44  60  91 123 171 219 252 309 379
#     4  11  24  40  70  83 126 178 224 255 288 396
#     4  11  22  42  60  97 126 166 209 261 324 378
#
# _framework density 21.145401
#
# number of rings (size 3 to 8) (size 9 to 14) (size 15 to 20)
#    0.000    1.714    2.857    2.571    2.000    1.143 
#    2.571    2.143    0.000    0.000    0.000    0.000 
#    0.000    0.000    0.000    0.000    0.000    0.000 
#
# Total GULP energy -346965.726535 kJ/mol
# GULP energy per Si atom -12391.633091 kJ/mol
# Density = 2.109727 g / cm^3
# Si number density = 21.145401 Si / 1000 Ang^3
#
#
#
# Elastic Constant Matrix: (Units=GPa)
#
#
# Indices 1 2 3 4 5 6 
#
# 1 142.7560 40.2709 29.6990 -0.0127 10.0255 0.0111
# 2 40.2709 81.8698 14.2652 -0.0128 0.0677 0.0037
# 3 29.6990 14.2652 51.5166 -0.0201 -3.4410 0.0034
# 4 -0.0127 -0.0128 -0.0201 23.2870 0.0070 -10.5414
# 5 10.0255 0.0677 -3.4410 0.0070 33.6492 -0.0062
# 6 0.0111 0.0037 0.0034 -10.5414 -0.0062 34.1301
#
#
#
# Elastic Compliance Matrix: (Units=1/GPa)
#
#
# Indices 1 2 3 4 5 6 
#
# 1 0.009222 -0.003751 -0.004492 -0.000001 -0.003199 -0.000003
# 2 -0.003751 0.014365 -0.001754 0.000005 0.000909 0.000001
# 3 -0.004492 -0.001754 0.022731 0.000018 0.003666 0.000005
# 4 -0.000001 0.000005 0.000018 0.049922 -0.000005 0.015419
# 5 -0.003199 0.000909 0.003666 -0.000005 0.031045 0.000005
# 6 -0.000003 0.000001 0.000005 0.015419 0.000005 0.034062
#
#
# Mechanical properties :
#
#
# Convention : Reuss Voigt Hill
#
# Bulk Modulus (GPa) = 37.98818 49.40138 43.69478
# Shear Modulus (GPa) = 26.29979 31.00708 28.65343
#
# Velocity S-wave (km/s) = 3.53052 3.83348 3.68512
# Velocity P-wave (km/s) = 5.88419 6.55801 6.23022
#
# Compressibility (1/GPa) = 0.02632398
#
# Stress axis : x y z
#
# Youngs Moduli (GPa) = 108.43354 69.61573 43.99217
#
# Poissons Ratio (x) = 0.26113 0.19759
# Poissons Ratio (y) = 0.40674 0.07718
# Poissons Ratio (z) = 0.48704 0.12214
#
# Static dielectric constant tensor:
#      x y z
#    x 4.118020 0.000000 -0.122810 
#    y 0.000000 3.735980 0.000010 
#    z -0.122810 0.000010 3.635360 
# 
# 
# High freq. dielectric constant tensor:
#      x y z
#    x 1.845290 0.000000 -0.005730 
#    y 0.000000 1.823210 0.000000 
#    z -0.005730 0.000000 1.805200 
# 
# From -- ./inp_files/308620.got.cif
#   From: 2010.06.25/outbox.cif.g09.slc.cpg/sg15_155_cif.got.tgz:308620.got - 2010.06.28 07:06:18.
