data_PCOD8145794
_publ_section_title
;
Structure prediction by ZEFSAII (Michael W. Deem and Ramdas Pophale) SiO2 
 PCOD8145794
Probable space group: C 2/C
;
_chemical_formula_sum "Si O2"
_cell_formula_units_Z 56
_cell_length_a 17.079152
_cell_length_b 20.765322
_cell_length_c 9.240019
_cell_angle_alpha 90.000000
_cell_angle_beta 54.284772
_cell_angle_gamma 90.000000
_cell_volume 2660.697940
_symmetry_space_group_name_H-M "C 2/C"
_symmetry_group_IT_number 15
_symmetry_cell_setting 'monoclinic'
loop_
_space_group_symop_operation_xyz
x,y,z
-x,y,1/2-z
-x,-y,-z
x,-y,1/2+z
1/2+x,1/2+y,z
1/2-x,1/2+y,1/2-z
1/2-x,1/2-y,-z
1/2+x,1/2-y,1/2+z
loop_
_atom_site_type_symbol
_atom_site_label
_atom_site_fract_x
_atom_site_fract_y
_atom_site_fract_z
Si Si1 0.159167 0.344565 0.306958
Si Si2 0.672052 0.272009 0.213061
Si Si3 0.420617 0.355495 0.432498
Si Si4 0.213753 0.630323 0.184500
Si Si5 0.395322 0.050801 0.421520
Si Si6 0.005248 0.765390 0.915660
Si Si7 0.610361 0.099173 0.580174
O O1 0.252738 0.321970 0.294608
O O2 0.112496 0.409819 0.422011
O O3 0.080969 0.288345 0.384173
O O4 0.183268 0.369611 0.118934
O O5 0.608339 0.299488 0.151026
O O6 0.720028 0.203531 0.108515
O O7 0.601777 0.247963 0.417158
O O8 0.500000 0.396180 0.250000
O O9 0.324457 0.392678 0.589637
O O10 0.465199 0.330921 0.534790
O O11 0.180680 0.578225 0.107220
O O12 0.142586 0.632602 0.397323
O O13 0.500000 0.063622 0.250000
O O14 0.374484 0.975962 0.465701
O O15 0.000000 0.775654 0.750000
O O16 0.500000 0.116073 0.750000
#
# Coordination Sequence:
#
# PCOD8145794 Si02
#       7
#     8   8   8   8   8   8   8
#     4  12  22  39  60  92 131 162 203 256 306 378
#     4  11  22  37  60  94 123 162 208 251 316 374
#     4  10  22  40  58  88 122 160 208 251 303 374
#     4  12  21  39  64  88 124 167 205 254 314 367
#     4  11  23  40  63  89 124 170 214 251 298 373
#     4  11  23  36  58  90 129 163 194 252 319 375
#     4  11  25  40  59  93 130 169 208 253 310 370
#
# _framework density 21.047108999999999
#
# number of rings (size 3 to 8) (size 9 to 14) (size 15 to 20)
#    0.000    0.857    2.857    6.000    2.000    4.571 
#    0.000    0.000    0.000    0.857    0.000    0.000 
#    0.000    0.000    0.000    0.000    0.000    0.000 
#
# Total GULP energy -346931.624581 kJ/mol
# GULP energy per Si atom -12390.415164 kJ/mol
# Density = 2.099920 g / cm^3
# Si number density = 21.047109 Si / 1000 Ang^3
#
#
#
# Elastic Constant Matrix: (Units=GPa)
#
#
# Indices 1 2 3 4 5 6 
#
# 1 91.2804 23.2619 17.7254 0.0000 3.4620 0.0000
# 2 23.2619 37.2276 8.8364 0.0000 -2.4587 0.0000
# 3 17.7254 8.8364 79.5858 0.0000 1.8379 0.0000
# 4 0.0000 0.0000 0.0000 26.0905 0.0000 13.6836
# 5 3.4620 -2.4587 1.8379 0.0000 43.9852 0.0000
# 6 0.0000 0.0000 0.0000 13.6836 0.0000 44.6813
#
#
#
# Elastic Compliance Matrix: (Units=1/GPa)
#
#
# Indices 1 2 3 4 5 6 
#
# 1 0.013452 -0.008007 -0.002074 0.000000 -0.001420 0.000000
# 2 -0.008007 0.032478 -0.001881 0.000000 0.002524 0.000000
# 3 -0.002074 -0.001881 0.013247 0.000000 -0.000495 0.000000
# 4 0.000000 0.000000 0.000000 0.045662 0.000000 -0.013984
# 5 -0.001420 0.002524 -0.000495 0.000000 0.023008 0.000000
# 6 0.000000 0.000000 0.000000 -0.013984 0.000000 0.026663
#
#
# Mechanical properties :
#
#
# Convention : Reuss Voigt Hill
#
# Bulk Modulus (GPa) = 28.36634 34.19346 31.27990
# Shear Modulus (GPa) = 26.28978 33.50276 29.89627
#
# Velocity S-wave (km/s) = 3.53808 3.99406 3.77297
# Velocity P-wave (km/s) = 5.49523 6.12793 5.82018
#
# Compressibility (1/GPa) = 0.03525304
#
# Stress axis : x y z
#
# Youngs Moduli (GPa) = 74.33582 30.78979 75.48691
#
# Poissons Ratio (x) = 0.24654 0.15658
# Poissons Ratio (y) = 0.59522 0.14199
# Poissons Ratio (z) = 0.15420 0.05791
#
# Static dielectric constant tensor:
#      x y z
#    x 3.936740 0.000000 -0.056960 
#    y 0.000000 3.596880 0.000000 
#    z -0.056960 0.000000 4.307190 
# 
# 
# High freq. dielectric constant tensor:
#      x y z
#    x 1.831060 0.000000 0.002040 
#    y 0.000000 1.791070 0.000000 
#    z 0.002040 0.000000 1.851290 
# 
# From -- ./inp_files/50139.got.cif
#   From: 2010.06.25/outbox.cif.g09.slc.cpg/sg15_26_cif.got.tgz:50139.got - 2010.06.28 07:06:18.
