data_PCOD8145162
_publ_section_title
;
Structure prediction by ZEFSAII (Michael W. Deem and Ramdas Pophale) SiO2 
 PCOD8145162
Probable space group: C 2/C
;
_chemical_formula_sum "Si O2"
_cell_formula_units_Z 56
_cell_length_a 14.539851
_cell_length_b 13.839478
_cell_length_c 20.764965
_cell_angle_alpha 90.000000
_cell_angle_beta 140.196919
_cell_angle_gamma 90.000000
_cell_volume 2674.812262
_symmetry_space_group_name_H-M "C 2/C"
_symmetry_group_IT_number 15
_symmetry_cell_setting 'monoclinic'
loop_
_space_group_symop_operation_xyz
x,y,z
-x,y,1/2-z
-x,-y,-z
x,-y,1/2+z
1/2+x,1/2+y,z
1/2-x,1/2+y,1/2-z
1/2-x,1/2-y,-z
1/2+x,1/2-y,1/2+z
loop_
_atom_site_type_symbol
_atom_site_label
_atom_site_fract_x
_atom_site_fract_y
_atom_site_fract_z
Si Si1 0.884594 0.987760 0.033860
Si Si2 0.651628 0.274636 0.847370
Si Si3 0.176417 0.234343 0.776029
Si Si4 0.850312 0.369795 0.042393
Si Si5 0.361983 0.695291 0.602851
Si Si6 0.165642 0.930890 0.633713
Si Si7 0.168430 0.617549 0.743415
O O1 0.875599 0.925115 0.963621
O O2 0.745604 0.053565 0.970400
O O3 0.895021 0.913748 0.098588
O O4 0.026695 0.054358 0.104668
O O5 0.500000 0.329130 0.750000
O O6 0.634300 0.226957 0.907847
O O7 0.677873 0.195053 0.806633
O O8 0.783798 0.349024 0.934061
O O9 0.204786 0.191966 0.862008
O O10 0.266283 0.330011 0.808277
O O11 0.220924 0.151245 0.750865
O O12 0.007982 0.257585 0.678118
O O13 0.015077 0.404654 0.127290
O O14 0.250000 0.750000 0.500000
O O15 0.280430 0.015802 0.701843
#
# Coordination Sequence:
#
# PCOD8145162 Si02
#       7
#     8   8   8   8   8   8   8
#     4  11  23  43  68  97 129 177 228 277 331 406
#     4   9  20  38  60  96 132 166 210 270 332 399
#     4  11  26  44  68  95 135 181 220 278 346 390
#     4  10  22  37  68  94 130 172 216 271 345 396
#     4  11  24  46  68  94 134 178 227 280 331 398
#     4  11  24  41  70  96 130 176 227 276 331 398
#     4  11  23  43  65 101 134 167 226 281 328 413
#
# _framework density 20.936049000000001
#
# number of rings (size 3 to 8) (size 9 to 14) (size 15 to 20)
#    0.000    1.429    4.286    0.000    8.000    1.143 
#    5.143    0.714    0.000    0.000    0.000    0.000 
#    0.000    0.000    0.000    0.000    0.000    0.000 
#
# Total GULP energy -347070.866018 kJ/mol
# GULP energy per Si atom -12395.388072 kJ/mol
# Density = 2.088840 g / cm^3
# Si number density = 20.936049 Si / 1000 Ang^3
#
#
#
# Elastic Constant Matrix: (Units=GPa)
#
#
# Indices 1 2 3 4 5 6 
#
# 1 88.2299 27.5742 42.7355 0.0000 -0.7082 0.0000
# 2 27.5742 67.7066 21.0373 0.0000 -4.8363 0.0000
# 3 42.7355 21.0373 127.3510 0.0001 -0.0790 0.0000
# 4 0.0000 0.0000 0.0001 30.1281 0.0000 5.3648
# 5 -0.7082 -4.8363 -0.0790 0.0000 29.4463 0.0000
# 6 0.0000 0.0000 0.0000 5.3648 0.0000 30.4990
#
#
#
# Elastic Compliance Matrix: (Units=1/GPa)
#
#
# Indices 1 2 3 4 5 6 
#
# 1 0.014856 -0.004778 -0.004196 0.000000 -0.000439 0.000000
# 2 -0.004778 0.017299 -0.001253 0.000000 0.002723 0.000000
# 3 -0.004196 -0.001253 0.009467 0.000000 -0.000281 0.000000
# 4 0.000000 0.000000 0.000000 0.034265 0.000000 -0.006027
# 5 -0.000439 0.002723 -0.000281 0.000000 0.034396 0.000000
# 6 0.000000 0.000000 0.000000 -0.006027 0.000000 0.033848
#
#
# Mechanical properties :
#
#
# Convention : Reuss Voigt Hill
#
# Bulk Modulus (GPa) = 47.23907 51.77574 49.50740
# Shear Modulus (GPa) = 29.13042 30.81070 29.97056
#
# Velocity S-wave (km/s) = 3.73419 3.84038 3.78766
# Velocity P-wave (km/s) = 6.41909 6.66699 6.54422
#
# Compressibility (1/GPa) = 0.02116892
#
# Stress axis : x y z
#
# Youngs Moduli (GPa) = 67.31158 57.80627 105.62720
#
# Poissons Ratio (x) = 0.27619 0.44325
# Poissons Ratio (y) = 0.32160 0.13232
# Poissons Ratio (z) = 0.28246 0.07241
#
# Static dielectric constant tensor:
#      x y z
#    x 3.808580 0.000000 0.006000 
#    y 0.000000 3.480380 0.000000 
#    z 0.006000 0.000000 4.388670 
# 
# 
# High freq. dielectric constant tensor:
#      x y z
#    x 1.815670 0.000000 0.006760 
#    y 0.000000 1.799660 0.000000 
#    z 0.006760 0.000000 1.838940 
# 
# From -- ./inp_files/244548.got.cif
#   From: 2010.06.25/outbox.cif.g09.slc.cpg/sg15_123_cif.got.tgz:244548.got - 2010.06.28 07:06:18.
