data_PCOD8145932
_publ_section_title
;
Structure prediction by ZEFSAII (Michael W. Deem and Ramdas Pophale) SiO2 
 PCOD8145932
Probable space group: C 2/C
;
_chemical_formula_sum "Si O2"
_cell_formula_units_Z 40
_cell_length_a 8.536022
_cell_length_b 26.238010
_cell_length_c 8.553644
_cell_angle_alpha 90.000000
_cell_angle_beta 75.857787
_cell_angle_gamma 90.000000
_cell_volume 1857.682639
_symmetry_space_group_name_H-M "C 2/C"
_symmetry_group_IT_number 15
_symmetry_cell_setting 'monoclinic'
loop_
_space_group_symop_operation_xyz
x,y,z
-x,y,1/2-z
-x,-y,-z
x,-y,1/2+z
1/2+x,1/2+y,z
1/2-x,1/2+y,1/2-z
1/2-x,1/2-y,-z
1/2+x,1/2-y,1/2+z
loop_
_atom_site_type_symbol
_atom_site_label
_atom_site_fract_x
_atom_site_fract_y
_atom_site_fract_z
Si Si1 0.823887 0.145167 0.836823
Si Si2 0.692685 0.756874 0.189623
Si Si3 0.186596 0.549139 0.725795
Si Si4 0.828199 0.150709 0.203640
Si Si5 0.183773 0.949669 0.648356
O O1 0.780450 0.197463 0.759172
O O2 0.699358 0.101429 0.818256
O O3 0.000000 0.126018 0.750000
O O4 0.833216 0.148508 0.018437
O O5 0.500000 0.764637 0.250000
O O6 0.759458 0.704335 0.246464
O O7 0.750000 0.750000 0.000000
O O8 0.241105 0.501898 0.815173
O O9 0.294192 0.553019 0.543193
O O10 0.000000 0.539152 0.750000
O O11 0.733397 0.101160 0.295948
O O12 0.000000 0.153584 0.250000
O O13 0.000000 0.948564 0.750000
#
# Coordination Sequence:
#
# PCOD8145932 Si02
#       5
#     8   8   8   8   8
#     4  12  23  41  67  96 128 172 217 264 321 382
#     4  11  23  43  66  96 132 169 212 265 319 382
#     4  12  25  42  64  97 132 167 210 267 324 382
#     4  10  22  40  63  93 126 165 213 263 313 375
#     4  11  22  42  66  92 126 171 216 261 314 383
#
# _framework density 21.532202999999999
#
# number of rings (size 3 to 8) (size 9 to 14) (size 15 to 20)
#    0.000    0.800    0.000   10.200    0.000    0.000 
#    0.000    3.000    0.000    0.000    0.000    0.000 
#    0.000    0.000    0.000    0.000    0.000    0.000 
#
# Total GULP energy -247868.380185 kJ/mol
# GULP energy per Si atom -12393.419009 kJ/mol
# Density = 2.148320 g / cm^3
# Si number density = 21.532203 Si / 1000 Ang^3
#
#
#
# Elastic Constant Matrix: (Units=GPa)
#
#
# Indices 1 2 3 4 5 6 
#
# 1 56.0774 15.0135 35.9933 0.0000 -3.7672 0.0000
# 2 15.0135 193.8407 50.3177 0.0000 26.4579 0.0000
# 3 35.9933 50.3177 175.5646 0.0000 24.1514 0.0000
# 4 0.0000 0.0000 0.0000 46.1505 0.0000 14.5986
# 5 -3.7672 26.4579 24.1514 0.0000 36.2969 0.0000
# 6 0.0000 0.0000 0.0000 14.5986 0.0000 35.5235
#
#
#
# Elastic Compliance Matrix: (Units=1/GPa)
#
#
# Indices 1 2 3 4 5 6 
#
# 1 0.021828 -0.001283 -0.005006 0.000000 0.006531 0.000000
# 2 -0.001283 0.006033 -0.000928 0.000000 -0.003914 0.000000
# 3 -0.005006 -0.000928 0.007668 0.000000 -0.004946 0.000000
# 4 0.000000 0.000000 0.000000 0.024906 0.000000 -0.010235
# 5 0.006531 -0.003914 -0.004946 0.000000 0.034372 0.000000
# 6 0.000000 0.000000 0.000000 -0.010235 0.000000 0.032357
#
#
# Mechanical properties :
#
#
# Convention : Reuss Voigt Hill
#
# Bulk Modulus (GPa) = 47.40073 69.79241 58.59657
# Shear Modulus (GPa) = 33.64090 45.20473 39.42281
#
# Velocity S-wave (km/s) = 3.95695 4.58689 4.28352
# Velocity P-wave (km/s) = 6.55273 7.78050 7.19286
#
# Compressibility (1/GPa) = 0.02109672
#
# Stress axis : x y z
#
# Youngs Moduli (GPa) = 45.81344 165.74833 130.40457
#
# Poissons Ratio (x) = 0.21260 0.65278
# Poissons Ratio (y) = 0.05876 0.12099
# Poissons Ratio (z) = 0.22933 0.15379
#
# Static dielectric constant tensor:
#      x y z
#    x 3.365570 0.000000 0.020800 
#    y 0.000000 4.741560 0.000000 
#    z 0.020800 0.000000 4.028720 
# 
# 
# High freq. dielectric constant tensor:
#      x y z
#    x 1.824000 0.000000 0.006410 
#    y 0.000000 1.882370 0.000000 
#    z 0.006410 0.000000 1.865130 
# 
# From -- ./inp_files/23494.got.cif
#   From: 2010.06.25/outbox.cif.g09.slc.cpg/sg15_12_cif.got.tgz:23494.got - 2010.06.28 07:06:18.
