data_PCOD8145826
_publ_section_title
;
Structure prediction by ZEFSAII (Michael W. Deem and Ramdas Pophale) SiO2 
 PCOD8145826
Probable space group: C 2/C
;
_chemical_formula_sum "Si O2"
_cell_formula_units_Z 44
_cell_length_a 14.447083
_cell_length_b 11.946045
_cell_length_c 20.045714
_cell_angle_alpha 90.000000
_cell_angle_beta 137.806526
_cell_angle_gamma 90.000000
_cell_volume 2323.592385
_symmetry_space_group_name_H-M "C 2/C"
_symmetry_group_IT_number 15
_symmetry_cell_setting 'monoclinic'
loop_
_space_group_symop_operation_xyz
x,y,z
-x,y,1/2-z
-x,-y,-z
x,-y,1/2+z
1/2+x,1/2+y,z
1/2-x,1/2+y,1/2-z
1/2-x,1/2-y,-z
1/2+x,1/2-y,1/2+z
loop_
_atom_site_type_symbol
_atom_site_label
_atom_site_fract_x
_atom_site_fract_y
_atom_site_fract_z
Si Si1 0.267750 0.875036 0.836138
Si Si2 0.525580 0.837775 0.900317
Si Si3 0.078687 0.837293 0.066207
Si Si4 0.704700 0.453142 0.414347
Si Si5 0.528698 0.550353 0.117078
Si Si6 0.500000 0.719054 0.750000
O O1 0.400208 0.914022 0.862562
O O2 0.285910 0.742783 0.864150
O O3 0.127644 0.886935 0.720777
O O4 0.262774 0.947285 0.900284
O O5 0.540795 0.727569 0.955686
O O6 0.481677 0.799141 0.803373
O O7 0.669048 0.902654 0.976204
O O8 0.111515 0.953777 0.121254
O O9 0.027089 0.857557 0.963937
O O10 0.597647 0.498320 0.410559
O O11 0.634686 0.359597 0.329713
#
# Coordination Sequence:
#
# PCOD8145826 Si02
#       6
#     8   8   8   8   8   4
#     4  10  22  40  60  89 120 161 196 247 307 358
#     4  10  24  37  61  90 120 159 200 255 298 352
#     4   9  23  39  60  92 119 161 197 251 301 359
#     4  12  21  40  62  91 118 162 203 252 299 356
#     4  11  21  40  66  85 123 158 205 241 302 363
#     4  12  22  38  64  90 122 156 214 250 304 354
#
# _framework density 18.936195999999999
#
# number of rings (size 3 to 8) (size 9 to 14) (size 15 to 20)
#    1.091    0.364    3.636    1.091    2.545    2.182 
#    0.000    0.000    0.000    0.000    0.000    0.000 
#    0.000    0.000    0.000    0.000    0.000    0.000 
#
# Total GULP energy -272708.770193 kJ/mol
# GULP energy per Si atom -12395.853191 kJ/mol
# Density = 1.889310 g / cm^3
# Si number density = 18.936196 Si / 1000 Ang^3
#
#
#
# Elastic Constant Matrix: (Units=GPa)
#
#
# Indices 1 2 3 4 5 6 
#
# 1 86.5301 34.8551 49.4288 0.0000 -4.9263 0.0000
# 2 34.8551 83.1837 50.5532 0.0000 -7.1851 0.0000
# 3 49.4288 50.5532 113.4143 0.0000 -11.6211 0.0000
# 4 0.0000 0.0000 0.0000 23.0199 0.0000 -0.5331
# 5 -4.9263 -7.1851 -11.6211 0.0000 32.4054 0.0000
# 6 0.0000 0.0000 0.0000 -0.5331 0.0000 31.1217
#
#
#
# Elastic Compliance Matrix: (Units=1/GPa)
#
#
# Indices 1 2 3 4 5 6 
#
# 1 0.016060 -0.003405 -0.005511 0.000000 -0.000290 0.000000
# 2 -0.003405 0.017245 -0.006088 0.000000 0.001123 0.000000
# 3 -0.005511 -0.006088 0.014232 0.000000 0.002916 0.000000
# 4 0.000000 0.000000 0.000000 0.043458 0.000000 0.000744
# 5 -0.000290 0.001123 0.002916 0.000000 0.032110 0.000000
# 6 0.000000 0.000000 0.000000 0.000744 0.000000 0.032145
#
#
# Mechanical properties :
#
#
# Convention : Reuss Voigt Hill
#
# Bulk Modulus (GPa) = 57.05020 61.42246 59.23633
# Shear Modulus (GPa) = 26.16436 27.19547 26.67991
#
# Velocity S-wave (km/s) = 3.72117 3.79379 3.75765
# Velocity P-wave (km/s) = 6.97537 7.19009 7.08354
#
# Compressibility (1/GPa) = 0.01752842
#
# Stress axis : x y z
#
# Youngs Moduli (GPa) = 62.26659 57.98776 70.26649
#
# Poissons Ratio (x) = 0.19745 0.38726
# Poissons Ratio (y) = 0.21202 0.42776
# Poissons Ratio (z) = 0.34317 0.35301
#
# Static dielectric constant tensor:
#      x y z
#    x 3.423270 0.000000 -0.091060 
#    y 0.000000 3.444890 0.000000 
#    z -0.091060 0.000000 3.372240 
# 
# 
# High freq. dielectric constant tensor:
#      x y z
#    x 1.730900 0.000000 -0.011720 
#    y 0.000000 1.728310 0.000000 
#    z -0.011720 0.000000 1.737990 
# 
# From -- ./inp_files/204218.got.cif
#   From: 2010.06.25/outbox.cif.g09.slc.cpg/sg15_103_cif.got.tgz:204218.got - 2010.06.28 07:06:18.
