data_PCOD8145105
_publ_section_title
;
Structure prediction by ZEFSAII (Michael W. Deem and Ramdas Pophale) SiO2 
 PCOD8145105
Probable space group: C 2/C
;
_chemical_formula_sum "Si O2"
_cell_formula_units_Z 48
_cell_length_a 14.095488
_cell_length_b 5.290670
_cell_length_c 29.345034
_cell_angle_alpha 90.000000
_cell_angle_beta 70.604781
_cell_angle_gamma 90.000000
_cell_volume 2064.202938
_symmetry_space_group_name_H-M "C 2/C"
_symmetry_group_IT_number 15
_symmetry_cell_setting 'monoclinic'
loop_
_space_group_symop_operation_xyz
x,y,z
-x,y,1/2-z
-x,-y,-z
x,-y,1/2+z
1/2+x,1/2+y,z
1/2-x,1/2+y,1/2-z
1/2-x,1/2-y,-z
1/2+x,1/2-y,1/2+z
loop_
_atom_site_type_symbol
_atom_site_label
_atom_site_fract_x
_atom_site_fract_y
_atom_site_fract_z
Si Si1 0.861546 0.329093 0.029260
Si Si2 0.994395 0.276341 0.658751
Si Si3 0.478052 0.069727 0.932024
Si Si4 0.433267 0.286850 0.804351
Si Si5 0.264234 0.774717 0.718545
Si Si6 0.328240 0.435894 0.965876
O O1 0.740206 0.369794 0.053174
O O2 0.909064 0.340720 0.072502
O O3 0.916331 0.535714 0.988679
O O4 0.882901 0.066981 0.000263
O O5 0.875219 0.235672 0.681065
O O6 0.020523 0.328669 0.601372
O O7 0.028576 0.522234 0.681464
O O8 0.052506 0.024886 0.664309
O O9 0.413413 0.302168 0.920174
O O10 0.500000 0.353174 0.750000
O O11 0.316020 0.264181 0.809813
O O12 0.241216 0.547796 0.756893
O O13 0.250000 0.250000 0.000000
#
# Coordination Sequence:
#
# PCOD8145105 Si02
#       6
#     8   8   8   8   8   8
#     4   9  19  39  63  82 127 173 203 259 322 382
#     4  12  26  43  66 105 131 170 224 279 318 401
#     4  10  22  37  60  91 124 163 215 261 320 372
#     4  12  24  45  72  91 134 175 213 271 343 390
#     4  12  23  43  72  96 126 173 221 261 334 405
#     4   9  18  36  61  87 115 169 211 247 314 383
#
# _framework density 23.253526999999998
#
# number of rings (size 3 to 8) (size 9 to 14) (size 15 to 20)
#    0.000    1.333    3.333    2.000    2.333    1.333 
#    6.000    0.000    0.000    0.000    0.000    0.000 
#    0.000    0.000    0.000    0.000    0.000    0.000 
#
# Total GULP energy -297403.400137 kJ/mol
# GULP energy per Si atom -12391.808339 kJ/mol
# Density = 2.320060 g / cm^3
# Si number density = 23.253527 Si / 1000 Ang^3
#
#
#
# Elastic Constant Matrix: (Units=GPa)
#
#
# Indices 1 2 3 4 5 6 
#
# 1 152.7053 23.6002 19.1738 -0.0034 22.5441 -0.0059
# 2 23.6002 95.8950 -4.8234 -0.0057 10.7301 -0.0139
# 3 19.1738 -4.8234 40.4655 -0.0015 8.6372 -0.0020
# 4 -0.0034 -0.0057 -0.0015 30.4184 0.0002 6.9160
# 5 22.5441 10.7301 8.6372 0.0002 22.2820 -0.0004
# 6 -0.0059 -0.0139 -0.0020 6.9160 -0.0004 24.7354
#
#
#
# Elastic Compliance Matrix: (Units=1/GPa)
#
#
# Indices 1 2 3 4 5 6 
#
# 1 0.008043 -0.001387 -0.002597 0.000000 -0.006463 0.000001
# 2 -0.001387 0.011532 0.003181 0.000001 -0.005383 0.000006
# 3 -0.002597 0.003181 0.028441 0.000001 -0.009929 0.000003
# 4 0.000000 0.000001 0.000001 0.035107 -0.000002 -0.009816
# 5 -0.006463 -0.005383 -0.009929 -0.000002 0.057859 -0.000004
# 6 0.000001 0.000006 0.000003 -0.009816 -0.000004 0.043172
#
#
# Mechanical properties :
#
#
# Convention : Reuss Voigt Hill
#
# Bulk Modulus (GPa) = 21.54708 40.55187 31.04947
# Shear Modulus (GPa) = 24.84712 32.22819 28.53766
#
# Velocity S-wave (km/s) = 3.27239 3.72687 3.50700
# Velocity P-wave (km/s) = 4.85431 5.99969 5.45713
#
# Compressibility (1/GPa) = 0.04641000
#
# Stress axis : x y z
#
# Youngs Moduli (GPa) = 124.32959 86.71761 35.16014
#
# Poissons Ratio (x) = 0.12027 0.09131
# Poissons Ratio (y) = 0.17243 -0.11183
# Poissons Ratio (z) = 0.32286 -0.27582
#
# Static dielectric constant tensor:
#      x y z
#    x 5.377930 0.000010 0.129460 
#    y 0.000010 3.397000 0.000070 
#    z 0.129460 0.000070 3.634100 
# 
# 
# High freq. dielectric constant tensor:
#      x y z
#    x 1.943920 0.000000 0.003760 
#    y 0.000000 1.936730 0.000000 
#    z 0.003760 0.000000 1.881860 
# 
# From -- ./inp_files/312079.got.cif
#   From: 2010.06.25/outbox.cif.g09.slc.cpg/sg15_157_cif.got.tgz:312079.got - 2010.06.28 07:06:18.
