data_PCOD8145436
_publ_section_title
;
Structure prediction by ZEFSAII (Michael W. Deem and Ramdas Pophale) SiO2 
 PCOD8145436
Probable space group: C 2/C
;
_chemical_formula_sum "Si O2"
_cell_formula_units_Z 52
_cell_length_a 10.366985
_cell_length_b 30.611773
_cell_length_c 11.994251
_cell_angle_alpha 90.000000
_cell_angle_beta 140.100424
_cell_angle_gamma 90.000000
_cell_volume 2441.590371
_symmetry_space_group_name_H-M "C 2/C"
_symmetry_group_IT_number 15
_symmetry_cell_setting 'monoclinic'
loop_
_space_group_symop_operation_xyz
x,y,z
-x,y,1/2-z
-x,-y,-z
x,-y,1/2+z
1/2+x,1/2+y,z
1/2-x,1/2+y,1/2-z
1/2-x,1/2-y,-z
1/2+x,1/2-y,1/2+z
loop_
_atom_site_type_symbol
_atom_site_label
_atom_site_fract_x
_atom_site_fract_y
_atom_site_fract_z
Si Si1 0.319257 0.295429 0.715959
Si Si2 0.000000 0.928373 0.750000
Si Si3 0.871298 0.524433 0.561260
Si Si4 0.060343 0.432533 0.970482
Si Si5 0.918352 0.302476 0.316797
Si Si6 0.388702 0.369712 0.282512
Si Si7 0.187364 0.120148 0.170369
O O1 0.500000 0.304414 0.750000
O O2 0.324054 0.245599 0.758069
O O3 0.325794 0.327024 0.827721
O O4 0.106299 0.306076 0.521372
O O5 0.112112 0.897495 0.738294
O O6 0.856913 0.959024 0.579821
O O7 0.950602 0.544811 0.500406
O O8 0.000000 0.542856 0.750000
O O9 0.872459 0.471774 0.566003
O O10 0.912433 0.399342 0.805053
O O11 0.255624 0.408361 0.144772
O O12 0.744920 0.335240 0.239113
O O13 0.000000 0.315741 0.250000
O O14 0.500000 0.347282 0.250000
O O15 0.552172 0.391830 0.473906
#
# Coordination Sequence:
#
# PCOD8145436 Si02
#       7
#     8   4   8   8   8   8   8
#     4  11  20  40  68 104 132 171 225 288 342 392
#     4  10  22  38  68 102 126 166 218 296 338 398
#     4  10  22  40  65  93 128 166 225 280 343 388
#     4  10  24  42  61  94 128 178 223 275 331 414
#     4  11  23  41  69 101 137 174 230 283 338 394
#     4  12  27  43  65  98 139 186 226 272 337 408
#     4  11  22  41  66  96 135 170 229 276 342 392
#
# _framework density 21.297594
#
# number of rings (size 3 to 8) (size 9 to 14) (size 15 to 20)
#    0.000    1.231    2.308    4.615    3.231    0.615 
#    0.000    7.692    0.000    0.000    0.000    0.000 
#    0.000    0.000    0.000    0.000    0.000    0.000 
#
# Total GULP energy -322387.316707 kJ/mol
# GULP energy per Si atom -12399.512181 kJ/mol
# Density = 2.124912 g / cm^3
# Si number density = 21.297594 Si / 1000 Ang^3
#
#
#
# Elastic Constant Matrix: (Units=GPa)
#
#
# Indices 1 2 3 4 5 6 
#
# 1 47.1850 34.7073 17.6488 0.0000 -6.2120 0.0000
# 2 34.7073 93.8990 33.1732 0.0000 -0.3705 0.0000
# 3 17.6488 33.1732 170.3748 0.0000 17.9263 0.0000
# 4 0.0000 0.0000 0.0000 25.0513 0.0000 -8.2418
# 5 -6.2120 -0.3705 17.9263 0.0000 17.1558 0.0000
# 6 0.0000 0.0000 0.0000 -8.2418 0.0000 -24.8259
#
#
#
# Elastic Compliance Matrix: (Units=1/GPa)
#
#
# Indices 1 2 3 4 5 6 
#
# 1 0.032040 -0.010832 -0.002703 0.000000 0.014192 0.000000
# 2 -0.010832 0.015227 -0.001646 0.000000 -0.001874 0.000000
# 3 -0.002703 -0.001646 0.007389 0.000000 -0.008735 0.000000
# 4 0.000000 0.000000 0.000000 0.035987 0.000000 -0.011947
# 5 0.014192 -0.001874 -0.008735 0.000000 0.072515 0.000000
# 6 0.000000 0.000000 0.000000 -0.011947 0.000000 -0.036314
#
#
# Mechanical properties :
#
#
# Convention : Reuss Voigt Hill
#
# Bulk Modulus (GPa) = 41.16054 53.61304 47.38679
# Shear Modulus (GPa) = 30.24713 18.53821 24.39267
#
# Velocity S-wave (km/s) = 3.77266 2.95352 3.38794
# Velocity P-wave (km/s) = 6.19238 6.07116 6.13207
#
# Compressibility (1/GPa) = 0.02429512
#
# Stress axis : x y z
#
# Youngs Moduli (GPa) = 31.21086 65.67094 135.33718
#
# Poissons Ratio (x) = 0.71133 0.36585
# Poissons Ratio (y) = 0.33807 0.22273
# Poissons Ratio (z) = 0.08437 0.10808
#
# Static dielectric constant tensor:
#      x y z
#    x 3.563270 0.000000 0.188740 
#    y 0.000000 4.971340 0.000000 
#    z 0.188740 0.000000 4.095920 
# 
# 
# High freq. dielectric constant tensor:
#      x y z
#    x 1.820680 0.000000 0.010070 
#    y 0.000000 1.837980 0.000000 
#    z 0.010070 0.000000 1.855500 
# 
# From -- ./inp_files/92661.got.cif
#   From: 2010.06.25/outbox.cif.g09.slc.cpg/sg15_47_cif.got.tgz:92661.got - 2010.06.28 07:06:18.
