data_PCOD8145374
_publ_section_title
;
Structure prediction by ZEFSAII (Michael W. Deem and Ramdas Pophale) SiO2 
 PCOD8145374
Probable space group: C 2/C
;
_chemical_formula_sum "Si O2"
_cell_formula_units_Z 52
_cell_length_a 11.171971
_cell_length_b 21.962022
_cell_length_c 12.883855
_cell_angle_alpha 90.000000
_cell_angle_beta 52.940266
_cell_angle_gamma 90.000000
_cell_volume 2522.638419
_symmetry_space_group_name_H-M "C 2/C"
_symmetry_group_IT_number 15
_symmetry_cell_setting 'monoclinic'
loop_
_space_group_symop_operation_xyz
x,y,z
-x,y,1/2-z
-x,-y,-z
x,-y,1/2+z
1/2+x,1/2+y,z
1/2-x,1/2+y,1/2-z
1/2-x,1/2-y,-z
1/2+x,1/2-y,1/2+z
loop_
_atom_site_type_symbol
_atom_site_label
_atom_site_fract_x
_atom_site_fract_y
_atom_site_fract_z
Si Si1 0.169721 0.627831 0.625693
Si Si2 0.911675 0.664534 0.050719
Si Si3 0.276262 0.628850 0.155450
Si Si4 0.944114 0.801847 0.056380
Si Si5 0.203508 0.606262 0.972766
Si Si6 0.325442 0.990423 0.862753
Si Si7 0.500000 0.340284 0.250000
O O1 0.184445 0.639474 0.495145
O O2 0.274976 0.674179 0.632542
O O3 0.227675 0.559639 0.620871
O O4 0.000000 0.639105 0.750000
O O5 0.813111 0.660821 0.205840
O O6 0.957471 0.734083 0.004801
O O7 0.061599 0.624197 0.977975
O O8 0.201974 0.645671 0.081820
O O9 0.267337 0.554308 0.168225
O O10 0.446578 0.653561 0.066359
O O11 0.988894 0.798570 0.154013
O O12 0.198839 0.534564 0.006513
O O13 0.354095 0.616847 0.829103
O O14 0.500000 0.984145 0.750000
#
# Coordination Sequence:
#
# PCOD8145374 Si02
#       7
#     8   8   8   8   8   8   4
#     4  11  26  44  62  92 129 173 204 258 314 377
#     4  12  23  40  69  90 130 172 204 255 315 381
#     4   9  21  41  64  97 123 161 209 270 303 359
#     4  11  26  41  62  96 130 163 213 255 316 376
#     4   9  19  39  61  99 122 157 210 254 314 360
#     4   9  18  43  64  90 130 156 209 266 300 370
#     4  10  22  38  64  98 124 164 198 268 318 348
#
# _framework density 20.613337000000001
#
# number of rings (size 3 to 8) (size 9 to 14) (size 15 to 20)
#    0.923    0.923    1.538    1.846    6.462    3.077 
#    2.769    0.000    0.000    0.000    0.000    0.000 
#    0.000    0.000    0.000    0.000    0.000    0.000 
#
# Total GULP energy -322266.970711 kJ/mol
# GULP energy per Si atom -12394.883489 kJ/mol
# Density = 2.056642 g / cm^3
# Si number density = 20.613337 Si / 1000 Ang^3
#
#
#
# Elastic Constant Matrix: (Units=GPa)
#
#
# Indices 1 2 3 4 5 6 
#
# 1 77.4945 17.4591 20.5148 0.0000 -2.7069 0.0000
# 2 17.4591 67.0445 10.4425 0.0000 -1.1454 0.0000
# 3 20.5148 10.4425 85.0765 0.0000 -7.3091 0.0000
# 4 0.0000 0.0000 0.0000 15.0852 0.0000 4.2349
# 5 -2.7069 -1.1454 -7.3091 0.0000 27.1907 0.0000
# 6 0.0000 0.0000 0.0000 4.2349 0.0000 19.1497
#
#
#
# Elastic Compliance Matrix: (Units=1/GPa)
#
#
# Indices 1 2 3 4 5 6 
#
# 1 0.014467 -0.003285 -0.003044 0.000000 0.000484 0.000000
# 2 -0.003285 0.015953 -0.001163 0.000000 0.000032 0.000000
# 3 -0.003044 -0.001163 0.012898 0.000000 0.003115 0.000000
# 4 0.000000 0.000000 0.000000 0.070678 0.000000 -0.015630
# 5 0.000484 0.000032 0.003115 0.000000 0.037664 0.000000
# 6 0.000000 0.000000 0.000000 -0.015630 0.000000 0.055677
#
#
# Mechanical properties :
#
#
# Convention : Reuss Voigt Hill
#
# Bulk Modulus (GPa) = 35.29294 36.27203 35.78248
# Shear Modulus (GPa) = 21.57353 24.36505 22.96929
#
# Velocity S-wave (km/s) = 3.23860 3.44176 3.34172
# Velocity P-wave (km/s) = 5.58062 5.78177 5.68208
#
# Compressibility (1/GPa) = 0.02833428
#
# Stress axis : x y z
#
# Youngs Moduli (GPa) = 69.12350 62.68552 77.52854
#
# Poissons Ratio (x) = 0.20592 0.23597
# Poissons Ratio (y) = 0.22707 0.09018
# Poissons Ratio (z) = 0.21039 0.07291
#
# Static dielectric constant tensor:
#      x y z
#    x 3.585730 0.000000 -0.033010 
#    y 0.000000 3.638650 0.000000 
#    z -0.033010 0.000000 3.672330 
# 
# 
# High freq. dielectric constant tensor:
#      x y z
#    x 1.792450 0.000000 -0.005710 
#    y 0.000000 1.794570 0.000000 
#    z -0.005710 0.000000 1.806680 
# 
# From -- ./inp_files/91192.got.cif
#   From: 2010.06.25/outbox.cif.g09.slc.cpg/sg15_46_cif.got.tgz:91192.got - 2010.06.28 07:06:18.
