data_PCOD8145493
_publ_section_title
;
Structure prediction by ZEFSAII (Michael W. Deem and Ramdas Pophale) SiO2 
 PCOD8145493
Probable space group: C 2/C
;
_chemical_formula_sum "Si O2"
_cell_formula_units_Z 52
_cell_length_a 16.619098
_cell_length_b 22.453744
_cell_length_c 9.115752
_cell_angle_alpha 90.000000
_cell_angle_beta 49.839160
_cell_angle_gamma 90.000000
_cell_volume 2599.661353
_symmetry_space_group_name_H-M "C 2/C"
_symmetry_group_IT_number 15
_symmetry_cell_setting 'monoclinic'
loop_
_space_group_symop_operation_xyz
x,y,z
-x,y,1/2-z
-x,-y,-z
x,-y,1/2+z
1/2+x,1/2+y,z
1/2-x,1/2+y,1/2-z
1/2-x,1/2-y,-z
1/2+x,1/2-y,1/2+z
loop_
_atom_site_type_symbol
_atom_site_label
_atom_site_fract_x
_atom_site_fract_y
_atom_site_fract_z
Si Si1 0.778885 0.611032 0.702512
Si Si2 0.166775 0.864202 0.899250
Si Si3 0.715332 0.472922 0.030646
Si Si4 0.122612 0.897587 0.629373
Si Si5 0.500000 0.278556 0.250000
Si Si6 0.427686 0.967824 0.199186
Si Si7 0.672218 0.802308 0.615546
O O1 0.720897 0.557100 0.684371
O O2 0.877231 0.590339 0.685012
O O3 0.825557 0.659624 0.537559
O O4 0.687338 0.633862 0.920843
O O5 0.158050 0.865616 0.736207
O O6 0.285237 0.841817 0.799510
O O7 0.156587 0.929382 0.984372
O O8 0.076886 0.820059 0.065659
O O9 0.647122 0.532518 0.114643
O O10 0.836421 0.485847 0.848773
O O11 0.000000 0.887241 0.750000
O O12 0.437626 0.230858 0.220266
O O13 0.500000 0.947837 0.250000
O O14 0.500000 0.000000 0.000000
O O15 0.750000 0.750000 0.500000
#
# Coordination Sequence:
#
# PCOD8145493 Si02
#       7
#     8   8   8   8   4   8   8
#     4  10  22  39  58  91 125 161 211 259 305 362
#     4  10  23  40  65  91 121 161 204 260 303 366
#     4  10  22  39  59  93 133 168 204 242 293 385
#     4  11  24  36  60  95 133 164 197 245 318 377
#     4  10  22  44  70  86 106 162 220 260 312 366
#     4  11  21  36  59  91 137 173 203 242 301 380
#     4   9  21  43  67  82 113 153 214 268 304 362
#
# _framework density 20.002606
#
# number of rings (size 3 to 8) (size 9 to 14) (size 15 to 20)
#    0.000    1.846    1.538    1.846    9.692    3.692 
#    0.000    3.077    0.000    0.000    0.000    0.000 
#    0.000    0.000    0.000    0.000    0.000    0.000 
#
# Total GULP energy -322198.954171 kJ/mol
# GULP energy per Si atom -12392.267468 kJ/mol
# Density = 1.995708 g / cm^3
# Si number density = 20.002606 Si / 1000 Ang^3
#
#
#
# Elastic Constant Matrix: (Units=GPa)
#
#
# Indices 1 2 3 4 5 6 
#
# 1 139.3863 38.7099 58.7840 0.0000 7.9648 0.0000
# 2 38.7099 83.3226 28.2683 0.0000 1.9682 0.0000
# 3 58.7840 28.2683 104.5397 0.0000 5.2693 0.0000
# 4 0.0000 0.0000 0.0000 14.8763 0.0000 -8.0349
# 5 7.9648 1.9682 5.2693 0.0000 38.6598 0.0000
# 6 0.0000 0.0000 0.0000 -8.0349 0.0000 24.2355
#
#
#
# Elastic Compliance Matrix: (Units=1/GPa)
#
#
# Indices 1 2 3 4 5 6 
#
# 1 0.010117 -0.003041 -0.004802 0.000000 -0.001275 0.000000
# 2 -0.003041 0.014129 -0.002121 0.000000 0.000196 0.000000
# 3 -0.004802 -0.002121 0.012873 0.000000 -0.000657 0.000000
# 4 0.000000 0.000000 0.000000 0.081884 0.000000 0.027147
# 5 -0.001275 0.000196 -0.000657 0.000000 0.026209 0.000000
# 6 0.000000 0.000000 0.000000 0.027147 0.000000 0.050262
#
#
# Mechanical properties :
#
#
# Convention : Reuss Voigt Hill
#
# Bulk Modulus (GPa) = 58.16928 64.30812 61.23870
# Shear Modulus (GPa) = 22.61099 28.98674 25.79886
#
# Velocity S-wave (km/s) = 3.36579 3.81090 3.59524
# Velocity P-wave (km/s) = 6.65197 7.18217 6.92215
#
# Compressibility (1/GPa) = 0.01719120
#
# Stress axis : x y z
#
# Youngs Moduli (GPa) = 98.84394 70.77629 77.68341
#
# Poissons Ratio (x) = 0.21521 0.37307
# Poissons Ratio (y) = 0.30056 0.16474
# Poissons Ratio (z) = 0.47469 0.15009
#
# Static dielectric constant tensor:
#      x y z
#    x 1.715290 0.000000 0.899780 
#    y 0.000000 4.173310 0.000000 
#    z 0.899780 0.000000 3.184200 
# 
# 
# High freq. dielectric constant tensor:
#      x y z
#    x 1.798590 0.000000 -0.001200 
#    y 0.000000 1.772340 0.000000 
#    z -0.001200 0.000000 1.769450 
# 
# From -- ./inp_files/42060.got.cif
#   From: 2010.06.25/outbox.cif.g09.slc.cpg/sg15_22_cif.got.tgz:42060.got - 2010.06.28 07:06:18.
