data_PCOD8145358
_publ_section_title
;
Structure prediction by ZEFSAII (Michael W. Deem and Ramdas Pophale) SiO2 
 PCOD8145358
Probable space group: C 2/C
;
_chemical_formula_sum "Si O2"
_cell_formula_units_Z 56
_cell_length_a 11.969452
_cell_length_b 8.678948
_cell_length_c 28.151427
_cell_angle_alpha 90.000000
_cell_angle_beta 54.973015
_cell_angle_gamma 90.000000
_cell_volume 2394.765502
_symmetry_space_group_name_H-M "C 2/C"
_symmetry_group_IT_number 15
_symmetry_cell_setting 'monoclinic'
loop_
_space_group_symop_operation_xyz
x,y,z
-x,y,1/2-z
-x,-y,-z
x,-y,1/2+z
1/2+x,1/2+y,z
1/2-x,1/2+y,1/2-z
1/2-x,1/2-y,-z
1/2+x,1/2-y,1/2+z
loop_
_atom_site_type_symbol
_atom_site_label
_atom_site_fract_x
_atom_site_fract_y
_atom_site_fract_z
Si Si1 0.339618 0.058348 0.449407
Si Si2 0.886860 0.559705 0.840574
Si Si3 0.500000 0.825502 0.750000
Si Si4 0.136753 0.450411 0.890196
Si Si5 0.166126 0.092105 0.577884
Si Si6 0.295610 0.581942 0.774565
Si Si7 0.852562 0.118534 0.655789
Si Si8 0.000000 0.822244 0.750000
O O1 0.479774 0.043522 0.445821
O O2 0.215835 0.021131 0.515284
O O3 0.316115 0.223340 0.429374
O O4 0.354058 0.931809 0.404466
O O5 0.998696 0.429513 0.798405
O O6 0.745376 0.504107 0.849481
O O7 0.938141 0.723482 0.808491
O O8 0.367504 0.719991 0.784897
O O9 0.244922 0.514865 0.902125
O O10 0.153538 0.550552 0.837145
O O11 0.160627 0.273262 0.871711
O O12 0.006311 0.054342 0.624362
O O13 0.277620 0.635656 0.724891
O O14 0.382383 0.425513 0.755861
#
# Coordination Sequence:
#
# PCOD8145358 Si02
#       8
#     8   8   4   8   8   8   8   4
#     4  10  23  42  69  96 130 176 231 282 328 400
#     4  11  23  40  60 103 137 168 220 282 333 409
#     4  10  22  38  64  92 136 170 224 266 334 400
#     4  11  22  42  67  97 130 175 226 277 334 402
#     4  10  22  46  68  93 130 180 231 277 334 395
#     4  11  22  40  65  95 128 181 215 270 340 409
#     4  11  25  38  66  96 136 171 220 270 339 407
#     4  10  22  40  64  90 144 174 216 274 348 404
#
# _framework density 23.384335
#
# number of rings (size 3 to 8) (size 9 to 14) (size 15 to 20)
#    0.000    1.429    1.429    4.714    6.000    0.571 
#    2.571    0.714    0.000    0.000    0.000    0.000 
#    0.000    0.000    0.000    0.000    0.000    0.000 
#
# Total GULP energy -346980.208264 kJ/mol
# GULP energy per Si atom -12392.150295 kJ/mol
# Density = 2.333111 g / cm^3
# Si number density = 23.384335 Si / 1000 Ang^3
#
#
#
# Elastic Constant Matrix: (Units=GPa)
#
#
# Indices 1 2 3 4 5 6 
#
# 1 82.7437 35.1350 21.1740 0.0000 1.3901 0.0000
# 2 35.1350 81.5482 23.3126 0.0000 3.8860 0.0000
# 3 21.1740 23.3126 123.5627 0.0000 4.2214 0.0000
# 4 0.0000 0.0000 0.0000 22.6921 0.0000 5.3893
# 5 1.3901 3.8860 4.2214 0.0000 36.4145 0.0000
# 6 0.0000 0.0000 0.0000 5.3893 0.0000 28.0489
#
#
#
# Elastic Compliance Matrix: (Units=1/GPa)
#
#
# Indices 1 2 3 4 5 6 
#
# 1 0.015029 -0.006076 -0.001437 0.000000 0.000241 0.000000
# 2 -0.006076 0.015463 -0.001835 0.000000 -0.001205 0.000000
# 3 -0.001437 -0.001835 0.008711 0.000000 -0.000759 0.000000
# 4 0.000000 0.000000 0.000000 0.046175 0.000000 -0.008872
# 5 0.000241 -0.001205 -0.000759 0.000000 0.027669 0.000000
# 6 0.000000 0.000000 0.000000 -0.008872 0.000000 0.037357
#
#
# Mechanical properties :
#
#
# Convention : Reuss Voigt Hill
#
# Bulk Modulus (GPa) = 48.76429 49.67753 49.22091
# Shear Modulus (GPa) = 28.41938 31.31332 29.86635
#
# Velocity S-wave (km/s) = 3.48992 3.66330 3.57766
# Velocity P-wave (km/s) = 6.09410 6.25964 6.17743
#
# Compressibility (1/GPa) = 0.02050681
#
# Stress axis : x y z
#
# Youngs Moduli (GPa) = 66.53683 64.67259 114.79084
#
# Poissons Ratio (x) = 0.39295 0.16499
# Poissons Ratio (y) = 0.40427 0.21063
# Poissons Ratio (z) = 0.09564 0.11867
#
# Static dielectric constant tensor:
#      x y z
#    x 4.472820 0.000000 -0.234380 
#    y 0.000000 4.124090 0.000000 
#    z -0.234380 0.000000 4.401350 
# 
# 
# High freq. dielectric constant tensor:
#      x y z
#    x 1.927490 0.000000 -0.009970 
#    y 0.000000 1.911830 0.000000 
#    z -0.009970 0.000000 1.926720 
# 
# From -- ./inp_files/310259.got.cif
#   From: 2010.06.25/outbox.cif.g09.slc.cpg/sg15_156_cif.got.tgz:310259.got - 2010.06.28 07:06:18.
