data_PCOD8145934
_publ_section_title
;
Structure prediction by ZEFSAII (Michael W. Deem and Ramdas Pophale) SiO2 
 PCOD8145934
Probable space group: C 2/C
;
_chemical_formula_sum "Si O2"
_cell_formula_units_Z 40
_cell_length_a 27.771077
_cell_length_b 6.664374
_cell_length_c 12.890391
_cell_angle_alpha 90.000000
_cell_angle_beta 128.679376
_cell_angle_gamma 90.000000
_cell_volume 1862.419682
_symmetry_space_group_name_H-M "C 2/C"
_symmetry_group_IT_number 15
_symmetry_cell_setting 'monoclinic'
loop_
_space_group_symop_operation_xyz
x,y,z
-x,y,1/2-z
-x,-y,-z
x,-y,1/2+z
1/2+x,1/2+y,z
1/2-x,1/2+y,1/2-z
1/2-x,1/2-y,-z
1/2+x,1/2-y,1/2+z
loop_
_atom_site_type_symbol
_atom_site_label
_atom_site_fract_x
_atom_site_fract_y
_atom_site_fract_z
Si Si1 0.753779 0.293322 0.883856
Si Si2 0.538647 0.976070 0.708493
Si Si3 0.340063 0.470406 0.891693
Si Si4 0.638685 0.933635 0.994397
Si Si5 0.437596 0.796155 0.971223
O O1 0.687450 0.342677 0.742756
O O2 0.787963 0.110561 0.871938
O O3 0.750000 0.250000 0.000000
O O4 0.791180 0.497568 0.917294
O O5 0.500000 0.871776 0.750000
O O6 0.605349 0.026611 0.847047
O O7 0.546475 0.814257 0.628218
O O8 0.502386 0.178403 0.621834
O O9 0.401981 0.588590 0.942447
O O10 0.362132 0.307724 0.006201
O O11 0.606175 0.018628 0.054486
#
# Coordination Sequence:
#
# PCOD8145934 Si02
#       5
#     8   8   8   8   8
#     4  11  25  40  63  97 136 175 215 269 322 388
#     4   9  19  41  64  89 124 163 210 269 328 373
#     4  11  23  42  62  98 133 172 221 262 322 396
#     4  10  22  40  63  93 130 169 213 263 320 388
#     4   9  21  41  64  90 126 166 211 274 317 385
#
# _framework density 21.477436000000001
#
# number of rings (size 3 to 8) (size 9 to 14) (size 15 to 20)
#    0.000    2.000    2.000    0.000    5.600    0.800 
#    0.000   24.000    0.000    0.000    0.000    0.000 
#    0.000    0.000    0.000    0.000    0.000    0.000 
#
# Total GULP energy -247853.620517 kJ/mol
# GULP energy per Si atom -12392.681026 kJ/mol
# Density = 2.142855 g / cm^3
# Si number density = 21.477436 Si / 1000 Ang^3
#
#
#
# Elastic Constant Matrix: (Units=GPa)
#
#
# Indices 1 2 3 4 5 6 
#
# 1 83.6397 41.7047 51.4378 0.0000 -19.6386 0.0000
# 2 41.7047 127.3810 48.1807 0.0000 3.9648 0.0000
# 3 51.4378 48.1807 138.6026 0.0000 -1.8983 0.0000
# 4 0.0000 0.0000 0.0000 28.8030 0.0000 8.9179
# 5 -19.6386 3.9648 -1.8983 0.0000 42.5647 0.0000
# 6 0.0000 0.0000 0.0000 8.9179 0.0000 22.3226
#
#
#
# Elastic Compliance Matrix: (Units=1/GPa)
#
#
# Indices 1 2 3 4 5 6 
#
# 1 0.019984 -0.004697 -0.005655 0.000000 0.009406 0.000000
# 2 -0.004697 0.010184 -0.001841 0.000000 -0.003198 0.000000
# 3 -0.005655 -0.001841 0.009926 0.000000 -0.001995 0.000000
# 4 0.000000 0.000000 0.000000 0.039619 0.000000 -0.015828
# 5 0.009406 -0.003198 -0.001995 0.000000 0.028042 0.000000
# 6 0.000000 0.000000 0.000000 -0.015828 0.000000 0.051121
#
#
# Mechanical properties :
#
#
# Convention : Reuss Voigt Hill
#
# Bulk Modulus (GPa) = 63.65721 70.25220 66.95471
# Shear Modulus (GPa) = 26.52546 32.62471 29.57508
#
# Velocity S-wave (km/s) = 3.51812 3.90169 3.71486
# Velocity P-wave (km/s) = 6.79753 7.28549 7.04574
#
# Compressibility (1/GPa) = 0.01570914
#
# Stress axis : x y z
#
# Youngs Moduli (GPa) = 50.03983 98.19330 100.74396
#
# Poissons Ratio (x) = 0.46118 0.56971
# Poissons Ratio (y) = 0.23502 0.18546
# Poissons Ratio (z) = 0.28297 0.18077
#
# Static dielectric constant tensor:
#      x y z
#    x 3.957660 0.000000 0.089310 
#    y 0.000000 3.606820 0.000000 
#    z 0.089310 0.000000 4.182110 
# 
# 
# High freq. dielectric constant tensor:
#      x y z
#    x 1.843120 0.000000 0.005470 
#    y 0.000000 1.815640 0.000000 
#    z 0.005470 0.000000 1.857620 
# 
# From -- ./inp_files/179587.got.cif
#   From: 2010.06.25/outbox.cif.g09.slc.cpg/sg15_90_cif.got.tgz:179587.got - 2010.06.28 07:06:18.
