data_PCOD8145385
_publ_section_title
;
Structure prediction by ZEFSAII (Michael W. Deem and Ramdas Pophale) SiO2 
 PCOD8145385
Probable space group: C 2/C
;
_chemical_formula_sum "Si O2"
_cell_formula_units_Z 40
_cell_length_a 26.657006
_cell_length_b 11.591795
_cell_length_c 8.495758
_cell_angle_alpha 90.000000
_cell_angle_beta 131.583072
_cell_angle_gamma 90.000000
_cell_volume 1963.642547
_symmetry_space_group_name_H-M "C 2/C"
_symmetry_group_IT_number 15
_symmetry_cell_setting 'monoclinic'
loop_
_space_group_symop_operation_xyz
x,y,z
-x,y,1/2-z
-x,-y,-z
x,-y,1/2+z
1/2+x,1/2+y,z
1/2-x,1/2+y,1/2-z
1/2-x,1/2-y,-z
1/2+x,1/2-y,1/2+z
loop_
_atom_site_type_symbol
_atom_site_label
_atom_site_fract_x
_atom_site_fract_y
_atom_site_fract_z
Si Si1 0.566424 0.232979 0.461105
Si Si2 0.771122 0.040301 0.657336
Si Si3 0.140820 0.079899 0.934022
Si Si4 0.789183 0.646062 0.670451
Si Si5 0.462385 0.399785 0.829643
O O1 0.500000 0.168001 0.250000
O O2 0.584960 0.327436 0.365596
O O3 0.631063 0.157324 0.636698
O O4 0.544335 0.287509 0.579446
O O5 0.823803 0.111276 0.657813
O O6 0.740680 0.132406 0.715404
O O7 0.717063 0.975648 0.434011
O O8 0.805427 0.930413 0.814587
O O9 0.110841 0.950362 0.861241
O O10 0.750000 0.750000 0.500000
O O11 0.500000 0.362905 0.750000
O O12 0.500000 0.500000 0.000000
#
# Coordination Sequence:
#
# PCOD8145385 Si02
#       5
#     8   8   8   8   8
#     4  12  23  37  58  92 129 164 209 259 313 380
#     4  10  22  38  65  91 124 168 211 258 315 368
#     4  11  17  34  58  91 122 162 197 259 325 371
#     4  11  23  45  64  94 129 165 215 264 311 383
#     4  12  19  31  54  89 133 161 192 256 333 389
#
# _framework density 20.370304999999998
#
# number of rings (size 3 to 8) (size 9 to 14) (size 15 to 20)
#    0.000    0.800    8.000    1.200    0.000    0.800 
#    0.000    1.000    0.000    0.000    0.000    0.000 
#    0.000    0.000    0.000    0.000    0.000    0.000 
#
# Total GULP energy -247843.612265 kJ/mol
# GULP energy per Si atom -12392.180613 kJ/mol
# Density = 2.032394 g / cm^3
# Si number density = 20.370305 Si / 1000 Ang^3
#
#
#
# Elastic Constant Matrix: (Units=GPa)
#
#
# Indices 1 2 3 4 5 6 
#
# 1 172.4505 37.3918 65.1795 0.0000 -25.0168 0.0000
# 2 37.3918 34.9135 22.3163 0.0000 -5.2256 0.0000
# 3 65.1795 22.3163 111.1425 0.0000 9.5840 0.0000
# 4 0.0000 0.0000 0.0000 34.7081 0.0000 3.6993
# 5 -25.0168 -5.2256 9.5840 0.0000 46.5457 0.0000
# 6 0.0000 0.0000 0.0000 3.6993 0.0000 32.3936
#
#
#
# Elastic Compliance Matrix: (Units=1/GPa)
#
#
# Indices 1 2 3 4 5 6 
#
# 1 0.009930 -0.006610 -0.004981 0.000000 0.005620 0.000000
# 2 -0.006610 0.038513 -0.003994 0.000000 0.001594 0.000000
# 3 -0.004981 -0.003994 0.013225 0.000000 -0.005849 0.000000
# 4 0.000000 0.000000 0.000000 0.029167 0.000000 -0.003331
# 5 0.005620 0.001594 -0.005849 0.000000 0.025888 0.000000
# 6 0.000000 0.000000 0.000000 -0.003331 0.000000 0.031251
#
#
# Mechanical properties :
#
#
# Convention : Reuss Voigt Hill
#
# Bulk Modulus (GPa) = 32.78919 63.14244 47.96581
# Shear Modulus (GPa) = 26.41196 35.63741 31.02468
#
# Velocity S-wave (km/s) = 3.60473 4.18721 3.90684
# Velocity P-wave (km/s) = 5.78420 7.37846 6.62942
#
# Compressibility (1/GPa) = 0.03049786
#
# Stress axis : x y z
#
# Youngs Moduli (GPa) = 100.70656 25.96551 75.61564
#
# Poissons Ratio (x) = 0.17163 0.37663
# Poissons Ratio (y) = 0.66565 0.30202
# Poissons Ratio (z) = 0.50160 0.10371
#
# Static dielectric constant tensor:
#      x y z
#    x 3.548040 0.000000 -0.399770 
#    y 0.000000 3.175090 0.000000 
#    z -0.399770 0.000000 3.743240 
# 
# 
# High freq. dielectric constant tensor:
#      x y z
#    x 1.808560 0.000000 -0.007720 
#    y 0.000000 1.730270 0.000000 
#    z -0.007720 0.000000 1.819770 
# 
# From -- ./inp_files/46174.got.cif
#   From: 2010.06.25/outbox.cif.g09.slc.cpg/sg15_24_cif.got.tgz:46174.got - 2010.06.28 07:06:18.
