data_PCOD8145861
_publ_section_title
;
Structure prediction by ZEFSAII (Michael W. Deem and Ramdas Pophale) SiO2 
 PCOD8145861
Probable space group: C 2/C
;
_chemical_formula_sum "Si O2"
_cell_formula_units_Z 32
_cell_length_a 8.645570
_cell_length_b 9.373711
_cell_length_c 18.348198
_cell_angle_alpha 90.000000
_cell_angle_beta 87.950771
_cell_angle_gamma 90.000000
_cell_volume 1486.006732
_symmetry_space_group_name_H-M "C 2/C"
_symmetry_group_IT_number 15
_symmetry_cell_setting 'monoclinic'
loop_
_space_group_symop_operation_xyz
x,y,z
-x,y,1/2-z
-x,-y,-z
x,-y,1/2+z
1/2+x,1/2+y,z
1/2-x,1/2+y,1/2-z
1/2-x,1/2-y,-z
1/2+x,1/2-y,1/2+z
loop_
_atom_site_type_symbol
_atom_site_label
_atom_site_fract_x
_atom_site_fract_y
_atom_site_fract_z
Si Si1 0.171001 0.758380 0.272792
Si Si2 0.844072 0.148349 0.401299
Si Si3 0.169220 0.065118 0.337404
Si Si4 0.344976 0.951563 0.465991
O O1 0.206243 0.667958 0.345094
O O2 0.289583 0.708146 0.207747
O O3 0.000000 0.718615 0.250000
O O4 0.193690 0.926574 0.285918
O O5 0.786270 0.054876 0.469827
O O6 0.891061 0.302330 0.429662
O O7 0.990045 0.069609 0.363065
O O8 0.279939 0.059158 0.406124
O O9 0.500000 0.000000 0.500000
#
# Coordination Sequence:
#
# PCOD8145861 Si02
#       4
#     8   8   8   8
#     4  11  23  39  61  90 123 164 208 254 307 366
#     4  10  22  40  61  91 124 159 206 255 307 368
#     4  11  24  41  64  91 127 165 205 256 307 366
#     4  10  22  40  64  92 123 160 204 255 310 365
#
# _framework density 21.534222
#
# number of rings (size 3 to 8) (size 9 to 14) (size 15 to 20)
#    0.000    1.500    0.000    4.500    0.000    9.000 
#    0.000    0.000    0.000    0.000    0.000    0.000 
#    0.000    0.000    0.000    0.000    0.000    0.000 
#
# Total GULP energy -198450.753178 kJ/mol
# GULP energy per Si atom -12403.172074 kJ/mol
# Density = 2.148521 g / cm^3
# Si number density = 21.534222 Si / 1000 Ang^3
#
#
#
# Elastic Constant Matrix: (Units=GPa)
#
#
# Indices 1 2 3 4 5 6 
#
# 1 108.4221 59.1602 66.0653 0.0000 22.1796 0.0000
# 2 59.1602 81.7104 66.6294 0.0000 -7.0262 0.0000
# 3 66.0653 66.6294 144.9204 0.0000 12.4925 0.0000
# 4 0.0000 0.0000 0.0000 34.4266 0.0000 -1.6327
# 5 22.1796 -7.0262 12.4925 0.0000 53.4639 0.0000
# 6 0.0000 0.0000 0.0000 -1.6327 0.0000 23.4334
#
#
#
# Elastic Compliance Matrix: (Units=1/GPa)
#
#
# Indices 1 2 3 4 5 6 
#
# 1 0.019731 -0.013495 -0.001972 0.000000 -0.009498 0.000000
# 2 -0.013495 0.030079 -0.008675 0.000000 0.011578 0.000000
# 3 -0.001972 -0.008675 0.012058 0.000000 -0.003140 0.000000
# 4 0.000000 0.000000 0.000000 0.029144 0.000000 0.002031
# 5 -0.009498 0.011578 -0.003140 0.000000 0.024900 0.000000
# 6 0.000000 0.000000 0.000000 0.002031 0.000000 0.042816
#
#
# Mechanical properties :
#
#
# Convention : Reuss Voigt Hill
#
# Bulk Modulus (GPa) = 73.61236 79.86252 76.73744
# Shear Modulus (GPa) = 23.63638 31.81131 27.72384
#
# Velocity S-wave (km/s) = 3.31663 3.84766 3.59197
# Velocity P-wave (km/s) = 6.99463 7.54362 7.27430
#
# Compressibility (1/GPa) = 0.01358468
#
# Stress axis : x y z
#
# Youngs Moduli (GPa) = 50.68183 33.24632 82.92955
#
# Poissons Ratio (x) = 0.44865 0.16351
# Poissons Ratio (y) = 0.68393 0.71944
# Poissons Ratio (z) = 0.09993 0.28842
#
# Static dielectric constant tensor:
#      x y z
#    x 3.743920 0.000000 0.132040 
#    y 0.000000 3.861940 0.000000 
#    z 0.132040 0.000000 4.385900 
# 
# 
# High freq. dielectric constant tensor:
#      x y z
#    x 1.847750 0.000000 0.012470 
#    y 0.000000 1.831370 0.000000 
#    z 0.012470 0.000000 1.870170 
# 
# From -- ./inp_files/132004.got.cif
#   From: 2010.06.25/outbox.cif.g09.slc.cpg/sg15_67_cif.got.tgz:132004.got - 2010.06.28 07:06:18.
