data_PCOD8145108
_publ_section_title
;
Structure prediction by ZEFSAII (Michael W. Deem and Ramdas Pophale) SiO2 
 PCOD8145108
Probable space group: C 2/C
;
_chemical_formula_sum "Si O2"
_cell_formula_units_Z 48
_cell_length_a 19.938699
_cell_length_b 5.064063
_cell_length_c 28.885154
_cell_angle_alpha 90.000000
_cell_angle_beta 117.128827
_cell_angle_gamma 90.000000
_cell_volume 2595.688406
_symmetry_space_group_name_H-M "C 2/C"
_symmetry_group_IT_number 15
_symmetry_cell_setting 'monoclinic'
loop_
_space_group_symop_operation_xyz
x,y,z
-x,y,1/2-z
-x,-y,-z
x,-y,1/2+z
1/2+x,1/2+y,z
1/2-x,1/2+y,1/2-z
1/2-x,1/2-y,-z
1/2+x,1/2-y,1/2+z
loop_
_atom_site_type_symbol
_atom_site_label
_atom_site_fract_x
_atom_site_fract_y
_atom_site_fract_z
Si Si1 0.571782 0.803310 0.247424
Si Si2 0.101930 0.239603 0.892906
Si Si3 0.186622 0.723138 0.941946
Si Si4 0.776782 0.993381 0.286045
Si Si5 0.690147 0.975618 0.348484
Si Si6 0.065776 0.197915 0.687359
O O1 0.500000 0.928484 0.250000
O O2 0.637641 0.764837 0.305463
O O3 0.548731 0.519320 0.220901
O O4 0.595341 0.023915 0.216986
O O5 0.131363 0.476598 0.935376
O O6 0.136929 0.287407 0.852112
O O7 0.011021 0.238333 0.865592
O O8 0.132767 0.973854 0.924671
O O9 0.227016 0.676711 0.904228
O O10 0.250000 0.750000 0.000000
O O11 0.730095 0.744401 0.250438
O O12 0.750037 0.077602 0.329375
O O13 0.864438 0.915959 0.320410
#
# Coordination Sequence:
#
# PCOD8145108 Si02
#       6
#     8   8   8   8   8   8
#     4  12  21  32  55  82 118 154 189 231 279 346
#     4  10  22  37  61  85 111 147 198 238 299 339
#     4  10  22  40  63  86 108 143 202 264 295 330
#     4  12  24  36  53  82 126 165 189 220 281 359
#     4  10  23  35  57  83 115 152 196 228 288 350
#     4  12  22  36  53  84 122 156 185 232 281 353
#
# _framework density 18.492204999999998
#
# number of rings (size 3 to 8) (size 9 to 14) (size 15 to 20)
#    1.000    0.000    5.000    3.000    4.667    0.000 
#    0.000    0.000    0.000    2.000    0.000    0.000 
#    0.000    0.000    0.000    0.000    0.000    0.000 
#
# Total GULP energy -297352.686961 kJ/mol
# GULP energy per Si atom -12389.695290 kJ/mol
# Density = 1.845012 g / cm^3
# Si number density = 18.492205 Si / 1000 Ang^3
#
#
#
# Elastic Constant Matrix: (Units=GPa)
#
#
# Indices 1 2 3 4 5 6 
#
# 1 107.3855 6.7718 32.9416 -0.0005 10.4309 0.0004
# 2 6.7718 92.8468 19.4499 -0.0009 5.2012 0.0006
# 3 32.9416 19.4499 105.0413 -0.0005 14.9654 0.0008
# 4 -0.0005 -0.0009 -0.0005 15.7547 0.0003 8.6370
# 5 10.4309 5.2012 14.9654 0.0003 18.3416 0.0004
# 6 0.0004 0.0006 0.0008 8.6370 0.0004 25.4691
#
#
#
# Elastic Compliance Matrix: (Units=1/GPa)
#
#
# Indices 1 2 3 4 5 6 
#
# 1 0.010524 0.000022 -0.002773 0.000000 -0.003728 0.000000
# 2 0.000022 0.011251 -0.001849 0.000001 -0.001695 0.000000
# 3 -0.002773 -0.001849 0.011805 0.000001 -0.007531 0.000000
# 4 0.000000 0.000001 0.000001 0.077968 -0.000002 -0.026440
# 5 -0.003728 -0.001695 -0.007531 -0.000002 0.063266 0.000000
# 6 0.000000 0.000000 0.000000 -0.026440 0.000000 0.048230
#
#
# Mechanical properties :
#
#
# Convention : Reuss Voigt Hill
#
# Bulk Modulus (GPa) = 41.01698 47.06671 44.04185
# Shear Modulus (GPa) = 20.80124 28.32043 24.56083
#
# Velocity S-wave (km/s) = 3.35754 3.91766 3.64836
# Velocity P-wave (km/s) = 6.10406 6.78023 6.45101
#
# Compressibility (1/GPa) = 0.02438015
#
# Stress axis : x y z
#
# Youngs Moduli (GPa) = 95.02344 88.88071 84.70986
#
# Poissons Ratio (x) = -0.00198 0.23492
# Poissons Ratio (y) = -0.00212 0.15661
# Poissons Ratio (z) = 0.26352 0.16433
#
# Static dielectric constant tensor:
#      x y z
#    x 3.395850 0.000000 0.175040 
#    y 0.000000 3.453330 0.000010 
#    z 0.175040 0.000010 3.654160 
# 
# 
# High freq. dielectric constant tensor:
#      x y z
#    x 1.708940 0.000000 0.016950 
#    y 0.000000 1.733020 0.000000 
#    z 0.016950 0.000000 1.679080 
# 
# From -- ./inp_files/299787.got.cif
#   From: 2010.06.25/outbox.cif.g09.slc.cpg/sg15_150_cif.got.tgz:299787.got - 2010.06.28 07:06:18.
