data_PCOD8145679
_publ_section_title
;
Structure prediction by ZEFSAII (Michael W. Deem and Ramdas Pophale) SiO2 
 PCOD8145679
Probable space group: C 2/C
;
_chemical_formula_sum "Si O2"
_cell_formula_units_Z 48
_cell_length_a 32.349861
_cell_length_b 16.472863
_cell_length_c 16.314558
_cell_angle_alpha 90.000000
_cell_angle_beta 16.645731
_cell_angle_gamma 90.000000
_cell_volume 2490.407680
_symmetry_space_group_name_H-M "C 2/C"
_symmetry_group_IT_number 15
_symmetry_cell_setting 'monoclinic'
loop_
_space_group_symop_operation_xyz
x,y,z
-x,y,1/2-z
-x,-y,-z
x,-y,1/2+z
1/2+x,1/2+y,z
1/2-x,1/2+y,1/2-z
1/2-x,1/2-y,-z
1/2+x,1/2-y,1/2+z
loop_
_atom_site_type_symbol
_atom_site_label
_atom_site_fract_x
_atom_site_fract_y
_atom_site_fract_z
Si Si1 0.833165 0.581804 0.656930
Si Si2 0.664172 0.050244 0.030912
Si Si3 0.320880 0.574234 0.012554
Si Si4 0.853446 0.731518 0.728534
Si Si5 0.641111 0.400617 0.873684
Si Si6 0.833920 0.668751 0.328814
O O1 0.799026 0.593082 0.625439
O O2 0.797395 0.666246 0.769099
O O3 0.991837 0.542910 0.367532
O O4 0.725403 0.518622 0.901748
O O5 0.718013 0.107700 0.001278
O O6 0.743916 0.962684 0.886264
O O7 0.478769 0.567324 0.673211
O O8 0.318825 0.611747 0.107465
O O9 0.208284 0.629350 0.177153
O O10 0.865560 0.814604 0.657111
O O11 0.998789 0.692396 0.488250
O O12 0.750000 0.750000 0.000000
O O13 0.750000 0.750000 0.500000
#
# Coordination Sequence:
#
# PCOD8145679 Si02
#       6
#     8   8   8   8   8   8
#     4   9  21  41  62  86 116 162 195 241 295 362
#     4   9  21  38  65  85 119 156 202 238 301 352
#     4  10  22  39  65  86 120 156 202 240 302 351
#     4  11  25  39  60  89 123 154 200 248 299 345
#     4  10  22  41  62  88 120 159 194 249 298 355
#     4  11  23  39  61  91 118 158 201 245 292 358
#
# _framework density 19.273952000000001
#
# number of rings (size 3 to 8) (size 9 to 14) (size 15 to 20)
#    0.000    2.000    1.667    0.000    7.000    4.667 
#    0.000    0.000    0.000    0.000    0.000    0.000 
#    0.000    0.000    0.000    0.000    0.000    0.000 
#
# Total GULP energy -297513.445407 kJ/mol
# GULP energy per Si atom -12396.393559 kJ/mol
# Density = 1.923008 g / cm^3
# Si number density = 19.273952 Si / 1000 Ang^3
#
#
#
# Elastic Constant Matrix: (Units=GPa)
#
#
# Indices 1 2 3 4 5 6 
#
# 1 109.3505 72.5681 50.2773 0.0008 -5.1847 0.0008
# 2 72.5681 140.3471 80.8885 0.0014 7.2549 0.0005
# 3 50.2773 80.8885 100.9338 0.0013 12.6921 0.0005
# 4 0.0008 0.0014 0.0013 38.1760 -0.0011 -2.5922
# 5 -5.1847 7.2549 12.6921 -0.0011 22.1563 -0.0004
# 6 0.0008 0.0005 0.0005 -2.5922 -0.0004 35.6792
#
#
#
# Elastic Compliance Matrix: (Units=1/GPa)
#
#
# Indices 1 2 3 4 5 6 
#
# 1 0.015299 -0.006242 -0.003584 0.000000 0.007677 0.000000
# 2 -0.006242 0.015860 -0.009445 0.000000 -0.001243 0.000000
# 3 -0.003584 -0.009445 0.020452 -0.000001 -0.009462 0.000000
# 4 0.000000 0.000000 -0.000001 0.026324 0.000002 0.001913
# 5 0.007677 -0.001243 -0.009462 0.000002 0.052757 0.000001
# 6 0.000000 0.000000 0.000000 0.001913 0.000001 0.028166
#
#
# Mechanical properties :
#
#
# Convention : Reuss Voigt Hill
#
# Bulk Modulus (GPa) = 76.51310 84.23324 80.37317
# Shear Modulus (GPa) = 24.78221 28.99546 26.88883
#
# Velocity S-wave (km/s) = 3.58968 3.88285 3.73914
# Velocity P-wave (km/s) = 7.54751 7.99375 7.77383
#
# Compressibility (1/GPa) = 0.01306966
#
# Stress axis : x y z
#
# Youngs Moduli (GPa) = 65.36414 63.04976 48.89540
#
# Poissons Ratio (x) = 0.39354 0.17524
# Poissons Ratio (y) = 0.40799 0.46182
# Poissons Ratio (z) = 0.23426 0.59551
#
# Static dielectric constant tensor:
#      x y z
#    x 3.561290 0.000000 -0.130680 
#    y 0.000000 3.512260 0.000000 
#    z -0.130680 0.000000 3.420100 
# 
# 
# High freq. dielectric constant tensor:
#      x y z
#    x 1.761000 0.000000 -0.001660 
#    y 0.000000 1.755360 0.000000 
#    z -0.001660 0.000000 1.748370 
# 
# From -- ./inp_files/182450.got.cif
#   From: 2010.06.25/outbox.cif.g09.slc.cpg/sg15_92_cif.got.tgz:182450.got - 2010.06.28 07:06:18.
