data_PCOD8145579
_publ_section_title
;
Structure prediction by ZEFSAII (Michael W. Deem and Ramdas Pophale) SiO2 
 PCOD8145579
Probable space group: C 2/C
;
_chemical_formula_sum "Si O2"
_cell_formula_units_Z 32
_cell_length_a 13.304705
_cell_length_b 6.612915
_cell_length_c 19.769432
_cell_angle_alpha 90.000000
_cell_angle_beta 113.395120
_cell_angle_gamma 90.000000
_cell_volume 1596.375187
_symmetry_space_group_name_H-M "C 2/C"
_symmetry_group_IT_number 15
_symmetry_cell_setting 'monoclinic'
loop_
_space_group_symop_operation_xyz
x,y,z
-x,y,1/2-z
-x,-y,-z
x,-y,1/2+z
1/2+x,1/2+y,z
1/2-x,1/2+y,1/2-z
1/2-x,1/2-y,-z
1/2+x,1/2-y,1/2+z
loop_
_atom_site_type_symbol
_atom_site_label
_atom_site_fract_x
_atom_site_fract_y
_atom_site_fract_z
Si Si1 0.908190 0.644976 0.277336
Si Si2 0.574475 0.131931 0.596447
Si Si3 0.303519 0.521656 0.834143
Si Si4 0.847294 0.708260 0.473499
O O1 0.959579 0.531796 0.356050
O O2 0.824911 0.498108 0.215538
O O3 0.853753 0.853970 0.285677
O O4 0.000000 0.711090 0.250000
O O5 0.647827 0.298325 0.651663
O O6 0.465770 0.241308 0.539225
O O7 0.646927 0.018431 0.557348
O O8 0.326757 0.626364 0.911178
O O9 0.750000 0.750000 0.500000
#
# Coordination Sequence:
#
# PCOD8145579 Si02
#       4
#     8   8   8   8
#     4  11  23  39  61  90 124 165 204 253 308 357
#     4  10  22  40  60  88 127 155 205 257 295 366
#     4  11  22  40  61  89 126 160 207 253 299 368
#     4  10  22  39  62  90 120 162 203 250 307 358
#
# _framework density 20.045414000000001
#
# number of rings (size 3 to 8) (size 9 to 14) (size 15 to 20)
#    0.000    1.500    2.500    2.250    0.000    4.000 
#    0.000    0.000    0.000    0.000    0.000    0.000 
#    0.000    0.000    0.000    0.000    0.000    0.000 
#
# Total GULP energy -198378.745012 kJ/mol
# GULP energy per Si atom -12398.671563 kJ/mol
# Density = 1.999979 g / cm^3
# Si number density = 20.045414 Si / 1000 Ang^3
#
#
#
# Elastic Constant Matrix: (Units=GPa)
#
#
# Indices 1 2 3 4 5 6 
#
# 1 152.7652 46.7138 49.6345 0.0000 -15.8837 0.0000
# 2 46.7138 79.4999 28.0341 0.0000 -1.7707 0.0000
# 3 49.6345 28.0341 100.1551 0.0000 8.5961 0.0000
# 4 0.0000 0.0000 0.0000 41.1502 0.0000 5.3323
# 5 -15.8837 -1.7707 8.5961 0.0000 29.9043 0.0000
# 6 0.0000 0.0000 0.0000 5.3323 0.0000 22.1575
#
#
#
# Elastic Compliance Matrix: (Units=1/GPa)
#
#
# Indices 1 2 3 4 5 6 
#
# 1 0.009838 -0.004145 -0.004248 0.000000 0.006201 0.000000
# 2 -0.004145 0.015820 -0.002323 0.000000 -0.000597 0.000000
# 3 -0.004248 -0.002323 0.013273 0.000000 -0.006209 0.000000
# 4 0.000000 0.000000 0.000000 0.025083 0.000000 -0.006036
# 5 0.006201 -0.000597 -0.006209 0.000000 0.038483 0.000000
# 6 0.000000 0.000000 0.000000 -0.006036 0.000000 0.046584
#
#
# Mechanical properties :
#
#
# Convention : Reuss Voigt Hill
#
# Bulk Modulus (GPa) = 57.14230 64.57612 60.85921
# Shear Modulus (GPa) = 28.35335 32.51158 30.43247
#
# Velocity S-wave (km/s) = 3.76501 4.03165 3.90060
# Velocity P-wave (km/s) = 6.88975 7.34555 7.12130
#
# Compressibility (1/GPa) = 0.01750017
#
# Stress axis : x y z
#
# Youngs Moduli (GPa) = 101.64294 63.21131 75.34305
#
# Poissons Ratio (x) = 0.26201 0.32003
# Poissons Ratio (y) = 0.42131 0.17500
# Poissons Ratio (z) = 0.43175 0.14682
#
# Static dielectric constant tensor:
#      x y z
#    x 3.474470 0.000000 0.019420 
#    y 0.000000 3.627010 0.000000 
#    z 0.019420 0.000000 3.877680 
# 
# 
# High freq. dielectric constant tensor:
#      x y z
#    x 1.767520 0.000000 0.003800 
#    y 0.000000 1.784250 0.000000 
#    z 0.003800 0.000000 1.806780 
# 
# From -- ./inp_files/201806.got.cif
#   From: 2010.06.25/outbox.cif.g09.slc.cpg/sg15_101_cif.got.tgz:201806.got - 2010.06.28 07:06:18.
