data_PCOD8145083
_publ_section_title
;
Structure prediction by ZEFSAII (Michael W. Deem and Ramdas Pophale) SiO2 
 PCOD8145083
Probable space group: C 2/C
;
_chemical_formula_sum "Si O2"
_cell_formula_units_Z 40
_cell_length_a 6.531099
_cell_length_b 21.604129
_cell_length_c 13.133674
_cell_angle_alpha 90.000000
_cell_angle_beta 128.472347
_cell_angle_gamma 90.000000
_cell_volume 1450.842526
_symmetry_space_group_name_H-M "C 2/C"
_symmetry_group_IT_number 15
_symmetry_cell_setting 'monoclinic'
loop_
_space_group_symop_operation_xyz
x,y,z
-x,y,1/2-z
-x,-y,-z
x,-y,1/2+z
1/2+x,1/2+y,z
1/2-x,1/2+y,1/2-z
1/2-x,1/2-y,-z
1/2+x,1/2-y,1/2+z
loop_
_atom_site_type_symbol
_atom_site_label
_atom_site_fract_x
_atom_site_fract_y
_atom_site_fract_z
Si Si1 0.115319 0.082198 0.052303
Si Si2 0.911174 0.692991 0.428169
Si Si3 0.147534 0.977942 0.200944
Si Si4 0.651082 0.710847 0.143802
Si Si5 0.544149 0.933187 0.466230
O O1 0.083498 0.062749 0.924529
O O2 0.830758 0.076864 0.013474
O O3 0.229239 0.150984 0.099582
O O4 0.276443 0.029592 0.165486
O O5 0.880340 0.718015 0.301198
O O6 0.626330 0.700144 0.389238
O O7 0.126800 0.732040 0.558098
O O8 0.003098 0.620823 0.463218
O O9 0.360780 0.929154 0.308938
O O10 0.000000 0.011994 0.250000
O O11 0.500000 0.000000 0.500000
#
# Coordination Sequence:
#
# PCOD8145083 Si02
#       5
#     8   8   8   8   8
#     4  10  22  37  58  87 119 158 198 251 300 359
#     4   9  19  31  56  86 119 154 192 249 300 351
#     4  11  22  37  58  86 118 157 201 249 305 358
#     4   9  18  34  54  85 120 151 196 248 299 346
#     4  11  20  35  60  87 120 157 198 244 304 363
#
# _framework density 27.570187000000001
#
# number of rings (size 3 to 8) (size 9 to 14) (size 15 to 20)
#    0.000    2.000    2.000    1.800    5.600    0.000 
#    0.000    0.000    0.000    1.200    0.000    0.000 
#    0.000    0.000    0.000    0.000    0.000    0.000 
#
# Total GULP energy -247922.807232 kJ/mol
# GULP energy per Si atom -12396.140362 kJ/mol
# Density = 2.750744 g / cm^3
# Si number density = 27.570187 Si / 1000 Ang^3
#
#
#
# Elastic Constant Matrix: (Units=GPa)
#
#
# Indices 1 2 3 4 5 6 
#
# 1 24.2678 6.3942 37.8338 0.0000 -5.3204 0.0000
# 2 6.3942 198.5483 107.1002 0.0000 -6.8260 0.0000
# 3 37.8338 107.1002 239.6358 0.0000 -14.5089 0.0000
# 4 0.0000 0.0000 0.0000 49.2655 0.0000 -2.6726
# 5 -5.3204 -6.8260 -14.5089 0.0000 49.8313 0.0000
# 6 0.0000 0.0000 0.0000 -2.6726 0.0000 24.2753
#
#
#
# Elastic Compliance Matrix: (Units=1/GPa)
#
#
# Indices 1 2 3 4 5 6 
#
# 1 0.057569 0.004025 -0.010671 0.000000 0.003591 0.000000
# 2 0.004025 0.006918 -0.003709 0.000000 0.000297 0.000000
# 3 -0.010671 -0.003709 0.007549 0.000000 0.000551 0.000000
# 4 0.000000 0.000000 0.000000 0.020420 0.000000 0.002248
# 5 0.003591 0.000297 0.000551 0.000000 0.020652 0.000000
# 6 0.000000 0.000000 0.000000 0.002248 0.000000 0.041442
#
#
# Mechanical properties :
#
#
# Convention : Reuss Voigt Hill
#
# Bulk Modulus (GPa) = 19.48298 85.01205 52.24751
# Shear Modulus (GPa) = 25.99175 45.41598 35.70387
#
# Velocity S-wave (km/s) = 3.07375 4.06308 3.60254
# Velocity P-wave (km/s) = 4.43613 7.27415 6.02464
#
# Compressibility (1/GPa) = 0.05132686
#
# Stress axis : x y z
#
# Youngs Moduli (GPa) = 17.37034 144.54914 132.47004
#
# Poissons Ratio (x) = -0.58187 1.41355
# Poissons Ratio (y) = -0.06992 0.49139
# Poissons Ratio (z) = 0.18535 0.53619
#
# Static dielectric constant tensor:
#      x y z
#    x 5.410100 0.000000 0.042790 
#    y 0.000000 4.636580 0.000000 
#    z 0.042790 0.000000 6.168980 
# 
# 
# High freq. dielectric constant tensor:
#      x y z
#    x 2.160410 0.000000 0.003450 
#    y 0.000000 2.079380 0.000000 
#    z 0.003450 0.000000 2.131210 
# 
# From -- ./inp_files/136304.got.cif
#   From: 2010.06.25/outbox.cif.g09.slc.cpg/sg15_69_cif.got.tgz:136304.got - 2010.06.28 07:06:18.
