data_PCOD8145486
_publ_section_title
;
Structure prediction by ZEFSAII (Michael W. Deem and Ramdas Pophale) SiO2 
 PCOD8145486
Probable space group: C 2/C
;
_chemical_formula_sum "Si O2"
_cell_formula_units_Z 40
_cell_length_a 8.780839
_cell_length_b 23.435075
_cell_length_c 9.425487
_cell_angle_alpha 90.000000
_cell_angle_beta 78.524946
_cell_angle_gamma 90.000000
_cell_volume 1900.803815
_symmetry_space_group_name_H-M "C 2/C"
_symmetry_group_IT_number 15
_symmetry_cell_setting 'monoclinic'
loop_
_space_group_symop_operation_xyz
x,y,z
-x,y,1/2-z
-x,-y,-z
x,-y,1/2+z
1/2+x,1/2+y,z
1/2-x,1/2+y,1/2-z
1/2-x,1/2-y,-z
1/2+x,1/2-y,1/2+z
loop_
_atom_site_type_symbol
_atom_site_label
_atom_site_fract_x
_atom_site_fract_y
_atom_site_fract_z
Si Si1 0.613914 0.822200 0.598212
Si Si2 0.244727 0.060799 0.489728
Si Si3 0.449245 0.274305 0.597299
Si Si4 0.054121 0.124672 0.900190
Si Si5 0.821027 0.543967 0.783734
O O1 0.500000 0.821228 0.750000
O O2 0.637179 0.886255 0.539285
O O3 0.542031 0.786959 0.480438
O O4 0.774439 0.796450 0.623670
O O5 0.261792 0.030994 0.637689
O O6 0.066889 0.081088 0.503583
O O7 0.292233 0.015721 0.364153
O O8 0.500000 0.267921 0.750000
O O9 0.562532 0.317724 0.491255
O O10 0.223356 0.095752 0.871286
O O11 0.000000 0.140225 0.750000
O O12 0.000000 0.562088 0.750000
#
# Coordination Sequence:
#
# PCOD8145486 Si02
#       5
#     8   8   8   8   8
#     4  10  22  41  61  86 124 161 198 250 304 359
#     4  10  22  39  58  85 122 162 199 244 303 360
#     4  10  22  39  63  92 119 156 204 250 303 365
#     4   9  20  39  61  86 123 162 196 246 306 364
#     4  11  22  36  58  87 120 158 203 248 294 356
#
# _framework density 21.043731000000001
#
# number of rings (size 3 to 8) (size 9 to 14) (size 15 to 20)
#    0.000    2.000    0.000    2.400    0.000    8.000 
#    0.000    1.000    0.000    0.000    0.000    0.000 
#    0.000    0.000    0.000    0.000    0.000    0.000 
#
# Total GULP energy -248062.967140 kJ/mol
# GULP energy per Si atom -12403.148357 kJ/mol
# Density = 2.099583 g / cm^3
# Si number density = 21.043731 Si / 1000 Ang^3
#
#
#
# Elastic Constant Matrix: (Units=GPa)
#
#
# Indices 1 2 3 4 5 6 
#
# 1 88.9656 62.6651 61.5400 0.0000 -7.4953 0.0000
# 2 62.6651 153.6377 99.4100 0.0000 -2.1900 0.0000
# 3 61.5400 99.4100 145.4203 0.0000 -8.8522 0.0000
# 4 0.0000 0.0000 0.0000 -9.8851 0.0000 24.5149
# 5 -7.4953 -2.1900 -8.8522 0.0000 35.0837 0.0000
# 6 0.0000 0.0000 0.0000 24.5149 0.0000 0.0576
#
#
#
# Elastic Compliance Matrix: (Units=1/GPa)
#
#
# Indices 1 2 3 4 5 6 
#
# 1 0.017441 -0.004300 -0.004297 0.000000 0.002374 0.000000
# 2 -0.004300 0.012790 -0.007039 0.000000 -0.001896 0.000000
# 3 -0.004297 -0.007039 0.013634 0.000000 0.002083 0.000000
# 4 0.000000 0.000000 0.000000 -0.000096 0.000000 0.040753
# 5 0.002374 -0.001896 0.002083 0.000000 0.029417 0.000000
# 6 0.000000 0.000000 0.000000 0.040753 0.000000 0.016433
#
#
# Mechanical properties :
#
#
# Convention : Reuss Voigt Hill
#
# Bulk Modulus (GPa) = 79.40764 92.80597 86.10681
# Shear Modulus (GPa) = 39.97115 16.01181 27.99148
#
# Velocity S-wave (km/s) = 4.36298 2.76140 3.65109
# Velocity P-wave (km/s) = 7.94967 7.37322 7.66686
#
# Compressibility (1/GPa) = 0.01259325
#
# Stress axis : x y z
#
# Youngs Moduli (GPa) = 57.33524 78.18450 73.34547
#
# Poissons Ratio (x) = 0.33616 0.31518
# Poissons Ratio (y) = 0.24652 0.51631
# Poissons Ratio (z) = 0.24638 0.55037
#
# Static dielectric constant tensor:
#      x y z
#    x 3.805690 0.000000 -0.227690 
#    y 0.000000 3.849160 0.000000 
#    z -0.227690 0.000000 3.867490 
# 
# 
# High freq. dielectric constant tensor:
#      x y z
#    x 1.818850 0.000000 -0.016160 
#    y 0.000000 1.828550 0.000000 
#    z -0.016160 0.000000 1.835030 
# 
# From -- ./inp_files/23399.got.cif
#   From: 2010.06.25/outbox.cif.g09.slc.cpg/sg15_12_cif.got.tgz:23399.got - 2010.06.28 07:06:18.
