data_PCOD8145361
_publ_section_title
;
Structure prediction by ZEFSAII (Michael W. Deem and Ramdas Pophale) SiO2 
 PCOD8145361
Probable space group: C 2/C
;
_chemical_formula_sum "Si O2"
_cell_formula_units_Z 60
_cell_length_a 9.814895
_cell_length_b 20.845796
_cell_length_c 23.415343
_cell_angle_alpha 90.000000
_cell_angle_beta 137.921878
_cell_angle_gamma 90.000000
_cell_volume 3210.497336
_symmetry_space_group_name_H-M "C 2/C"
_symmetry_group_IT_number 15
_symmetry_cell_setting 'monoclinic'
loop_
_space_group_symop_operation_xyz
x,y,z
-x,y,1/2-z
-x,-y,-z
x,-y,1/2+z
1/2+x,1/2+y,z
1/2-x,1/2+y,1/2-z
1/2-x,1/2-y,-z
1/2+x,1/2-y,1/2+z
loop_
_atom_site_type_symbol
_atom_site_label
_atom_site_fract_x
_atom_site_fract_y
_atom_site_fract_z
Si Si1 0.190306 0.351360 0.226586
Si Si2 0.060180 0.224713 0.328948
Si Si3 0.130567 0.871193 0.944801
Si Si4 0.430025 0.499433 0.413578
Si Si5 0.411560 0.843579 0.431186
Si Si6 0.584544 0.366574 0.416424
Si Si7 0.000000 0.545981 0.750000
Si Si8 0.472502 0.284942 0.484834
O O1 0.203111 0.362844 0.162695
O O2 0.414934 0.339685 0.320577
O O3 0.076931 0.410683 0.221477
O O4 0.065826 0.288085 0.199828
O O5 0.012112 0.173522 0.363121
O O6 0.295353 0.244581 0.399699
O O7 0.000000 0.192925 0.250000
O O8 0.021255 0.939544 0.909083
O O9 0.365841 0.875326 0.000358
O O10 0.120949 0.840726 0.004851
O O11 0.500000 0.500000 0.500000
O O12 0.524641 0.437177 0.415331
O O13 0.184343 0.498503 0.330613
O O14 0.297638 0.872709 0.450361
O O15 0.407128 0.765881 0.438073
O O16 0.608435 0.318983 0.478379
#
# Coordination Sequence:
#
# PCOD8145361 Si02
#       8
#     8   8   8   8   8   8   4   8
#     4  11  18  35  61  85 114 145 197 249 294 339
#     4  11  18  34  60  87 112 150 195 242 295 351
#     4  11  22  37  60  86 118 158 197 234 295 360
#     4  11  22  41  64  85 119 162 204 241 289 360
#     4  11  22  36  56  91 121 147 188 252 304 343
#     4  11  23  36  58  90 118 152 199 246 293 348
#     4  10  22  38  64  94 108 150 216 252 276 352
#     4  11  19  36  60  86 115 148 201 247 284 357
#
# _framework density 18.688693000000001
#
# number of rings (size 3 to 8) (size 9 to 14) (size 15 to 20)
#    0.000    1.067    6.000    3.200    0.000    0.533 
#    0.000    6.667    0.000    0.000    0.000    0.000 
#    0.000    0.000    0.000    0.000    0.000    0.000 
#
# Total GULP energy -372013.785142 kJ/mol
# GULP energy per Si atom -12400.459505 kJ/mol
# Density = 1.864616 g / cm^3
# Si number density = 18.688693 Si / 1000 Ang^3
#
#
#
# Elastic Constant Matrix: (Units=GPa)
#
#
# Indices 1 2 3 4 5 6 
#
# 1 123.2887 29.1688 46.5444 -0.0001 -6.1900 0.0000
# 2 29.1688 79.9957 36.3313 -0.0002 -1.5295 0.0000
# 3 46.5444 36.3313 104.8927 -0.0002 -12.9848 -0.0002
# 4 -0.0001 -0.0002 -0.0002 28.1234 -0.0002 0.6488
# 5 -6.1900 -1.5295 -12.9848 -0.0002 30.2355 -0.0001
# 6 0.0000 0.0000 -0.0002 0.6488 -0.0001 22.3325
#
#
#
# Elastic Compliance Matrix: (Units=1/GPa)
#
#
# Indices 1 2 3 4 5 6 
#
# 1 0.009993 -0.001950 -0.003715 0.000000 0.000352 0.000000
# 2 -0.001950 0.015283 -0.004628 0.000000 -0.001614 0.000000
# 3 -0.003715 -0.004628 0.013373 0.000000 0.004748 0.000000
# 4 0.000000 0.000000 0.000000 0.035581 0.000000 -0.001034
# 5 0.000352 -0.001614 0.004748 0.000000 0.035103 0.000000
# 6 0.000000 0.000000 0.000000 -0.001034 0.000000 0.044808
#
#
# Mechanical properties :
#
#
# Convention : Reuss Voigt Hill
#
# Bulk Modulus (GPa) = 55.36359 59.14068 57.25213
# Shear Modulus (GPa) = 27.66297 29.21378 28.43838
#
# Velocity S-wave (km/s) = 3.85151 3.95800 3.90512
# Velocity P-wave (km/s) = 7.03330 7.25269 7.14383
#
# Compressibility (1/GPa) = 0.01806241
#
# Stress axis : x y z
#
# Youngs Moduli (GPa) = 100.07482 65.43397 74.77783
#
# Poissons Ratio (x) = 0.12756 0.27782
# Poissons Ratio (y) = 0.19510 0.34608
# Poissons Ratio (z) = 0.37180 0.30283
#
# Static dielectric constant tensor:
#      x y z
#    x 3.579060 0.000000 -0.539620 
#    y 0.000000 3.631910 0.000000 
#    z -0.539620 0.000000 11.453700 
# 
# 
# High freq. dielectric constant tensor:
#      x y z
#    x 1.726460 0.000000 -0.010750 
#    y 0.000000 1.712050 0.000000 
#    z -0.010750 0.000000 1.730290 
# 
# From -- ./inp_files/192117.got.cif
#   From: 2010.06.25/outbox.cif.g09.slc.cpg/sg15_97_cif.got.tgz:192117.got - 2010.06.28 07:06:18.
