data_PCOD8145044
_publ_section_title
;
Structure prediction by ZEFSAII (Michael W. Deem and Ramdas Pophale) SiO2 
 PCOD8145044
Probable space group: C 2/C
;
_chemical_formula_sum "Si O2"
_cell_formula_units_Z 60
_cell_length_a 26.796717
_cell_length_b 15.792126
_cell_length_c 20.700596
_cell_angle_alpha 90.000000
_cell_angle_beta 19.458098
_cell_angle_gamma 90.000000
_cell_volume 2918.114610
_symmetry_space_group_name_H-M "C 2/C"
_symmetry_group_IT_number 15
_symmetry_cell_setting 'monoclinic'
loop_
_space_group_symop_operation_xyz
x,y,z
-x,y,1/2-z
-x,-y,-z
x,-y,1/2+z
1/2+x,1/2+y,z
1/2-x,1/2+y,1/2-z
1/2-x,1/2-y,-z
1/2+x,1/2-y,1/2+z
loop_
_atom_site_type_symbol
_atom_site_label
_atom_site_fract_x
_atom_site_fract_y
_atom_site_fract_z
Si Si1 0.596597 0.468252 0.441682
Si Si2 0.000000 0.829824 0.750000
Si Si3 0.518173 0.808810 0.481926
Si Si4 0.252765 0.316660 0.301667
Si Si5 0.218111 0.714962 0.405419
Si Si6 0.872399 0.446791 0.953186
Si Si7 0.124601 0.569952 0.429444
Si Si8 0.158123 0.927245 0.656544
O O1 0.500000 0.500000 0.500000
O O2 0.649372 0.372955 0.366162
O O3 0.734773 0.531858 0.280742
O O4 0.497784 0.463578 0.625868
O O5 0.080516 0.773278 0.597229
O O6 0.127299 0.892319 0.622928
O O7 0.353211 0.766211 0.691548
O O8 0.591971 0.804034 0.463090
O O9 0.632430 0.765682 0.293246
O O10 0.496277 0.905211 0.479275
O O11 0.220092 0.366244 0.408242
O O12 0.163520 0.662955 0.409747
O O13 0.265348 0.651180 0.402491
O O14 0.000000 0.412708 0.750000
O O15 0.922771 0.506021 0.953804
O O16 0.773757 0.496670 0.021074
#
# Coordination Sequence:
#
# PCOD8145044 Si02
#       8
#     8   4   8   8   8   8   8   8
#     4  11  18  41  62  86 121 167 209 246 315 355
#     4  12  26  36  52  98 128 170 198 246 300 384
#     4  12  22  39  65 102 121 154 210 265 316 349
#     4  11  23  40  66  93 126 159 207 264 309 369
#     4  11  21  37  59  88 135 159 202 240 310 369
#     4  10  24  42  61  83 125 171 205 245 310 374
#     4  10  22  36  66  92 118 164 200 258 299 373
#     4  11  22  38  61  81 127 172 200 242 303 379
#
# _framework density 20.561222000000001
#
# number of rings (size 3 to 8) (size 9 to 14) (size 15 to 20)
#    0.000    1.067    6.667    2.000    5.600    2.133 
#    2.400    0.667    0.000    0.000    0.000    0.000 
#    0.000    0.000    0.000    0.000    0.000    0.000 
#
# Total GULP energy -371688.635673 kJ/mol
# GULP energy per Si atom -12389.621189 kJ/mol
# Density = 2.051442 g / cm^3
# Si number density = 20.561222 Si / 1000 Ang^3
#
#
#
# Elastic Constant Matrix: (Units=GPa)
#
#
# Indices 1 2 3 4 5 6 
#
# 1 46.1638 18.6810 2.4453 -0.0008 -16.3621 0.0009
# 2 18.6810 57.8265 17.5323 -0.0023 1.2859 0.0009
# 3 2.4453 17.5323 67.3814 -0.0032 7.3188 0.0024
# 4 -0.0008 -0.0023 -0.0032 32.5663 0.0009 -6.9911
# 5 -16.3621 1.2859 7.3188 0.0009 30.7806 -0.0008
# 6 0.0009 0.0009 0.0024 -6.9911 -0.0008 10.1479
#
#
#
# Elastic Compliance Matrix: (Units=1/GPa)
#
#
# Indices 1 2 3 4 5 6 
#
# 1 0.032289 -0.010733 -0.000300 -0.000001 0.017684 -0.000001
# 2 -0.010733 0.022347 -0.004829 0.000001 -0.005491 0.000000
# 3 -0.000300 -0.004829 0.016530 0.000001 -0.003888 -0.000003
# 4 -0.000001 0.000001 0.000001 0.036036 -0.000001 0.024826
# 5 0.017684 -0.005491 -0.003888 -0.000001 0.043042 0.000003
# 6 -0.000001 0.000000 -0.000003 0.024826 0.000003 0.115645
#
#
# Mechanical properties :
#
#
# Convention : Reuss Voigt Hill
#
# Bulk Modulus (GPa) = 25.35324 27.63212 26.49268
# Shear Modulus (GPa) = 16.08958 23.54652 19.81805
#
# Velocity S-wave (km/s) = 2.80039 3.38774 3.10797
# Velocity P-wave (km/s) = 4.77636 5.36381 5.07859
#
# Compressibility (1/GPa) = 0.03944269
#
# Stress axis : x y z
#
# Youngs Moduli (GPa) = 30.97023 44.74951 60.49440
#
# Poissons Ratio (x) = 0.48031 0.01814
# Poissons Ratio (y) = 0.33242 0.29210
# Poissons Ratio (z) = 0.00928 0.21607
#
# Static dielectric constant tensor:
#      x y z
#    x 3.110050 -0.000180 -1.672340 
#    y -0.000180 4.241970 -0.000350 
#    z -1.672340 -0.000350 0.609970 
# 
# 
# High freq. dielectric constant tensor:
#      x y z
#    x 1.790620 0.000000 -0.015740 
#    y 0.000000 1.798450 0.000000 
#    z -0.015740 0.000000 1.799440 
# 
# From -- ./inp_files/257862.got.cif
#   From: 2010.06.25/outbox.cif.g09.slc.cpg/sg15_129_cif.got.tgz:257862.got - 2010.06.28 07:06:18.
