data_PCOD8145495
_publ_section_title
;
Structure prediction by ZEFSAII (Michael W. Deem and Ramdas Pophale) SiO2 
 PCOD8145495
Probable space group: C 2/C
;
_chemical_formula_sum "Si O2"
_cell_formula_units_Z 64
_cell_length_a 25.454362
_cell_length_b 9.004506
_cell_length_c 19.929883
_cell_angle_alpha 90.000000
_cell_angle_beta 133.516387
_cell_angle_gamma 90.000000
_cell_volume 3312.616481
_symmetry_space_group_name_H-M "C 2/C"
_symmetry_group_IT_number 15
_symmetry_cell_setting 'monoclinic'
loop_
_space_group_symop_operation_xyz
x,y,z
-x,y,1/2-z
-x,-y,-z
x,-y,1/2+z
1/2+x,1/2+y,z
1/2-x,1/2+y,1/2-z
1/2-x,1/2-y,-z
1/2+x,1/2-y,1/2+z
loop_
_atom_site_type_symbol
_atom_site_label
_atom_site_fract_x
_atom_site_fract_y
_atom_site_fract_z
Si Si1 0.415500 0.709754 0.977686
Si Si2 0.453975 0.671882 0.868178
Si Si3 0.919759 0.128745 0.697921
Si Si4 0.344252 0.318538 0.645960
Si Si5 0.613696 0.364403 0.540441
Si Si6 0.677927 0.137371 0.000276
Si Si7 0.425512 0.673333 0.349707
Si Si8 0.180713 0.709958 0.483271
O O1 0.409756 0.737243 0.892364
O O2 0.391013 0.541793 0.973016
O O3 0.363011 0.824729 0.967230
O O4 0.496970 0.751904 0.072449
O O5 0.420590 0.724408 0.768022
O O6 0.538584 0.709917 0.949762
O O7 0.445579 0.496096 0.856778
O O8 0.892237 0.243494 0.618817
O O9 0.000000 0.071255 0.750000
O O10 0.866272 0.987974 0.650971
O O11 0.363407 0.215596 0.598774
O O12 0.258809 0.303455 0.581199
O O13 0.384194 0.259784 0.748562
O O14 0.624866 0.315463 0.627965
O O15 0.679643 0.298055 0.553774
O O16 0.678103 0.963042 0.992490
O O17 0.250000 0.750000 0.500000
#
# Coordination Sequence:
#
# PCOD8145495 Si02
#       8
#     8   8   8   8   8   8   8   8
#     4   9  18  36  63  88 110 145 193 244 290 337
#     4   8  16  33  62  90 108 141 199 243 276 337
#     4  11  20  38  68  87 108 155 202 234 278 351
#     4  10  22  39  59  84 115 149 200 240 285 345
#     4   9  17  36  62  83 114 149 191 239 286 345
#     4  11  24  38  54  83 124 157 185 242 300 341
#     4   8  17  35  61  90 107 143 200 243 277 339
#     4  12  24  40  55  83 122 159 192 237 298 349
#
# _framework density 19.320074999999999
#
# number of rings (size 3 to 8) (size 9 to 14) (size 15 to 20)
#    0.000    2.250    2.500    2.250    5.250    0.000 
#    4.500    3.750    0.000    0.000    0.000    0.000 
#    0.000    0.000    0.000    0.000    0.000    0.000 
#
# Total GULP energy -396619.272392 kJ/mol
# GULP energy per Si atom -12394.352262 kJ/mol
# Density = 1.927610 g / cm^3
# Si number density = 19.320075 Si / 1000 Ang^3
#
#
#
# Elastic Constant Matrix: (Units=GPa)
#
#
# Indices 1 2 3 4 5 6 
#
# 1 137.3021 34.2333 35.1012 0.0000 -16.7734 0.0000
# 2 34.2333 60.9318 15.4080 0.0000 -8.4999 0.0000
# 3 35.1012 15.4080 90.3823 0.0000 -19.4031 0.0000
# 4 0.0000 0.0000 0.0000 16.8462 0.0000 -1.9921
# 5 -16.7734 -8.4999 -19.4031 0.0000 31.4510 0.0000
# 6 0.0000 0.0000 0.0000 -1.9921 0.0000 32.1070
#
#
#
# Elastic Compliance Matrix: (Units=1/GPa)
#
#
# Indices 1 2 3 4 5 6 
#
# 1 0.009234 -0.004268 -0.002362 0.000000 0.002314 0.000000
# 2 -0.004268 0.019419 -0.001170 0.000000 0.002250 0.000000
# 3 -0.002362 -0.001170 0.013650 0.000000 0.006846 0.000000
# 4 0.000000 0.000000 0.000000 0.059799 0.000000 0.003710
# 5 0.002314 0.002250 0.006846 0.000000 0.037861 0.000000
# 6 0.000000 0.000000 0.000000 0.003710 0.000000 0.031376
#
#
# Mechanical properties :
#
#
# Convention : Reuss Voigt Hill
#
# Bulk Modulus (GPa) = 37.44681 50.90012 44.17347
# Shear Modulus (GPa) = 25.53100 29.67242 27.60171
#
# Velocity S-wave (km/s) = 3.63915 3.92322 3.78386
# Velocity P-wave (km/s) = 6.08953 6.85019 6.48103
#
# Compressibility (1/GPa) = 0.02670454
#
# Stress axis : x y z
#
# Youngs Moduli (GPa) = 108.29834 51.49510 73.25808
#
# Poissons Ratio (x) = 0.21977 0.17301
# Poissons Ratio (y) = 0.46219 0.08571
# Poissons Ratio (z) = 0.25577 0.06025
#
# Static dielectric constant tensor:
#      x y z
#    x 3.837150 0.000000 -0.390220 
#    y 0.000000 3.134090 0.000000 
#    z -0.390220 0.000000 4.037050 
# 
# 
# High freq. dielectric constant tensor:
#      x y z
#    x 1.765770 0.000000 -0.018400 
#    y 0.000000 1.709830 0.000000 
#    z -0.018400 0.000000 1.747920 
# 
# From -- ./inp_files/255048.got.cif
#   From: 2010.06.25/outbox.cif.g09.slc.cpg/sg15_128_cif.got.tgz:255048.got - 2010.06.28 07:06:18.
