data_PCOD8145969
_publ_section_title
;
Structure prediction by ZEFSAII (Michael W. Deem and Ramdas Pophale) SiO2 
 PCOD8145969
Probable space group: C 2/C
;
_chemical_formula_sum "Si O2"
_cell_formula_units_Z 48
_cell_length_a 25.678835
_cell_length_b 14.404691
_cell_length_c 8.956989
_cell_angle_alpha 90.000000
_cell_angle_beta 140.475209
_cell_angle_gamma 90.000000
_cell_volume 2108.529517
_symmetry_space_group_name_H-M "C 2/C"
_symmetry_group_IT_number 15
_symmetry_cell_setting 'monoclinic'
loop_
_space_group_symop_operation_xyz
x,y,z
-x,y,1/2-z
-x,-y,-z
x,-y,1/2+z
1/2+x,1/2+y,z
1/2-x,1/2+y,1/2-z
1/2-x,1/2-y,-z
1/2+x,1/2-y,1/2+z
loop_
_atom_site_type_symbol
_atom_site_label
_atom_site_fract_x
_atom_site_fract_y
_atom_site_fract_z
Si Si1 0.817741 0.795220 0.962075
Si Si2 0.917387 0.068815 0.499435
Si Si3 0.126651 0.896303 0.931841
Si Si4 0.366380 0.221187 0.370464
Si Si5 0.682784 0.904086 0.138141
Si Si6 0.911974 0.534408 0.358937
O O1 0.842430 0.882897 0.918464
O O2 0.725679 0.814768 0.810147
O O3 0.828129 0.706463 0.877757
O O4 0.872472 0.781096 0.231579
O O5 0.916220 0.083980 0.320231
O O6 0.913597 0.959596 0.528740
O O7 0.000000 0.112756 0.750000
O O8 0.108907 0.788973 0.938267
O O9 0.221616 0.924389 0.130699
O O10 0.421627 0.127491 0.483329
O O11 0.628298 0.948480 0.145816
O O12 0.650951 0.941742 0.910557
O O13 0.000000 0.500000 0.500000
#
# Coordination Sequence:
#
# PCOD8145969 Si02
#       6
#     8   8   8   8   8   8
#     4   9  20  40  64  90 123 164 212 265 309 370
#     4  12  25  41  63  94 128 160 206 266 330 378
#     4  11  23  42  68  90 121 168 215 264 310 378
#     4   9  20  40  65  91 123 167 214 256 308 372
#     4  10  22  40  64  92 124 169 218 257 308 374
#     4  11  22  38  61  96 136 167 204 259 319 375
#
# _framework density 22.764681
#
# number of rings (size 3 to 8) (size 9 to 14) (size 15 to 20)
#    0.000    1.667    0.000    5.000    0.000    6.667 
#    0.000    5.000    0.000    0.000    0.000    0.000 
#    0.000    0.000    0.000    0.000    0.000    0.000 
#
# Total GULP energy -297620.181111 kJ/mol
# GULP energy per Si atom -12400.840880 kJ/mol
# Density = 2.271287 g / cm^3
# Si number density = 22.764681 Si / 1000 Ang^3
#
#
#
# Elastic Constant Matrix: (Units=GPa)
#
#
# Indices 1 2 3 4 5 6 
#
# 1 105.6319 69.2657 34.0197 0.0000 1.2462 0.0000
# 2 69.2657 120.3851 39.7002 0.0000 6.2049 0.0000
# 3 34.0197 39.7002 121.3721 0.0000 -8.2094 0.0000
# 4 0.0000 0.0000 0.0000 26.3169 0.0000 -8.5638
# 5 1.2462 6.2049 -8.2094 0.0000 16.5648 0.0000
# 6 0.0000 0.0000 0.0000 -8.5638 0.0000 44.7959
#
#
#
# Elastic Compliance Matrix: (Units=1/GPa)
#
#
# Indices 1 2 3 4 5 6 
#
# 1 0.015499 -0.008496 -0.001478 0.000000 0.001284 0.000000
# 2 -0.008496 0.014417 -0.002749 0.000000 -0.006123 0.000000
# 3 -0.001478 -0.002749 0.009964 0.000000 0.006079 0.000000
# 4 0.000000 0.000000 0.000000 0.040519 0.000000 0.007746
# 5 0.001284 -0.006123 0.006079 0.000000 0.065579 0.000000
# 6 0.000000 0.000000 0.000000 0.007746 0.000000 0.023804
#
#
# Mechanical properties :
#
#
# Convention : Reuss Voigt Hill
#
# Bulk Modulus (GPa) = 69.28276 70.37336 69.82806
# Shear Modulus (GPa) = 24.99505 31.16242 28.07873
#
# Velocity S-wave (km/s) = 3.31717 3.70387 3.51584
# Velocity P-wave (km/s) = 6.72100 7.01940 6.87182
#
# Compressibility (1/GPa) = 0.01443361
#
# Stress axis : x y z
#
# Youngs Moduli (GPa) = 64.52000 69.36166 100.36465
#
# Poissons Ratio (x) = 0.58932 0.14837
# Poissons Ratio (y) = 0.54818 0.27585
# Poissons Ratio (z) = 0.09538 0.19064
#
# Static dielectric constant tensor:
#      x y z
#    x 4.027160 0.000000 -0.010340 
#    y 0.000000 4.263980 0.000000 
#    z -0.010340 0.000000 4.059900 
# 
# 
# High freq. dielectric constant tensor:
#      x y z
#    x 1.900520 0.000000 -0.001350 
#    y 0.000000 1.905810 0.000000 
#    z -0.001350 0.000000 1.890250 
# 
# From -- ./inp_files/66479.got.cif
#   From: 2010.06.25/outbox.cif.g09.slc.cpg/sg15_34_cif.got.tgz:66479.got - 2010.06.28 07:06:18.
