data_PCOD8145213
_publ_section_title
;
Structure prediction by ZEFSAII (Michael W. Deem and Ramdas Pophale) SiO2 
 PCOD8145213
Probable space group: C 2/C
;
_chemical_formula_sum "Si O2"
_cell_formula_units_Z 48
_cell_length_a 12.900489
_cell_length_b 23.344049
_cell_length_c 13.521560
_cell_angle_alpha 90.000000
_cell_angle_beta 140.319510
_cell_angle_gamma 90.000000
_cell_volume 2600.003891
_symmetry_space_group_name_H-M "C 2/C"
_symmetry_group_IT_number 15
_symmetry_cell_setting 'monoclinic'
loop_
_space_group_symop_operation_xyz
x,y,z
-x,y,1/2-z
-x,-y,-z
x,-y,1/2+z
1/2+x,1/2+y,z
1/2-x,1/2+y,1/2-z
1/2-x,1/2-y,-z
1/2+x,1/2-y,1/2+z
loop_
_atom_site_type_symbol
_atom_site_label
_atom_site_fract_x
_atom_site_fract_y
_atom_site_fract_z
Si Si1 0.157112 0.580970 0.127352
Si Si2 0.404155 0.474227 0.080517
Si Si3 0.761449 0.810001 0.392874
Si Si4 0.484468 0.582493 0.024534
Si Si5 0.421257 0.192175 0.540211
Si Si6 0.071670 0.488495 0.902193
O O1 0.344951 0.585197 0.293263
O O2 0.056155 0.555180 0.144123
O O3 0.096332 0.644340 0.057010
O O4 0.129025 0.540109 0.013348
O O5 0.500000 0.487591 0.250000
O O6 0.380609 0.531878 0.998076
O O7 0.492623 0.427937 0.076067
O O8 0.228265 0.451385 0.984973
O O9 0.699162 0.821422 0.457738
O O10 0.609100 0.805958 0.208156
O O11 0.867739 0.753021 0.457624
O O12 0.883212 0.860168 0.455245
O O13 0.000000 0.516803 0.750000
#
# Coordination Sequence:
#
# PCOD8145213 Si02
#       6
#     8   8   8   8   8   8
#     4  11  23  36  60  85 116 154 192 235 285 338
#     4  11  23  38  56  85 120 155 189 233 285 339
#     4  10  22  38  60  84 117 147 190 236 287 341
#     4  11  23  37  58  87 116 153 192 235 285 340
#     4  10  22  38  59  86 113 151 187 236 289 338
#     4  11  23  38  56  84 120 155 191 232 283 341
#
# _framework density 18.461510000000001
#
# number of rings (size 3 to 8) (size 9 to 14) (size 15 to 20)
#    0.000    1.333    3.333    2.000    7.000    1.333 
#    0.000    0.000    0.000    2.000    0.000    0.000 
#    0.000    0.000    0.000    0.000    0.000    0.000 
#
# Total GULP energy -297595.084272 kJ/mol
# GULP energy per Si atom -12399.795178 kJ/mol
# Density = 1.841949 g / cm^3
# Si number density = 18.461510 Si / 1000 Ang^3
#
#
#
# Elastic Constant Matrix: (Units=GPa)
#
#
# Indices 1 2 3 4 5 6 
#
# 1 104.0329 56.4539 56.0128 0.0000 5.3424 0.0000
# 2 56.4539 133.3726 48.5845 0.0000 10.7559 0.0000
# 3 56.0128 48.5845 93.9399 0.0000 12.9288 0.0000
# 4 0.0000 0.0000 0.0000 31.6747 0.0000 9.9300
# 5 5.3424 10.7559 12.9288 0.0000 37.0631 0.0000
# 6 0.0000 0.0000 0.0000 9.9300 0.0000 18.2483
#
#
#
# Elastic Compliance Matrix: (Units=1/GPa)
#
#
# Indices 1 2 3 4 5 6 
#
# 1 0.015791 -0.004067 -0.007523 0.000000 0.001528 0.000000
# 2 -0.004067 0.010326 -0.002714 0.000000 -0.001464 0.000000
# 3 -0.007523 -0.002714 0.017097 0.000000 -0.004092 0.000000
# 4 0.000000 0.000000 0.000000 0.038064 0.000000 -0.020713
# 5 0.001528 -0.001464 -0.004092 0.000000 0.028613 0.000000
# 6 0.000000 0.000000 0.000000 -0.020713 0.000000 0.066071
#
#
# Mechanical properties :
#
#
# Convention : Reuss Voigt Hill
#
# Bulk Modulus (GPa) = 68.45897 72.60530 70.53213
# Shear Modulus (GPa) = 23.87332 28.75017 26.31174
#
# Velocity S-wave (km/s) = 3.59993 3.95055 3.77931
# Velocity P-wave (km/s) = 7.37847 7.76031 7.57180
#
# Compressibility (1/GPa) = 0.01460729
#
# Stress axis : x y z
#
# Youngs Moduli (GPa) = 63.32693 96.84331 58.48864
#
# Poissons Ratio (x) = 0.39386 0.43998
# Poissons Ratio (y) = 0.25755 0.15874
# Poissons Ratio (z) = 0.47638 0.26283
#
# Static dielectric constant tensor:
#      x y z
#    x 3.508300 0.000000 0.067460 
#    y 0.000000 3.244160 0.000000 
#    z 0.067460 0.000000 3.633770 
# 
# 
# High freq. dielectric constant tensor:
#      x y z
#    x 1.714300 0.000000 0.008740 
#    y 0.000000 1.696930 0.000000 
#    z 0.008740 0.000000 1.737840 
# 
# From -- ./inp_files/31913.got.cif
#   From: 2010.06.25/outbox.cif.g09.slc.cpg/sg15_16_cif.got.tgz:31913.got - 2010.06.28 07:06:18.
