data_PCOD8145250
_publ_section_title
;
Structure prediction by ZEFSAII (Michael W. Deem and Ramdas Pophale) SiO2 
 PCOD8145250
Probable space group: C 2/C
;
_chemical_formula_sum "Si O2"
_cell_formula_units_Z 48
_cell_length_a 11.194787
_cell_length_b 13.485238
_cell_length_c 17.261156
_cell_angle_alpha 90.000000
_cell_angle_beta 70.228650
_cell_angle_gamma 90.000000
_cell_volume 2452.206517
_symmetry_space_group_name_H-M "C 2/C"
_symmetry_group_IT_number 15
_symmetry_cell_setting 'monoclinic'
loop_
_space_group_symop_operation_xyz
x,y,z
-x,y,1/2-z
-x,-y,-z
x,-y,1/2+z
1/2+x,1/2+y,z
1/2-x,1/2+y,1/2-z
1/2-x,1/2-y,-z
1/2+x,1/2-y,1/2+z
loop_
_atom_site_type_symbol
_atom_site_label
_atom_site_fract_x
_atom_site_fract_y
_atom_site_fract_z
Si Si1 0.368624 0.526429 0.967719
Si Si2 0.392244 0.256703 0.491590
Si Si3 0.610229 0.059707 0.933067
Si Si4 0.430907 0.253785 0.186080
Si Si5 0.637192 0.452039 0.370333
Si Si6 0.631390 0.042536 0.266976
O O1 0.414591 0.627182 0.004481
O O2 0.246035 0.536904 0.941841
O O3 0.493685 0.503878 0.887045
O O4 0.341318 0.446229 0.040925
O O5 0.250000 0.250000 0.500000
O O6 0.421000 0.178015 0.554394
O O7 0.466723 0.220802 0.399532
O O8 0.620955 0.030751 0.841743
O O9 0.500000 0.000000 0.000000
O O10 0.500000 0.287426 0.250000
O O11 0.346594 0.343700 0.171549
O O12 0.343973 0.157028 0.216223
O O13 0.746527 0.519714 0.311291
O O14 0.500000 0.031923 0.250000
#
# Coordination Sequence:
#
# PCOD8145250 Si02
#       6
#     8   8   8   8   8   8
#     4   9  21  39  62  89 117 162 199 249 298 364
#     4   9  19  34  61  90 113 152 204 244 287 356
#     4  11  20  36  63  92 121 156 202 244 303 359
#     4  10  22  38  60  90 117 157 206 252 291 355
#     4  10  22  39  63  85 123 153 203 248 303 352
#     4  11  24  38  62  89 122 159 201 257 300 355
#
# _framework density 19.574209
#
# number of rings (size 3 to 8) (size 9 to 14) (size 15 to 20)
#    0.000    2.000    1.667    1.000   14.000    0.000 
#    0.000    0.833   11.000    1.000    0.000    0.000 
#    0.000    0.000    0.000    0.000    0.000    0.000 
#
# Total GULP energy -297326.738640 kJ/mol
# GULP energy per Si atom -12388.614110 kJ/mol
# Density = 1.952966 g / cm^3
# Si number density = 19.574209 Si / 1000 Ang^3
#
#
#
# Elastic Constant Matrix: (Units=GPa)
#
#
# Indices 1 2 3 4 5 6 
#
# 1 108.2280 41.3035 47.5696 0.0000 -20.7886 0.0000
# 2 41.3035 111.4980 48.1212 0.0000 2.7125 0.0000
# 3 47.5696 48.1212 103.1521 0.0000 -9.3224 0.0000
# 4 0.0000 0.0000 0.0000 33.2947 0.0000 5.5047
# 5 -20.7886 2.7125 -9.3224 0.0000 45.1066 0.0000
# 6 0.0000 0.0000 0.0000 5.5047 0.0000 24.7993
#
#
#
# Elastic Compliance Matrix: (Units=1/GPa)
#
#
# Indices 1 2 3 4 5 6 
#
# 1 0.013374 -0.003307 -0.004127 0.000000 0.005510 0.000000
# 2 -0.003307 0.012192 -0.004449 0.000000 -0.003177 0.000000
# 3 -0.004127 -0.004449 0.013783 0.000000 0.001214 0.000000
# 4 0.000000 0.000000 0.000000 0.031179 0.000000 -0.006921
# 5 0.005510 -0.003177 0.001214 0.000000 0.025151 0.000000
# 6 0.000000 0.000000 0.000000 -0.006921 0.000000 0.041860
#
#
# Mechanical properties :
#
#
# Convention : Reuss Voigt Hill
#
# Bulk Modulus (GPa) = 64.17791 66.31850 65.24821
# Shear Modulus (GPa) = 30.03017 33.03237 31.53127
#
# Velocity S-wave (km/s) = 3.92110 4.11243 4.01790
# Velocity P-wave (km/s) = 7.30467 7.51688 7.41154
#
# Compressibility (1/GPa) = 0.01558169
#
# Stress axis : x y z
#
# Youngs Moduli (GPa) = 74.77140 82.02435 72.55363
#
# Poissons Ratio (x) = 0.27128 0.29941
# Poissons Ratio (y) = 0.24729 0.32282
# Poissons Ratio (z) = 0.30856 0.36496
#
# Static dielectric constant tensor:
#      x y z
#    x -0.701560 0.000000 4.477480 
#    y 0.000000 6.468950 0.000000 
#    z 4.477480 0.000000 -1.531040 
# 
# 
# High freq. dielectric constant tensor:
#      x y z
#    x 1.753870 0.000000 -0.022790 
#    y 0.000000 1.760820 0.000000 
#    z -0.022790 0.000000 1.767640 
# 
# From -- ./inp_files/143468.got.cif
#   From: 2010.06.25/outbox.cif.g09.slc.cpg/sg15_72_cif.got.tgz:143468.got - 2010.06.28 07:06:18.
