data_PCOD8145297
_publ_section_title
;
Structure prediction by ZEFSAII (Michael W. Deem and Ramdas Pophale) SiO2 
 PCOD8145297
Probable space group: C 2/C
;
_chemical_formula_sum "Si O2"
_cell_formula_units_Z 56
_cell_length_a 20.839084
_cell_length_b 15.866651
_cell_length_c 9.285482
_cell_angle_alpha 90.000000
_cell_angle_beta 63.440028
_cell_angle_gamma 90.000000
_cell_volume 2746.202689
_symmetry_space_group_name_H-M "C 2/C"
_symmetry_group_IT_number 15
_symmetry_cell_setting 'monoclinic'
loop_
_space_group_symop_operation_xyz
x,y,z
-x,y,1/2-z
-x,-y,-z
x,-y,1/2+z
1/2+x,1/2+y,z
1/2-x,1/2+y,1/2-z
1/2-x,1/2-y,-z
1/2+x,1/2-y,1/2+z
loop_
_atom_site_type_symbol
_atom_site_label
_atom_site_fract_x
_atom_site_fract_y
_atom_site_fract_z
Si Si1 0.542779 0.722301 0.063072
Si Si2 0.654235 0.435421 0.666328
Si Si3 0.168620 0.251514 0.126364
Si Si4 0.573987 0.455827 0.462550
Si Si5 0.308943 0.931854 0.366555
Si Si6 0.500639 0.868657 0.583100
Si Si7 0.612296 0.015441 0.437055
O O1 0.500000 0.694878 0.250000
O O2 0.618497 0.763342 0.035465
O O3 0.562263 0.643064 0.940292
O O4 0.492337 0.785323 0.022915
O O5 0.646435 0.336973 0.727338
O O6 0.593489 0.459807 0.611454
O O7 0.640252 0.500620 0.810135
O O8 0.731692 0.443656 0.515492
O O9 0.167936 0.338778 0.216769
O O10 0.250000 0.250000 0.000000
O O11 0.500000 0.500000 0.500000
O O12 0.370079 0.956131 0.420449
O O13 0.314759 0.993810 0.224063
O O14 0.500000 0.841421 0.750000
O O15 0.426059 0.911363 0.613741
O O16 0.564912 0.931470 0.486280
#
# Coordination Sequence:
#
# PCOD8145297 Si02
#       7
#     8   8   8   8   8   8   8
#     4  11  22  39  64  89 119 163 208 252 307 370
#     4  10  22  38  62  90 117 158 209 250 306 371
#     4   9  19  36  59  86 115 154 202 246 296 361
#     4  11  22  40  61  88 119 152 205 260 309 360
#     4  11  20  38  61  87 124 164 200 251 302 363
#     4  11  23  37  55  91 128 159 204 243 299 363
#     4  11  22  35  58  87 124 162 200 246 299 357
#
# _framework density 20.391794999999998
#
# number of rings (size 3 to 8) (size 9 to 14) (size 15 to 20)
#    0.000    1.429    2.857    3.857    0.000    1.143 
#    0.000    0.000    0.000    0.857    0.000    0.000 
#    0.000    0.000    0.000    0.000    0.000    0.000 
#
# Total GULP energy -346887.747486 kJ/mol
# GULP energy per Si atom -12388.848125 kJ/mol
# Density = 2.034538 g / cm^3
# Si number density = 20.391795 Si / 1000 Ang^3
#
#
#
# Elastic Constant Matrix: (Units=GPa)
#
#
# Indices 1 2 3 4 5 6 
#
# 1 72.3607 9.7179 1.2571 0.0000 -5.7143 0.0000
# 2 9.7179 119.3260 44.8990 0.0000 -4.4548 0.0000
# 3 1.2571 44.8990 75.8291 0.0000 -1.8118 0.0000
# 4 0.0000 0.0000 0.0000 32.6594 0.0000 -0.9741
# 5 -5.7143 -4.4548 -1.8118 0.0000 27.2191 0.0000
# 6 0.0000 0.0000 0.0000 -0.9741 0.0000 31.8277
#
#
#
# Elastic Compliance Matrix: (Units=1/GPa)
#
#
# Indices 1 2 3 4 5 6 
#
# 1 0.014202 -0.001272 0.000585 0.000000 0.002812 0.000000
# 2 -0.001272 0.010946 -0.006434 0.000000 0.001096 0.000000
# 3 0.000585 -0.006434 0.016992 0.000000 0.000201 0.000000
# 4 0.000000 0.000000 0.000000 0.030647 0.000000 0.000938
# 5 0.002812 0.001096 0.000201 0.000000 0.037522 0.000000
# 6 0.000000 0.000000 0.000000 0.000938 0.000000 0.031448
#
#
# Mechanical properties :
#
#
# Convention : Reuss Voigt Hill
#
# Bulk Modulus (GPa) = 35.84383 42.14043 38.99213
# Shear Modulus (GPa) = 30.24833 32.45069 31.34951
#
# Velocity S-wave (km/s) = 3.85562 3.99351 3.92517
# Velocity P-wave (km/s) = 6.11856 6.47877 6.30124
#
# Compressibility (1/GPa) = 0.02789880
#
# Stress axis : x y z
#
# Youngs Moduli (GPa) = 70.41079 91.35973 58.85066
#
# Poissons Ratio (x) = 0.11618 -0.03441
# Poissons Ratio (y) = 0.08954 0.37863
# Poissons Ratio (z) = -0.04117 0.58779
#
# Static dielectric constant tensor:
#      x y z
#    x 3.862120 0.000000 0.008220 
#    y 0.000000 4.339120 0.000000 
#    z 0.008220 0.000000 3.510410 
# 
# 
# High freq. dielectric constant tensor:
#      x y z
#    x 1.809430 0.000000 -0.014600 
#    y 0.000000 1.808160 0.000000 
#    z -0.014600 0.000000 1.766440 
# 
# From -- ./inp_files/61835.got.cif
#   From: 2010.06.25/outbox.cif.g09.slc.cpg/sg15_31_cif.got.tgz:61835.got - 2010.06.28 07:06:18.
