data_PCOD8145294
_publ_section_title
;
Structure prediction by ZEFSAII (Michael W. Deem and Ramdas Pophale) SiO2 
 PCOD8145294
Probable space group: C 2/C
;
_chemical_formula_sum "Si O2"
_cell_formula_units_Z 48
_cell_length_a 18.306240
_cell_length_b 5.069385
_cell_length_c 25.646400
_cell_angle_alpha 90.000000
_cell_angle_beta 106.433897
_cell_angle_gamma 90.000000
_cell_volume 2282.789715
_symmetry_space_group_name_H-M "C 2/C"
_symmetry_group_IT_number 15
_symmetry_cell_setting 'monoclinic'
loop_
_space_group_symop_operation_xyz
x,y,z
-x,y,1/2-z
-x,-y,-z
x,-y,1/2+z
1/2+x,1/2+y,z
1/2-x,1/2+y,1/2-z
1/2-x,1/2-y,-z
1/2+x,1/2-y,1/2+z
loop_
_atom_site_type_symbol
_atom_site_label
_atom_site_fract_x
_atom_site_fract_y
_atom_site_fract_z
Si Si1 0.666299 0.824549 0.635329
Si Si2 0.540492 0.080250 0.810564
Si Si3 0.345921 0.737284 0.623576
Si Si4 0.321823 0.395039 0.709046
Si Si5 0.270762 0.748278 0.064040
Si Si6 0.098762 0.843833 0.667487
O O1 0.738081 0.766297 0.688294
O O2 0.695399 0.831928 0.581591
O O3 0.602164 0.600006 0.631192
O O4 0.628257 0.100807 0.640315
O O5 0.500000 0.969598 0.750000
O O6 0.565554 0.834656 0.852770
O O7 0.618845 0.223153 0.812332
O O8 0.486236 0.284716 0.829699
O O9 0.317373 0.677343 0.677600
O O10 0.337289 0.469662 0.587659
O O11 0.295509 0.961287 0.586349
O O12 0.346706 0.415174 0.773207
O O13 0.250000 0.750000 0.000000
#
# Coordination Sequence:
#
# PCOD8145294 Si02
#       6
#     8   8   8   8   8   8
#     4  11  22  39  59  91 124 162 214 273 322 365
#     4  10  23  39  61  94 134 183 207 241 310 408
#     4  11  21  40  66  95 124 164 228 260 309 382
#     4  10  22  38  62  88 131 174 216 242 306 395
#     4  11  24  43  71  94 118 166 231 289 323 368
#     4  11  25  35  59  94 137 168 199 255 323 388
#
# _framework density 21.026903000000001
#
# number of rings (size 3 to 8) (size 9 to 14) (size 15 to 20)
#    0.000    1.333    3.333    3.500    7.000    0.667 
#    0.000    0.000    0.000    6.000    0.000    0.000 
#    0.000    0.000    0.000    0.000    0.000    0.000 
#
# Total GULP energy -297444.746817 kJ/mol
# GULP energy per Si atom -12393.531117 kJ/mol
# Density = 2.097904 g / cm^3
# Si number density = 21.026903 Si / 1000 Ang^3
#
#
#
# Elastic Constant Matrix: (Units=GPa)
#
#
# Indices 1 2 3 4 5 6 
#
# 1 54.8358 19.9119 4.7936 0.0001 -2.2775 0.0001
# 2 19.9119 132.6925 50.8347 0.0008 3.9627 -0.0002
# 3 4.7936 50.8347 107.2735 0.0003 -0.4986 -0.0001
# 4 0.0001 0.0008 0.0003 26.9956 0.0000 -1.4604
# 5 -2.2775 3.9627 -0.4986 0.0000 20.1068 0.0000
# 6 0.0001 -0.0002 -0.0001 -1.4604 0.0000 34.2048
#
#
#
# Elastic Compliance Matrix: (Units=1/GPa)
#
#
# Indices 1 2 3 4 5 6 
#
# 1 0.019484 -0.003276 0.000695 0.000000 0.002870 0.000000
# 2 -0.003276 0.009834 -0.004525 0.000000 -0.002421 0.000000
# 3 0.000695 -0.004525 0.011441 0.000000 0.001254 0.000000
# 4 0.000000 0.000000 0.000000 0.037129 0.000000 0.001585
# 5 0.002870 -0.002421 0.001254 0.000000 0.050568 0.000000
# 6 0.000000 0.000000 0.000000 0.001585 0.000000 0.029303
#
#
# Mechanical properties :
#
#
# Convention : Reuss Voigt Hill
#
# Bulk Modulus (GPa) = 37.66822 49.54245 43.60533
# Shear Modulus (GPa) = 27.65196 30.87888 29.26542
#
# Velocity S-wave (km/s) = 3.63033 3.83631 3.73474
# Velocity P-wave (km/s) = 5.96033 6.57538 6.27540
#
# Compressibility (1/GPa) = 0.02654758
#
# Stress axis : x y z
#
# Youngs Moduli (GPa) = 51.32362 101.69272 87.40535
#
# Poissons Ratio (x) = 0.33312 -0.06075
# Poissons Ratio (y) = 0.16812 0.39549
# Poissons Ratio (z) = -0.03567 0.46014
#
# Static dielectric constant tensor:
#      x y z
#    x 3.884270 0.000000 -0.010050 
#    y 0.000000 4.022390 0.000000 
#    z -0.010050 0.000000 3.664300 
# 
# 
# High freq. dielectric constant tensor:
#      x y z
#    x 1.813230 0.000000 -0.005400 
#    y 0.000000 1.842220 0.000000 
#    z -0.005400 0.000000 1.789060 
# 
# From -- ./inp_files/275669.got.cif
#   From: 2010.06.25/outbox.cif.g09.slc.cpg/sg15_138_cif.got.tgz:275669.got - 2010.06.28 07:06:18.
