data_PCOD8145411
_publ_section_title
;
Structure prediction by ZEFSAII (Michael W. Deem and Ramdas Pophale) SiO2 
 PCOD8145411
Probable space group: C 2/C
;
_chemical_formula_sum "Si O2"
_cell_formula_units_Z 56
_cell_length_a 9.485874
_cell_length_b 14.920322
_cell_length_c 23.337962
_cell_angle_alpha 90.000000
_cell_angle_beta 56.076839
_cell_angle_gamma 90.000000
_cell_volume 2740.848150
_symmetry_space_group_name_H-M "C 2/C"
_symmetry_group_IT_number 15
_symmetry_cell_setting 'monoclinic'
loop_
_space_group_symop_operation_xyz
x,y,z
-x,y,1/2-z
-x,-y,-z
x,-y,1/2+z
1/2+x,1/2+y,z
1/2-x,1/2+y,1/2-z
1/2-x,1/2-y,-z
1/2+x,1/2-y,1/2+z
loop_
_atom_site_type_symbol
_atom_site_label
_atom_site_fract_x
_atom_site_fract_y
_atom_site_fract_z
Si Si1 0.112922 0.299774 0.781001
Si Si2 0.177788 0.784866 0.575660
Si Si3 0.167281 0.107885 0.493718
Si Si4 0.459316 0.455689 0.596698
Si Si5 0.667163 0.007914 0.249431
Si Si6 0.496433 0.786456 0.929206
Si Si7 0.427938 0.177279 0.702669
O O1 0.166121 0.401194 0.786583
O O2 0.016494 0.258868 0.857735
O O3 0.283551 0.249700 0.726752
O O4 0.000000 0.296513 0.750000
O O5 0.250000 0.750000 0.500000
O O6 0.052017 0.867822 0.598324
O O7 0.326828 0.818514 0.583862
O O8 0.080250 0.699556 0.624772
O O9 0.361217 0.132537 0.465632
O O10 0.155344 0.070732 0.431934
O O11 0.057820 0.198299 0.523651
O O12 0.099286 0.031220 0.551414
O O13 0.335258 0.496866 0.672340
O O14 0.500000 0.007995 0.250000
O O15 0.655263 0.919986 0.292499
O O16 0.500000 0.180487 0.750000
#
# Coordination Sequence:
#
# PCOD8145411 Si02
#       7
#     8   8   8   8   8   8   8
#     4  11  22  40  65  93 130 172 223 280 332 396
#     4  12  25  41  67  97 137 175 223 275 344 401
#     4  10  23  39  68  96 135 171 221 267 333 407
#     4  11  22  42  66  99 130 177 223 272 331 410
#     4  10  22  38  66  94 126 173 227 270 328 397
#     4  11  23  42  64  97 133 177 216 280 336 398
#     4  11  23  42  67  95 130 179 225 278 332 397
#
# _framework density 20.431630999999999
#
# number of rings (size 3 to 8) (size 9 to 14) (size 15 to 20)
#    0.000    1.143    4.286    2.571    2.000    1.714 
#    0.000    3.571    0.000    0.000    0.000    0.000 
#    0.000    0.000    0.000    0.000    0.000    0.000 
#
# Total GULP energy -347218.848555 kJ/mol
# GULP energy per Si atom -12400.673163 kJ/mol
# Density = 2.038513 g / cm^3
# Si number density = 20.431631 Si / 1000 Ang^3
#
#
#
# Elastic Constant Matrix: (Units=GPa)
#
#
# Indices 1 2 3 4 5 6 
#
# 1 83.4388 39.5619 32.5925 0.0000 -11.2713 0.0000
# 2 39.5619 121.7925 31.1815 0.0000 -13.5776 0.0000
# 3 32.5925 31.1815 117.9562 0.0000 -11.4471 0.0000
# 4 0.0000 0.0000 0.0000 41.0305 0.0000 -7.6931
# 5 -11.2713 -13.5776 -11.4471 0.0000 29.3548 0.0000
# 6 0.0000 0.0000 0.0000 -7.6931 0.0000 22.1097
#
#
#
# Elastic Compliance Matrix: (Units=1/GPa)
#
#
# Indices 1 2 3 4 5 6 
#
# 1 0.015386 -0.003919 -0.002929 0.000000 0.002953 0.000000
# 2 -0.003919 0.010122 -0.001335 0.000000 0.002656 0.000000
# 3 -0.002929 -0.001335 0.009843 0.000000 0.002096 0.000000
# 4 0.000000 0.000000 0.000000 0.026073 0.000000 0.009072
# 5 0.002953 0.002656 0.002096 0.000000 0.037246 0.000000
# 6 0.000000 0.000000 0.000000 0.009072 0.000000 0.048386
#
#
# Mechanical properties :
#
#
# Convention : Reuss Voigt Hill
#
# Bulk Modulus (GPa) = 52.67157 58.87323 55.77240
# Shear Modulus (GPa) = 29.45523 33.15577 31.30550
#
# Velocity S-wave (km/s) = 3.80102 4.03273 3.91859
# Velocity P-wave (km/s) = 6.71559 7.11064 6.91593
#
# Compressibility (1/GPa) = 0.01898557
#
# Stress axis : x y z
#
# Youngs Moduli (GPa) = 64.99496 98.79919 101.59157
#
# Poissons Ratio (x) = 0.38717 0.29754
# Poissons Ratio (y) = 0.25470 0.13563
# Poissons Ratio (z) = 0.19036 0.13190
#
# Static dielectric constant tensor:
#      x y z
#    x 3.724920 0.000000 -0.302030 
#    y 0.000000 4.561460 0.000000 
#    z -0.302030 0.000000 3.990350 
# 
# 
# High freq. dielectric constant tensor:
#      x y z
#    x 1.786010 0.000000 -0.016260 
#    y 0.000000 1.806900 0.000000 
#    z -0.016260 0.000000 1.810330 
# 
# From -- ./inp_files/265455.got.cif
#   From: 2010.06.25/outbox.cif.g09.slc.cpg/sg15_133_cif.got.tgz:265455.got - 2010.06.28 07:06:18.
