data_PCOD8145760
_publ_section_title
;
Structure prediction by ZEFSAII (Michael W. Deem and Ramdas Pophale) SiO2 
 PCOD8145760
Probable space group: C 2/C
;
_chemical_formula_sum "Si O2"
_cell_formula_units_Z 44
_cell_length_a 11.575983
_cell_length_b 13.260973
_cell_length_c 22.606783
_cell_angle_alpha 90.000000
_cell_angle_beta 35.928123
_cell_angle_gamma 90.000000
_cell_volume 2036.291056
_symmetry_space_group_name_H-M "C 2/C"
_symmetry_group_IT_number 15
_symmetry_cell_setting 'monoclinic'
loop_
_space_group_symop_operation_xyz
x,y,z
-x,y,1/2-z
-x,-y,-z
x,-y,1/2+z
1/2+x,1/2+y,z
1/2-x,1/2+y,1/2-z
1/2-x,1/2-y,-z
1/2+x,1/2-y,1/2+z
loop_
_atom_site_type_symbol
_atom_site_label
_atom_site_fract_x
_atom_site_fract_y
_atom_site_fract_z
Si Si1 0.883910 0.605471 0.629607
Si Si2 0.769613 0.853374 0.527040
Si Si3 0.314075 0.551181 0.440991
Si Si4 0.429002 0.333966 0.587377
Si Si5 0.500000 0.498472 0.750000
Si Si6 0.588941 0.970083 0.772937
O O1 0.870987 0.725104 0.635144
O O2 0.696306 0.566130 0.671281
O O3 0.873525 0.564690 0.700536
O O4 0.087684 0.568053 0.514976
O O5 0.750000 0.750000 0.500000
O O6 0.919653 0.838918 0.520010
O O7 0.556500 0.886780 0.638860
O O8 0.853395 0.938002 0.448297
O O9 0.357460 0.631818 0.475974
O O10 0.460939 0.570033 0.324247
O O11 0.290870 0.415491 0.675591
O O12 0.500000 0.016130 0.750000
#
# Coordination Sequence:
#
# PCOD8145760 Si02
#       6
#     8   8   8   8   4   8
#     4  11  24  42  65  97 133 172 223 272 334 393
#     4  10  22  39  68  98 127 172 225 270 327 391
#     4  11  24  44  63  98 137 176 215 277 335 391
#     4  11  22  42  68  94 133 173 222 272 335 392
#     4  12  24  42  68  94 138 174 224 276 328 398
#     4   9  21  41  63  92 130 169 217 274 324 399
#
# _framework density 21.607911999999999
#
# number of rings (size 3 to 8) (size 9 to 14) (size 15 to 20)
#    0.000    1.455    1.818    2.727    6.364    1.455 
#    1.636    0.000    0.000    0.000    0.000    0.000 
#    0.000    0.000    0.000    0.000    0.000    0.000 
#
# Total GULP energy -272802.731842 kJ/mol
# GULP energy per Si atom -12400.124175 kJ/mol
# Density = 2.155873 g / cm^3
# Si number density = 21.607912 Si / 1000 Ang^3
#
#
#
# Elastic Constant Matrix: (Units=GPa)
#
#
# Indices 1 2 3 4 5 6 
#
# 1 140.1939 42.4885 43.2202 -0.0008 0.2487 0.0005
# 2 42.4885 61.4938 5.1085 -0.0017 5.2813 0.0010
# 3 43.2202 5.1085 91.7325 -0.0010 8.6591 0.0006
# 4 -0.0008 -0.0017 -0.0010 17.8220 0.0002 3.7913
# 5 0.2487 5.2813 8.6591 0.0002 40.8722 -0.0002
# 6 0.0005 0.0010 0.0006 3.7913 -0.0002 34.4714
#
#
#
# Elastic Compliance Matrix: (Units=1/GPa)
#
#
# Indices 1 2 3 4 5 6 
#
# 1 0.010827 -0.007239 -0.004878 -0.000001 0.001903 0.000000
# 2 -0.007239 0.021333 0.002529 0.000002 -0.003248 -0.000001
# 3 -0.004878 0.002529 0.013354 0.000001 -0.003126 0.000000
# 4 -0.000001 0.000002 0.000001 0.057455 -0.000001 -0.006319
# 5 0.001903 -0.003248 -0.003126 -0.000001 0.025537 0.000000
# 6 0.000000 -0.000001 0.000000 -0.006319 0.000000 0.029705
#
#
# Mechanical properties :
#
#
# Convention : Reuss Voigt Hill
#
# Bulk Modulus (GPa) = 37.96753 52.78385 45.37569
# Shear Modulus (GPa) = 26.85793 32.13999 29.49896
#
# Velocity S-wave (km/s) = 3.52940 3.86089 3.69886
# Velocity P-wave (km/s) = 5.84963 6.66006 6.26795
#
# Compressibility (1/GPa) = 0.02633830
#
# Stress axis : x y z
#
# Youngs Moduli (GPa) = 92.35823 46.87672 74.88544
#
# Poissons Ratio (x) = 0.33935 0.36528
# Poissons Ratio (y) = 0.66861 -0.18942
# Poissons Ratio (z) = 0.45051 -0.11857
#
# Static dielectric constant tensor:
#      x y z
#    x 4.325460 0.000000 -0.075670 
#    y 0.000000 3.660820 0.000000 
#    z -0.075670 0.000000 3.898780 
# 
# 
# High freq. dielectric constant tensor:
#      x y z
#    x 1.871030 0.000000 -0.001790 
#    y 0.000000 1.833160 0.000000 
#    z -0.001790 0.000000 1.845310 
# 
# From -- ./inp_files/182249.got.cif
#   From: 2010.06.25/outbox.cif.g09.slc.cpg/sg15_92_cif.got.tgz:182249.got - 2010.06.28 07:06:18.
