data_PCOD8145102
_publ_section_title
;
Structure prediction by ZEFSAII (Michael W. Deem and Ramdas Pophale) SiO2 
 PCOD8145102
Probable space group: C 2/C
;
_chemical_formula_sum "Si O2"
_cell_formula_units_Z 56
_cell_length_a 10.498162
_cell_length_b 10.357135
_cell_length_c 26.286954
_cell_angle_alpha 90.000000
_cell_angle_beta 69.677047
_cell_angle_gamma 90.000000
_cell_volume 2680.280134
_symmetry_space_group_name_H-M "C 2/C"
_symmetry_group_IT_number 15
_symmetry_cell_setting 'monoclinic'
loop_
_space_group_symop_operation_xyz
x,y,z
-x,y,1/2-z
-x,-y,-z
x,-y,1/2+z
1/2+x,1/2+y,z
1/2-x,1/2+y,1/2-z
1/2-x,1/2-y,-z
1/2+x,1/2-y,1/2+z
loop_
_atom_site_type_symbol
_atom_site_label
_atom_site_fract_x
_atom_site_fract_y
_atom_site_fract_z
Si Si1 0.856964 0.368298 0.205201
Si Si2 0.620203 0.512905 0.197761
Si Si3 0.342482 0.395240 0.412006
Si Si4 0.146621 0.696449 0.681948
Si Si5 0.139421 0.797837 0.894630
Si Si6 0.628897 0.587233 0.914819
Si Si7 0.850227 0.862998 0.974488
O O1 0.770236 0.495268 0.202236
O O2 0.799275 0.323461 0.268156
O O3 0.835723 0.259829 0.164804
O O4 0.018428 0.397820 0.187459
O O5 0.500000 0.462518 0.250000
O O6 0.609040 0.422229 0.151192
O O7 0.591154 0.658803 0.185633
O O8 0.229865 0.280436 0.424583
O O9 0.480297 0.356722 0.421969
O O10 0.286030 0.527321 0.446216
O O11 0.261289 0.685740 0.622969
O O12 0.982248 0.793077 0.932897
O O13 0.174630 0.949144 0.885556
O O14 0.623340 0.567886 0.975721
O O15 0.750000 0.750000 0.000000
#
# Coordination Sequence:
#
# PCOD8145102 Si02
#       7
#     8   8   8   8   8   8   8
#     4  10  22  37  60  89 114 163 201 246 312 366
#     4  11  21  38  62  86 120 161 201 253 311 370
#     4  10  22  39  61  89 118 165 202 251 318 365
#     4  11  22  38  61  87 124 161 201 256 308 363
#     4  10  22  40  61  87 126 154 208 257 305 375
#     4  11  23  38  62  89 121 160 203 254 307 370
#     4  11  23  39  62  89 120 160 207 252 310 376
#
# _framework density 20.893339000000001
#
# number of rings (size 3 to 8) (size 9 to 14) (size 15 to 20)
#    0.000    1.429    1.429    6.000    2.000    4.000 
#    0.000    0.000    0.000    0.000    0.000    0.000 
#    0.000    0.000    0.000    0.000    0.000    0.000 
#
# Total GULP energy -346985.524050 kJ/mol
# GULP energy per Si atom -12392.340145 kJ/mol
# Density = 2.084578 g / cm^3
# Si number density = 20.893339 Si / 1000 Ang^3
#
#
#
# Elastic Constant Matrix: (Units=GPa)
#
#
# Indices 1 2 3 4 5 6 
#
# 1 98.9333 38.6420 20.3296 0.0000 3.9772 0.0000
# 2 38.6420 52.5102 14.3518 0.0000 -3.2272 0.0000
# 3 20.3296 14.3518 88.1820 0.0000 1.5721 0.0000
# 4 0.0000 0.0000 0.0000 28.9537 0.0000 2.2808
# 5 3.9772 -3.2272 1.5721 0.0000 31.3566 0.0000
# 6 0.0000 0.0000 0.0000 2.2808 0.0000 36.1968
#
#
#
# Elastic Compliance Matrix: (Units=1/GPa)
#
#
# Indices 1 2 3 4 5 6 
#
# 1 0.014667 -0.010527 -0.001617 0.000000 -0.002863 0.000000
# 2 -0.010527 0.027642 -0.002148 0.000000 0.004288 0.000000
# 3 -0.001617 -0.002148 0.012074 0.000000 -0.000621 0.000000
# 4 0.000000 0.000000 0.000000 0.034710 0.000000 -0.002187
# 5 -0.002863 0.004288 -0.000621 0.000000 0.032727 0.000000
# 6 0.000000 0.000000 0.000000 -0.002187 0.000000 0.027765
#
#
# Mechanical properties :
#
#
# Convention : Reuss Voigt Hill
#
# Bulk Modulus (GPa) = 38.76385 42.91915 40.84150
# Shear Modulus (GPa) = 26.77121 30.38824 28.57972
#
# Velocity S-wave (km/s) = 3.58345 3.81786 3.70251
# Velocity P-wave (km/s) = 5.97620 6.32624 6.15371
#
# Compressibility (1/GPa) = 0.02579723
#
# Stress axis : x y z
#
# Youngs Moduli (GPa) = 68.18020 36.17735 82.82495
#
# Poissons Ratio (x) = 0.38085 0.13392
# Poissons Ratio (y) = 0.71776 0.17792
# Poissons Ratio (z) = 0.11024 0.07772
#
# Static dielectric constant tensor:
#      x y z
#    x 5.325720 0.000000 2.441000 
#    y 0.000000 3.644740 0.000000 
#    z 2.441000 0.000000 8.007940 
# 
# 
# High freq. dielectric constant tensor:
#      x y z
#    x 1.818760 0.000000 0.009780 
#    y 0.000000 1.796960 0.000000 
#    z 0.009780 0.000000 1.838710 
# 
# From -- ./inp_files/287969.got.cif
#   From: 2010.06.25/outbox.cif.g09.slc.cpg/sg15_144_cif.got.tgz:287969.got - 2010.06.28 07:06:18.
