data_PCOD8145017
_publ_section_title
;
Structure prediction by ZEFSAII (Michael W. Deem and Ramdas Pophale) SiO2 
 PCOD8145017
Probable space group: C 2/C
;
_chemical_formula_sum "Si O2"
_cell_formula_units_Z 56
_cell_length_a 17.267853
_cell_length_b 16.312877
_cell_length_c 13.350660
_cell_angle_alpha 90.000000
_cell_angle_beta 133.469449
_cell_angle_gamma 90.000000
_cell_volume 2729.313883
_symmetry_space_group_name_H-M "C 2/C"
_symmetry_group_IT_number 15
_symmetry_cell_setting 'monoclinic'
loop_
_space_group_symop_operation_xyz
x,y,z
-x,y,1/2-z
-x,-y,-z
x,-y,1/2+z
1/2+x,1/2+y,z
1/2-x,1/2+y,1/2-z
1/2-x,1/2-y,-z
1/2+x,1/2-y,1/2+z
loop_
_atom_site_type_symbol
_atom_site_label
_atom_site_fract_x
_atom_site_fract_y
_atom_site_fract_z
Si Si1 0.866217 0.062293 0.822072
Si Si2 0.710035 0.277760 0.607776
Si Si3 0.263880 0.994036 0.469553
Si Si4 0.878426 0.662565 0.118342
Si Si5 0.404040 0.555322 0.532037
Si Si6 0.213884 0.215463 0.625727
Si Si7 0.377285 0.839623 0.108206
O O1 0.762689 0.042688 0.663322
O O2 0.851362 0.145082 0.873603
O O3 0.882914 0.984568 0.906462
O O4 0.968900 0.067455 0.839268
O O5 0.823468 0.279323 0.652146
O O6 0.646944 0.196524 0.515697
O O7 0.643740 0.354777 0.512009
O O8 0.730330 0.275805 0.744533
O O9 0.341218 0.931290 0.595669
O O10 0.153057 0.001338 0.434231
O O11 0.327078 0.078969 0.514138
O O12 0.000000 0.666469 0.250000
O O13 0.309780 0.177744 0.647365
O O14 0.133228 0.266134 0.482218
O O15 0.500000 0.851056 0.250000
#
# Coordination Sequence:
#
# PCOD8145017 Si02
#       7
#     8   8   8   8   8   8   8
#     4  11  22  41  65  96 129 171 214 269 321 390
#     4  10  22  39  61  91 130 163 214 266 316 389
#     4  11  21  44  63  96 132 167 216 271 317 391
#     4  10  22  36  61  93 126 166 207 265 323 379
#     4  10  23  38  64  97 128 167 215 265 329 378
#     4  11  24  45  64  97 128 172 223 268 321 403
#     4  11  26  45  69  93 132 174 218 272 331 387
#
# _framework density 20.517976999999998
#
# number of rings (size 3 to 8) (size 9 to 14) (size 15 to 20)
#    0.000    1.429    2.857    1.714    4.000    0.000 
#    2.571    0.714    0.000    0.000    0.000    0.000 
#    0.000    0.000    0.000    0.000    0.000    0.000 
#
# Total GULP energy -347184.437528 kJ/mol
# GULP energy per Si atom -12399.444197 kJ/mol
# Density = 2.047128 g / cm^3
# Si number density = 20.517977 Si / 1000 Ang^3
#
#
#
# Elastic Constant Matrix: (Units=GPa)
#
#
# Indices 1 2 3 4 5 6 
#
# 1 97.7833 47.2069 54.4527 0.0000 19.7057 0.0000
# 2 47.2069 99.4489 39.6973 0.0000 13.3628 0.0000
# 3 54.4527 39.6973 114.6884 0.0000 13.6548 0.0000
# 4 0.0000 0.0000 0.0000 30.7429 0.0000 -5.2525
# 5 19.7057 13.3628 13.6548 0.0000 33.1317 0.0000
# 6 0.0000 0.0000 0.0000 -5.2525 0.0000 38.6892
#
#
#
# Elastic Compliance Matrix: (Units=1/GPa)
#
#
# Indices 1 2 3 4 5 6 
#
# 1 0.016938 -0.005027 -0.005620 0.000000 -0.005731 0.000000
# 2 -0.005027 0.013491 -0.002094 0.000000 -0.001588 0.000000
# 3 -0.005620 -0.002094 0.012213 0.000000 -0.000847 0.000000
# 4 0.000000 0.000000 0.000000 0.033300 0.000000 0.004521
# 5 -0.005731 -0.001588 -0.000847 0.000000 0.034580 0.000000
# 6 0.000000 0.000000 0.000000 0.004521 0.000000 0.026461
#
#
# Mechanical properties :
#
#
# Convention : Reuss Voigt Hill
#
# Bulk Modulus (GPa) = 58.27189 66.07050 62.17119
# Shear Modulus (GPa) = 29.72936 31.88366 30.80651
#
# Velocity S-wave (km/s) = 3.81063 3.94628 3.87905
# Velocity P-wave (km/s) = 6.91543 7.28254 7.10136
#
# Compressibility (1/GPa) = 0.01716093
#
# Stress axis : x y z
#
# Youngs Moduli (GPa) = 59.03965 74.12443 81.88064
#
# Poissons Ratio (x) = 0.37262 0.46014
# Poissons Ratio (y) = 0.29679 0.17144
# Poissons Ratio (z) = 0.33178 0.15520
#
# Static dielectric constant tensor:
#      x y z
#    x 3.835190 0.000000 -0.052250 
#    y 0.000000 3.711710 0.000000 
#    z -0.052250 0.000000 3.616100 
# 
# 
# High freq. dielectric constant tensor:
#      x y z
#    x 1.798750 0.000000 -0.002560 
#    y 0.000000 1.807650 0.000000 
#    z -0.002560 0.000000 1.804470 
# 
# From -- ./inp_files/106748.got.cif
#   From: 2010.06.25/outbox.cif.g09.slc.cpg/sg15_54_cif.got.tgz:106748.got - 2010.06.28 07:06:18.
