data_PCOD8145258
_publ_section_title
;
Structure prediction by ZEFSAII (Michael W. Deem and Ramdas Pophale) SiO2 
 PCOD8145258
Probable space group: C 2/C
;
_chemical_formula_sum "Si O2"
_cell_formula_units_Z 60
_cell_length_a 11.871523
_cell_length_b 14.232882
_cell_length_c 17.162523
_cell_angle_alpha 90.000000
_cell_angle_beta 101.740040
_cell_angle_gamma 90.000000
_cell_volume 2839.219564
_symmetry_space_group_name_H-M "C 2/C"
_symmetry_group_IT_number 15
_symmetry_cell_setting 'monoclinic'
loop_
_space_group_symop_operation_xyz
x,y,z
-x,y,1/2-z
-x,-y,-z
x,-y,1/2+z
1/2+x,1/2+y,z
1/2-x,1/2+y,1/2-z
1/2-x,1/2-y,-z
1/2+x,1/2-y,1/2+z
loop_
_atom_site_type_symbol
_atom_site_label
_atom_site_fract_x
_atom_site_fract_y
_atom_site_fract_z
Si Si1 0.073446 0.287065 0.428466
Si Si2 0.120551 0.065891 0.892376
Si Si3 0.697649 0.361388 0.697096
Si Si4 0.366004 0.289318 0.977844
Si Si5 0.866408 0.202783 0.738631
Si Si6 0.500000 0.260694 0.750000
Si Si7 0.634431 0.552453 0.645516
Si Si8 0.788030 0.102107 0.009702
O O1 0.031086 0.301020 0.332180
O O2 0.141341 0.188880 0.445575
O O3 0.157357 0.370994 0.467973
O O4 0.964375 0.288942 0.473092
O O5 0.179520 0.131964 0.835069
O O6 0.996792 0.024479 0.848806
O O7 0.083722 0.132390 0.958538
O O8 0.209441 0.982086 0.925969
O O9 0.653222 0.340851 0.605262
O O10 0.816028 0.306930 0.727757
O O11 0.608534 0.326825 0.749215
O O12 0.713350 0.474089 0.700503
O O13 0.250000 0.250000 0.000000
O O14 0.832205 0.154804 0.815638
O O15 0.000000 0.218638 0.750000
O O16 0.650739 0.556557 0.556049
#
# Coordination Sequence:
#
# PCOD8145258 Si02
#       8
#     8   8   8   8   8   4   8   8
#     4  10  23  38  62  94 129 168 204 262 330 366
#     4  11  20  38  62  95 120 155 219 268 304 381
#     4  11  22  38  65  91 121 166 208 261 319 371
#     4  11  20  38  65  87 120 163 209 253 314 382
#     4  10  24  40  62  90 125 164 210 261 319 377
#     4  10  22  38  60  92 128 162 216 250 318 388
#     4  11  22  37  65  93 124 166 215 265 312 381
#     4  11  21  38  62  95 127 158 209 274 314 370
#
# _framework density 21.132566000000001
#
# number of rings (size 3 to 8) (size 9 to 14) (size 15 to 20)
#    0.000    1.333    4.000    2.800    4.667    0.000 
#    0.000    0.667    8.800    0.000    0.000    0.000 
#    0.000    0.000    0.000    0.000    0.000    0.000 
#
# Total GULP energy -371840.554490 kJ/mol
# GULP energy per Si atom -12394.685150 kJ/mol
# Density = 2.108447 g / cm^3
# Si number density = 21.132566 Si / 1000 Ang^3
#
#
#
# Elastic Constant Matrix: (Units=GPa)
#
#
# Indices 1 2 3 4 5 6 
#
# 1 99.6159 38.4801 28.5268 0.0000 0.6053 0.0000
# 2 38.4801 95.1619 26.7039 0.0000 17.9982 0.0000
# 3 28.5268 26.7039 77.1541 0.0000 8.1949 0.0000
# 4 0.0000 0.0000 0.0000 37.4447 0.0000 13.3421
# 5 0.6053 17.9982 8.1949 0.0000 28.2323 0.0000
# 6 0.0000 0.0000 0.0000 13.3421 0.0000 25.7297
#
#
#
# Elastic Compliance Matrix: (Units=1/GPa)
#
#
# Indices 1 2 3 4 5 6 
#
# 1 0.012940 -0.004999 -0.003470 0.000000 0.003917 0.000000
# 2 -0.004999 0.014832 -0.002365 0.000000 -0.008662 0.000000
# 3 -0.003470 -0.002365 0.015368 0.000000 -0.002879 0.000000
# 4 0.000000 0.000000 0.000000 0.032759 0.000000 -0.016987
# 5 0.003917 -0.008662 -0.002879 0.000000 0.041694 0.000000
# 6 0.000000 0.000000 0.000000 -0.016987 0.000000 0.047674
#
#
# Mechanical properties :
#
#
# Convention : Reuss Voigt Hill
#
# Bulk Modulus (GPa) = 46.57418 51.03928 48.80673
# Shear Modulus (GPa) = 25.76094 30.16277 27.96185
#
# Velocity S-wave (km/s) = 3.49523 3.78208 3.64148
# Velocity P-wave (km/s) = 6.19482 6.57849 6.38953
#
# Compressibility (1/GPa) = 0.02147112
#
# Stress axis : x y z
#
# Youngs Moduli (GPa) = 77.28194 67.42251 65.06874
#
# Poissons Ratio (x) = 0.33707 0.22579
# Poissons Ratio (y) = 0.38637 0.15389
# Poissons Ratio (z) = 0.26816 0.15945
#
# Static dielectric constant tensor:
#      x y z
#    x 4.685480 0.000000 -0.201630 
#    y 0.000000 5.742270 0.000000 
#    z -0.201630 0.000000 4.104850 
# 
# 
# High freq. dielectric constant tensor:
#      x y z
#    x 1.810380 0.000000 -0.007180 
#    y 0.000000 1.806680 0.000000 
#    z -0.007180 0.000000 1.843190 
# 
# From -- ./inp_files/198406.got.cif
#   From: 2010.06.25/outbox.cif.g09.slc.cpg/sg15_100_cif.got.tgz:198406.got - 2010.06.28 07:06:18.
