data_PCOD8145167
_publ_section_title
;
Structure prediction by ZEFSAII (Michael W. Deem and Ramdas Pophale) SiO2 
 PCOD8145167
Probable space group: C 2/C
;
_chemical_formula_sum "Si O2"
_cell_formula_units_Z 40
_cell_length_a 8.785502
_cell_length_b 12.586288
_cell_length_c 15.812179
_cell_angle_alpha 90.000000
_cell_angle_beta 105.695697
_cell_angle_gamma 90.000000
_cell_volume 1683.264577
_symmetry_space_group_name_H-M "C 2/C"
_symmetry_group_IT_number 15
_symmetry_cell_setting 'monoclinic'
loop_
_space_group_symop_operation_xyz
x,y,z
-x,y,1/2-z
-x,-y,-z
x,-y,1/2+z
1/2+x,1/2+y,z
1/2-x,1/2+y,1/2-z
1/2-x,1/2-y,-z
1/2+x,1/2-y,1/2+z
loop_
_atom_site_type_symbol
_atom_site_label
_atom_site_fract_x
_atom_site_fract_y
_atom_site_fract_z
Si Si1 0.177406 0.268118 0.872344
Si Si2 0.993212 0.733715 0.496825
Si Si3 0.213807 0.955163 0.703088
Si Si4 0.762346 0.583482 0.547736
Si Si5 0.858884 0.976086 0.133396
O O1 0.042758 0.317199 0.913871
O O2 0.201405 0.339553 0.792275
O O3 0.121069 0.148678 0.845630
O O4 0.348684 0.279919 0.939871
O O5 0.922195 0.643779 0.546407
O O6 0.878258 0.832689 0.465447
O O7 0.292161 0.029956 0.643032
O O8 0.251641 0.985511 0.805489
O O9 0.024272 0.960250 0.660308
O O10 0.723447 0.496790 0.469112
#
# Coordination Sequence:
#
# PCOD8145167 Si02
#       5
#     8   8   8   8   8
#     4  11  22  42  66  95 128 178 218 265 328 401
#     4  10  22  37  71  98 127 176 221 261 336 391
#     4  11  24  43  67  96 132 175 214 272 333 391
#     4  11  21  43  65  98 134 169 216 278 320 391
#     4  11  24  43  67  96 132 175 214 272 333 391
#
# _framework density 23.763349000000002
#
# number of rings (size 3 to 8) (size 9 to 14) (size 15 to 20)
#    0.000    1.200    4.000    3.000    0.000    6.400 
#    0.000    2.000    0.000    0.000    0.000    0.000 
#    0.000    0.000    0.000    0.000    0.000    0.000 
#
# Total GULP energy -247865.709772 kJ/mol
# GULP energy per Si atom -12393.285489 kJ/mol
# Density = 2.370926 g / cm^3
# Si number density = 23.763349 Si / 1000 Ang^3
#
#
#
# Elastic Constant Matrix: (Units=GPa)
#
#
# Indices 1 2 3 4 5 6 
#
# 1 94.5229 39.0212 42.0292 0.0000 -38.7980 0.0000
# 2 39.0212 105.3468 30.5452 0.0000 -38.3220 0.0000
# 3 42.0292 30.5452 98.1216 0.0000 -51.6698 0.0000
# 4 0.0000 0.0000 0.0000 33.1466 0.0000 -14.4532
# 5 -38.7980 -38.3220 -51.6698 0.0000 42.1817 0.0000
# 6 0.0000 0.0000 0.0000 -14.4532 0.0000 28.6049
#
#
#
# Elastic Compliance Matrix: (Units=1/GPa)
#
#
# Indices 1 2 3 4 5 6 
#
# 1 0.017257 -0.000326 0.002570 0.000000 0.018724 0.000000
# 2 -0.000326 0.015927 0.007446 0.000000 0.023291 0.000000
# 3 0.002570 0.007446 0.032622 0.000000 0.049088 0.000000
# 4 0.000000 0.000000 0.000000 0.038694 0.000000 0.019551
# 5 0.018724 0.023291 0.049088 0.000000 0.122218 0.000000
# 6 0.000000 0.000000 0.000000 0.019551 0.000000 0.044838
#
#
# Mechanical properties :
#
#
# Convention : Reuss Voigt Hill
#
# Bulk Modulus (GPa) = 11.73909 57.90916 34.82413
# Shear Modulus (GPa) = 17.82083 33.21302 25.51693
#
# Velocity S-wave (km/s) = 2.74145 3.74258 3.28043
# Velocity P-wave (km/s) = 3.86930 6.56490 5.38839
#
# Compressibility (1/GPa) = 0.08518549
#
# Stress axis : x y z
#
# Youngs Moduli (GPa) = 57.94757 62.78824 30.65409
#
# Poissons Ratio (x) = 0.02046 -0.07877
# Poissons Ratio (y) = 0.01888 -0.22826
# Poissons Ratio (z) = -0.14890 -0.46754
#
# Static dielectric constant tensor:
#      x y z
#    x 4.373640 0.000000 -0.602790 
#    y 0.000000 4.180300 0.000000 
#    z -0.602790 0.000000 4.430390 
# 
# 
# High freq. dielectric constant tensor:
#      x y z
#    x 1.944480 0.000000 -0.033120 
#    y 0.000000 1.940160 0.000000 
#    z -0.033120 0.000000 1.935830 
# 
# From -- ./inp_files/187876.got.cif
#   From: 2010.06.25/outbox.cif.g09.slc.cpg/sg15_94_cif.got.tgz:187876.got - 2010.06.28 07:06:18.
