data_PCOD8145296
_publ_section_title
;
Structure prediction by ZEFSAII (Michael W. Deem and Ramdas Pophale) SiO2 
 PCOD8145296
Probable space group: C 2/C
;
_chemical_formula_sum "Si O2"
_cell_formula_units_Z 48
_cell_length_a 15.144879
_cell_length_b 18.314770
_cell_length_c 8.922615
_cell_angle_alpha 90.000000
_cell_angle_beta 80.849094
_cell_angle_gamma 90.000000
_cell_volume 2443.411682
_symmetry_space_group_name_H-M "C 2/C"
_symmetry_group_IT_number 15
_symmetry_cell_setting 'monoclinic'
loop_
_space_group_symop_operation_xyz
x,y,z
-x,y,1/2-z
-x,-y,-z
x,-y,1/2+z
1/2+x,1/2+y,z
1/2-x,1/2+y,1/2-z
1/2-x,1/2-y,-z
1/2+x,1/2-y,1/2+z
loop_
_atom_site_type_symbol
_atom_site_label
_atom_site_fract_x
_atom_site_fract_y
_atom_site_fract_z
Si Si1 0.474729 0.605429 0.083365
Si Si2 0.482962 0.251031 0.425079
Si Si3 0.804215 0.317075 0.918914
Si Si4 0.679545 0.748470 0.888601
Si Si5 0.307962 0.544687 0.983434
Si Si6 0.846504 0.082258 0.642649
O O1 0.500000 0.605697 0.250000
O O2 0.442167 0.685212 0.038015
O O3 0.388481 0.556119 0.080286
O O4 0.555230 0.579190 0.956476
O O5 0.500000 0.279229 0.250000
O O6 0.408911 0.186798 0.441255
O O7 0.579206 0.229348 0.470797
O O8 0.793857 0.307549 0.743291
O O9 0.750000 0.250000 0.000000
O O10 0.770991 0.396629 0.976645
O O11 0.683028 0.665769 0.825341
O O12 0.750000 0.750000 0.000000
O O13 0.345174 0.544571 0.805717
O O14 0.279305 0.462821 0.047202
#
# Coordination Sequence:
#
# PCOD8145296 Si02
#       6
#     8   8   8   8   8   8
#     4  11  21  34  56  86 123 157 193 241 303 365
#     4   9  19  37  57  86 118 156 197 242 292 347
#     4  11  20  37  61  85 117 162 199 237 294 358
#     4  10  22  38  62  89 118 148 201 256 299 348
#     4  12  23  38  58  83 123 162 199 240 306 367
#     4  11  24  38  55  85 121 158 198 244 300 361
#
# _framework density 19.644663000000001
#
# number of rings (size 3 to 8) (size 9 to 14) (size 15 to 20)
#    0.000    1.333    3.333    4.000    7.000    0.000 
#    0.000    0.000    0.000    1.000    0.000    0.000 
#    0.000    0.000    0.000    0.000    0.000    0.000 
#
# Total GULP energy -297411.347540 kJ/mol
# GULP energy per Si atom -12392.139481 kJ/mol
# Density = 1.959995 g / cm^3
# Si number density = 19.644663 Si / 1000 Ang^3
#
#
#
# Elastic Constant Matrix: (Units=GPa)
#
#
# Indices 1 2 3 4 5 6 
#
# 1 104.6336 30.6765 45.8466 0.0000 16.6945 0.0000
# 2 30.6765 68.0233 25.1625 0.0000 -8.2011 0.0000
# 3 45.8466 25.1625 112.3016 0.0000 5.3865 0.0000
# 4 0.0000 0.0000 0.0000 26.2827 0.0000 1.6793
# 5 16.6945 -8.2011 5.3865 0.0000 29.6559 0.0000
# 6 0.0000 0.0000 0.0000 1.6793 0.0000 27.9207
#
#
#
# Elastic Compliance Matrix: (Units=1/GPa)
#
#
# Indices 1 2 3 4 5 6 
#
# 1 0.014661 -0.006184 -0.004158 0.000000 -0.009208 0.000000
# 2 -0.006184 0.019450 -0.002278 0.000000 0.009274 0.000000
# 3 -0.004158 -0.002278 0.011128 0.000000 -0.000310 0.000000
# 4 0.000000 0.000000 0.000000 0.038195 0.000000 -0.002297
# 5 -0.009208 0.009274 -0.000310 0.000000 0.041525 0.000000
# 6 0.000000 0.000000 0.000000 -0.002297 0.000000 0.035954
#
#
# Mechanical properties :
#
#
# Convention : Reuss Voigt Hill
#
# Bulk Modulus (GPa) = 50.00382 54.25885 52.13133
# Shear Modulus (GPa) = 25.93098 28.99005 27.46051
#
# Velocity S-wave (km/s) = 3.63712 3.84568 3.74285
# Velocity P-wave (km/s) = 6.56869 6.88470 6.72855
#
# Compressibility (1/GPa) = 0.01999847
#
# Stress axis : x y z
#
# Youngs Moduli (GPa) = 68.20680 51.41263 89.86713
#
# Poissons Ratio (x) = 0.31793 0.37368
# Poissons Ratio (y) = 0.42178 0.20475
# Poissons Ratio (z) = 0.28362 0.11714
#
# Static dielectric constant tensor:
#      x y z
#    x 3.776220 0.000000 -0.022970 
#    y 0.000000 3.774230 0.000000 
#    z -0.022970 0.000000 3.640230 
# 
# 
# High freq. dielectric constant tensor:
#      x y z
#    x 1.747510 0.000000 -0.000930 
#    y 0.000000 1.749960 0.000000 
#    z -0.000930 0.000000 1.773540 
# 
# From -- ./inp_files/39621.got.cif
#   From: 2010.06.25/outbox.cif.g09.slc.cpg/sg15_20_cif.got.tgz:39621.got - 2010.06.28 07:06:18.
