data_PCOD8145354
_publ_section_title
;
Structure prediction by ZEFSAII (Michael W. Deem and Ramdas Pophale) SiO2 
 PCOD8145354
Probable space group: C 2/C
;
_chemical_formula_sum "Si O2"
_cell_formula_units_Z 44
_cell_length_a 9.592050
_cell_length_b 21.572126
_cell_length_c 10.312207
_cell_angle_alpha 90.000000
_cell_angle_beta 96.510652
_cell_angle_gamma 90.000000
_cell_volume 2120.049878
_symmetry_space_group_name_H-M "C 2/C"
_symmetry_group_IT_number 15
_symmetry_cell_setting 'monoclinic'
loop_
_space_group_symop_operation_xyz
x,y,z
-x,y,1/2-z
-x,-y,-z
x,-y,1/2+z
1/2+x,1/2+y,z
1/2-x,1/2+y,1/2-z
1/2-x,1/2-y,-z
1/2+x,1/2-y,1/2+z
loop_
_atom_site_type_symbol
_atom_site_label
_atom_site_fract_x
_atom_site_fract_y
_atom_site_fract_z
Si Si1 0.000000 0.914017 0.750000
Si Si2 0.657429 0.886801 0.488167
Si Si3 0.652676 0.492964 0.956852
Si Si4 0.163823 0.295718 0.263140
Si Si5 0.249273 0.659945 0.274699
Si Si6 0.838393 0.614346 0.966726
O O1 0.095272 0.867702 0.672648
O O2 0.120305 0.957971 0.820158
O O3 0.704518 0.829748 0.401840
O O4 0.683005 0.871270 0.640818
O O5 0.496192 0.906621 0.449213
O O6 0.747795 0.946495 0.451241
O O7 0.731201 0.557388 0.946622
O O8 0.500000 0.500000 0.000000
O O9 0.248893 0.232574 0.255952
O O10 0.210674 0.336959 0.146056
O O11 0.000000 0.280644 0.250000
O O12 0.156119 0.646531 0.391477
#
# Coordination Sequence:
#
# PCOD8145354 Si02
#       6
#     4   8   8   8   8   8
#     4  10  22  38  64  92 122 170 204 270 304 372
#     4  10  24  40  63  93 125 168 204 262 318 370
#     4  11  23  41  63  91 128 165 218 254 320 372
#     4  10  22  40  63  93 129 162 209 258 318 371
#     4  11  20  41  64  89 126 165 213 252 315 377
#     4  11  23  40  64  94 126 164 210 263 313 373
#
# _framework density 20.75423
#
# number of rings (size 3 to 8) (size 9 to 14) (size 15 to 20)
#    0.000    1.455    2.727    2.182    2.545    0.000 
#    0.000    5.455    0.000    0.000    0.000    0.000 
#    0.000    0.000    0.000    0.000    0.000    0.000 
#
# Total GULP energy -272629.627046 kJ/mol
# GULP energy per Si atom -12392.255775 kJ/mol
# Density = 2.070699 g / cm^3
# Si number density = 20.754230 Si / 1000 Ang^3
#
#
#
# Elastic Constant Matrix: (Units=GPa)
#
#
# Indices 1 2 3 4 5 6 
#
# 1 111.1508 63.7931 18.6134 0.0000 -4.3169 0.0000
# 2 63.7931 127.2875 24.8536 0.0000 -5.7104 0.0000
# 3 18.6134 24.8536 95.4880 0.0000 -12.0409 0.0000
# 4 0.0000 0.0000 0.0000 28.1473 0.0000 -1.5634
# 5 -4.3169 -5.7104 -12.0409 0.0000 26.8470 0.0000
# 6 0.0000 0.0000 0.0000 -1.5634 0.0000 33.2909
#
#
#
# Elastic Compliance Matrix: (Units=1/GPa)
#
#
# Indices 1 2 3 4 5 6 
#
# 1 0.012700 -0.006189 -0.000820 0.000000 0.000358 0.000000
# 2 -0.006189 0.011311 -0.001653 0.000000 0.000669 0.000000
# 3 -0.000820 -0.001653 0.011661 0.000000 0.004747 0.000000
# 4 0.000000 0.000000 0.000000 0.035620 0.000000 0.001673
# 5 0.000358 0.000669 0.004747 0.000000 0.039577 0.000000
# 6 0.000000 0.000000 0.000000 0.001673 0.000000 0.030117
#
#
# Mechanical properties :
#
#
# Convention : Reuss Voigt Hill
#
# Bulk Modulus (GPa) = 54.50008 60.93851 57.71929
# Shear Modulus (GPa) = 30.40900 32.76811 31.58855
#
# Velocity S-wave (km/s) = 3.83194 3.97780 3.90555
# Velocity P-wave (km/s) = 6.77459 7.10795 6.94327
#
# Compressibility (1/GPa) = 0.01834860
#
# Stress axis : x y z
#
# Youngs Moduli (GPa) = 78.74090 88.41198 85.75508
#
# Poissons Ratio (x) = 0.54716 0.07029
# Poissons Ratio (y) = 0.48731 0.14177
# Poissons Ratio (z) = 0.06454 0.14616
#
# Static dielectric constant tensor:
#      x y z
#    x 4.614530 0.000000 1.086670 
#    y 0.000000 4.246610 0.000000 
#    z 1.086670 0.000000 5.510750 
# 
# 
# High freq. dielectric constant tensor:
#      x y z
#    x 1.816400 0.000000 -0.001520 
#    y 0.000000 1.823200 0.000000 
#    z -0.001520 0.000000 1.803690 
# 
# From -- ./inp_files/78199.got.cif
#   From: 2010.06.25/outbox.cif.g09.slc.cpg/sg15_40_cif.got.tgz:78199.got - 2010.06.28 07:06:18.
