data_PCOD8145320
_publ_section_title
;
Structure prediction by ZEFSAII (Michael W. Deem and Ramdas Pophale) SiO2 
 PCOD8145320
Probable space group: C 2/C
;
_chemical_formula_sum "Si O2"
_cell_formula_units_Z 48
_cell_length_a 8.845707
_cell_length_b 16.112283
_cell_length_c 20.709297
_cell_angle_alpha 90.000000
_cell_angle_beta 123.423647
_cell_angle_gamma 90.000000
_cell_volume 2463.451900
_symmetry_space_group_name_H-M "C 2/C"
_symmetry_group_IT_number 15
_symmetry_cell_setting 'monoclinic'
loop_
_space_group_symop_operation_xyz
x,y,z
-x,y,1/2-z
-x,-y,-z
x,-y,1/2+z
1/2+x,1/2+y,z
1/2-x,1/2+y,1/2-z
1/2-x,1/2-y,-z
1/2+x,1/2-y,1/2+z
loop_
_atom_site_type_symbol
_atom_site_label
_atom_site_fract_x
_atom_site_fract_y
_atom_site_fract_z
Si Si1 0.983761 0.500984 0.599016
Si Si2 0.184884 0.732052 0.055503
Si Si3 0.510743 0.412426 0.327696
Si Si4 0.842980 0.917540 0.666741
Si Si5 0.360974 0.123359 0.969322
Si Si6 0.172168 0.616165 0.830169
O O1 0.854933 0.435499 0.531296
O O2 0.881132 0.538508 0.636843
O O3 0.164779 0.450375 0.663586
O O4 0.033794 0.576853 0.563825
O O5 0.297048 0.653211 0.105721
O O6 0.227635 0.811082 0.108602
O O7 0.250000 0.750000 0.000000
O O8 0.970582 0.709075 0.008037
O O9 0.500000 0.387609 0.250000
O O10 0.582870 0.505116 0.356291
O O11 0.656020 0.353412 0.399010
O O12 0.311353 0.412686 0.308811
O O13 0.000000 0.883206 0.750000
O O14 0.000000 0.650224 0.750000
#
# Coordination Sequence:
#
# PCOD8145320 Si02
#       6
#     8   8   8   8   8   8
#     4   9  18  34  61  84 111 151 195 241 277 342
#     4  11  22  35  59  87 118 157 192 238 288 351
#     4  10  22  38  63  83 116 156 195 245 299 340
#     4   9  18  38  59  80 114 158 191 233 296 344
#     4   9  18  38  57  81 120 154 190 232 294 344
#     4  12  23  36  60  93 116 147 202 246 288 351
#
# _framework density 19.484853999999999
#
# number of rings (size 3 to 8) (size 9 to 14) (size 15 to 20)
#    0.000    2.000    1.667    4.500    0.000    1.333 
#    0.000    0.000    0.000    4.000    0.000    0.000 
#    0.000    0.000    0.000    0.000    0.000    0.000 
#
# Total GULP energy -297489.440317 kJ/mol
# GULP energy per Si atom -12395.393347 kJ/mol
# Density = 1.944051 g / cm^3
# Si number density = 19.484854 Si / 1000 Ang^3
#
#
#
# Elastic Constant Matrix: (Units=GPa)
#
#
# Indices 1 2 3 4 5 6 
#
# 1 130.5538 43.2651 66.1356 0.0000 3.9434 0.0000
# 2 43.2651 73.5872 47.8659 0.0000 3.2048 0.0000
# 3 66.1356 47.8659 132.8886 0.0000 15.3999 0.0000
# 4 0.0000 0.0000 0.0000 21.1857 0.0000 -7.5063
# 5 3.9434 3.2048 15.3999 0.0000 38.2840 0.0000
# 6 0.0000 0.0000 0.0000 -7.5063 0.0000 17.9051
#
#
#
# Elastic Compliance Matrix: (Units=1/GPa)
#
#
# Indices 1 2 3 4 5 6 
#
# 1 0.011026 -0.003768 -0.004232 0.000000 0.000882 0.000000
# 2 -0.003768 0.019083 -0.005096 0.000000 0.000840 0.000000
# 3 -0.004232 -0.005096 0.011923 0.000000 -0.003933 0.000000
# 4 0.000000 0.000000 0.000000 0.055436 0.000000 0.023240
# 5 0.000882 0.000840 -0.003933 0.000000 0.027542 0.000000
# 6 0.000000 0.000000 0.000000 0.023240 0.000000 0.065593
#
#
# Mechanical properties :
#
#
# Convention : Reuss Voigt Hill
#
# Bulk Modulus (GPa) = 63.13437 72.39585 67.76511
# Shear Modulus (GPa) = 22.51509 27.45914 24.98712
#
# Velocity S-wave (km/s) = 3.40298 3.75808 3.58493
# Velocity P-wave (km/s) = 6.92188 7.48775 7.21037
#
# Compressibility (1/GPa) = 0.01583923
#
# Stress axis : x y z
#
# Youngs Moduli (GPa) = 90.69728 52.40377 83.87406
#
# Poissons Ratio (x) = 0.19746 0.35498
# Poissons Ratio (y) = 0.34174 0.42739
# Poissons Ratio (z) = 0.38385 0.26703
#
# Static dielectric constant tensor:
#      x y z
#    x 2.041850 0.000000 -0.283250 
#    y 0.000000 3.502960 0.000000 
#    z -0.283250 0.000000 3.632640 
# 
# 
# High freq. dielectric constant tensor:
#      x y z
#    x 1.743290 0.000000 0.018140 
#    y 0.000000 1.738350 0.000000 
#    z 0.018140 0.000000 1.777940 
# 
# From -- ./inp_files/232314.got.cif
#   From: 2010.06.25/outbox.cif.g09.slc.cpg/sg15_117_cif.got.tgz:232314.got - 2010.06.28 07:06:18.
