data_PCOD8145830
_publ_section_title
;
Structure prediction by ZEFSAII (Michael W. Deem and Ramdas Pophale) SiO2 
 PCOD8145830
Probable space group: C 2/C
;
_chemical_formula_sum "Si O2"
_cell_formula_units_Z 60
_cell_length_a 17.905597
_cell_length_b 19.288028
_cell_length_c 18.893626
_cell_angle_alpha 90.000000
_cell_angle_beta 28.594340
_cell_angle_gamma 90.000000
_cell_volume 3122.980634
_symmetry_space_group_name_H-M "C 2/C"
_symmetry_group_IT_number 15
_symmetry_cell_setting 'monoclinic'
loop_
_space_group_symop_operation_xyz
x,y,z
-x,y,1/2-z
-x,-y,-z
x,-y,1/2+z
1/2+x,1/2+y,z
1/2-x,1/2+y,1/2-z
1/2-x,1/2-y,-z
1/2+x,1/2-y,1/2+z
loop_
_atom_site_type_symbol
_atom_site_label
_atom_site_fract_x
_atom_site_fract_y
_atom_site_fract_z
Si Si1 0.564523 0.068708 0.850752
Si Si2 0.500000 0.045896 0.750000
Si Si3 0.813271 0.560962 0.178941
Si Si4 0.309873 0.665726 0.710647
Si Si5 0.165097 0.191168 0.377708
Si Si6 0.881856 0.042785 0.744969
Si Si7 0.282657 0.543637 0.981990
Si Si8 0.680599 0.811856 0.599584
O O1 0.497844 0.086214 0.827176
O O2 0.714287 0.118330 0.734911
O O3 0.603549 0.986091 0.829088
O O4 0.436244 0.086144 0.017343
O O5 0.655981 0.001766 0.626839
O O6 0.732993 0.629780 0.273868
O O7 0.676043 0.513283 0.262498
O O8 0.210321 0.734565 0.807897
O O9 0.477930 0.685531 0.538277
O O10 0.329799 0.620609 0.766107
O O11 0.247183 0.182830 0.383784
O O12 0.815548 0.018218 0.875438
O O13 0.068309 0.041359 0.591121
O O14 0.218712 0.620136 0.023961
O O15 0.500000 0.798168 0.750000
O O16 0.750000 0.750000 0.500000
#
# Coordination Sequence:
#
# PCOD8145830 Si02
#       8
#     8   4   8   8   8   8   8   8
#     4  10  23  40  64  94 126 162 206 271 316 381
#     4  12  22  40  64  94 120 160 212 264 328 368
#     4  10  22  41  63  91 125 166 213 257 315 369
#     4  11  24  41  62  88 126 167 215 259 313 374
#     4  12  24  41  63  90 123 172 214 259 310 380
#     4  10  22  40  60  91 128 165 206 260 309 377
#     4  11  22  37  59  89 128 162 203 253 319 371
#     4  12  25  37  56  87 126 168 207 249 303 376
#
# _framework density 19.212416000000001
#
# number of rings (size 3 to 8) (size 9 to 14) (size 15 to 20)
#    0.000    1.067    3.333    3.200    3.733    1.067 
#    0.000    0.000    0.000    4.800    0.000    0.000 
#    0.000    0.000    0.000    0.000    0.000    0.000 
#
# Total GULP energy -371935.829087 kJ/mol
# GULP energy per Si atom -12397.860970 kJ/mol
# Density = 1.916869 g / cm^3
# Si number density = 19.212416 Si / 1000 Ang^3
#
#
#
# Elastic Constant Matrix: (Units=GPa)
#
#
# Indices 1 2 3 4 5 6 
#
# 1 111.0647 37.5000 49.0956 0.0210 -0.3724 -0.0168
# 2 37.5000 98.7997 45.7087 0.0178 -3.9140 -0.0019
# 3 49.0956 45.7087 126.9205 -0.0089 -18.1510 0.0286
# 4 0.0210 0.0178 -0.0089 39.6075 -0.0090 -3.8267
# 5 -0.3724 -3.9140 -18.1510 -0.0090 31.8062 0.0011
# 6 -0.0168 -0.0019 0.0286 -3.8267 0.0011 26.9666
#
#
#
# Elastic Compliance Matrix: (Units=1/GPa)
#
#
# Indices 1 2 3 4 5 6 
#
# 1 0.011620 -0.002720 -0.003858 -0.000005 -0.002401 0.000010
# 2 -0.002720 0.012817 -0.003639 -0.000005 -0.000532 0.000002
# 3 -0.003858 -0.003639 0.011555 0.000006 0.006101 -0.000014
# 4 -0.000005 -0.000005 0.000006 0.025599 0.000010 0.003633
# 5 -0.002401 -0.000532 0.006101 0.000010 0.034829 -0.000008
# 6 0.000010 0.000002 -0.000014 0.003633 -0.000008 0.037598
#
#
# Mechanical properties :
#
#
# Convention : Reuss Voigt Hill
#
# Bulk Modulus (GPa) = 64.28950 66.82150 65.55550
# Shear Modulus (GPa) = 31.32079 33.30810 32.31445
#
# Velocity S-wave (km/s) = 4.04200 4.16826 4.10562
# Velocity P-wave (km/s) = 7.43766 7.61720 7.52797
#
# Compressibility (1/GPa) = 0.01555464
#
# Stress axis : x y z
#
# Youngs Moduli (GPa) = 86.05981 78.02290 86.54512
#
# Poissons Ratio (x) = 0.21226 0.33392
# Poissons Ratio (y) = 0.23412 0.31498
# Poissons Ratio (z) = 0.33205 0.28396
#
# Static dielectric constant tensor:
#      x y z
#    x 4.068330 0.000880 -0.068470 
#    y 0.000880 3.407250 0.000280 
#    z -0.068470 0.000280 3.701740 
# 
# 
# High freq. dielectric constant tensor:
#      x y z
#    x 1.748180 0.000000 -0.009530 
#    y 0.000000 1.732570 0.000010 
#    z -0.009530 0.000010 1.765030 
# 
# From -- ./inp_files/211731.got.cif
#   From: 2010.06.25/outbox.cif.g09.slc.cpg/sg15_106_cif.got.tgz:211731.got - 2010.06.28 07:06:18.
