data_PCOD8145117
_publ_section_title
;
Structure prediction by ZEFSAII (Michael W. Deem and Ramdas Pophale) SiO2 
 PCOD8145117
Probable space group: C 2/C
;
_chemical_formula_sum "Si O2"
_cell_formula_units_Z 56
_cell_length_a 18.668047
_cell_length_b 13.831961
_cell_length_c 12.822705
_cell_angle_alpha 90.000000
_cell_angle_beta 129.026577
_cell_angle_gamma 90.000000
_cell_volume 2572.181903
_symmetry_space_group_name_H-M "C 2/C"
_symmetry_group_IT_number 15
_symmetry_cell_setting 'monoclinic'
loop_
_space_group_symop_operation_xyz
x,y,z
-x,y,1/2-z
-x,-y,-z
x,-y,1/2+z
1/2+x,1/2+y,z
1/2-x,1/2+y,1/2-z
1/2-x,1/2-y,-z
1/2+x,1/2-y,1/2+z
loop_
_atom_site_type_symbol
_atom_site_label
_atom_site_fract_x
_atom_site_fract_y
_atom_site_fract_z
Si Si1 0.779859 0.341830 0.263370
Si Si2 0.245907 0.478779 0.440888
Si Si3 0.696194 0.632372 0.153598
Si Si4 0.562843 0.030320 0.898665
Si Si5 0.150930 0.024325 0.772291
Si Si6 0.489008 0.140676 0.014371
Si Si7 0.008338 0.830725 0.375548
O O1 0.745864 0.379251 0.118079
O O2 0.754860 0.228999 0.258282
O O3 0.731509 0.402401 0.310696
O O4 0.889543 0.354895 0.367721
O O5 0.230809 0.565824 0.343222
O O6 0.166247 0.477164 0.453411
O O7 0.337668 0.497231 0.594591
O O8 0.652633 0.574812 0.210064
O O9 0.615418 0.654709 0.997940
O O10 0.500000 0.074891 0.750000
O O11 0.519856 0.927236 0.892230
O O12 0.562802 0.099773 0.999416
O O13 0.051754 0.073118 0.661476
O O14 0.528145 0.244557 0.083935
O O15 0.000000 0.794970 0.250000
#
# Coordination Sequence:
#
# PCOD8145117 Si02
#       7
#     8   8   8   8   8   8   8
#     4  10  22  41  62  96 130 168 218 272 327 389
#     4  11  22  40  67  94 129 171 216 268 335 391
#     4  10  24  42  67  92 133 172 219 273 323 393
#     4  11  21  37  62  93 134 166 212 269 341 396
#     4  11  23  41  65  95 131 171 218 277 321 388
#     4  10  22  37  61  96 129 170 214 279 327 391
#     4  11  22  42  66  95 125 173 230 264 325 391
#
# _framework density 21.771398000000001
#
# number of rings (size 3 to 8) (size 9 to 14) (size 15 to 20)
#    0.000    1.429    4.286    0.857    0.000    4.571 
#    0.000    1.429    3.143    0.000    0.000    0.000 
#    0.000    0.000    0.000    0.000    0.000    0.000 
#
# Total GULP energy -347219.402469 kJ/mol
# GULP energy per Si atom -12400.692945 kJ/mol
# Density = 2.172185 g / cm^3
# Si number density = 21.771398 Si / 1000 Ang^3
#
#
#
# Elastic Constant Matrix: (Units=GPa)
#
#
# Indices 1 2 3 4 5 6 
#
# 1 68.1592 15.7014 9.2274 0.0000 -11.8590 0.0000
# 2 15.7014 110.2066 41.7455 0.0000 -5.1544 0.0000
# 3 9.2274 41.7455 86.8743 0.0000 -15.5566 0.0000
# 4 0.0000 0.0000 0.0000 36.6694 0.0000 -1.0723
# 5 -11.8590 -5.1544 -15.5566 0.0000 27.5846 0.0000
# 6 0.0000 0.0000 0.0000 -1.0723 0.0000 25.5759
#
#
#
# Elastic Compliance Matrix: (Units=1/GPa)
#
#
# Indices 1 2 3 4 5 6 
#
# 1 0.016309 -0.002217 0.000572 0.000000 0.006920 0.000000
# 2 -0.002217 0.011421 -0.005607 0.000000 -0.001981 0.000000
# 3 0.000572 -0.005607 0.015574 0.000000 0.007981 0.000000
# 4 0.000000 0.000000 0.000000 0.027304 0.000000 0.001145
# 5 0.006920 -0.001981 0.007981 0.000000 0.043358 0.000000
# 6 0.000000 0.000000 0.000000 0.001145 0.000000 0.039147
#
#
# Mechanical properties :
#
#
# Convention : Reuss Voigt Hill
#
# Bulk Modulus (GPa) = 34.72282 44.28762 39.50522
# Shear Modulus (GPa) = 28.21402 31.20370 29.70886
#
# Velocity S-wave (km/s) = 3.60380 3.78993 3.69803
# Velocity P-wave (km/s) = 5.77061 6.28790 6.03480
#
# Compressibility (1/GPa) = 0.02879951
#
# Stress axis : x y z
#
# Youngs Moduli (GPa) = 61.31708 87.55733 64.21015
#
# Poissons Ratio (x) = 0.19408 -0.03673
# Poissons Ratio (y) = 0.13591 0.36006
# Poissons Ratio (z) = -0.03507 0.49098
#
# Static dielectric constant tensor:
#      x y z
#    x 3.732080 0.000000 -0.106290 
#    y 0.000000 3.980910 0.000000 
#    z -0.106290 0.000000 3.916240 
# 
# 
# High freq. dielectric constant tensor:
#      x y z
#    x 1.847040 0.000000 -0.009800 
#    y 0.000000 1.849370 0.000000 
#    z -0.009800 0.000000 1.861240 
# 
# From -- ./inp_files/105789.got.cif
#   From: 2010.06.25/outbox.cif.g09.slc.cpg/sg15_53_cif.got.tgz:105789.got - 2010.06.28 07:06:18.
