data_PCOD8145712
_publ_section_title
;
Structure prediction by ZEFSAII (Michael W. Deem and Ramdas Pophale) SiO2 
 PCOD8145712
Probable space group: C 2/C
;
_chemical_formula_sum "Si O2"
_cell_formula_units_Z 48
_cell_length_a 7.686258
_cell_length_b 27.861802
_cell_length_c 17.933862
_cell_angle_alpha 90.000000
_cell_angle_beta 33.442094
_cell_angle_gamma 90.000000
_cell_volume 2116.526039
_symmetry_space_group_name_H-M "C 2/C"
_symmetry_group_IT_number 15
_symmetry_cell_setting 'monoclinic'
loop_
_space_group_symop_operation_xyz
x,y,z
-x,y,1/2-z
-x,-y,-z
x,-y,1/2+z
1/2+x,1/2+y,z
1/2-x,1/2+y,1/2-z
1/2-x,1/2-y,-z
1/2+x,1/2-y,1/2+z
loop_
_atom_site_type_symbol
_atom_site_label
_atom_site_fract_x
_atom_site_fract_y
_atom_site_fract_z
Si Si1 0.250193 0.713397 0.600608
Si Si2 0.061329 0.604575 0.498927
Si Si3 0.640632 0.207238 0.906873
Si Si4 0.575187 0.532212 0.302356
Si Si5 0.728705 0.104738 0.604809
Si Si6 0.254505 0.455695 0.513782
O O1 0.564799 0.747198 0.488020
O O2 0.347481 0.658583 0.581915
O O3 0.000000 0.733080 0.750000
O O4 0.081950 0.714798 0.582568
O O5 0.419515 0.586176 0.354655
O O6 0.026252 0.599765 0.601206
O O7 0.975137 0.659310 0.508385
O O8 0.823105 0.572506 0.535194
O O9 0.000000 0.204603 0.750000
O O10 0.500000 0.506378 0.250000
O O11 0.423778 0.504455 0.426586
O O12 0.951215 0.533982 0.173546
O O13 0.500000 0.085213 0.750000
O O14 0.037208 0.072074 0.499874
#
# Coordination Sequence:
#
# PCOD8145712 Si02
#       6
#     8   8   8   8   8   8
#     4   9  21  43  59  93 131 156 214 269 301 383
#     4  10  23  41  65  92 131 163 215 262 312 386
#     4  10  22  39  66  94 124 172 204 254 330 370
#     4  10  23  43  65  96 128 169 217 265 322 382
#     4  10  24  41  64  96 125 168 220 260 318 383
#     4  11  25  43  67  92 128 173 210 268 326 373
#
# _framework density 22.678671000000001
#
# number of rings (size 3 to 8) (size 9 to 14) (size 15 to 20)
#    0.000    2.000    0.000    2.000   11.667    4.000 
#    9.000    0.000    0.000    0.000    0.000    0.000 
#    0.000    0.000    0.000    0.000    0.000    0.000 
#
# Total GULP energy -297359.207928 kJ/mol
# GULP energy per Si atom -12389.966997 kJ/mol
# Density = 2.262705 g / cm^3
# Si number density = 22.678671 Si / 1000 Ang^3
#
#
#
# Elastic Constant Matrix: (Units=GPa)
#
#
# Indices 1 2 3 4 5 6 
#
# 1 46.0954 10.7230 -4.0930 -0.0002 -11.1994 -0.0004
# 2 10.7230 114.0421 64.7141 -0.0004 -18.7213 -0.0004
# 3 -4.0930 64.7141 129.9772 0.0010 -20.1095 -0.0032
# 4 -0.0002 -0.0004 0.0010 34.1622 -0.0008 -0.6108
# 5 -11.1994 -18.7213 -20.1095 -0.0008 34.9321 -0.0007
# 6 -0.0004 -0.0004 -0.0032 -0.6108 -0.0007 13.7188
#
#
#
# Elastic Compliance Matrix: (Units=1/GPa)
#
#
# Indices 1 2 3 4 5 6 
#
# 1 0.024737 -0.002965 0.003553 0.000000 0.008387 0.000002
# 2 -0.002965 0.012944 -0.006160 0.000000 0.002440 -0.000001
# 3 0.003553 -0.006160 0.011569 0.000000 0.004497 0.000003
# 4 0.000000 0.000000 0.000000 0.029295 0.000001 0.001304
# 5 0.008387 0.002440 0.004497 0.000001 0.035212 0.000003
# 6 0.000002 -0.000001 0.000003 0.001304 0.000003 0.072951
#
#
# Mechanical properties :
#
#
# Convention : Reuss Voigt Hill
#
# Bulk Modulus (GPa) = 26.24402 48.08919 37.16660
# Shear Modulus (GPa) = 23.74676 31.14733 27.44705
#
# Velocity S-wave (km/s) = 3.23940 3.70999 3.48265
# Velocity P-wave (km/s) = 5.05854 6.29306 5.70927
#
# Compressibility (1/GPa) = 0.03810393
#
# Stress axis : x y z
#
# Youngs Moduli (GPa) = 40.42507 77.25674 86.44125
#
# Poissons Ratio (x) = 0.22909 -0.30712
# Poissons Ratio (y) = 0.11987 0.53252
# Poissons Ratio (z) = -0.14363 0.47594
#
# Static dielectric constant tensor:
#      x y z
#    x 4.026740 0.000000 0.033970 
#    y 0.000000 4.587100 -0.000010 
#    z 0.033970 -0.000010 4.030030 
# 
# 
# High freq. dielectric constant tensor:
#      x y z
#    x 1.895600 0.000000 0.007840 
#    y 0.000000 1.892830 0.000000 
#    z 0.007840 0.000000 1.889680 
# 
# From -- ./inp_files/234752.got.cif
#   From: 2010.06.25/outbox.cif.g09.slc.cpg/sg15_118_cif.got.tgz:234752.got - 2010.06.28 07:06:18.
