data_PCOD8145186
_publ_section_title
;
Structure prediction by ZEFSAII (Michael W. Deem and Ramdas Pophale) SiO2 
 PCOD8145186
Probable space group: C 2/C
;
_chemical_formula_sum "Si O2"
_cell_formula_units_Z 60
_cell_length_a 11.983460
_cell_length_b 21.459280
_cell_length_c 18.894437
_cell_angle_alpha 90.000000
_cell_angle_beta 39.731022
_cell_angle_gamma 90.000000
_cell_volume 3105.685217
_symmetry_space_group_name_H-M "C 2/C"
_symmetry_group_IT_number 15
_symmetry_cell_setting 'monoclinic'
loop_
_space_group_symop_operation_xyz
x,y,z
-x,y,1/2-z
-x,-y,-z
x,-y,1/2+z
1/2+x,1/2+y,z
1/2-x,1/2+y,1/2-z
1/2-x,1/2-y,-z
1/2+x,1/2-y,1/2+z
loop_
_atom_site_type_symbol
_atom_site_label
_atom_site_fract_x
_atom_site_fract_y
_atom_site_fract_z
Si Si1 0.421750 0.675149 0.364738
Si Si2 0.570976 0.580741 0.394483
Si Si3 0.837860 0.945338 0.140141
Si Si4 0.703504 0.821478 0.635336
Si Si5 0.777414 0.814106 0.327083
Si Si6 0.445620 0.192216 0.909034
Si Si7 0.911214 0.143333 0.898121
Si Si8 0.500000 0.881816 0.250000
O O1 0.500000 0.683896 0.250000
O O2 0.484518 0.609405 0.366327
O O3 0.477275 0.733512 0.386875
O O4 0.212104 0.676681 0.461006
O O5 0.674556 0.516873 0.328303
O O6 0.419521 0.563880 0.523213
O O7 0.705434 0.631423 0.356204
O O8 0.639415 0.921483 0.227726
O O9 0.963259 0.912544 0.137074
O O10 0.500000 0.829606 0.750000
O O11 0.770384 0.751637 0.614465
O O12 0.764930 0.837630 0.525772
O O13 0.618067 0.838751 0.357756
O O14 0.810019 0.866946 0.372437
O O15 0.947140 0.803068 0.193220
O O16 0.401026 0.162564 0.854292
#
# Coordination Sequence:
#
# PCOD8145186 Si02
#       8
#     8   8   8   8   8   8   8   4
#     4  11  23  39  60  92 130 161 192 255 316 363
#     4  10  22  41  58  88 117 165 201 247 301 353
#     4  10  22  40  65  82 120 160 211 247 285 366
#     4  11  22  35  58  88 119 150 197 246 297 359
#     4  11  21  36  60  88 122 150 194 244 303 359
#     4  11  23  37  62  94 121 158 204 247 307 372
#     4  10  22  38  57  87 118 162 191 239 305 350
#     4  12  20  38  66  90 114 154 212 258 284 366
#
# _framework density 19.319407999999999
#
# number of rings (size 3 to 8) (size 9 to 14) (size 15 to 20)
#    0.000    1.333    6.000    0.400    0.933    2.133 
#    2.400    0.000    0.000    1.600    0.000    0.000 
#    0.000    0.000    0.000    0.000    0.000    0.000 
#
# Total GULP energy -371767.504424 kJ/mol
# GULP energy per Si atom -12392.250147 kJ/mol
# Density = 1.927544 g / cm^3
# Si number density = 19.319408 Si / 1000 Ang^3
#
#
#
# Elastic Constant Matrix: (Units=GPa)
#
#
# Indices 1 2 3 4 5 6 
#
# 1 111.1485 36.0288 46.1069 0.0066 -7.1805 -0.0134
# 2 36.0288 90.6601 19.1354 0.0027 0.3672 -0.0044
# 3 46.1069 19.1354 127.2802 0.0072 -1.6759 -0.0008
# 4 0.0066 0.0027 0.0072 20.3114 -0.0035 -2.8367
# 5 -7.1805 0.3672 -1.6759 -0.0035 18.3311 0.0046
# 6 -0.0134 -0.0044 -0.0008 -2.8367 0.0046 22.5558
#
#
#
# Elastic Compliance Matrix: (Units=1/GPa)
#
#
# Indices 1 2 3 4 5 6 
#
# 1 0.012152 -0.004060 -0.003732 -0.000001 0.004500 0.000005
# 2 -0.004060 0.012751 -0.000471 0.000000 -0.001889 0.000000
# 3 -0.003732 -0.000471 0.009272 -0.000002 -0.000605 -0.000002
# 4 -0.000001 0.000000 -0.000002 0.050114 0.000007 0.006303
# 5 0.004500 -0.001889 -0.000605 0.000007 0.056297 -0.000008
# 6 0.000005 0.000000 -0.000002 0.006303 -0.000008 0.045127
#
#
# Mechanical properties :
#
#
# Convention : Reuss Voigt Hill
#
# Bulk Modulus (GPa) = 56.66491 59.07011 57.86751
# Shear Modulus (GPa) = 24.02442 27.42750 25.72596
#
# Velocity S-wave (km/s) = 3.53021 3.77196 3.65309
# Velocity P-wave (km/s) = 6.78312 7.04359 6.91458
#
# Compressibility (1/GPa) = 0.01764761
#
# Stress axis : x y z
#
# Youngs Moduli (GPa) = 82.29150 78.42736 107.85606
#
# Poissons Ratio (x) = 0.31839 0.40256
# Poissons Ratio (y) = 0.33408 0.05082
# Poissons Ratio (z) = 0.30715 0.03696
#
# Static dielectric constant tensor:
#      x y z
#    x 3.587330 0.000000 -0.014060 
#    y 0.000000 3.517050 0.000010 
#    z -0.014060 0.000010 3.506580 
# 
# 
# High freq. dielectric constant tensor:
#      x y z
#    x 1.755280 0.000000 -0.005540 
#    y 0.000000 1.731800 0.000000 
#    z -0.005540 0.000000 1.752970 
# 
# From -- ./inp_files/200519.got.cif
#   From: 2010.06.25/outbox.cif.g09.slc.cpg/sg15_101_cif.got.tgz:200519.got - 2010.06.28 07:06:18.
