data_PCOD8145035
_publ_section_title
;
Structure prediction by ZEFSAII (Michael W. Deem and Ramdas Pophale) SiO2 
 PCOD8145035
Probable space group: C 2/C
;
_chemical_formula_sum "Si O2"
_cell_formula_units_Z 40
_cell_length_a 24.446159
_cell_length_b 11.937441
_cell_length_c 11.716653
_cell_angle_alpha 90.000000
_cell_angle_beta 147.471498
_cell_angle_gamma 90.000000
_cell_volume 1838.573065
_symmetry_space_group_name_H-M "C 2/C"
_symmetry_group_IT_number 15
_symmetry_cell_setting 'monoclinic'
loop_
_space_group_symop_operation_xyz
x,y,z
-x,y,1/2-z
-x,-y,-z
x,-y,1/2+z
1/2+x,1/2+y,z
1/2-x,1/2+y,1/2-z
1/2-x,1/2-y,-z
1/2+x,1/2-y,1/2+z
loop_
_atom_site_type_symbol
_atom_site_label
_atom_site_fract_x
_atom_site_fract_y
_atom_site_fract_z
Si Si1 0.893402 0.907128 0.773184
Si Si2 0.278358 0.193475 0.167675
Si Si3 0.231222 0.444480 0.325766
Si Si4 0.403002 0.753269 0.499241
Si Si5 0.400126 0.396697 0.448546
O O1 0.781423 0.881854 0.524080
O O2 0.927409 0.820053 0.930691
O O3 0.889639 0.035256 0.810399
O O4 0.976849 0.898007 0.815337
O O5 0.181464 0.188829 0.078629
O O6 0.367445 0.267060 0.380383
O O7 0.314831 0.065133 0.219454
O O8 0.250000 0.250000 0.000000
O O9 0.137994 0.374895 0.110874
O O10 0.326262 0.460361 0.406344
O O11 0.500000 0.772190 0.750000
#
# Coordination Sequence:
#
# PCOD8145035 Si02
#       5
#     8   8   8   8   8
#     4  11  21  40  67  96 126 164 222 266 313 379
#     4  11  21  40  64  93 130 167 211 265 326 379
#     4  11  23  41  66  96 131 168 217 264 325 382
#     4  11  25  42  63  93 132 175 214 263 323 383
#     4  10  22  36  64 100 125 164 208 272 319 376
#
# _framework density 21.756003
#
# number of rings (size 3 to 8) (size 9 to 14) (size 15 to 20)
#    0.000    1.200    4.000    2.400    2.800    0.000 
#    0.000    8.000    0.000    0.000    0.000    0.000 
#    0.000    0.000    0.000    0.000    0.000    0.000 
#
# Total GULP energy -247884.446444 kJ/mol
# GULP energy per Si atom -12394.222322 kJ/mol
# Density = 2.170649 g / cm^3
# Si number density = 21.756003 Si / 1000 Ang^3
#
#
#
# Elastic Constant Matrix: (Units=GPa)
#
#
# Indices 1 2 3 4 5 6 
#
# 1 68.8941 32.7314 -2.7183 0.0000 6.4816 0.0000
# 2 32.7314 155.0859 66.7889 0.0000 -1.5136 0.0000
# 3 -2.7183 66.7889 121.0769 0.0000 9.7039 0.0000
# 4 0.0000 0.0000 0.0000 12.0991 0.0000 -13.9456
# 5 6.4816 -1.5136 9.7039 0.0000 25.7514 0.0000
# 6 0.0000 0.0000 0.0000 -13.9456 0.0000 24.7507
#
#
#
# Elastic Compliance Matrix: (Units=1/GPa)
#
#
# Indices 1 2 3 4 5 6 
#
# 1 0.017904 -0.005551 0.003971 0.000000 -0.006329 0.000000
# 2 -0.005551 0.010315 -0.006161 0.000000 0.004325 0.000000
# 3 0.003971 -0.006161 0.012225 0.000000 -0.005969 0.000000
# 4 0.000000 0.000000 0.000000 0.235757 0.000000 0.132835
# 5 -0.006329 0.004325 -0.005969 0.000000 0.042929 0.000000
# 6 0.000000 0.000000 0.000000 0.132835 0.000000 0.115248
#
#
# Mechanical properties :
#
#
# Convention : Reuss Voigt Hill
#
# Bulk Modulus (GPa) = 40.05915 59.85122 49.95518
# Shear Modulus (GPa) = 10.91270 29.07057 19.99163
#
# Velocity S-wave (km/s) = 2.24206 3.65938 3.03463
# Velocity P-wave (km/s) = 5.01551 6.73979 5.94054
#
# Compressibility (1/GPa) = 0.02496308
#
# Stress axis : x y z
#
# Youngs Moduli (GPa) = 55.85240 96.94432 81.79628
#
# Poissons Ratio (x) = 0.53811 -0.32483
# Poissons Ratio (y) = 0.31002 0.50398
# Poissons Ratio (z) = -0.22180 0.59731
#
# Static dielectric constant tensor:
#      x y z
#    x 3.831770 0.000000 -0.014750 
#    y 0.000000 3.750640 0.000000 
#    z -0.014750 0.000000 3.862520 
# 
# 
# High freq. dielectric constant tensor:
#      x y z
#    x 1.855980 0.000000 -0.008690 
#    y 0.000000 1.852510 0.000000 
#    z -0.008690 0.000000 1.849490 
# 
# From -- ./inp_files/94491.got.cif
#   From: 2010.06.25/outbox.cif.g09.slc.cpg/sg15_48_cif.got.tgz:94491.got - 2010.06.28 07:06:18.
