data_PCOD8145215
_publ_section_title
;
Structure prediction by ZEFSAII (Michael W. Deem and Ramdas Pophale) SiO2 
 PCOD8145215
Probable space group: C 2/C
;
_chemical_formula_sum "Si O2"
_cell_formula_units_Z 64
_cell_length_a 28.734571
_cell_length_b 13.665762
_cell_length_c 9.957876
_cell_angle_alpha 90.000000
_cell_angle_beta 119.516341
_cell_angle_gamma 90.000000
_cell_volume 3402.765014
_symmetry_space_group_name_H-M "C 2/C"
_symmetry_group_IT_number 15
_symmetry_cell_setting 'monoclinic'
loop_
_space_group_symop_operation_xyz
x,y,z
-x,y,1/2-z
-x,-y,-z
x,-y,1/2+z
1/2+x,1/2+y,z
1/2-x,1/2+y,1/2-z
1/2-x,1/2-y,-z
1/2+x,1/2-y,1/2+z
loop_
_atom_site_type_symbol
_atom_site_label
_atom_site_fract_x
_atom_site_fract_y
_atom_site_fract_z
Si Si1 0.436810 0.888547 0.175831
Si Si2 0.654436 0.217935 0.870334
Si Si3 0.860820 0.673212 0.176227
Si Si4 0.060716 0.532412 0.098432
Si Si5 0.178123 0.790988 0.618794
Si Si6 0.296441 0.288819 0.302914
Si Si7 0.708589 0.015427 0.925889
Si Si8 0.221101 0.005615 0.225972
O O1 0.500000 0.867223 0.250000
O O2 0.404640 0.785911 0.142066
O O3 0.416855 0.943500 0.282471
O O4 0.417005 0.955319 0.021251
O O5 0.651695 0.271775 0.724925
O O6 0.669792 0.106177 0.873095
O O7 0.695886 0.271501 0.027554
O O8 0.921081 0.632986 0.297177
O O9 0.837423 0.725702 0.274457
O O10 0.823116 0.582776 0.081931
O O11 0.861441 0.749617 0.053028
O O12 0.000000 0.500000 0.000000
O O13 0.235775 0.740052 0.679938
O O14 0.182782 0.908811 0.613763
O O15 0.309239 0.402929 0.296344
O O16 0.729856 0.007813 0.805316
O O17 0.756335 0.036578 0.097483
#
# Coordination Sequence:
#
# PCOD8145215 Si02
#       8
#     8   8   8   8   8   8   8   8
#     4  10  22  38  59  87 117 149 194 251 314 372
#     4  12  22  36  58  83 119 159 208 244 306 366
#     4  12  22  36  58  83 121 164 210 246 312 373
#     4  10  22  38  59  87 119 151 194 251 312 374
#     4  12  24  36  54  86 116 169 212 246 298 373
#     4  12  22  38  55  82 122 169 211 254 296 372
#     4  12  20  32  55  78 111 164 198 248 284 357
#     4  12  24  36  52  78 122 158 213 250 285 347
#
# _framework density 18.808233999999999
#
# number of rings (size 3 to 8) (size 9 to 14) (size 15 to 20)
#    0.000    0.500    7.500    2.250    1.750    0.000 
#    0.000    0.000    0.000    0.000    0.000    0.875 
#    0.000    0.000    0.000    0.000    0.000    0.000 
#
# Total GULP energy -396486.464350 kJ/mol
# GULP energy per Si atom -12390.202011 kJ/mol
# Density = 1.876543 g / cm^3
# Si number density = 18.808234 Si / 1000 Ang^3
#
#
#
# Elastic Constant Matrix: (Units=GPa)
#
#
# Indices 1 2 3 4 5 6 
#
# 1 63.2516 24.8975 31.9407 0.0000 3.8084 0.0000
# 2 24.8975 85.2370 18.8899 0.0000 17.9936 0.0000
# 3 31.9407 18.8899 102.5347 0.0000 -2.5219 0.0000
# 4 0.0000 0.0000 0.0000 37.1688 0.0000 0.8688
# 5 3.8084 17.9936 -2.5219 0.0000 24.0158 0.0000
# 6 0.0000 0.0000 0.0000 0.8688 0.0000 32.0774
#
#
#
# Elastic Compliance Matrix: (Units=1/GPa)
#
#
# Indices 1 2 3 4 5 6 
#
# 1 0.020460 -0.004688 -0.005518 0.000000 -0.000312 0.000000
# 2 -0.004688 0.015882 -0.001744 0.000000 -0.011339 0.000000
# 3 -0.005518 -0.001744 0.011877 0.000000 0.003429 0.000000
# 4 0.000000 0.000000 0.000000 0.026921 0.000000 -0.000729
# 5 -0.000312 -0.011339 0.003429 0.000000 0.050544 0.000000
# 6 0.000000 0.000000 0.000000 -0.000729 0.000000 0.031194
#
#
# Mechanical properties :
#
#
# Convention : Reuss Voigt Hill
#
# Bulk Modulus (GPa) = 41.11948 44.71992 42.91970
# Shear Modulus (GPa) = 26.47113 30.33875 28.40494
#
# Velocity S-wave (km/s) = 3.75563 4.02064 3.89040
# Velocity P-wave (km/s) = 6.38093 6.73665 6.56120
#
# Compressibility (1/GPa) = 0.02431938
#
# Stress axis : x y z
#
# Youngs Moduli (GPa) = 48.87550 62.96629 84.19413
#
# Poissons Ratio (x) = 0.29517 0.46455
# Poissons Ratio (y) = 0.22912 0.14687
# Poissons Ratio (z) = 0.26968 0.10984
#
# Static dielectric constant tensor:
#      x y z
#    x 5.012020 0.000000 -1.071840 
#    y 0.000000 3.594690 0.000000 
#    z -1.071840 0.000000 4.605500 
# 
# 
# High freq. dielectric constant tensor:
#      x y z
#    x 1.699940 0.000000 -0.020910 
#    y 0.000000 1.717040 0.000000 
#    z -0.020910 0.000000 1.749080 
# 
# From -- ./inp_files/69959.got.cif
#   From: 2010.06.25/outbox.cif.g09.slc.cpg/sg15_35_cif.got.tgz:69959.got - 2010.06.28 07:06:18.
