data_PCOD8145904
_publ_section_title
;
Structure prediction by ZEFSAII (Michael W. Deem and Ramdas Pophale) SiO2 
 PCOD8145904
Probable space group: C 2/C
;
_chemical_formula_sum "Si O2"
_cell_formula_units_Z 60
_cell_length_a 26.451479
_cell_length_b 12.704164
_cell_length_c 17.742986
_cell_angle_alpha 90.000000
_cell_angle_beta 152.018531
_cell_angle_gamma 90.000000
_cell_volume 2797.485072
_symmetry_space_group_name_H-M "C 2/C"
_symmetry_group_IT_number 15
_symmetry_cell_setting 'monoclinic'
loop_
_space_group_symop_operation_xyz
x,y,z
-x,y,1/2-z
-x,-y,-z
x,-y,1/2+z
1/2+x,1/2+y,z
1/2-x,1/2+y,1/2-z
1/2-x,1/2-y,-z
1/2+x,1/2-y,1/2+z
loop_
_atom_site_type_symbol
_atom_site_label
_atom_site_fract_x
_atom_site_fract_y
_atom_site_fract_z
Si Si1 0.428157 0.212508 0.254489
Si Si2 0.337595 0.808748 0.387405
Si Si3 0.692989 0.856497 0.762854
Si Si4 0.298751 0.724151 0.180787
Si Si5 0.611356 0.653878 0.351413
Si Si6 0.336494 0.042186 0.424926
Si Si7 0.377654 0.582379 0.611225
Si Si8 0.000000 0.538943 0.250000
O O1 0.556947 0.232589 0.428634
O O2 0.394741 0.171094 0.291258
O O3 0.357667 0.315897 0.139376
O O4 0.411513 0.115389 0.174054
O O5 0.232978 0.746749 0.274228
O O6 0.356192 0.791544 0.322177
O O7 0.300031 0.923321 0.363508
O O8 0.632742 0.921577 0.618730
O O9 0.795542 0.917264 0.933274
O O10 0.386162 0.705278 0.228986
O O11 0.256238 0.612350 0.157974
O O12 0.200756 0.793152 0.020921
O O13 0.500000 0.669025 0.250000
O O14 0.636825 0.530803 0.368937
O O15 0.442902 0.040530 0.616886
O O16 0.500000 0.598279 0.750000
#
# Coordination Sequence:
#
# PCOD8145904 Si02
#       8
#     8   8   8   8   8   8   8   4
#     4  11  22  39  65  98 125 168 207 278 320 379
#     4  10  22  43  60  92 133 160 218 269 320 384
#     4  11  23  38  64  94 126 169 213 266 324 386
#     4  10  23  43  63  93 130 170 216 267 317 385
#     4  10  24  41  65  94 126 174 215 264 320 388
#     4  10  23  41  64  93 127 171 209 269 323 383
#     4  11  20  39  65  91 130 162 211 260 322 383
#     4  10  22  40  62  96 132 162 218 266 320 382
#
# _framework density 21.447835000000001
#
# number of rings (size 3 to 8) (size 9 to 14) (size 15 to 20)
#    0.000    1.600    2.000    2.000    4.667    4.267 
#    2.400    0.667    0.000    0.000    0.000    0.000 
#    0.000    0.000    0.000    0.000    0.000    0.000 
#
# Total GULP energy -371807.145008 kJ/mol
# GULP energy per Si atom -12393.571500 kJ/mol
# Density = 2.139902 g / cm^3
# Si number density = 21.447835 Si / 1000 Ang^3
#
#
#
# Elastic Constant Matrix: (Units=GPa)
#
#
# Indices 1 2 3 4 5 6 
#
# 1 118.8850 23.6087 34.6719 0.0000 -12.7271 0.0000
# 2 23.6087 79.8372 42.3271 0.0000 -4.4159 0.0000
# 3 34.6719 42.3271 93.2270 0.0000 -25.7770 0.0000
# 4 0.0000 0.0000 0.0000 32.0496 0.0000 -10.6221
# 5 -12.7271 -4.4159 -25.7770 0.0000 33.7733 0.0000
# 6 0.0000 0.0000 0.0000 -10.6221 0.0000 19.4951
#
#
#
# Elastic Compliance Matrix: (Units=1/GPa)
#
#
# Indices 1 2 3 4 5 6 
#
# 1 0.009586 -0.001427 -0.002497 0.000000 0.001520 0.000000
# 2 -0.001427 0.017269 -0.008662 0.000000 -0.004891 0.000000
# 3 -0.002497 -0.008662 0.019031 0.000000 0.012452 0.000000
# 4 0.000000 0.000000 0.000000 0.038078 0.000000 0.020747
# 5 0.001520 -0.004891 0.012452 0.000000 0.039046 0.000000
# 6 0.000000 0.000000 0.000000 0.020747 0.000000 0.062599
#
#
# Mechanical properties :
#
#
# Convention : Reuss Voigt Hill
#
# Bulk Modulus (GPa) = 48.27723 54.79606 51.53664
# Shear Modulus (GPa) = 22.96886 29.81970 26.39428
#
# Velocity S-wave (km/s) = 3.27604 3.73277 3.51183
# Velocity P-wave (km/s) = 6.07189 6.64696 6.36592
#
# Compressibility (1/GPa) = 0.02071370
#
# Stress axis : x y z
#
# Youngs Moduli (GPa) = 104.32145 57.90584 52.54599
#
# Poissons Ratio (x) = 0.08261 0.13121
# Poissons Ratio (y) = 0.14883 0.45518
# Poissons Ratio (z) = 0.26049 0.50161
#
# Static dielectric constant tensor:
#      x y z
#    x 4.009330 0.000000 -0.374880 
#    y 0.000000 4.122800 0.000000 
#    z -0.374880 0.000000 3.823900 
# 
# 
# High freq. dielectric constant tensor:
#      x y z
#    x 1.843590 0.000000 -0.019670 
#    y 0.000000 1.850740 0.000000 
#    z -0.019670 0.000000 1.833580 
# 
# From -- ./inp_files/222582.got.cif
#   From: 2010.06.25/outbox.cif.g09.slc.cpg/sg15_112_cif.got.tgz:222582.got - 2010.06.28 07:06:18.
