data_PCOD8145440
_publ_section_title
;
Structure prediction by ZEFSAII (Michael W. Deem and Ramdas Pophale) SiO2 
 PCOD8145440
Probable space group: C 2/C
;
_chemical_formula_sum "Si O2"
_cell_formula_units_Z 52
_cell_length_a 8.923095
_cell_length_b 11.050310
_cell_length_c 25.588914
_cell_angle_alpha 90.000000
_cell_angle_beta 82.698081
_cell_angle_gamma 90.000000
_cell_volume 2502.680597
_symmetry_space_group_name_H-M "C 2/C"
_symmetry_group_IT_number 15
_symmetry_cell_setting 'monoclinic'
loop_
_space_group_symop_operation_xyz
x,y,z
-x,y,1/2-z
-x,-y,-z
x,-y,1/2+z
1/2+x,1/2+y,z
1/2-x,1/2+y,1/2-z
1/2-x,1/2-y,-z
1/2+x,1/2-y,1/2+z
loop_
_atom_site_type_symbol
_atom_site_label
_atom_site_fract_x
_atom_site_fract_y
_atom_site_fract_z
Si Si1 0.500000 0.566127 0.750000
Si Si2 0.551025 0.765300 0.400869
Si Si3 0.142058 0.811616 0.335596
Si Si4 0.444619 0.635730 0.504132
Si Si5 0.196691 0.552748 0.585490
Si Si6 0.624076 0.772767 0.583868
Si Si7 0.565897 0.336080 0.694085
O O1 0.382268 0.647529 0.723100
O O2 0.584658 0.480546 0.703547
O O3 0.451305 0.687291 0.445784
O O4 0.468584 0.893554 0.396432
O O5 0.720209 0.797180 0.411205
O O6 0.553491 0.689928 0.346763
O O7 0.193099 0.925445 0.369356
O O8 0.271940 0.711952 0.330127
O O9 0.990560 0.747311 0.363264
O O10 0.500000 0.500000 0.500000
O O11 0.273300 0.626267 0.533610
O O12 0.551940 0.721937 0.534207
O O13 0.174873 0.411934 0.574588
O O14 0.500000 0.273939 0.750000
#
# Coordination Sequence:
#
# PCOD8145440 Si02
#       7
#     4   8   8   8   8   8   8
#     4  10  22  38  68  86 124 166 202 262 316 362
#     4  11  22  42  67  91 127 170 208 260 313 376
#     4  10  23  41  62  93 124 161 211 261 313 373
#     4  11  23  41  65  93 133 167 206 263 313 373
#     4  10  23  43  62  93 131 166 209 260 311 379
#     4  11  24  41  64  96 127 165 213 254 316 377
#     4   9  23  43  62  90 123 160 212 255 313 369
#
# _framework density 20.777721
#
# number of rings (size 3 to 8) (size 9 to 14) (size 15 to 20)
#    0.462    1.231    1.538    1.846    4.308    1.846 
#    8.308    0.000    0.000    0.000    0.000    0.000 
#    0.000    0.000    0.000    0.000    0.000    0.000 
#
# Total GULP energy -322330.932098 kJ/mol
# GULP energy per Si atom -12397.343542 kJ/mol
# Density = 2.073043 g / cm^3
# Si number density = 20.777721 Si / 1000 Ang^3
#
#
#
# Elastic Constant Matrix: (Units=GPa)
#
#
# Indices 1 2 3 4 5 6 
#
# 1 110.0407 37.0074 26.0083 0.0000 -9.4494 0.0000
# 2 37.0074 69.4085 20.4127 0.0000 12.6602 0.0000
# 3 26.0083 20.4127 108.8651 0.0000 5.7266 0.0000
# 4 0.0000 0.0000 0.0000 36.6250 0.0000 -1.5957
# 5 -9.4494 12.6602 5.7266 0.0000 25.3594 0.0000
# 6 0.0000 0.0000 0.0000 -1.5957 0.0000 28.8109
#
#
#
# Elastic Compliance Matrix: (Units=1/GPa)
#
#
# Indices 1 2 3 4 5 6 
#
# 1 0.013113 -0.008085 -0.002111 0.000000 0.009399 0.000000
# 2 -0.008085 0.021590 -0.001408 0.000000 -0.013473 0.000000
# 3 -0.002111 -0.001408 0.010078 0.000000 -0.002360 0.000000
# 4 0.000000 0.000000 0.000000 0.027370 0.000000 0.001516
# 5 0.009399 -0.013473 -0.002360 0.000000 0.050194 0.000000
# 6 0.000000 0.000000 0.000000 0.001516 0.000000 0.034793
#
#
# Mechanical properties :
#
#
# Convention : Reuss Voigt Hill
#
# Bulk Modulus (GPa) = 46.35522 50.57458 48.46490
# Shear Modulus (GPa) = 26.66147 31.81811 29.23979
#
# Velocity S-wave (km/s) = 3.58603 3.91750 3.75542
# Velocity P-wave (km/s) = 6.28527 6.69746 6.49464
#
# Compressibility (1/GPa) = 0.02157254
#
# Stress axis : x y z
#
# Youngs Moduli (GPa) = 76.26230 46.31828 99.22451
#
# Poissons Ratio (x) = 0.37448 0.20947
# Poissons Ratio (y) = 0.61658 0.13970
# Poissons Ratio (z) = 0.16100 0.06521
#
# Static dielectric constant tensor:
#      x y z
#    x 3.858610 0.000000 0.038780 
#    y 0.000000 3.608720 0.000000 
#    z 0.038780 0.000000 3.944740 
# 
# 
# High freq. dielectric constant tensor:
#      x y z
#    x 1.813280 0.000000 0.000710 
#    y 0.000000 1.804680 0.000000 
#    z 0.000710 0.000000 1.819610 
# 
# From -- ./inp_files/287672.got.cif
#   From: 2010.06.25/outbox.cif.g09.slc.cpg/sg15_144_cif.got.tgz:287672.got - 2010.06.28 07:06:18.
