data_PCOD8145998
_publ_section_title
;
Structure prediction by ZEFSAII (Michael W. Deem and Ramdas Pophale) SiO2 
 PCOD8145998
Probable space group: C 2/C
;
_chemical_formula_sum "Si O2"
_cell_formula_units_Z 60
_cell_length_a 10.911973
_cell_length_b 21.193052
_cell_length_c 11.965908
_cell_angle_alpha 90.000000
_cell_angle_beta 92.910913
_cell_angle_gamma 90.000000
_cell_volume 2763.641560
_symmetry_space_group_name_H-M "C 2/C"
_symmetry_group_IT_number 15
_symmetry_cell_setting 'monoclinic'
loop_
_space_group_symop_operation_xyz
x,y,z
-x,y,1/2-z
-x,-y,-z
x,-y,1/2+z
1/2+x,1/2+y,z
1/2-x,1/2+y,1/2-z
1/2-x,1/2-y,-z
1/2+x,1/2-y,1/2+z
loop_
_atom_site_type_symbol
_atom_site_label
_atom_site_fract_x
_atom_site_fract_y
_atom_site_fract_z
Si Si1 0.480936 0.730607 0.412673
Si Si2 0.846264 0.428150 0.139692
Si Si3 0.420940 0.461231 0.346983
Si Si4 0.000000 0.471234 0.750000
Si Si5 0.466563 0.590661 0.086465
Si Si6 0.086951 0.261716 0.652508
Si Si7 0.671927 0.795026 0.270057
Si Si8 0.691704 0.105537 0.116038
O O1 0.461893 0.656107 0.389295
O O2 0.500147 0.741812 0.545429
O O3 0.604136 0.750840 0.355830
O O4 0.364457 0.769860 0.356683
O O5 0.722198 0.457247 0.184693
O O6 0.947791 0.482335 0.153077
O O7 0.875380 0.366414 0.215916
O O8 0.844567 0.412484 0.010230
O O9 0.500000 0.431947 0.250000
O O10 0.451511 0.534867 0.361835
O O11 0.451683 0.418146 0.453981
O O12 0.107089 0.429413 0.701865
O O13 0.334518 0.589322 0.142289
O O14 0.182024 0.207029 0.697015
O O15 0.172522 0.320183 0.625464
O O16 0.000000 0.280273 0.750000
#
# Coordination Sequence:
#
# PCOD8145998 Si02
#       8
#     8   8   8   4   8   8   8   8
#     4  11  23  41  70  99 128 173 228 275 325 401
#     4  11  24  42  64  92 133 172 219 269 331 397
#     4  10  22  40  64  95 128 172 212 268 332 389
#     4  12  24  40  62  94 126 178 220 274 320 390
#     4  10  22  40  66  96 129 166 219 272 327 391
#     4  12  24  43  67  98 138 173 214 278 342 394
#     4  11  24  42  70  99 125 177 226 273 328 399
#     4  11  22  41  64  93 131 172 221 268 327 403
#
# _framework density 21.710487000000001
#
# number of rings (size 3 to 8) (size 9 to 14) (size 15 to 20)
#    0.000    1.067    3.333    4.000    1.867    3.733 
#    0.000    0.000    0.000    0.000    0.000    0.000 
#    0.000    0.000    0.000    0.000    0.000    0.000 
#
# Total GULP energy -371997.853322 kJ/mol
# GULP energy per Si atom -12399.928444 kJ/mol
# Density = 2.166107 g / cm^3
# Si number density = 21.710487 Si / 1000 Ang^3
#
#
#
# Elastic Constant Matrix: (Units=GPa)
#
#
# Indices 1 2 3 4 5 6 
#
# 1 43.5365 14.6825 30.0689 0.0000 -1.1494 0.0000
# 2 14.6825 111.7646 17.4882 0.0000 0.6486 0.0000
# 3 30.0689 17.4882 104.6341 0.0000 2.3423 0.0000
# 4 0.0000 0.0000 0.0000 14.1383 0.0000 -2.1705
# 5 -1.1494 0.6486 2.3423 0.0000 40.2493 0.0000
# 6 0.0000 0.0000 0.0000 -2.1705 0.0000 30.5468
#
#
#
# Elastic Compliance Matrix: (Units=1/GPa)
#
#
# Indices 1 2 3 4 5 6 
#
# 1 0.029452 -0.002616 -0.008057 0.000000 0.001352 0.000000
# 2 -0.002616 0.009420 -0.000819 0.000000 -0.000179 0.000000
# 3 -0.008057 -0.000819 0.012030 0.000000 -0.000917 0.000000
# 4 0.000000 0.000000 0.000000 0.071510 0.000000 0.005081
# 5 0.001352 -0.000179 -0.000917 0.000000 0.024940 0.000000
# 6 0.000000 0.000000 0.000000 0.005081 0.000000 0.033098
#
#
# Mechanical properties :
#
#
# Convention : Reuss Voigt Hill
#
# Bulk Modulus (GPa) = 35.81840 42.71273 39.26556
# Shear Modulus (GPa) = 23.50305 30.16657 26.83481
#
# Velocity S-wave (km/s) = 3.29381 3.73163 3.51954
# Velocity P-wave (km/s) = 5.56773 6.18735 5.88570
#
# Compressibility (1/GPa) = 0.02791861
#
# Stress axis : x y z
#
# Youngs Moduli (GPa) = 33.95401 106.15482 83.12770
#
# Poissons Ratio (x) = 0.27773 0.66972
# Poissons Ratio (y) = 0.08883 0.06805
# Poissons Ratio (z) = 0.27355 0.08690
#
# Static dielectric constant tensor:
#      x y z
#    x 3.853070 0.000000 0.074860 
#    y 0.000000 3.951510 0.000000 
#    z 0.074860 0.000000 3.942580 
# 
# 
# High freq. dielectric constant tensor:
#      x y z
#    x 1.845990 0.000000 0.006980 
#    y 0.000000 1.864650 0.000000 
#    z 0.006980 0.000000 1.852960 
# 
# From -- ./inp_files/89631.got.cif
#   From: 2010.06.25/outbox.cif.g09.slc.cpg/sg15_45_cif.got.tgz:89631.got - 2010.06.28 07:06:18.
