data_PCOD8145424
_publ_section_title
;
Structure prediction by ZEFSAII (Michael W. Deem and Ramdas Pophale) SiO2 
 PCOD8145424
Probable space group: C 2/C
;
_chemical_formula_sum "Si O2"
_cell_formula_units_Z 48
_cell_length_a 28.430400
_cell_length_b 14.445496
_cell_length_c 8.831483
_cell_angle_alpha 90.000000
_cell_angle_beta 37.595133
_cell_angle_gamma 90.000000
_cell_volume 2212.760094
_symmetry_space_group_name_H-M "C 2/C"
_symmetry_group_IT_number 15
_symmetry_cell_setting 'monoclinic'
loop_
_space_group_symop_operation_xyz
x,y,z
-x,y,1/2-z
-x,-y,-z
x,-y,1/2+z
1/2+x,1/2+y,z
1/2-x,1/2+y,1/2-z
1/2-x,1/2-y,-z
1/2+x,1/2-y,1/2+z
loop_
_atom_site_type_symbol
_atom_site_label
_atom_site_fract_x
_atom_site_fract_y
_atom_site_fract_z
Si Si1 0.207741 0.109115 0.869033
Si Si2 0.472267 0.590978 0.150551
Si Si3 0.835018 0.310425 0.514462
Si Si4 0.487246 0.221882 0.459354
Si Si5 0.572543 0.903695 0.967469
Si Si6 0.712361 0.024618 0.544827
O O1 0.257910 0.067286 0.875931
O O2 0.235670 0.062294 0.641017
O O3 0.119220 0.088977 0.123529
O O4 0.219330 0.220242 0.828747
O O5 0.500000 0.596083 0.250000
O O6 0.500000 0.500000 0.000000
O O7 0.509032 0.677589 0.969104
O O8 0.878096 0.329352 0.562706
O O9 0.782923 0.397778 0.599083
O O10 0.897576 0.296606 0.222162
O O11 0.500000 0.219609 0.250000
O O12 0.543076 0.145726 0.391146
O O13 0.623885 0.991957 0.791518
O O14 0.500000 0.940256 0.250000
#
# Coordination Sequence:
#
# PCOD8145424 Si02
#       6
#     8   8   8   8   8   8
#     4  11  25  43  65  99 134 177 224 279 341 405
#     4  11  22  43  68  96 136 177 229 286 339 405
#     4  10  23  45  64  92 140 176 223 281 332 406
#     4  10  22  38  67 100 128 174 229 279 338 396
#     4  10  23  44  68  97 134 181 224 277 338 406
#     4  12  24  44  66  99 136 180 226 274 346 405
#
# _framework density 21.692364000000001
#
# number of rings (size 3 to 8) (size 9 to 14) (size 15 to 20)
#    0.000    1.333    1.667    4.500    2.333    5.333 
#    3.000    0.000    0.000    0.000    0.000    0.000 
#    0.000    0.000    0.000    0.000    0.000    0.000 
#
# Total GULP energy -297717.393537 kJ/mol
# GULP energy per Si atom -12404.891397 kJ/mol
# Density = 2.164299 g / cm^3
# Si number density = 21.692364 Si / 1000 Ang^3
#
#
#
# Elastic Constant Matrix: (Units=GPa)
#
#
# Indices 1 2 3 4 5 6 
#
# 1 113.0878 41.7979 26.5846 0.0000 11.8655 0.0000
# 2 41.7979 147.6621 46.4288 0.0000 -3.3163 0.0000
# 3 26.5846 46.4288 64.4658 0.0000 5.7105 0.0000
# 4 0.0000 0.0000 0.0000 47.4446 0.0000 -16.6172
# 5 11.8655 -3.3163 5.7105 0.0000 38.0049 0.0000
# 6 0.0000 0.0000 0.0000 -16.6172 0.0000 54.7841
#
#
#
# Elastic Compliance Matrix: (Units=1/GPa)
#
#
# Indices 1 2 3 4 5 6 
#
# 1 0.010596 -0.002306 -0.002430 0.000000 -0.003144 0.000000
# 2 -0.002306 0.009371 -0.006014 0.000000 0.002441 0.000000
# 3 -0.002430 -0.006014 0.021106 0.000000 -0.002937 0.000000
# 4 0.000000 0.000000 0.000000 0.023583 0.000000 0.007153
# 5 -0.003144 0.002441 -0.002937 0.000000 0.027948 0.000000
# 6 0.000000 0.000000 0.000000 0.007153 0.000000 0.020423
#
#
# Mechanical properties :
#
#
# Convention : Reuss Voigt Hill
#
# Bulk Modulus (GPa) = 51.09364 61.64870 56.37117
# Shear Modulus (GPa) = 35.44781 42.07369 38.76075
#
# Velocity S-wave (km/s) = 4.04680 4.40882 4.23169
# Velocity P-wave (km/s) = 6.74095 7.37551 7.06536
#
# Compressibility (1/GPa) = 0.01957191
#
# Stress axis : x y z
#
# Youngs Moduli (GPa) = 94.37359 106.71463 47.37961
#
# Poissons Ratio (x) = 0.24606 0.11516
# Poissons Ratio (y) = 0.21761 0.28495
# Poissons Ratio (z) = 0.22937 0.64181
#
# Static dielectric constant tensor:
#      x y z
#    x 3.907110 0.000000 -0.036340 
#    y 0.000000 4.221200 0.000000 
#    z -0.036340 0.000000 3.814670 
# 
# 
# High freq. dielectric constant tensor:
#      x y z
#    x 1.860490 0.000000 0.003840 
#    y 0.000000 1.869170 0.000000 
#    z 0.003840 0.000000 1.841820 
# 
# From -- ./inp_files/66425.got.cif
#   From: 2010.06.25/outbox.cif.g09.slc.cpg/sg15_34_cif.got.tgz:66425.got - 2010.06.28 07:06:18.
