data_PCOD8145503
_publ_section_title
;
Structure prediction by ZEFSAII (Michael W. Deem and Ramdas Pophale) SiO2 
 PCOD8145503
Probable space group: C 2/C
;
_chemical_formula_sum "Si O2"
_cell_formula_units_Z 56
_cell_length_a 18.238843
_cell_length_b 13.657299
_cell_length_c 11.898951
_cell_angle_alpha 90.000000
_cell_angle_beta 75.812107
_cell_angle_gamma 90.000000
_cell_volume 2873.540492
_symmetry_space_group_name_H-M "C 2/C"
_symmetry_group_IT_number 15
_symmetry_cell_setting 'monoclinic'
loop_
_space_group_symop_operation_xyz
x,y,z
-x,y,1/2-z
-x,-y,-z
x,-y,1/2+z
1/2+x,1/2+y,z
1/2-x,1/2+y,1/2-z
1/2-x,1/2-y,-z
1/2+x,1/2-y,1/2+z
loop_
_atom_site_type_symbol
_atom_site_label
_atom_site_fract_x
_atom_site_fract_y
_atom_site_fract_z
Si Si1 0.040453 0.370175 0.348653
Si Si2 0.327036 0.663032 0.701783
Si Si3 0.296878 0.449822 0.679011
Si Si4 0.835309 0.504273 0.120406
Si Si5 0.667106 0.738311 0.205270
Si Si6 0.275580 0.355561 0.455120
Si Si7 0.391871 0.199508 0.007493
O O1 0.080778 0.466241 0.383006
O O2 0.101673 0.286309 0.304059
O O3 0.000000 0.404102 0.250000
O O4 0.979424 0.326443 0.457565
O O5 0.341511 0.551823 0.657879
O O6 0.243989 0.703434 0.700819
O O7 0.337107 0.661775 0.833311
O O8 0.388734 0.731972 0.619202
O O9 0.209572 0.472028 0.746777
O O10 0.328540 0.375577 0.761667
O O11 0.309750 0.405985 0.551541
O O12 0.792358 0.422194 0.064992
O O13 0.842575 0.601691 0.043392
O O14 0.645909 0.742921 0.082045
O O15 0.250000 0.250000 0.500000
#
# Coordination Sequence:
#
# PCOD8145503 Si02
#       7
#     8   8   8   8   8   8   8
#     4  10  22  39  59  88 129 167 198 246 315 374
#     4  11  22  36  59  92 116 154 211 252 304 352
#     4  11  22  35  62  91 119 157 206 259 305 355
#     4  11  21  37  61  93 124 162 204 253 314 368
#     4  11  20  40  59  86 121 163 201 252 304 369
#     4  11  20  35  58  88 125 156 198 257 307 357
#     4  11  23  37  61  89 124 160 208 252 306 373
#
# _framework density 19.488154000000002
#
# number of rings (size 3 to 8) (size 9 to 14) (size 15 to 20)
#    0.000    1.143    5.714    1.714    6.000    0.000 
#    0.000    0.714    0.000    0.000    0.000    0.000 
#    0.000    0.000    0.000    0.000    0.000    0.000 
#
# Total GULP energy -347159.195373 kJ/mol
# GULP energy per Si atom -12398.542692 kJ/mol
# Density = 1.944380 g / cm^3
# Si number density = 19.488154 Si / 1000 Ang^3
#
#
#
# Elastic Constant Matrix: (Units=GPa)
#
#
# Indices 1 2 3 4 5 6 
#
# 1 49.8212 21.6980 35.9551 0.0000 -0.8806 0.0000
# 2 21.6980 148.7265 66.9926 0.0000 9.6834 0.0000
# 3 35.9551 66.9926 153.6635 0.0000 -2.7799 0.0000
# 4 0.0000 0.0000 0.0000 36.3174 0.0000 0.4949
# 5 -0.8806 9.6834 -2.7799 0.0000 24.0324 0.0000
# 6 0.0000 0.0000 0.0000 0.4949 0.0000 28.9693
#
#
#
# Elastic Compliance Matrix: (Units=1/GPa)
#
#
# Indices 1 2 3 4 5 6 
#
# 1 0.024344 -0.001302 -0.005114 0.000000 0.000825 0.000000
# 2 -0.001302 0.008798 -0.003604 0.000000 -0.004009 0.000000
# 3 -0.005114 -0.003604 0.009318 0.000000 0.002342 0.000000
# 4 0.000000 0.000000 0.000000 0.027541 0.000000 -0.000471
# 5 0.000825 -0.004009 0.002342 0.000000 0.043527 0.000000
# 6 0.000000 0.000000 0.000000 -0.000471 0.000000 0.034527
#
#
# Mechanical properties :
#
#
# Convention : Reuss Voigt Hill
#
# Bulk Modulus (GPa) = 44.60050 66.83361 55.71705
# Shear Modulus (GPa) = 28.47916 33.03487 30.75702
#
# Velocity S-wave (km/s) = 3.82692 4.12166 3.97702
# Velocity P-wave (km/s) = 6.51634 7.55114 7.05274
#
# Compressibility (1/GPa) = 0.02242128
#
# Stress axis : x y z
#
# Youngs Moduli (GPa) = 41.07832 113.66331 107.32345
#
# Poissons Ratio (x) = 0.14798 0.54881
# Poissons Ratio (y) = 0.05348 0.38674
# Poissons Ratio (z) = 0.21006 0.40959
#
# Static dielectric constant tensor:
#      x y z
#    x 3.319310 0.000000 -0.089040 
#    y 0.000000 3.767910 0.000000 
#    z -0.089040 0.000000 3.880750 
# 
# 
# High freq. dielectric constant tensor:
#      x y z
#    x 1.713990 0.000000 -0.000580 
#    y 0.000000 1.777610 0.000000 
#    z -0.000580 0.000000 1.773710 
# 
# From -- ./inp_files/105265.got.cif
#   From: 2010.06.25/outbox.cif.g09.slc.cpg/sg15_53_cif.got.tgz:105265.got - 2010.06.28 07:06:18.
