data_PCOD8145958
_publ_section_title
;
Structure prediction by ZEFSAII (Michael W. Deem and Ramdas Pophale) SiO2 
 PCOD8145958
Probable space group: C 2/C
;
_chemical_formula_sum "Si O2"
_cell_formula_units_Z 52
_cell_length_a 14.623275
_cell_length_b 19.892948
_cell_length_c 8.477333
_cell_angle_alpha 90.000000
_cell_angle_beta 90.503279
_cell_angle_gamma 90.000000
_cell_volume 2465.961451
_symmetry_space_group_name_H-M "C 2/C"
_symmetry_group_IT_number 15
_symmetry_cell_setting 'monoclinic'
loop_
_space_group_symop_operation_xyz
x,y,z
-x,y,1/2-z
-x,-y,-z
x,-y,1/2+z
1/2+x,1/2+y,z
1/2-x,1/2+y,1/2-z
1/2-x,1/2-y,-z
1/2+x,1/2-y,1/2+z
loop_
_atom_site_type_symbol
_atom_site_label
_atom_site_fract_x
_atom_site_fract_y
_atom_site_fract_z
Si Si1 0.894437 0.212095 0.970152
Si Si2 0.500000 0.497209 0.750000
Si Si3 0.744362 0.654637 0.028299
Si Si4 0.500000 0.187671 0.250000
Si Si5 0.224513 0.262876 0.266654
Si Si6 0.595703 0.076115 0.447809
Si Si7 0.000000 0.466387 0.250000
Si Si8 0.050743 0.899214 0.495027
O O1 0.797918 0.198398 0.879349
O O2 0.946782 0.266412 0.870435
O O3 0.956111 0.144249 0.988707
O O4 0.868586 0.244630 0.139356
O O5 0.560766 0.446300 0.648138
O O6 0.438607 0.547792 0.646725
O O7 0.762091 0.693193 0.193461
O O8 0.793718 0.581861 0.040447
O O9 0.797268 0.691177 0.884885
O O10 0.636421 0.650779 0.990051
O O11 0.565612 0.142316 0.355533
O O12 0.553212 0.077690 0.622816
O O13 0.572912 0.010199 0.348458
#
# Coordination Sequence:
#
# PCOD8145958 Si02
#       8
#     8   4   8   4   8   8   4   8
#     4  11  22  41  62  92 125 169 199 263 314 382
#     4  10  23  42  60  92 111 182 212 244 304 378
#     4  11  22  40  59  98 127 157 205 266 309 382
#     4  11  21  38  64  90 119 169 198 254 324 377
#     4  10  23  38  59  94 130 157 209 247 323 381
#     4  10  22  40  64  88 125 160 211 257 304 379
#     4   9  22  44  62  88 120 173 212 252 314 363
#     4  11  23  40  66  86 132 161 216 255 315 366
#
# _framework density 21.087112000000001
#
# number of rings (size 3 to 8) (size 9 to 14) (size 15 to 20)
#    0.000    1.538    1.538    3.231    4.308    1.231 
#    0.000    0.000    0.000    0.000    0.000    0.000 
#    0.000    0.000    0.000    0.000    0.000    0.000 
#
# Total GULP energy -322177.985746 kJ/mol
# GULP energy per Si atom -12391.460990 kJ/mol
# Density = 2.103912 g / cm^3
# Si number density = 21.087112 Si / 1000 Ang^3
#
#
#
# Elastic Constant Matrix: (Units=GPa)
#
#
# Indices 1 2 3 4 5 6 
#
# 1 105.8230 50.1100 46.1042 0.0000 -8.9518 0.0000
# 2 50.1100 93.2700 46.9531 0.0000 -11.7294 0.0000
# 3 46.1042 46.9531 145.2023 0.0000 -23.8868 0.0000
# 4 0.0000 0.0000 0.0000 249.3252 0.0000 -28.0301
# 5 -8.9518 -11.7294 -23.8868 0.0000 25.8300 0.0000
# 6 0.0000 0.0000 0.0000 -28.0301 0.0000 20.9530
#
#
#
# Elastic Compliance Matrix: (Units=1/GPa)
#
#
# Indices 1 2 3 4 5 6 
#
# 1 0.013279 -0.006000 -0.002320 0.000000 -0.000268 0.000000
# 2 -0.006000 0.015638 -0.002743 0.000000 0.002485 0.000000
# 3 -0.002320 -0.002743 0.009640 0.000000 0.006865 0.000000
# 4 0.000000 0.000000 0.000000 0.004721 0.000000 0.006315
# 5 -0.000268 0.002485 0.006865 0.000000 0.046099 0.000000
# 6 0.000000 0.000000 0.000000 0.006315 0.000000 0.056174
#
#
# Mechanical properties :
#
#
# Convention : Reuss Voigt Hill
#
# Bulk Modulus (GPa) = 60.86003 70.06999 65.46501
# Shear Modulus (GPa) = 28.87587 72.63016 50.75301
#
# Velocity S-wave (km/s) = 3.70450 5.87518 4.91126
# Velocity P-wave (km/s) = 6.87180 8.90643 7.95444
#
# Compressibility (1/GPa) = 0.01643115
#
# Stress axis : x y z
#
# Youngs Moduli (GPa) = 75.30640 63.94487 103.73448
#
# Poissons Ratio (x) = 0.38367 0.24069
# Poissons Ratio (y) = 0.45184 0.28454
# Poissons Ratio (z) = 0.17473 0.17540
#
# Static dielectric constant tensor:
#      x y z
#    x 2.092920 0.000000 1.168770 
#    y 0.000000 3.713740 0.000000 
#    z 1.168770 0.000000 3.255990 
# 
# 
# High freq. dielectric constant tensor:
#      x y z
#    x 1.811510 0.000000 -0.003470 
#    y 0.000000 1.817720 0.000000 
#    z -0.003470 0.000000 1.850510 
# 
# From -- ./inp_files/40858.got.cif
#   From: 2010.06.25/outbox.cif.g09.slc.cpg/sg15_21_cif.got.tgz:40858.got - 2010.06.28 07:06:18.
