data_PCOD8145921
_publ_section_title
;
Structure prediction by ZEFSAII (Michael W. Deem and Ramdas Pophale) SiO2 
 PCOD8145921
Probable space group: C 2/C
;
_chemical_formula_sum "Si O2"
_cell_formula_units_Z 40
_cell_length_a 14.544956
_cell_length_b 14.007845
_cell_length_c 13.606653
_cell_angle_alpha 90.000000
_cell_angle_beta 137.220276
_cell_angle_gamma 90.000000
_cell_volume 1882.872728
_symmetry_space_group_name_H-M "C 2/C"
_symmetry_group_IT_number 15
_symmetry_cell_setting 'monoclinic'
loop_
_space_group_symop_operation_xyz
x,y,z
-x,y,1/2-z
-x,-y,-z
x,-y,1/2+z
1/2+x,1/2+y,z
1/2-x,1/2+y,1/2-z
1/2-x,1/2-y,-z
1/2+x,1/2-y,1/2+z
loop_
_atom_site_type_symbol
_atom_site_label
_atom_site_fract_x
_atom_site_fract_y
_atom_site_fract_z
Si Si1 0.454745 0.941996 0.325421
Si Si2 0.303835 0.928285 0.839691
Si Si3 0.708647 0.772452 0.209860
Si Si4 0.006461 0.845717 0.052983
Si Si5 0.983903 0.033763 0.349432
O O1 0.500000 0.946212 0.250000
O O2 0.593239 0.943807 0.492627
O O3 0.367329 0.847669 0.280020
O O4 0.369950 0.036933 0.288507
O O5 0.249569 0.820906 0.802840
O O6 0.173024 0.993604 0.755265
O O7 0.853971 0.811380 0.286410
O O8 0.605253 0.740107 0.040862
O O9 0.941955 0.932969 0.066175
O O10 0.035697 0.882886 0.963617
O O11 0.000000 0.067281 0.250000
#
# Coordination Sequence:
#
# PCOD8145921 Si02
#       5
#     8   8   8   8   8
#     4  11  24  40  66  93 130 172 213 268 330 388
#     4  10  23  41  62  92 132 163 211 271 325 384
#     4  11  21  41  63  92 128 168 206 269 325 379
#     4  10  22  40  63  90 133 161 211 273 323 378
#     4  10  22  40  67  90 123 173 219 261 325 389
#
# _framework density 21.244133999999999
#
# number of rings (size 3 to 8) (size 9 to 14) (size 15 to 20)
#    0.000    1.600    4.000    0.000    2.800    4.000 
#    0.000    2.000    0.000    0.000    0.000    0.000 
#    0.000    0.000    0.000    0.000    0.000    0.000 
#
# Total GULP energy -247776.838644 kJ/mol
# GULP energy per Si atom -12388.841932 kJ/mol
# Density = 2.119578 g / cm^3
# Si number density = 21.244134 Si / 1000 Ang^3
#
#
#
# Elastic Constant Matrix: (Units=GPa)
#
#
# Indices 1 2 3 4 5 6 
#
# 1 39.5209 23.7361 18.2588 0.0000 7.5811 0.0000
# 2 23.7361 89.0404 40.0936 0.0000 -3.9446 0.0000
# 3 18.2588 40.0936 74.6110 0.0000 33.1405 0.0000
# 4 0.0000 0.0000 0.0000 18.8992 0.0000 12.3651
# 5 7.5811 -3.9446 33.1405 0.0000 33.5461 0.0000
# 6 0.0000 0.0000 0.0000 12.3651 0.0000 -2.3277
#
#
#
# Elastic Compliance Matrix: (Units=1/GPa)
#
#
# Indices 1 2 3 4 5 6 
#
# 1 0.032411 -0.010186 0.002366 0.000000 -0.010860 0.000000
# 2 -0.010186 0.026809 -0.025546 0.000000 0.030691 0.000000
# 3 0.002366 -0.025546 0.050113 0.000000 -0.053045 0.000000
# 4 0.000000 0.000000 0.000000 0.011822 0.000000 0.062803
# 5 -0.010860 0.030691 -0.053045 0.000000 0.088277 0.000000
# 6 0.000000 0.000000 0.000000 0.062803 0.000000 -0.095990
#
#
# Mechanical properties :
#
#
# Convention : Reuss Voigt Hill
#
# Bulk Modulus (GPa) = 23.47412 40.81659 32.14535
# Shear Modulus (GPa) = 25.72355 18.09578 21.90966
#
# Velocity S-wave (km/s) = 3.48351 2.92173 3.21491
# Velocity P-wave (km/s) = 5.22048 5.53505 5.38007
#
# Compressibility (1/GPa) = 0.04260011
#
# Stress axis : x y z
#
# Youngs Moduli (GPa) = 30.85361 37.30108 19.95495
#
# Poissons Ratio (x) = 0.37997 -0.04721
# Poissons Ratio (y) = 0.31429 0.50976
# Poissons Ratio (z) = -0.07299 0.95288
#
# Static dielectric constant tensor:
#      x y z
#    x 3.528280 0.000000 0.402270 
#    y 0.000000 4.068610 0.000000 
#    z 0.402270 0.000000 4.263290 
# 
# 
# High freq. dielectric constant tensor:
#      x y z
#    x 1.785320 0.000000 0.028890 
#    y 0.000000 1.844560 0.000000 
#    z 0.028890 0.000000 1.851510 
# 
# From -- ./inp_files/85974.got.cif
#   From: 2010.06.25/outbox.cif.g09.slc.cpg/sg15_43_cif.got.tgz:85974.got - 2010.06.28 07:06:18.
