data_PCOD8145526
_publ_section_title
;
Structure prediction by ZEFSAII (Michael W. Deem and Ramdas Pophale) SiO2 
 PCOD8145526
Probable space group: C 2/C
;
_chemical_formula_sum "Si O2"
_cell_formula_units_Z 40
_cell_length_a 11.987482
_cell_length_b 13.838311
_cell_length_c 11.756807
_cell_angle_alpha 90.000000
_cell_angle_beta 104.747178
_cell_angle_gamma 90.000000
_cell_volume 1886.049905
_symmetry_space_group_name_H-M "C 2/C"
_symmetry_group_IT_number 15
_symmetry_cell_setting 'monoclinic'
loop_
_space_group_symop_operation_xyz
x,y,z
-x,y,1/2-z
-x,-y,-z
x,-y,1/2+z
1/2+x,1/2+y,z
1/2-x,1/2+y,1/2-z
1/2-x,1/2-y,-z
1/2+x,1/2-y,1/2+z
loop_
_atom_site_type_symbol
_atom_site_label
_atom_site_fract_x
_atom_site_fract_y
_atom_site_fract_z
Si Si1 0.000000 0.225760 0.250000
Si Si2 0.000000 0.912531 0.250000
Si Si3 0.096644 0.474306 0.675403
Si Si4 0.991827 0.654558 0.541259
Si Si5 0.351088 0.433886 0.825083
Si Si6 0.136599 0.187683 0.964629
O O1 0.937521 0.294280 0.139079
O O2 0.894675 0.161235 0.269511
O O3 0.899605 0.846514 0.170143
O O4 0.938746 0.977850 0.329621
O O5 0.092041 0.399938 0.567891
O O6 0.222394 0.463806 0.759531
O O7 0.000000 0.456682 0.750000
O O8 0.086419 0.579840 0.615754
O O9 0.037788 0.743182 0.481815
O O10 0.349391 0.409457 0.957803
O O11 0.250000 0.250000 0.000000
#
# Coordination Sequence:
#
# PCOD8145526 Si02
#       6
#     4   4   8   8   8   8
#     4   9  20  44  59  90 126 166 215 260 316 385
#     4  11  24  44  65  94 134 168 215 268 320 383
#     4  11  22  39  64  93 132 165 217 261 330 374
#     4  10  22  39  60  92 127 170 209 270 307 388
#     4  10  23  41  66  91 128 171 210 265 324 382
#     4  11  23  40  67  94 131 167 220 263 323 380
#
# _framework density 21.208347
#
# number of rings (size 3 to 8) (size 9 to 14) (size 15 to 20)
#    0.000    1.600    1.000    3.000    4.200    2.400 
#    0.000    0.000    0.000    0.000    0.000    0.000 
#    0.000    0.000    0.000    0.000    0.000    0.000 
#
# Total GULP energy -247825.196053 kJ/mol
# GULP energy per Si atom -12391.259803 kJ/mol
# Density = 2.116008 g / cm^3
# Si number density = 21.208347 Si / 1000 Ang^3
#
#
#
# Elastic Constant Matrix: (Units=GPa)
#
#
# Indices 1 2 3 4 5 6 
#
# 1 72.4864 13.7094 26.6837 0.0000 16.1306 0.0000
# 2 13.7094 93.7975 52.1065 0.0000 10.7194 0.0000
# 3 26.6837 52.1065 119.3079 0.0000 9.4877 0.0000
# 4 0.0000 0.0000 0.0000 37.5630 0.0000 -0.8218
# 5 16.1306 10.7194 9.4877 0.0000 34.1874 0.0000
# 6 0.0000 0.0000 0.0000 -0.8218 0.0000 19.9267
#
#
#
# Elastic Compliance Matrix: (Units=1/GPa)
#
#
# Indices 1 2 3 4 5 6 
#
# 1 0.016490 0.000165 -0.003208 0.000000 -0.006942 0.000000
# 2 0.000165 0.014339 -0.006070 0.000000 -0.002890 0.000000
# 3 -0.003208 -0.006070 0.011737 0.000000 0.000160 0.000000
# 4 0.000000 0.000000 0.000000 0.026646 0.000000 0.001099
# 5 -0.006942 -0.002890 0.000160 0.000000 0.033388 0.000000
# 6 0.000000 0.000000 0.000000 0.001099 0.000000 0.050229
#
#
# Mechanical properties :
#
#
# Convention : Reuss Voigt Hill
#
# Bulk Modulus (GPa) = 41.08173 52.28789 46.68481
# Shear Modulus (GPa) = 27.90660 31.20822 29.55741
#
# Velocity S-wave (km/s) = 3.63137 3.84018 3.73724
# Velocity P-wave (km/s) = 6.08236 6.66113 6.37831
#
# Compressibility (1/GPa) = 0.02434172
#
# Stress axis : x y z
#
# Youngs Moduli (GPa) = 60.64173 69.73909 85.19762
#
# Poissons Ratio (x) = -0.01154 0.27334
# Poissons Ratio (y) = -0.01003 0.51712
# Poissons Ratio (z) = 0.19456 0.42329
#
# Static dielectric constant tensor:
#      x y z
#    x 3.457730 0.000000 -0.084860 
#    y 0.000000 4.091820 0.000000 
#    z -0.084860 0.000000 3.903940 
# 
# 
# High freq. dielectric constant tensor:
#      x y z
#    x 1.803980 0.000000 -0.008650 
#    y 0.000000 1.851550 0.000000 
#    z -0.008650 0.000000 1.843720 
# 
# From -- ./inp_files/85766.got.cif
#   From: 2010.06.25/outbox.cif.g09.slc.cpg/sg15_43_cif.got.tgz:85766.got - 2010.06.28 07:06:18.
