data_PCOD8145146
_publ_section_title
;
Structure prediction by ZEFSAII (Michael W. Deem and Ramdas Pophale) SiO2 
 PCOD8145146
Probable space group: C 2/C
;
_chemical_formula_sum "Si O2"
_cell_formula_units_Z 44
_cell_length_a 6.522003
_cell_length_b 25.396924
_cell_length_c 16.772649
_cell_angle_alpha 90.000000
_cell_angle_beta 50.133637
_cell_angle_gamma 90.000000
_cell_volume 2132.385374
_symmetry_space_group_name_H-M "C 2/C"
_symmetry_group_IT_number 15
_symmetry_cell_setting 'monoclinic'
loop_
_space_group_symop_operation_xyz
x,y,z
-x,y,1/2-z
-x,-y,-z
x,-y,1/2+z
1/2+x,1/2+y,z
1/2-x,1/2+y,1/2-z
1/2-x,1/2-y,-z
1/2+x,1/2-y,1/2+z
loop_
_atom_site_type_symbol
_atom_site_label
_atom_site_fract_x
_atom_site_fract_y
_atom_site_fract_z
Si Si1 0.500000 0.851721 0.750000
Si Si2 0.498283 0.891093 0.023326
Si Si3 0.953490 0.933929 0.671222
Si Si4 0.516408 0.450005 0.340667
Si Si5 0.248562 0.309057 0.530193
Si Si6 0.189941 0.359829 0.140126
O O1 0.723891 0.891156 0.724891
O O2 0.617568 0.814742 0.650782
O O3 0.284965 0.936510 0.054961
O O4 0.493664 0.874242 0.116549
O O5 0.434993 0.840844 0.984994
O O6 0.792735 0.911358 0.935753
O O7 0.000000 0.946952 0.750000
O O8 0.893436 0.992040 0.650571
O O9 0.500000 0.442403 0.250000
O O10 0.721312 0.411340 0.332848
O O11 0.250000 0.250000 0.500000
O O12 0.556084 0.327506 0.454343
O O13 0.000000 0.327391 0.250000
#
# Coordination Sequence:
#
# PCOD8145146 Si02
#       6
#     4   8   8   8   8   8
#     4  12  24  46  68 100 134 166 224 280 328 402
#     4  11  22  43  64  94 134 171 224 271 328 391
#     4  11  23  40  65  97 135 174 214 269 329 394
#     4  10  22  37  64  97 136 177 217 259 321 401
#     4  11  27  47  69  97 127 173 227 284 339 390
#     4  11  23  42  65  98 135 176 219 270 325 395
#
# _framework density 20.634167999999999
#
# number of rings (size 3 to 8) (size 9 to 14) (size 15 to 20)
#    0.000    1.091    5.455    0.545    1.273    2.909 
#    3.273    0.000    0.000    0.000    0.000    0.000 
#    0.000    0.000    0.000    0.000    0.000    0.000 
#
# Total GULP energy -272682.298432 kJ/mol
# GULP energy per Si atom -12394.649929 kJ/mol
# Density = 2.058720 g / cm^3
# Si number density = 20.634168 Si / 1000 Ang^3
#
#
#
# Elastic Constant Matrix: (Units=GPa)
#
#
# Indices 1 2 3 4 5 6 
#
# 1 73.8451 25.3036 30.6580 0.0000 11.2814 0.0000
# 2 25.3036 133.8680 48.0919 0.0000 8.6207 0.0000
# 3 30.6580 48.0919 150.1286 0.0001 0.9897 0.0000
# 4 0.0000 0.0000 0.0001 195.8016 0.0000 -48.3068
# 5 11.2814 8.6207 0.9897 0.0000 36.3673 0.0000
# 6 0.0000 0.0000 0.0000 -48.3068 0.0000 30.2861
#
#
#
# Elastic Compliance Matrix: (Units=1/GPa)
#
#
# Indices 1 2 3 4 5 6 
#
# 1 0.015931 -0.001770 -0.002657 0.000000 -0.004450 0.000000
# 2 -0.001770 0.008776 -0.002440 0.000000 -0.001465 0.000000
# 3 -0.002657 -0.002440 0.007977 0.000000 0.001185 0.000000
# 4 0.000000 0.000000 0.000000 0.008421 0.000000 0.013432
# 5 -0.004450 -0.001465 0.001185 0.000000 0.029193 0.000000
# 6 0.000000 0.000000 0.000000 0.013432 0.000000 0.054442
#
#
# Mechanical properties :
#
#
# Convention : Reuss Voigt Hill
#
# Bulk Modulus (GPa) = 52.77080 62.88320 57.82700
# Shear Modulus (GPa) = 34.53258 69.41020 51.97139
#
# Velocity S-wave (km/s) = 4.09536 5.80616 5.02411
# Velocity P-wave (km/s) = 6.92767 8.68850 7.85757
#
# Compressibility (1/GPa) = 0.01894987
#
# Stress axis : x y z
#
# Youngs Moduli (GPa) = 62.76923 113.95322 125.35513
#
# Poissons Ratio (x) = 0.20173 0.33306
# Poissons Ratio (y) = 0.11112 0.30586
# Poissons Ratio (z) = 0.16677 0.27804
#
# Static dielectric constant tensor:
#      x y z
#    x 3.915510 0.000000 -0.110780 
#    y 0.000000 3.603310 0.000000 
#    z -0.110780 0.000000 4.110420 
# 
# 
# High freq. dielectric constant tensor:
#      x y z
#    x 1.814340 0.000000 -0.002870 
#    y 0.000000 1.790020 0.000000 
#    z -0.002870 0.000000 1.829050 
# 
# From -- ./inp_files/129352.got.cif
#   From: 2010.06.25/outbox.cif.g09.slc.cpg/sg15_65_cif.got.tgz:129352.got - 2010.06.28 07:06:18.
