data_PCOD8145759
_publ_section_title
;
Structure prediction by ZEFSAII (Michael W. Deem and Ramdas Pophale) SiO2 
 PCOD8145759
Probable space group: C 2/C
;
_chemical_formula_sum "Si O2"
_cell_formula_units_Z 52
_cell_length_a 29.175169
_cell_length_b 8.818666
_cell_length_c 15.157956
_cell_angle_alpha 90.000000
_cell_angle_beta 39.421094
_cell_angle_gamma 90.000000
_cell_volume 2476.514490
_symmetry_space_group_name_H-M "C 2/C"
_symmetry_group_IT_number 15
_symmetry_cell_setting 'monoclinic'
loop_
_space_group_symop_operation_xyz
x,y,z
-x,y,1/2-z
-x,-y,-z
x,-y,1/2+z
1/2+x,1/2+y,z
1/2-x,1/2+y,1/2-z
1/2-x,1/2-y,-z
1/2+x,1/2-y,1/2+z
loop_
_atom_site_type_symbol
_atom_site_label
_atom_site_fract_x
_atom_site_fract_y
_atom_site_fract_z
Si Si1 0.751665 0.518821 0.019471
Si Si2 0.801752 0.096269 0.725606
Si Si3 0.453531 0.438496 0.490433
Si Si4 0.299375 0.938116 0.758928
Si Si5 0.937536 0.620634 0.578198
Si Si6 0.870538 0.237461 0.348351
Si Si7 0.000000 0.894794 0.750000
O O1 0.743847 0.412125 0.116024
O O2 0.672907 0.587024 0.114922
O O3 0.780921 0.427737 0.890812
O O4 0.809662 0.642534 0.966488
O O5 0.813645 0.274949 0.693986
O O6 0.873696 0.999267 0.625789
O O7 0.762844 0.029828 0.697803
O O8 0.500000 0.500000 0.500000
O O9 0.458121 0.255072 0.479927
O O10 0.488083 0.496516 0.349697
O O11 0.370957 0.032978 0.635648
O O12 0.918860 0.701650 0.697210
O O13 0.000000 0.500000 0.500000
O O14 0.927348 0.205319 0.343055
#
# Coordination Sequence:
#
# PCOD8145759 Si02
#       7
#     8   8   8   8   8   8   4
#     4  10  22  44  65  94 139 168 221 265 342 380
#     4  12  24  42  70  98 133 174 222 270 333 393
#     4  12  24  43  69  97 133 177 217 274 332 395
#     4  11  26  40  67 101 132 174 221 276 324 397
#     4  11  23  45  65  97 135 178 221 270 333 389
#     4  10  22  39  68  97 131 175 212 279 323 395
#     4  12  24  40  70 102 130 168 232 262 340 390
#
# _framework density 20.997253000000001
#
# number of rings (size 3 to 8) (size 9 to 14) (size 15 to 20)
#    0.000    0.923    3.077    3.231    6.462    0.000 
#    0.000    8.462    0.000    0.000    0.000    0.000 
#    0.000    0.000    0.000    0.000    0.000    0.000 
#
# Total GULP energy -322432.871106 kJ/mol
# GULP energy per Si atom -12401.264273 kJ/mol
# Density = 2.094946 g / cm^3
# Si number density = 20.997253 Si / 1000 Ang^3
#
#
#
# Elastic Constant Matrix: (Units=GPa)
#
#
# Indices 1 2 3 4 5 6 
#
# 1 146.9692 51.9279 47.0021 0.0000 -15.7580 0.0000
# 2 51.9279 135.8833 26.0758 0.0006 -8.9414 -0.0001
# 3 47.0021 26.0758 74.3325 0.0002 -5.9711 0.0000
# 4 0.0000 0.0006 0.0002 31.2561 -0.0001 -2.6024
# 5 -15.7580 -8.9414 -5.9711 -0.0001 42.2586 0.0000
# 6 0.0000 -0.0001 0.0000 -2.6024 0.0000 35.8920
#
#
#
# Elastic Compliance Matrix: (Units=1/GPa)
#
#
# Indices 1 2 3 4 5 6 
#
# 1 0.009534 -0.002541 -0.004951 0.000000 0.002318 0.000000
# 2 -0.002541 0.008638 -0.001368 0.000000 0.000687 0.000000
# 3 -0.004951 -0.001368 0.017086 0.000000 0.000279 0.000000
# 4 0.000000 0.000000 0.000000 0.032188 0.000000 0.002334
# 5 0.002318 0.000687 0.000279 0.000000 0.024713 0.000000
# 6 0.000000 0.000000 0.000000 0.002334 0.000000 0.028031
#
#
# Mechanical properties :
#
#
# Convention : Reuss Voigt Hill
#
# Bulk Modulus (GPa) = 57.02040 67.46631 62.24335
# Shear Modulus (GPa) = 34.78131 37.35995 36.07063
#
# Velocity S-wave (km/s) = 4.07439 4.22273 4.14922
# Velocity P-wave (km/s) = 7.02490 7.48171 7.25690
#
# Compressibility (1/GPa) = 0.01753758
#
# Stress axis : x y z
#
# Youngs Moduli (GPa) = 104.89078 115.76748 58.52725
#
# Poissons Ratio (x) = 0.29413 0.28976
# Poissons Ratio (y) = 0.26650 0.08009
# Poissons Ratio (z) = 0.51930 0.15842
#
# Static dielectric constant tensor:
#      x y z
#    x 3.858130 0.000000 -0.085610 
#    y 0.000000 3.821460 0.000000 
#    z -0.085610 0.000000 3.736440 
# 
# 
# High freq. dielectric constant tensor:
#      x y z
#    x 1.831840 0.000000 -0.006740 
#    y 0.000000 1.824220 0.000000 
#    z -0.006740 0.000000 1.827860 
# 
# From -- ./inp_files/181069.got.cif
#   From: 2010.06.25/outbox.cif.g09.slc.cpg/sg15_91_cif.got.tgz:181069.got - 2010.06.28 07:06:18.
