data_PCOD8145875
_publ_section_title
;
Structure prediction by ZEFSAII (Michael W. Deem and Ramdas Pophale) SiO2 
 PCOD8145875
Probable space group: C 2/C
;
_chemical_formula_sum "Si O2"
_cell_formula_units_Z 56
_cell_length_a 26.887440
_cell_length_b 12.138780
_cell_length_c 8.831949
_cell_angle_alpha 90.000000
_cell_angle_beta 116.499855
_cell_angle_gamma 90.000000
_cell_volume 2579.721236
_symmetry_space_group_name_H-M "C 2/C"
_symmetry_group_IT_number 15
_symmetry_cell_setting 'monoclinic'
loop_
_space_group_symop_operation_xyz
x,y,z
-x,y,1/2-z
-x,-y,-z
x,-y,1/2+z
1/2+x,1/2+y,z
1/2-x,1/2+y,1/2-z
1/2-x,1/2-y,-z
1/2+x,1/2-y,1/2+z
loop_
_atom_site_type_symbol
_atom_site_label
_atom_site_fract_x
_atom_site_fract_y
_atom_site_fract_z
Si Si1 0.434228 0.387366 0.926768
Si Si2 0.324437 0.475131 0.253368
Si Si3 0.292396 0.735030 0.847697
Si Si4 0.000000 0.011135 0.250000
Si Si5 0.567168 0.872394 0.079937
Si Si6 0.000000 0.510392 0.750000
Si Si7 0.253290 0.582690 0.390859
Si Si8 0.812369 0.621125 0.648383
O O1 0.375788 0.443188 0.804034
O O2 0.477124 0.412692 0.851839
O O3 0.434241 0.257691 0.944286
O O4 0.452320 0.434540 0.113973
O O5 0.334063 0.368005 0.374553
O O6 0.272910 0.546014 0.249140
O O7 0.308144 0.420219 0.070439
O O8 0.277564 0.800226 0.671971
O O9 0.232879 0.691816 0.822562
O O10 0.324533 0.814368 0.008264
O O11 0.534023 0.910807 0.183737
O O12 0.632015 0.899114 0.181452
O O13 0.542822 0.932845 0.899183
O O14 0.209987 0.500945 0.411554
#
# Coordination Sequence:
#
# PCOD8145875 Si02
#       8
#     8   8   8   4   8   4   8   8
#     4  11  23  42  66  95 126 175 208 281 328 399
#     4  11  23  37  65  93 135 171 218 255 329 400
#     4  10  22  40  61  98 136 174 217 266 322 407
#     4  10  24  42  62  92 130 158 226 258 334 398
#     4  11  24  44  71  91 133 168 222 283 337 378
#     4  10  26  48  66 102 122 172 238 282 326 406
#     4  11  21  40  58  95 135 170 215 265 313 407
#     4  10  23  38  65  94 130 174 209 273 333 387
#
# _framework density 21.707773
#
# number of rings (size 3 to 8) (size 9 to 14) (size 15 to 20)
#    0.000    1.429    1.429    3.000    8.000    0.000 
#    0.000    2.857    0.000    0.000    0.000    0.000 
#    0.000    0.000    0.000    0.000    0.000    0.000 
#
# Total GULP energy -347109.320679 kJ/mol
# GULP energy per Si atom -12396.761453 kJ/mol
# Density = 2.165837 g / cm^3
# Si number density = 21.707773 Si / 1000 Ang^3
#
#
#
# Elastic Constant Matrix: (Units=GPa)
#
#
# Indices 1 2 3 4 5 6 
#
# 1 52.2907 19.1102 12.4338 0.0000 14.8233 0.0000
# 2 19.1102 106.0339 8.9932 0.0000 9.5161 0.0000
# 3 12.4338 8.9932 91.1039 0.0000 16.6056 0.0000
# 4 0.0000 0.0000 0.0000 34.1084 0.0000 4.7061
# 5 14.8233 9.5161 16.6056 0.0000 34.8841 0.0000
# 6 0.0000 0.0000 0.0000 4.7061 0.0000 26.1124
#
#
#
# Elastic Compliance Matrix: (Units=1/GPa)
#
#
# Indices 1 2 3 4 5 6 
#
# 1 0.022974 -0.003290 -0.001308 0.000000 -0.008242 0.000000
# 2 -0.003290 0.010161 -0.000332 0.000000 -0.001216 0.000000
# 3 -0.001308 -0.000332 0.012122 0.000000 -0.005124 0.000000
# 4 0.000000 0.000000 0.000000 0.030066 0.000000 -0.005419
# 5 -0.008242 -0.001216 -0.005124 0.000000 0.034939 0.000000
# 6 0.000000 0.000000 0.000000 -0.005419 0.000000 0.039273
#
#
# Mechanical properties :
#
#
# Convention : Reuss Voigt Hill
#
# Bulk Modulus (GPa) = 28.25244 36.72254 32.48749
# Shear Modulus (GPa) = 29.20661 32.94706 31.07683
#
# Velocity S-wave (km/s) = 3.67201 3.90006 3.78775
# Velocity P-wave (km/s) = 5.56968 6.10198 5.84190
#
# Compressibility (1/GPa) = 0.03539518
#
# Stress axis : x y z
#
# Youngs Moduli (GPa) = 43.52801 98.41399 82.49638
#
# Poissons Ratio (x) = 0.32377 0.10794
# Poissons Ratio (y) = 0.14320 0.02743
# Poissons Ratio (z) = 0.05695 0.03272
#
# Static dielectric constant tensor:
#      x y z
#    x 3.657890 0.000000 -0.019730 
#    y 0.000000 4.073600 0.000000 
#    z -0.019730 0.000000 4.112710 
# 
# 
# High freq. dielectric constant tensor:
#      x y z
#    x 1.828530 0.000000 -0.001390 
#    y 0.000000 1.867420 0.000000 
#    z -0.001390 0.000000 1.865630 
# 
# From -- ./inp_files/65580.got.cif
#   From: 2010.06.25/outbox.cif.g09.slc.cpg/sg15_33_cif.got.tgz:65580.got - 2010.06.28 07:06:18.
