data_PCOD8145421
_publ_section_title
;
Structure prediction by ZEFSAII (Michael W. Deem and Ramdas Pophale) SiO2 
 PCOD8145421
Probable space group: C 2/C
;
_chemical_formula_sum "Si O2"
_cell_formula_units_Z 40
_cell_length_a 11.618287
_cell_length_b 20.932480
_cell_length_c 11.871384
_cell_angle_alpha 90.000000
_cell_angle_beta 40.223547
_cell_angle_gamma 90.000000
_cell_volume 1864.416916
_symmetry_space_group_name_H-M "C 2/C"
_symmetry_group_IT_number 15
_symmetry_cell_setting 'monoclinic'
loop_
_space_group_symop_operation_xyz
x,y,z
-x,y,1/2-z
-x,-y,-z
x,-y,1/2+z
1/2+x,1/2+y,z
1/2-x,1/2+y,1/2-z
1/2-x,1/2-y,-z
1/2+x,1/2-y,1/2+z
loop_
_atom_site_type_symbol
_atom_site_label
_atom_site_fract_x
_atom_site_fract_y
_atom_site_fract_z
Si Si1 0.197566 0.269381 0.914609
Si Si2 0.036525 0.839985 0.936903
Si Si3 0.457879 0.099970 0.960214
Si Si4 0.267450 0.558094 0.582262
Si Si5 0.169723 0.580285 0.199682
O O1 0.374775 0.298484 0.728165
O O2 0.250000 0.250000 0.000000
O O3 0.044041 0.323278 0.030062
O O4 0.120522 0.207466 0.902493
O O5 0.190939 0.859998 0.910507
O O6 0.958566 0.907285 0.948356
O O7 0.653858 0.079260 0.776379
O O8 0.317839 0.077943 0.971336
O O9 0.402677 0.068376 0.119911
O O10 0.278619 0.481412 0.575180
O O11 0.000000 0.596399 0.250000
#
# Coordination Sequence:
#
# PCOD8145421 Si02
#       5
#     8   8   8   8   8
#     4  11  21  36  62  96 131 159 217 279 334 379
#     4  11  24  39  63  98 128 172 216 270 338 387
#     4  10  22  38  66  97 132 167 216 274 335 384
#     4  11  21  39  66  97 131 166 217 278 336 383
#     4  11  24  42  63  94 139 179 219 261 326 405
#
# _framework density 21.454429000000001
#
# number of rings (size 3 to 8) (size 9 to 14) (size 15 to 20)
#    0.000    1.200    4.000    3.000    5.600    0.000 
#    0.000    5.000    0.000    0.000    0.000    0.000 
#    0.000    0.000    0.000    0.000    0.000    0.000 
#
# Total GULP energy -247891.388257 kJ/mol
# GULP energy per Si atom -12394.569413 kJ/mol
# Density = 2.140560 g / cm^3
# Si number density = 21.454429 Si / 1000 Ang^3
#
#
#
# Elastic Constant Matrix: (Units=GPa)
#
#
# Indices 1 2 3 4 5 6 
#
# 1 117.0709 66.4526 41.2751 0.0002 -11.6577 0.0004
# 2 66.4526 125.1847 23.1127 0.0001 -12.9871 0.0001
# 3 41.2751 23.1127 65.7296 0.0003 -11.2145 0.0003
# 4 0.0002 0.0001 0.0003 46.8733 -0.0003 -9.5831
# 5 -11.6577 -12.9871 -11.2145 -0.0003 30.2384 -0.0003
# 6 0.0004 0.0001 0.0003 -9.5831 -0.0003 24.8285
#
#
#
# Elastic Compliance Matrix: (Units=1/GPa)
#
#
# Indices 1 2 3 4 5 6 
#
# 1 0.014686 -0.006491 -0.006885 0.000000 0.000320 0.000000
# 2 -0.006491 0.011628 0.000440 0.000000 0.002655 0.000000
# 3 -0.006885 0.000440 0.020243 0.000000 0.005042 0.000000
# 4 0.000000 0.000000 0.000000 0.023162 0.000000 0.008940
# 5 0.000320 0.002655 0.005042 0.000000 0.036204 0.000000
# 6 0.000000 0.000000 0.000000 0.008940 0.000000 0.043727
#
#
# Mechanical properties :
#
#
# Convention : Reuss Voigt Hill
#
# Bulk Modulus (GPa) = 48.34399 63.29622 55.82010
# Shear Modulus (GPa) = 27.40992 32.19770 29.80381
#
# Velocity S-wave (km/s) = 3.57821 3.87815 3.73120
# Velocity P-wave (km/s) = 6.29712 7.04415 6.68109
#
# Compressibility (1/GPa) = 0.02068510
#
# Stress axis : x y z
#
# Youngs Moduli (GPa) = 68.09340 85.99814 49.40093
#
# Poissons Ratio (x) = 0.55824 0.34011
# Poissons Ratio (y) = 0.44202 -0.02176
# Poissons Ratio (z) = 0.46880 -0.03787
#
# Static dielectric constant tensor:
#      x y z
#    x 3.732380 0.000000 -0.215170 
#    y 0.000000 4.335420 0.000000 
#    z -0.215170 0.000000 4.129140 
# 
# 
# High freq. dielectric constant tensor:
#      x y z
#    x 1.820510 0.000000 -0.024330 
#    y 0.000000 1.859060 0.000000 
#    z -0.024330 0.000000 1.829650 
# 
# From -- ./inp_files/30520.got.cif
#   From: 2010.06.25/outbox.cif.g09.slc.cpg/sg15_16_cif.got.tgz:30520.got - 2010.06.28 07:06:18.
