data_PCOD8145232
_publ_section_title
;
Structure prediction by ZEFSAII (Michael W. Deem and Ramdas Pophale) SiO2 
 PCOD8145232
Probable space group: C 2/C
;
_chemical_formula_sum "Si O2"
_cell_formula_units_Z 32
_cell_length_a 5.023036
_cell_length_b 28.528152
_cell_length_c 10.318441
_cell_angle_alpha 90.000000
_cell_angle_beta 58.068743
_cell_angle_gamma 90.000000
_cell_volume 1254.872671
_symmetry_space_group_name_H-M "C 2/C"
_symmetry_group_IT_number 15
_symmetry_cell_setting 'monoclinic'
loop_
_space_group_symop_operation_xyz
x,y,z
-x,y,1/2-z
-x,-y,-z
x,-y,1/2+z
1/2+x,1/2+y,z
1/2-x,1/2+y,1/2-z
1/2-x,1/2-y,-z
1/2+x,1/2-y,1/2+z
loop_
_atom_site_type_symbol
_atom_site_label
_atom_site_fract_x
_atom_site_fract_y
_atom_site_fract_z
Si Si1 0.130526 0.328465 0.352814
Si Si2 0.371170 0.275262 0.647266
Si Si3 0.866939 0.964203 0.639155
Si Si4 0.749167 0.366715 0.925750
O O1 0.500000 0.325180 0.250000
O O2 0.988033 0.276387 0.427675
O O3 0.067123 0.366659 0.483423
O O4 0.000000 0.347920 0.250000
O O5 0.500000 0.292131 0.750000
O O6 0.464470 0.318455 0.524634
O O7 0.000000 0.268495 0.750000
O O8 0.500000 0.971892 0.750000
O O9 0.945352 0.913682 0.553765
O O10 0.000000 0.969617 0.750000
O O11 0.000000 0.000000 0.500000
O O12 0.000000 0.360375 0.750000
#
# Coordination Sequence:
#
# PCOD8145232 Si02
#       4
#     8   8   8   8
#     4  10  22  38  59  92 133 172 211 257 317 383
#     4   9  18  34  57  88 127 169 211 259 312 379
#     4  11  25  47  73 102 134 174 223 282 346 405
#     4  10  22  41  65  94 126 169 219 268 323 393
#
# _framework density 25.500594
#
# number of rings (size 3 to 8) (size 9 to 14) (size 15 to 20)
#    0.000    2.000    0.000    2.250    0.000    9.000 
#    0.000   17.500    0.000    0.000    0.000    0.000 
#    0.000    0.000    0.000    0.000    0.000    0.000 
#
# Total GULP energy -198250.696204 kJ/mol
# GULP energy per Si atom -12390.668513 kJ/mol
# Density = 2.544255 g / cm^3
# Si number density = 25.500594 Si / 1000 Ang^3
#
#
#
# Elastic Constant Matrix: (Units=GPa)
#
#
# Indices 1 2 3 4 5 6 
#
# 1 134.5698 51.9945 65.2810 0.0000 56.5958 0.0000
# 2 51.9945 160.8383 85.2275 0.0000 26.9147 0.0000
# 3 65.2810 85.2275 173.0060 0.0000 64.0961 0.0000
# 4 0.0000 0.0000 0.0000 85.1275 0.0000 -1.7281
# 5 56.5958 26.9147 64.0961 0.0000 56.3652 0.0000
# 6 0.0000 0.0000 0.0000 -1.7281 0.0000 -25.9571
#
#
#
# Elastic Compliance Matrix: (Units=1/GPa)
#
#
# Indices 1 2 3 4 5 6 
#
# 1 0.013761 -0.002849 0.001427 0.000000 -0.014080 0.000000
# 2 -0.002849 0.009051 -0.004912 0.000000 0.004124 0.000000
# 3 0.001427 -0.004912 0.012655 0.000000 -0.013478 0.000000
# 4 0.000000 0.000000 0.000000 0.011731 0.000000 -0.000781
# 5 -0.014080 0.004124 -0.013478 0.000000 0.045237 0.000000
# 6 0.000000 0.000000 0.000000 -0.000781 0.000000 -0.038473
#
#
# Mechanical properties :
#
#
# Convention : Reuss Voigt Hill
#
# Bulk Modulus (GPa) = 43.85867 97.04668 70.45267
# Shear Modulus (GPa) = 67.36057 40.83454 54.09756
#
# Velocity S-wave (km/s) = 5.14516 4.00599 4.61089
# Velocity P-wave (km/s) = 7.24798 7.71599 7.48565
#
# Compressibility (1/GPa) = 0.02280051
#
# Stress axis : x y z
#
# Youngs Moduli (GPa) = 72.66914 110.48638 79.02280
#
# Poissons Ratio (x) = 0.31474 -0.11279
# Poissons Ratio (y) = 0.20701 0.38813
# Poissons Ratio (z) = -0.10372 0.54266
#
# Static dielectric constant tensor:
#      x y z
#    x 6.326530 0.000000 0.841660 
#    y 0.000000 5.772100 0.000000 
#    z 0.841660 0.000000 5.058810 
# 
# 
# High freq. dielectric constant tensor:
#      x y z
#    x 2.043780 0.000000 0.008980 
#    y 0.000000 1.996890 0.000000 
#    z 0.008980 0.000000 2.030990 
# 
# From -- ./inp_files/19950.got.cif
#   From: 2010.06.25/outbox.cif.g09.slc.cpg/sg15_10_cif.got.tgz:19950.got - 2010.06.28 07:06:18.
