data_PCOD8145270
_publ_section_title
;
Structure prediction by ZEFSAII (Michael W. Deem and Ramdas Pophale) SiO2 
 PCOD8145270
Probable space group: C 2/C
;
_chemical_formula_sum "Si O2"
_cell_formula_units_Z 56
_cell_length_a 11.989660
_cell_length_b 11.015576
_cell_length_c 26.604254
_cell_angle_alpha 90.000000
_cell_angle_beta 50.872898
_cell_angle_gamma 90.000000
_cell_volume 2725.748791
_symmetry_space_group_name_H-M "C 2/C"
_symmetry_group_IT_number 15
_symmetry_cell_setting 'monoclinic'
loop_
_space_group_symop_operation_xyz
x,y,z
-x,y,1/2-z
-x,-y,-z
x,-y,1/2+z
1/2+x,1/2+y,z
1/2-x,1/2+y,1/2-z
1/2-x,1/2-y,-z
1/2+x,1/2-y,1/2+z
loop_
_atom_site_type_symbol
_atom_site_label
_atom_site_fract_x
_atom_site_fract_y
_atom_site_fract_z
Si Si1 0.890209 0.762730 0.170803
Si Si2 0.377802 0.947156 0.600424
Si Si3 0.607952 0.402918 0.174078
Si Si4 0.860501 0.083209 0.492614
Si Si5 0.330483 0.176637 0.292820
Si Si6 0.651510 0.537702 0.890745
Si Si7 0.919035 0.357616 0.482150
O O1 0.923298 0.633368 0.135445
O O2 0.796432 0.722175 0.245690
O O3 0.807602 0.840583 0.151811
O O4 0.021631 0.853137 0.149620
O O5 0.441010 0.875695 0.535050
O O6 0.207748 0.977558 0.639509
O O7 0.456324 0.076220 0.584554
O O8 0.500000 0.434351 0.250000
O O9 0.708466 0.289309 0.160465
O O10 0.797598 0.053998 0.566178
O O11 0.931383 0.215656 0.468457
O O12 0.730238 0.079059 0.490993
O O13 0.979989 0.986506 0.441506
O O14 0.500000 0.143152 0.250000
O O15 0.233003 0.066483 0.337411
#
# Coordination Sequence:
#
# PCOD8145270 Si02
#       7
#     8   8   8   8   8   8   8
#     4  10  22  38  61  90 120 156 207 252 301 384
#     4  11  21  39  63  86 122 159 197 260 309 365
#     4   9  21  40  59  87 118 156 204 251 308 369
#     4  10  22  39  62  84 125 159 197 262 297 368
#     4   9  22  39  60  86 118 157 203 254 304 368
#     4  11  21  40  61  89 118 163 205 244 319 364
#     4  10  22  39  56  91 118 153 204 250 305 363
#
# _framework density 20.544813000000001
#
# number of rings (size 3 to 8) (size 9 to 14) (size 15 to 20)
#    0.000    2.286    1.429    1.714    8.000    0.000 
#    0.000    2.857    0.000    0.000    0.000    0.000 
#    0.000    0.000    0.000    0.000    0.000    0.000 
#
# Total GULP energy -346902.071517 kJ/mol
# GULP energy per Si atom -12389.359697 kJ/mol
# Density = 2.049805 g / cm^3
# Si number density = 20.544813 Si / 1000 Ang^3
#
#
#
# Elastic Constant Matrix: (Units=GPa)
#
#
# Indices 1 2 3 4 5 6 
#
# 1 42.8743 15.5005 17.6520 0.0000 5.8785 0.0000
# 2 15.5005 61.8161 36.6093 0.0000 3.8073 0.0000
# 3 17.6520 36.6093 77.5450 0.0000 14.3654 0.0000
# 4 0.0000 0.0000 0.0000 36.6539 0.0000 4.5257
# 5 5.8785 3.8073 14.3654 0.0000 30.1467 0.0000
# 6 0.0000 0.0000 0.0000 4.5257 0.0000 25.1806
#
#
#
# Elastic Compliance Matrix: (Units=1/GPa)
#
#
# Indices 1 2 3 4 5 6 
#
# 1 0.026771 -0.004511 -0.003403 0.000000 -0.003029 0.000000
# 2 -0.004511 0.023379 -0.010558 0.000000 0.002958 0.000000
# 3 -0.003403 -0.010558 0.020056 0.000000 -0.007560 0.000000
# 4 0.000000 0.000000 0.000000 0.027901 0.000000 -0.005015
# 5 -0.003029 0.002958 -0.007560 0.000000 0.036990 0.000000
# 6 0.000000 0.000000 0.000000 -0.005015 0.000000 0.040614
#
#
# Mechanical properties :
#
#
# Convention : Reuss Voigt Hill
#
# Bulk Modulus (GPa) = 30.06575 35.75101 32.90838
# Shear Modulus (GPa) = 22.34694 25.89450 24.12072
#
# Velocity S-wave (km/s) = 3.30163 3.55405 3.43016
# Velocity P-wave (km/s) = 5.40374 5.85499 5.63389
#
# Compressibility (1/GPa) = 0.03326044
#
# Stress axis : x y z
#
# Youngs Moduli (GPa) = 37.35335 42.77358 49.86136
#
# Poissons Ratio (x) = 0.19294 0.16970
# Poissons Ratio (y) = 0.16849 0.52646
# Poissons Ratio (z) = 0.12713 0.45162
#
# Static dielectric constant tensor:
#      x y z
#    x 3.587870 0.000000 0.173280 
#    y 0.000000 3.728600 0.000000 
#    z 0.173280 0.000000 3.651700 
# 
# 
# High freq. dielectric constant tensor:
#      x y z
#    x 1.785940 0.000000 0.018220 
#    y 0.000000 1.807470 0.000000 
#    z 0.018220 0.000000 1.802550 
# 
# From -- ./inp_files/268724.got.cif
#   From: 2010.06.25/outbox.cif.g09.slc.cpg/sg15_135_cif.got.tgz:268724.got - 2010.06.28 07:06:18.
