data_PCOD8145965
_publ_section_title
;
Structure prediction by ZEFSAII (Michael W. Deem and Ramdas Pophale) SiO2 
 PCOD8145965
Probable space group: C 2/C
;
_chemical_formula_sum "Si O2"
_cell_formula_units_Z 52
_cell_length_a 19.026342
_cell_length_b 14.781590
_cell_length_c 13.453662
_cell_angle_alpha 90.000000
_cell_angle_beta 44.999999
_cell_angle_gamma 90.000000
_cell_volume 2675.481536
_symmetry_space_group_name_H-M "C 2/C"
_symmetry_group_IT_number 15
_symmetry_cell_setting 'monoclinic'
loop_
_space_group_symop_operation_xyz
x,y,z
-x,y,1/2-z
-x,-y,-z
x,-y,1/2+z
1/2+x,1/2+y,z
1/2-x,1/2+y,1/2-z
1/2-x,1/2-y,-z
1/2+x,1/2-y,1/2+z
loop_
_atom_site_type_symbol
_atom_site_label
_atom_site_fract_x
_atom_site_fract_y
_atom_site_fract_z
Si Si1 0.131231 0.888908 0.024455
Si Si2 0.500000 0.125000 0.750000
Si Si3 0.594314 0.361092 0.286917
Si Si4 0.811152 0.321907 0.741871
Si Si5 0.174726 0.260291 0.984339
Si Si6 0.909065 0.489709 0.166210
Si Si7 0.303023 0.571907 0.635825
O O1 0.137005 0.880311 0.136273
O O2 0.023277 0.869689 0.089721
O O3 0.204584 0.815449 0.902174
O O4 0.166243 0.988936 0.962934
O O5 0.574397 0.192600 0.620582
O O6 0.555022 0.057400 0.769375
O O7 0.620824 0.261065 0.295420
O O8 0.643241 0.434552 0.311344
O O9 0.788374 0.321913 0.645714
O O10 0.868501 0.409762 0.724402
O O11 0.157097 0.159762 0.961403
O O12 0.250000 0.250000 0.000000
O O13 0.815911 0.428088 0.222463
O O14 0.000000 0.500000 0.000000
#
# Coordination Sequence:
#
# PCOD8145965 Si02
#       7
#     8   4   8   8   8   8   8
#     4  10  22  40  64  91 126 166 214 253 322 385
#     4  12  24  40  68  96 126 176 220 264 328 396
#     4  10  22  40  64  91 126 166 214 253 322 385
#     4  10  23  40  63  94 128 164 210 271 316 379
#     4  11  23  41  64  94 129 164 215 264 325 379
#     4  11  23  41  64  94 129 164 215 264 325 379
#     4  10  23  40  63  94 128 164 210 271 316 379
#
# _framework density 19.435753999999999
#
# number of rings (size 3 to 8) (size 9 to 14) (size 15 to 20)
#    0.000    1.538    3.077    0.923    0.000   12.308 
#    0.000    0.000    0.000    0.000    0.000    0.000 
#    0.000    0.000    0.000    0.000    0.000    0.000 
#
# Total GULP energy -322321.376736 kJ/mol
# GULP energy per Si atom -12396.976028 kJ/mol
# Density = 1.939152 g / cm^3
# Si number density = 19.435754 Si / 1000 Ang^3
#
#
#
# Elastic Constant Matrix: (Units=GPa)
#
#
# Indices 1 2 3 4 5 6 
#
# 1 154.4415 41.9023 66.8896 0.0000 2.4355 0.0000
# 2 41.9023 96.3457 41.9024 0.0000 0.0005 0.0000
# 3 66.8896 41.9024 154.4426 0.0000 -2.4313 0.0000
# 4 0.0000 0.0000 0.0000 28.8553 0.0000 0.0000
# 5 2.4355 0.0005 -2.4313 0.0000 13.5501 0.0000
# 6 0.0000 0.0000 0.0000 0.0000 0.0000 28.8550
#
#
#
# Elastic Compliance Matrix: (Units=1/GPa)
#
#
# Indices 1 2 3 4 5 6 
#
# 1 0.008473 -0.002352 -0.003064 0.000000 -0.002073 0.000000
# 2 -0.002352 0.012425 -0.002352 0.000000 0.000000 0.000000
# 3 -0.003064 -0.002352 0.008473 0.000000 0.002071 0.000000
# 4 0.000000 0.000000 0.000000 0.034656 0.000000 0.000000
# 5 -0.002073 0.000000 0.002071 0.000000 0.074544 0.000000
# 6 0.000000 0.000000 0.000000 0.000000 0.000000 0.034656
#
#
# Mechanical properties :
#
#
# Convention : Reuss Voigt Hill
#
# Bulk Modulus (GPa) = 72.28798 78.51318 75.40058
# Shear Modulus (GPa) = 25.85636 31.22112 28.53874
#
# Velocity S-wave (km/s) = 3.65135 4.01231 3.83608
# Velocity P-wave (km/s) = 7.41961 7.87076 7.64851
#
# Compressibility (1/GPa) = 0.01383356
#
# Stress axis : x y z
#
# Youngs Moduli (GPa) = 118.02299 80.47983 118.02510
#
# Poissons Ratio (x) = 0.18932 0.36163
# Poissons Ratio (y) = 0.27764 0.27764
# Poissons Ratio (z) = 0.36163 0.18932
#
# Static dielectric constant tensor:
#      x y z
#    x 3.870830 0.000000 0.000010 
#    y 0.000000 3.586600 0.000000 
#    z 0.000010 0.000000 3.870830 
# 
# 
# High freq. dielectric constant tensor:
#      x y z
#    x 1.768510 0.000000 0.000000 
#    y 0.000000 1.762330 0.000000 
#    z 0.000000 0.000000 1.768510 
# 
# From -- ./inp_files/162493.got.cif
#   From: 2010.06.25/outbox.cif.g09.slc.cpg/sg15_82_cif.got.tgz:162493.got - 2010.06.28 07:06:18.
