data_PCOD8145740
_publ_section_title
;
Structure prediction by ZEFSAII (Michael W. Deem and Ramdas Pophale) SiO2 
 PCOD8145740
Probable space group: C 2/C
;
_chemical_formula_sum "Si O2"
_cell_formula_units_Z 48
_cell_length_a 11.717626
_cell_length_b 13.344319
_cell_length_c 17.390828
_cell_angle_alpha 90.000000
_cell_angle_beta 59.469554
_cell_angle_gamma 90.000000
_cell_volume 2342.290060
_symmetry_space_group_name_H-M "C 2/C"
_symmetry_group_IT_number 15
_symmetry_cell_setting 'monoclinic'
loop_
_space_group_symop_operation_xyz
x,y,z
-x,y,1/2-z
-x,-y,-z
x,-y,1/2+z
1/2+x,1/2+y,z
1/2-x,1/2+y,1/2-z
1/2-x,1/2-y,-z
1/2+x,1/2-y,1/2+z
loop_
_atom_site_type_symbol
_atom_site_label
_atom_site_fract_x
_atom_site_fract_y
_atom_site_fract_z
Si Si1 0.500000 0.763061 0.750000
Si Si2 0.107249 0.755554 0.589899
Si Si3 0.500000 0.097342 0.750000
Si Si4 0.184939 0.863085 0.084052
Si Si5 0.641183 0.553632 0.179115
Si Si6 0.873983 0.195987 0.053987
Si Si7 0.316792 0.080438 0.266686
O O1 0.394563 0.691124 0.822502
O O2 0.567267 0.838287 0.789663
O O3 0.250000 0.750000 0.500000
O O4 0.114493 0.841319 0.649658
O O5 0.053926 0.660234 0.657467
O O6 0.004789 0.784014 0.557907
O O7 0.623716 0.028489 0.733285
O O8 0.323027 0.802700 0.037151
O O9 0.214900 0.977752 0.096374
O O10 0.101698 0.865996 0.032952
O O11 0.500000 0.505477 0.250000
O O12 0.729254 0.570381 0.222519
O O13 0.769173 0.127350 0.134983
#
# Coordination Sequence:
#
# PCOD8145740 Si02
#       7
#     4   8   4   8   8   8   8
#     4   9  20  39  62  94 118 171 206 263 328 368
#     4  12  27  44  65  95 137 176 214 265 326 390
#     4  11  24  47  66  96 128 175 216 265 330 378
#     4  10  22  39  67  91 126 162 217 269 317 377
#     4  12  23  41  61  94 128 168 211 259 319 384
#     4  10  22  44  63  97 126 164 219 268 318 390
#     4  10  22  41  68  89 130 167 215 266 318 387
#
# _framework density 20.492764999999999
#
# number of rings (size 3 to 8) (size 9 to 14) (size 15 to 20)
#    0.000    1.333    3.333    1.000    4.667    3.333 
#    0.000    1.667    0.000    0.000    0.000    0.000 
#    0.000    0.000    0.000    0.000    0.000    0.000 
#
# Total GULP energy -297396.259143 kJ/mol
# GULP energy per Si atom -12391.510798 kJ/mol
# Density = 2.044612 g / cm^3
# Si number density = 20.492765 Si / 1000 Ang^3
#
#
#
# Elastic Constant Matrix: (Units=GPa)
#
#
# Indices 1 2 3 4 5 6 
#
# 1 151.9434 47.5903 37.9683 0.0000 29.2323 0.0000
# 2 47.5903 105.9871 24.2739 0.0000 13.4497 0.0000
# 3 37.9683 24.2739 60.3726 0.0000 13.1510 0.0000
# 4 0.0000 0.0000 0.0000 19.8159 0.0000 2.1007
# 5 29.2323 13.4497 13.1510 0.0000 45.3850 0.0000
# 6 0.0000 0.0000 0.0000 2.1007 0.0000 28.2644
#
#
#
# Elastic Compliance Matrix: (Units=1/GPa)
#
#
# Indices 1 2 3 4 5 6 
#
# 1 0.009152 -0.002736 -0.003787 0.000000 -0.003986 0.000000
# 2 -0.002736 0.011382 -0.002674 0.000000 -0.000836 0.000000
# 3 -0.003787 -0.002674 0.020618 0.000000 -0.002743 0.000000
# 4 0.000000 0.000000 0.000000 0.050865 0.000000 -0.003780
# 5 -0.003986 -0.000836 -0.002743 0.000000 0.025644 0.000000
# 6 0.000000 0.000000 0.000000 -0.003780 0.000000 0.035661
#
#
# Mechanical properties :
#
#
# Convention : Reuss Voigt Hill
#
# Bulk Modulus (GPa) = 43.93995 59.77422 51.85709
# Shear Modulus (GPa) = 27.88601 32.59108 30.23855
#
# Velocity S-wave (km/s) = 3.69287 3.99227 3.84548
# Velocity P-wave (km/s) = 6.29851 7.10512 6.71394
#
# Compressibility (1/GPa) = 0.02275833
#
# Stress axis : x y z
#
# Youngs Moduli (GPa) = 109.27041 87.85752 48.50157
#
# Poissons Ratio (x) = 0.24038 0.18368
# Poissons Ratio (y) = 0.29897 0.12967
# Poissons Ratio (z) = 0.41381 0.23489
#
# Static dielectric constant tensor:
#      x y z
#    x 3.841880 0.000000 -0.048660 
#    y 0.000000 4.031540 0.000000 
#    z -0.048660 0.000000 4.234150 
# 
# 
# High freq. dielectric constant tensor:
#      x y z
#    x 1.808810 0.000000 0.008510 
#    y 0.000000 1.814760 0.000000 
#    z 0.008510 0.000000 1.798510 
# 
# From -- ./inp_files/143847.got.cif
#   From: 2010.06.25/outbox.cif.g09.slc.cpg/sg15_72_cif.got.tgz:143847.got - 2010.06.28 07:06:18.
