data_PCOD8145681
_publ_section_title
;
Structure prediction by ZEFSAII (Michael W. Deem and Ramdas Pophale) SiO2 
 PCOD8145681
Probable space group: C 2/C
;
_chemical_formula_sum "Si O2"
_cell_formula_units_Z 44
_cell_length_a 16.233993
_cell_length_b 13.988271
_cell_length_c 21.193093
_cell_angle_alpha 90.000000
_cell_angle_beta 154.335232
_cell_angle_gamma 90.000000
_cell_volume 2084.379775
_symmetry_space_group_name_H-M "C 2/C"
_symmetry_group_IT_number 15
_symmetry_cell_setting 'monoclinic'
loop_
_space_group_symop_operation_xyz
x,y,z
-x,y,1/2-z
-x,-y,-z
x,-y,1/2+z
1/2+x,1/2+y,z
1/2-x,1/2+y,1/2-z
1/2-x,1/2-y,-z
1/2+x,1/2-y,1/2+z
loop_
_atom_site_type_symbol
_atom_site_label
_atom_site_fract_x
_atom_site_fract_y
_atom_site_fract_z
Si Si1 0.072533 0.683493 0.392490
Si Si2 0.795526 0.698887 0.625656
Si Si3 0.060178 0.326868 0.146767
Si Si4 0.257412 0.181145 0.862629
Si Si5 0.827325 0.471311 0.056092
Si Si6 0.500000 0.469826 0.250000
O O1 0.250000 0.750000 0.500000
O O2 0.070731 0.683975 0.467974
O O3 0.110881 0.580337 0.387689
O O4 0.872913 0.722775 0.227730
O O5 0.617727 0.753766 0.473329
O O6 0.804347 0.589617 0.604626
O O7 0.000000 0.747222 0.750000
O O8 0.779057 0.702102 0.690628
O O9 0.984429 0.429219 0.117010
O O10 0.153143 0.336170 0.143428
O O11 0.122591 0.093561 0.786686
O O12 0.627833 0.464014 0.882098
#
# Coordination Sequence:
#
# PCOD8145681 Si02
#       6
#     8   8   8   8   8   4
#     4  11  21  41  64  89 122 170 204 248 301 371
#     4  10  22  42  63  93 122 164 203 251 316 368
#     4  11  24  40  64  96 125 157 207 264 303 366
#     4  11  22  42  61  93 127 158 212 250 309 362
#     4  10  22  39  65  89 122 167 208 245 311 370
#     4  10  22  40  64  88 120 174 202 248 306 378
#
# _framework density 21.109397000000001
#
# number of rings (size 3 to 8) (size 9 to 14) (size 15 to 20)
#    0.000    1.455    3.636    3.273    3.818    7.273 
#    3.273    0.909    0.000    0.000    0.000    0.000 
#    0.000    0.000    0.000    0.000    0.000    0.000 
#
# Total GULP energy -272660.521724 kJ/mol
# GULP energy per Si atom -12393.660078 kJ/mol
# Density = 2.106135 g / cm^3
# Si number density = 21.109397 Si / 1000 Ang^3
#
#
#
# Elastic Constant Matrix: (Units=GPa)
#
#
# Indices 1 2 3 4 5 6 
#
# 1 132.1820 33.0623 12.8434 0.0170 -8.0911 0.0054
# 2 33.0623 104.7171 27.8312 0.0233 1.8873 0.0077
# 3 12.8434 27.8312 94.5566 0.0211 -19.4952 0.0426
# 4 0.0170 0.0233 0.0211 33.6101 0.0309 -7.7098
# 5 -8.0911 1.8873 -19.4952 0.0309 35.1868 0.0128
# 6 0.0054 0.0077 0.0426 -7.7098 0.0128 20.2566
#
#
#
# Elastic Compliance Matrix: (Units=1/GPa)
#
#
# Indices 1 2 3 4 5 6 
#
# 1 0.008362 -0.002704 0.000098 -0.000005 0.002122 -0.000005
# 2 -0.002704 0.011439 -0.003674 0.000000 -0.003271 0.000006
# 3 0.000098 -0.003674 0.013196 -0.000022 0.007531 -0.000039
# 4 -0.000005 0.000000 -0.000022 0.032599 -0.000046 0.012407
# 5 0.002122 -0.003271 0.007531 -0.000046 0.033256 -0.000054
# 6 -0.000005 0.000006 -0.000039 0.012407 -0.000054 0.054089
#
#
# Mechanical properties :
#
#
# Convention : Reuss Voigt Hill
#
# Bulk Modulus (GPa) = 48.93256 53.21439 51.07348
# Shear Modulus (GPa) = 29.01672 34.99197 32.00434
#
# Velocity S-wave (km/s) = 3.71157 4.07584 3.89796
# Velocity P-wave (km/s) = 6.44968 6.88575 6.67128
#
# Compressibility (1/GPa) = 0.02043629
#
# Stress axis : x y z
#
# Youngs Moduli (GPa) = 119.58623 87.42205 75.77784
#
# Poissons Ratio (x) = 0.23642 -0.00740
# Poissons Ratio (y) = 0.32341 0.27840
# Poissons Ratio (z) = -0.01168 0.32118
#
# Static dielectric constant tensor:
#      x y z
#    x 3.787810 -0.000030 -0.396050 
#    y -0.000030 3.767830 -0.000060 
#    z -0.396050 -0.000060 4.407220 
# 
# 
# High freq. dielectric constant tensor:
#      x y z
#    x 1.821280 0.000000 -0.025620 
#    y 0.000000 1.819010 -0.000010 
#    z -0.025620 -0.000010 1.842070 
# 
# From -- ./inp_files/244618.got.cif
#   From: 2010.06.25/outbox.cif.g09.slc.cpg/sg15_123_cif.got.tgz:244618.got - 2010.06.28 07:06:18.
