data_PCOD8145888
_publ_section_title
;
Structure prediction by ZEFSAII (Michael W. Deem and Ramdas Pophale) SiO2 
 PCOD8145888
Probable space group: C 2/C
;
_chemical_formula_sum "Si O2"
_cell_formula_units_Z 36
_cell_length_a 13.415549
_cell_length_b 26.549789
_cell_length_c 4.965233
_cell_angle_alpha 90.000000
_cell_angle_beta 109.870323
_cell_angle_gamma 90.000000
_cell_volume 1663.226796
_symmetry_space_group_name_H-M "C 2/C"
_symmetry_group_IT_number 15
_symmetry_cell_setting 'monoclinic'
loop_
_space_group_symop_operation_xyz
x,y,z
-x,y,1/2-z
-x,-y,-z
x,-y,1/2+z
1/2+x,1/2+y,z
1/2-x,1/2+y,1/2-z
1/2-x,1/2-y,-z
1/2+x,1/2-y,1/2+z
loop_
_atom_site_type_symbol
_atom_site_label
_atom_site_fract_x
_atom_site_fract_y
_atom_site_fract_z
Si Si1 0.000000 0.085242 0.250000
Si Si2 0.000000 0.683761 0.250000
Si Si3 0.341113 0.666786 0.915059
Si Si4 0.716864 0.861622 0.794203
Si Si5 0.500000 0.749805 0.250000
Si Si6 0.188199 0.033198 0.202335
O O1 0.918414 0.118993 0.006623
O O2 0.934197 0.052293 0.406841
O O3 0.095069 0.647822 0.246577
O O4 0.041120 0.716979 0.538506
O O5 0.242426 0.661524 0.026526
O O6 0.403560 0.717608 0.039584
O O7 0.296112 0.666985 0.572169
O O8 0.733216 0.921646 0.804550
O O9 0.209486 0.012844 0.521949
#
# Coordination Sequence:
#
# PCOD8145888 Si02
#       6
#     4   4   8   8   4   8
#     4   9  20  36  60  93 126 155 184 240 306 367
#     4  12  26  42  62  86 118 160 216 250 284 340
#     4  10  22  40  62  90 128 155 187 239 309 361
#     4  11  24  42  60  86 124 162 195 252 300 338
#     4  11  24  40  66  97 116 155 200 240 296 375
#     4  11  22  37  60  90 120 156 200 241 296 364
#
# _framework density 21.644673000000001
#
# number of rings (size 3 to 8) (size 9 to 14) (size 15 to 20)
#    0.000    1.333    0.000    6.000    0.000   16.000 
#    0.000    1.111    0.000    0.000    0.000    0.000 
#    0.000    0.000    0.000    0.000    0.000    0.000 
#
# Total GULP energy -223247.270254 kJ/mol
# GULP energy per Si atom -12402.626125 kJ/mol
# Density = 2.159541 g / cm^3
# Si number density = 21.644673 Si / 1000 Ang^3
#
#
#
# Elastic Constant Matrix: (Units=GPa)
#
#
# Indices 1 2 3 4 5 6 
#
# 1 117.4735 69.5405 7.3048 0.0000 -1.0557 0.0000
# 2 69.5405 117.3542 30.5100 0.0000 -5.2759 0.0000
# 3 7.3048 30.5100 75.8160 0.0000 -12.0543 0.0000
# 4 0.0000 0.0000 0.0000 26.0294 0.0000 -14.0597
# 5 -1.0557 -5.2759 -12.0543 0.0000 32.7490 0.0000
# 6 0.0000 0.0000 0.0000 -14.0597 0.0000 26.1958
#
#
#
# Elastic Compliance Matrix: (Units=1/GPa)
#
#
# Indices 1 2 3 4 5 6 
#
# 1 0.013414 -0.008503 0.002103 0.000000 -0.000163 0.000000
# 2 -0.008503 0.014907 -0.005142 0.000000 0.000235 0.000000
# 3 0.002103 -0.005142 0.015864 0.000000 0.005079 0.000000
# 4 0.000000 0.000000 0.000000 0.054103 0.000000 0.029038
# 5 -0.000163 0.000235 0.005079 0.000000 0.032437 0.000000
# 6 0.000000 0.000000 0.000000 0.029038 0.000000 0.053759
#
#
# Mechanical properties :
#
#
# Convention : Reuss Voigt Hill
#
# Bulk Modulus (GPa) = 47.39051 58.37268 52.88160
# Shear Modulus (GPa) = 23.29902 30.54739 26.92321
#
# Velocity S-wave (km/s) = 3.28446 3.76082 3.53068
# Velocity P-wave (km/s) = 6.02710 6.77388 6.41137
#
# Compressibility (1/GPa) = 0.02110127
#
# Stress axis : x y z
#
# Youngs Moduli (GPa) = 74.55126 67.08211 63.03556
#
# Poissons Ratio (x) = 0.57038 -0.13258
# Poissons Ratio (y) = 0.63388 0.32416
# Poissons Ratio (z) = -0.15681 0.34496
#
# Static dielectric constant tensor:
#      x y z
#    x 3.853680 0.000000 -0.261960 
#    y 0.000000 3.989330 0.000000 
#    z -0.261960 0.000000 3.809040 
# 
# 
# High freq. dielectric constant tensor:
#      x y z
#    x 1.842540 0.000000 -0.021640 
#    y 0.000000 1.854760 0.000000 
#    z -0.021640 0.000000 1.849820 
# 
# From -- ./inp_files/5148.got.cif
#   From: 2010.06.25/outbox.cif.g09.slc.cpg/sg15_3_cif.got.tgz:5148.got - 2010.06.28 07:06:18.
