data_PCOD8145641
_publ_section_title
;
Structure prediction by ZEFSAII (Michael W. Deem and Ramdas Pophale) SiO2 
 PCOD8145641
Probable space group: C 2/C
;
_chemical_formula_sum "Si O2"
_cell_formula_units_Z 48
_cell_length_a 21.907611
_cell_length_b 11.415591
_cell_length_c 26.991230
_cell_angle_alpha 90.000000
_cell_angle_beta 160.314391
_cell_angle_gamma 90.000000
_cell_volume 2273.861280
_symmetry_space_group_name_H-M "C 2/C"
_symmetry_group_IT_number 15
_symmetry_cell_setting 'monoclinic'
loop_
_space_group_symop_operation_xyz
x,y,z
-x,y,1/2-z
-x,-y,-z
x,-y,1/2+z
1/2+x,1/2+y,z
1/2-x,1/2+y,1/2-z
1/2-x,1/2-y,-z
1/2+x,1/2-y,1/2+z
loop_
_atom_site_type_symbol
_atom_site_label
_atom_site_fract_x
_atom_site_fract_y
_atom_site_fract_z
Si Si1 0.890417 0.240464 0.777856
Si Si2 0.895600 0.017403 0.718553
Si Si3 0.693063 0.369524 0.982872
Si Si4 0.006361 0.839599 0.466291
Si Si5 0.929177 0.522374 0.096087
Si Si6 0.187000 0.919921 0.090823
O O1 0.936618 0.115908 0.790062
O O2 0.692748 0.272134 0.609700
O O3 0.886782 0.226685 0.834218
O O4 0.036201 0.338385 0.871875
O O5 0.685644 0.996495 0.542275
O O6 0.000000 0.061457 0.750000
O O7 0.984894 0.897417 0.808128
O O8 0.750000 0.250000 0.000000
O O9 0.821136 0.475446 0.061621
O O10 0.712799 0.359084 0.057140
O O11 0.900354 0.828674 0.437242
O O12 0.045931 0.972730 0.479598
O O13 0.121374 0.457460 0.239125
#
# Coordination Sequence:
#
# PCOD8145641 Si02
#       6
#     8   8   8   8   8   8
#     4  11  20  41  66  97 131 163 217 269 333 380
#     4  10  22  39  63  98 131 163 215 270 322 386
#     4  11  24  43  67  92 131 175 219 265 322 392
#     4  10  22  39  66  93 130 172 212 266 321 390
#     4  10  23  39  65  96 129 168 213 271 330 385
#     4  10  22  42  62  93 131 175 217 256 324 391
#
# _framework density 21.109466999999999
#
# number of rings (size 3 to 8) (size 9 to 14) (size 15 to 20)
#    0.000    1.667    3.333    0.500    0.000   10.667 
#    0.000    2.500    0.000    0.000    0.000    0.000 
#    0.000    0.000    0.000    0.000    0.000    0.000 
#
# Total GULP energy -297559.005637 kJ/mol
# GULP energy per Si atom -12398.291902 kJ/mol
# Density = 2.106142 g / cm^3
# Si number density = 21.109467 Si / 1000 Ang^3
#
#
#
# Elastic Constant Matrix: (Units=GPa)
#
#
# Indices 1 2 3 4 5 6 
#
# 1 138.4016 59.2676 23.8245 -0.0125 -13.3065 -0.0031
# 2 59.2676 94.2648 29.0155 -0.0536 -10.9164 -0.0038
# 3 23.8245 29.0155 82.5920 -0.0933 -14.4482 0.0230
# 4 -0.0125 -0.0536 -0.0933 13.2058 0.0004 -1.7494
# 5 -13.3065 -10.9164 -14.4482 0.0004 29.1741 0.0061
# 6 -0.0031 -0.0038 0.0230 -1.7494 0.0061 30.8453
#
#
#
# Elastic Compliance Matrix: (Units=1/GPa)
#
#
# Indices 1 2 3 4 5 6 
#
# 1 0.010048 -0.005934 -0.000438 -0.000018 0.002145 -0.000001
# 2 -0.005934 0.015583 -0.003521 0.000033 0.001380 0.000006
# 3 -0.000438 -0.003521 0.014458 0.000086 0.005643 -0.000007
# 4 -0.000018 0.000033 0.000086 0.076298 0.000045 0.004327
# 5 0.002145 0.001380 0.005643 0.000045 0.038567 -0.000009
# 6 -0.000001 0.000006 -0.000007 0.004327 -0.000009 0.032665
#
#
# Mechanical properties :
#
#
# Convention : Reuss Voigt Hill
#
# Bulk Modulus (GPa) = 49.25619 59.94153 54.59886
# Shear Modulus (GPa) = 23.34531 28.18843 25.76687
#
# Velocity S-wave (km/s) = 3.32914 3.65820 3.49754
# Velocity P-wave (km/s) = 6.17753 6.80445 6.49855
#
# Compressibility (1/GPa) = 0.02030202
#
# Stress axis : x y z
#
# Youngs Moduli (GPa) = 99.51878 64.17126 69.16360
#
# Poissons Ratio (x) = 0.38081 0.03032
# Poissons Ratio (y) = 0.59058 0.24354
# Poissons Ratio (z) = 0.04363 0.22596
#
# Static dielectric constant tensor:
#      x y z
#    x 3.719560 -0.000010 -0.115300 
#    y -0.000010 3.709920 -0.000080 
#    z -0.115300 -0.000080 4.097520 
# 
# 
# High freq. dielectric constant tensor:
#      x y z
#    x 1.818190 0.000000 -0.012030 
#    y 0.000000 1.814230 -0.000010 
#    z -0.012030 -0.000010 1.840280 
# 
# From -- ./inp_files/300927.got.cif
#   From: 2010.06.25/outbox.cif.g09.slc.cpg/sg15_151_cif.got.tgz:300927.got - 2010.06.28 07:06:18.
