data_PCOD8145594
_publ_section_title
;
Structure prediction by ZEFSAII (Michael W. Deem and Ramdas Pophale) SiO2 
 PCOD8145594
Probable space group: C 2/C
;
_chemical_formula_sum "Si O2"
_cell_formula_units_Z 40
_cell_length_a 15.907119
_cell_length_b 26.399379
_cell_length_c 9.910739
_cell_angle_alpha 90.000000
_cell_angle_beta 153.707960
_cell_angle_gamma 90.000000
_cell_volume 1843.498086
_symmetry_space_group_name_H-M "C 2/C"
_symmetry_group_IT_number 15
_symmetry_cell_setting 'monoclinic'
loop_
_space_group_symop_operation_xyz
x,y,z
-x,y,1/2-z
-x,-y,-z
x,-y,1/2+z
1/2+x,1/2+y,z
1/2-x,1/2+y,1/2-z
1/2-x,1/2-y,-z
1/2+x,1/2-y,1/2+z
loop_
_atom_site_type_symbol
_atom_site_label
_atom_site_fract_x
_atom_site_fract_y
_atom_site_fract_z
Si Si1 0.257037 0.575016 0.523854
Si Si2 0.507613 0.215334 0.542003
Si Si3 0.000000 0.341983 0.750000
Si Si4 0.000000 0.491953 0.250000
Si Si5 0.204854 0.813190 0.822726
Si Si6 0.670040 0.579379 0.169733
O O1 0.281293 0.598155 0.410240
O O2 0.183339 0.620943 0.511421
O O3 0.108502 0.528377 0.300299
O O4 0.459995 0.554204 0.871659
O O5 0.505121 0.192784 0.388998
O O6 0.323088 0.201653 0.360454
O O7 0.520166 0.276852 0.552664
O O8 0.690076 0.194279 0.883996
O O9 0.162930 0.458429 0.550500
O O10 0.156411 0.872327 0.747835
#
# Coordination Sequence:
#
# PCOD8145594 Si02
#       6
#     8   8   4   4   8   8
#     4  10  24  40  63 100 130 162 224 275 315 400
#     4  10  22  39  62  92 133 174 219 264 318 380
#     4  11  22  40  64  94 134 172 218 269 326 376
#     4  11  22  42  70  90 128 170 218 273 338 376
#     4  10  22  41  63  92 130 177 218 264 315 393
#     4  11  22  42  67  92 132 174 216 265 337 385
#
# _framework density 21.697879
#
# number of rings (size 3 to 8) (size 9 to 14) (size 15 to 20)
#    0.000    1.600    2.000    2.400    2.800    2.400 
#    0.000    0.000    0.000    0.000    0.000    0.000 
#    0.000    0.000    0.000    0.000    0.000    0.000 
#
# Total GULP energy -247883.407987 kJ/mol
# GULP energy per Si atom -12394.170399 kJ/mol
# Density = 2.164849 g / cm^3
# Si number density = 21.697879 Si / 1000 Ang^3
#
#
#
# Elastic Constant Matrix: (Units=GPa)
#
#
# Indices 1 2 3 4 5 6 
#
# 1 83.7703 21.6242 36.9089 0.0000 -13.7187 0.0000
# 2 21.6242 120.5463 46.9822 0.0000 -1.5137 0.0000
# 3 36.9089 46.9822 99.4615 0.0000 2.5638 0.0000
# 4 0.0000 0.0000 0.0000 32.6517 0.0000 0.2738
# 5 -13.7187 -1.5137 2.5638 0.0000 34.2267 0.0000
# 6 0.0000 0.0000 0.0000 0.2738 0.0000 32.0626
#
#
#
# Elastic Compliance Matrix: (Units=1/GPa)
#
#
# Indices 1 2 3 4 5 6 
#
# 1 0.015703 -0.000483 -0.005772 0.000000 0.006705 0.000000
# 2 -0.000483 0.010205 -0.004657 0.000000 0.000606 0.000000
# 3 -0.005772 -0.004657 0.014489 0.000000 -0.003605 0.000000
# 4 0.000000 0.000000 0.000000 0.030628 0.000000 -0.000262
# 5 0.006705 0.000606 -0.003605 0.000000 0.032201 0.000000
# 6 0.000000 0.000000 0.000000 -0.000262 0.000000 0.031191
#
#
# Mechanical properties :
#
#
# Convention : Reuss Voigt Hill
#
# Bulk Modulus (GPa) = 53.84131 57.20096 55.52114
# Shear Modulus (GPa) = 30.78206 33.00573 31.89389
#
# Velocity S-wave (km/s) = 3.77061 3.90442 3.83810
# Velocity P-wave (km/s) = 6.62001 6.83708 6.72942
#
# Compressibility (1/GPa) = 0.01857310
#
# Stress axis : x y z
#
# Youngs Moduli (GPa) = 63.68097 97.99327 69.01975
#
# Poissons Ratio (x) = 0.04735 0.39837
# Poissons Ratio (y) = 0.03077 0.32141
# Poissons Ratio (z) = 0.36756 0.45633
#
# Static dielectric constant tensor:
#      x y z
#    x 3.972790 0.000000 0.194620 
#    y 0.000000 3.882850 0.000000 
#    z 0.194620 0.000000 3.880010 
# 
# 
# High freq. dielectric constant tensor:
#      x y z
#    x 1.853970 0.000000 0.009610 
#    y 0.000000 1.854060 0.000000 
#    z 0.009610 0.000000 1.845960 
# 
# From -- ./inp_files/25855.got.cif
#   From: 2010.06.25/outbox.cif.g09.slc.cpg/sg15_13_cif.got.tgz:25855.got - 2010.06.28 07:06:18.
