data_PCOD8145548
_publ_section_title
;
Structure prediction by ZEFSAII (Michael W. Deem and Ramdas Pophale) SiO2 
 PCOD8145548
Probable space group: C 2/C
;
_chemical_formula_sum "Si O2"
_cell_formula_units_Z 40
_cell_length_a 23.679414
_cell_length_b 9.894436
_cell_length_c 8.201053
_cell_angle_alpha 90.000000
_cell_angle_beta 93.787158
_cell_angle_gamma 90.000000
_cell_volume 1917.265273
_symmetry_space_group_name_H-M "C 2/C"
_symmetry_group_IT_number 15
_symmetry_cell_setting 'monoclinic'
loop_
_space_group_symop_operation_xyz
x,y,z
-x,y,1/2-z
-x,-y,-z
x,-y,1/2+z
1/2+x,1/2+y,z
1/2-x,1/2+y,1/2-z
1/2-x,1/2-y,-z
1/2+x,1/2-y,1/2+z
loop_
_atom_site_type_symbol
_atom_site_label
_atom_site_fract_x
_atom_site_fract_y
_atom_site_fract_z
Si Si1 0.720848 0.666775 0.133623
Si Si2 0.860059 0.661067 0.657737
Si Si3 0.838177 0.379264 0.777957
Si Si4 0.621411 0.382847 0.408863
Si Si5 0.436468 0.381505 0.782723
O O1 0.689883 0.764788 0.254786
O O2 0.771510 0.587428 0.233029
O O3 0.750000 0.750000 0.000000
O O4 0.674908 0.570978 0.033149
O O5 0.872039 0.513692 0.735400
O O6 0.844035 0.652373 0.467421
O O7 0.918309 0.744937 0.686328
O O8 0.863698 0.256071 0.679129
O O9 0.568833 0.360847 0.523251
O O10 0.606034 0.498096 0.278035
O O11 0.500000 0.419993 0.750000
#
# Coordination Sequence:
#
# PCOD8145548 Si02
#       5
#     8   8   8   8   8
#     4   9  20  36  58  88 122 156 191 236 296 361
#     4  11  23  39  61  89 122 160 203 248 298 361
#     4  11  22  40  61  91 126 160 196 246 302 366
#     4  10  22  39  61  90 121 157 204 248 299 367
#     4  11  23  42  63  88 119 159 207 260 303 345
#
# _framework density 20.863050000000001
#
# number of rings (size 3 to 8) (size 9 to 14) (size 15 to 20)
#    0.000    1.600    0.000    6.000    0.000   11.200 
#    0.000    5.000    0.000    0.000    0.000    0.000 
#    0.000    0.000    0.000    0.000    0.000    0.000 
#
# Total GULP energy -247924.992642 kJ/mol
# GULP energy per Si atom -12396.249632 kJ/mol
# Density = 2.081556 g / cm^3
# Si number density = 20.863050 Si / 1000 Ang^3
#
#
#
# Elastic Constant Matrix: (Units=GPa)
#
#
# Indices 1 2 3 4 5 6 
#
# 1 87.2598 46.3312 42.0486 0.0000 -8.6931 0.0000
# 2 46.3312 127.6277 28.3764 0.0000 9.7958 0.0000
# 3 42.0486 28.3764 118.6335 0.0000 -8.8224 0.0000
# 4 0.0000 0.0000 0.0000 32.7008 0.0000 2.6739
# 5 -8.6931 9.7958 -8.8224 0.0000 28.9230 0.0000
# 6 0.0000 0.0000 0.0000 2.6739 0.0000 20.5948
#
#
#
# Elastic Compliance Matrix: (Units=1/GPa)
#
#
# Indices 1 2 3 4 5 6 
#
# 1 0.017128 -0.005711 -0.004275 0.000000 0.005778 0.000000
# 2 -0.005711 0.010538 -0.000910 0.000000 -0.005563 0.000000
# 3 -0.004275 -0.000910 0.010324 0.000000 0.002172 0.000000
# 4 0.000000 0.000000 0.000000 0.030908 0.000000 -0.004013
# 5 0.005778 -0.005563 0.002172 0.000000 0.038858 0.000000
# 6 0.000000 0.000000 0.000000 -0.004013 0.000000 0.049077
#
#
# Mechanical properties :
#
#
# Convention : Reuss Voigt Hill
#
# Bulk Modulus (GPa) = 61.73812 63.00370 62.37091
# Shear Modulus (GPa) = 27.17038 30.89472 29.03255
#
# Velocity S-wave (km/s) = 3.61268 3.85234 3.73443
# Velocity P-wave (km/s) = 6.85991 7.07471 6.96814
#
# Compressibility (1/GPa) = 0.01619745
#
# Stress axis : x y z
#
# Youngs Moduli (GPa) = 58.38429 94.89726 96.86281
#
# Poissons Ratio (x) = 0.54193 0.41411
# Poissons Ratio (y) = 0.33341 0.08816
# Poissons Ratio (z) = 0.24960 0.08637
#
# Static dielectric constant tensor:
#      x y z
#    x 4.950240 0.000000 0.468800 
#    y 0.000000 3.676110 0.000000 
#    z 0.468800 0.000000 4.290430 
# 
# 
# High freq. dielectric constant tensor:
#      x y z
#    x 1.801110 0.000000 -0.009460 
#    y 0.000000 1.808240 0.000000 
#    z -0.009460 0.000000 1.842990 
# 
# From -- ./inp_files/59882.got.cif
#   From: 2010.06.25/outbox.cif.g09.slc.cpg/sg15_30_cif.got.tgz:59882.got - 2010.06.28 07:06:18.
