data_PCOD8145743
_publ_section_title
;
Structure prediction by ZEFSAII (Michael W. Deem and Ramdas Pophale) SiO2 
 PCOD8145743
Probable space group: C 2/C
;
_chemical_formula_sum "Si O2"
_cell_formula_units_Z 56
_cell_length_a 16.811989
_cell_length_b 13.413319
_cell_length_c 14.967437
_cell_angle_alpha 90.000000
_cell_angle_beta 131.235007
_cell_angle_gamma 90.000000
_cell_volume 2538.211125
_symmetry_space_group_name_H-M "C 2/C"
_symmetry_group_IT_number 15
_symmetry_cell_setting 'monoclinic'
loop_
_space_group_symop_operation_xyz
x,y,z
-x,y,1/2-z
-x,-y,-z
x,-y,1/2+z
1/2+x,1/2+y,z
1/2-x,1/2+y,1/2-z
1/2-x,1/2-y,-z
1/2+x,1/2-y,1/2+z
loop_
_atom_site_type_symbol
_atom_site_label
_atom_site_fract_x
_atom_site_fract_y
_atom_site_fract_z
Si Si1 0.600396 0.506832 0.881015
Si Si2 0.480425 0.846418 0.636622
Si Si3 0.977373 0.844737 0.022288
Si Si4 0.194785 0.107138 0.594353
Si Si5 0.776375 0.389495 0.402395
Si Si6 0.784168 0.774162 0.771433
Si Si7 0.162104 0.533954 0.201478
O O1 0.500000 0.470263 0.750000
O O2 0.575305 0.581084 0.944673
O O3 0.670913 0.560567 0.859025
O O4 0.661162 0.408519 0.965365
O O5 0.500000 0.807744 0.750000
O O6 0.509533 0.758872 0.590653
O O7 0.355517 0.869951 0.542434
O O8 0.548029 0.945109 0.661582
O O9 0.085855 0.893427 0.069536
O O10 0.901193 0.818299 0.880590
O O11 0.271061 0.202079 0.673609
O O12 0.258308 0.006770 0.664680
O O13 0.744381 0.287176 0.329030
O O14 0.845056 0.454816 0.383496
O O15 0.705794 0.863702 0.693727
#
# Coordination Sequence:
#
# PCOD8145743 Si02
#       7
#     8   8   8   8   8   8   8
#     4  12  24  38  65  99 139 167 215 267 327 386
#     4  11  23  38  66  96 129 163 210 273 332 383
#     4  11  23  39  68  98 129 167 218 273 328 378
#     4  11  23  42  65  98 129 175 212 266 331 382
#     4  10  25  40  61  96 128 173 213 265 321 383
#     4  10  22  39  67  92 124 166 220 264 321 377
#     4  11  21  41  65  89 130 168 213 263 323 392
#
# _framework density 22.062781999999999
#
# number of rings (size 3 to 8) (size 9 to 14) (size 15 to 20)
#    0.000    1.143    2.857    3.857    4.000    1.143 
#    0.000    0.714    0.000    0.000    0.000    0.000 
#    0.000    0.000    0.000    0.000    0.000    0.000 
#
# Total GULP energy -347056.117807 kJ/mol
# GULP energy per Si atom -12394.861350 kJ/mol
# Density = 2.201257 g / cm^3
# Si number density = 22.062782 Si / 1000 Ang^3
#
#
#
# Elastic Constant Matrix: (Units=GPa)
#
#
# Indices 1 2 3 4 5 6 
#
# 1 32.6212 -10.4263 -8.2746 0.0000 7.8533 0.0000
# 2 -10.4263 63.6177 28.2205 0.0000 1.4086 0.0000
# 3 -8.2746 28.2205 138.3442 0.0000 10.7797 0.0000
# 4 0.0000 0.0000 0.0000 27.8825 0.0000 6.6871
# 5 7.8533 1.4086 10.7797 0.0000 23.3857 0.0000
# 6 0.0000 0.0000 0.0000 6.6871 0.0000 20.5068
#
#
#
# Elastic Compliance Matrix: (Units=1/GPa)
#
#
# Indices 1 2 3 4 5 6 
#
# 1 0.036112 0.005270 0.002131 0.000000 -0.013427 0.000000
# 2 0.005270 0.018060 -0.003263 0.000000 -0.001353 0.000000
# 3 0.002131 -0.003263 0.008362 0.000000 -0.004374 0.000000
# 4 0.000000 0.000000 0.000000 0.038908 0.000000 -0.012688
# 5 -0.013427 -0.001353 -0.004374 0.000000 0.049368 0.000000
# 6 0.000000 0.000000 0.000000 -0.012688 0.000000 0.052902
#
#
# Mechanical properties :
#
#
# Convention : Reuss Voigt Hill
#
# Bulk Modulus (GPa) = 14.12205 28.18025 21.15115
# Shear Modulus (GPa) = 22.82693 29.35923 26.09308
#
# Velocity S-wave (km/s) = 3.22006 3.65185 3.44273
# Velocity P-wave (km/s) = 4.49887 5.53009 5.04092
#
# Compressibility (1/GPa) = 0.07081124
#
# Stress axis : x y z
#
# Youngs Moduli (GPa) = 27.69127 55.37018 119.58428
#
# Poissons Ratio (x) = -0.29182 -0.25484
# Poissons Ratio (y) = -0.14594 0.39025
# Poissons Ratio (z) = -0.05901 0.18069
#
# Static dielectric constant tensor:
#      x y z
#    x 3.635760 0.000000 0.197220 
#    y 0.000000 4.100950 0.000000 
#    z 0.197220 0.000000 4.332660 
# 
# 
# High freq. dielectric constant tensor:
#      x y z
#    x 1.835260 0.000000 0.021380 
#    y 0.000000 1.865810 0.000000 
#    z 0.021380 0.000000 1.889070 
# 
# From -- ./inp_files/162314.got.cif
#   From: 2010.06.25/outbox.cif.g09.slc.cpg/sg15_82_cif.got.tgz:162314.got - 2010.06.28 07:06:18.
