data_PCOD8145985
_publ_section_title
;
Structure prediction by ZEFSAII (Michael W. Deem and Ramdas Pophale) SiO2 
 PCOD8145985
Probable space group: C 2/C
;
_chemical_formula_sum "Si O2"
_cell_formula_units_Z 64
_cell_length_a 26.340306
_cell_length_b 8.674660
_cell_length_c 17.691356
_cell_angle_alpha 90.000000
_cell_angle_beta 136.848791
_cell_angle_gamma 90.000000
_cell_volume 2764.671743
_symmetry_space_group_name_H-M "C 2/C"
_symmetry_group_IT_number 15
_symmetry_cell_setting 'monoclinic'
loop_
_space_group_symop_operation_xyz
x,y,z
-x,y,1/2-z
-x,-y,-z
x,-y,1/2+z
1/2+x,1/2+y,z
1/2-x,1/2+y,1/2-z
1/2-x,1/2-y,-z
1/2+x,1/2-y,1/2+z
loop_
_atom_site_type_symbol
_atom_site_label
_atom_site_fract_x
_atom_site_fract_y
_atom_site_fract_z
Si Si1 0.551356 0.931557 0.639208
Si Si2 0.800230 0.350706 0.462104
Si Si3 0.180394 0.214952 0.611542
Si Si4 0.362533 0.300078 0.165714
Si Si5 0.480353 0.769386 0.033486
Si Si6 0.174376 0.316778 0.445252
Si Si7 0.310369 0.029234 0.814092
Si Si8 0.441203 0.375926 0.753378
O O1 0.583734 0.836755 0.745102
O O2 0.500188 0.816727 0.531692
O O3 0.618331 0.007683 0.661733
O O4 0.494965 0.072445 0.600165
O O5 0.713358 0.303476 0.368104
O O6 0.846690 0.223545 0.559125
O O7 0.817055 0.503599 0.529374
O O8 0.826971 0.357532 0.403972
O O9 0.102715 0.204576 0.570582
O O10 0.153339 0.219590 0.496201
O O11 0.219535 0.373304 0.679578
O O12 0.239547 0.080797 0.688192
O O13 0.398248 0.465719 0.210367
O O14 0.525766 0.637434 0.125702
O O15 0.250000 0.250000 0.500000
O O16 0.111549 0.274385 0.315472
O O17 0.500000 0.380237 0.750000
#
# Coordination Sequence:
#
# PCOD8145985 Si02
#       8
#     8   8   8   8   8   8   8   8
#     4  10  23  44  68  98 129 180 222 273 333 407
#     4  10  22  41  67  99 131 170 215 288 325 397
#     4  10  22  40  64  93 129 168 216 274 325 394
#     4  11  24  43  67  98 137 169 225 278 339 384
#     4  10  22  44  65  89 134 176 217 263 328 407
#     4  11  22  40  68  95 126 174 225 265 334 394
#     4  10  22  40  66  98 130 167 225 273 335 389
#     4  12  25  44  63  99 138 177 222 276 334 401
#
# _framework density 23.149224
#
# number of rings (size 3 to 8) (size 9 to 14) (size 15 to 20)
#    0.000    1.500    2.500    2.250    3.500    1.500 
#    9.000    0.000    0.000    0.000    0.000    0.000 
#    0.000    0.000    0.000    0.000    0.000    0.000 
#
# Total GULP energy -396425.656142 kJ/mol
# GULP energy per Si atom -12388.301754 kJ/mol
# Density = 2.309654 g / cm^3
# Si number density = 23.149224 Si / 1000 Ang^3
#
#
#
# Elastic Constant Matrix: (Units=GPa)
#
#
# Indices 1 2 3 4 5 6 
#
# 1 30.8343 -4.0315 4.8224 0.0000 -0.0988 0.0000
# 2 -4.0315 59.6015 34.4169 0.0000 10.9221 0.0000
# 3 4.8224 34.4169 131.2068 0.0000 12.3301 0.0000
# 4 0.0000 0.0000 0.0000 52.8318 0.0000 1.1882
# 5 -0.0988 10.9221 12.3301 0.0000 21.7894 0.0000
# 6 0.0000 0.0000 0.0000 1.1882 0.0000 26.0557
#
#
#
# Elastic Compliance Matrix: (Units=1/GPa)
#
#
# Indices 1 2 3 4 5 6 
#
# 1 0.033224 0.003545 -0.002110 0.000000 -0.000432 0.000000
# 2 0.003545 0.021339 -0.004989 0.000000 -0.007857 0.000000
# 3 -0.002110 -0.004989 0.009267 0.000000 -0.002752 0.000000
# 4 0.000000 0.000000 0.000000 0.018947 0.000000 -0.000864
# 5 -0.000432 -0.007857 -0.002752 0.000000 0.051388 0.000000
# 6 0.000000 0.000000 0.000000 -0.000864 0.000000 0.038419
#
#
# Mechanical properties :
#
#
# Convention : Reuss Voigt Hill
#
# Bulk Modulus (GPa) = 17.63062 32.45092 25.04077
# Shear Modulus (GPa) = 25.17645 32.56439 28.87042
#
# Velocity S-wave (km/s) = 3.30141 3.75469 3.53532
# Velocity P-wave (km/s) = 4.70798 5.73110 5.24455
#
# Compressibility (1/GPa) = 0.05671951
#
# Stress axis : x y z
#
# Youngs Moduli (GPa) = 30.09913 46.86317 107.91535
#
# Poissons Ratio (x) = -0.16613 0.22775
# Poissons Ratio (y) = -0.10670 0.53842
# Poissons Ratio (z) = 0.06352 0.23382
#
# Static dielectric constant tensor:
#      x y z
#    x 3.699890 0.000000 -0.061760 
#    y 0.000000 3.875150 0.000000 
#    z -0.061760 0.000000 4.357240 
# 
# 
# High freq. dielectric constant tensor:
#      x y z
#    x 1.887050 0.000000 0.000260 
#    y 0.000000 1.905150 0.000000 
#    z 0.000260 0.000000 1.939170 
# 
# From -- ./inp_files/224628.got.cif
#   From: 2010.06.25/outbox.cif.g09.slc.cpg/sg15_113_cif.got.tgz:224628.got - 2010.06.28 07:06:18.
