data_PCOD8145845
_publ_section_title
;
Structure prediction by ZEFSAII (Michael W. Deem and Ramdas Pophale) SiO2 
 PCOD8145845
Probable space group: C 2/C
;
_chemical_formula_sum "Si O2"
_cell_formula_units_Z 64
_cell_length_a 12.694676
_cell_length_b 23.262512
_cell_length_c 10.907314
_cell_angle_alpha 90.000000
_cell_angle_beta 94.795115
_cell_angle_gamma 90.000000
_cell_volume 3209.765803
_symmetry_space_group_name_H-M "C 2/C"
_symmetry_group_IT_number 15
_symmetry_cell_setting 'monoclinic'
loop_
_space_group_symop_operation_xyz
x,y,z
-x,y,1/2-z
-x,-y,-z
x,-y,1/2+z
1/2+x,1/2+y,z
1/2-x,1/2+y,1/2-z
1/2-x,1/2-y,-z
1/2+x,1/2-y,1/2+z
loop_
_atom_site_type_symbol
_atom_site_label
_atom_site_fract_x
_atom_site_fract_y
_atom_site_fract_z
Si Si1 0.114545 0.331803 0.296080
Si Si2 0.240923 0.639534 0.039463
Si Si3 0.934195 0.776926 0.573285
Si Si4 0.152580 0.176270 0.079299
Si Si5 0.784227 0.214803 0.662140
Si Si6 0.387592 0.549608 0.385999
Si Si7 0.086183 0.713237 0.163770
Si Si8 0.872159 0.032016 0.110112
O O1 0.167708 0.366662 0.411911
O O2 0.107016 0.263552 0.322302
O O3 0.191490 0.330655 0.185848
O O4 0.000000 0.358499 0.250000
O O5 0.339993 0.681159 0.024038
O O6 0.172460 0.663878 0.145844
O O7 0.279725 0.577055 0.078096
O O8 0.968260 0.732993 0.467954
O O9 0.038851 0.809547 0.627563
O O10 0.244753 0.220655 0.123691
O O11 0.174248 0.110716 0.123990
O O12 0.145853 0.181925 0.931875
O O13 0.862087 0.227527 0.782063
O O14 0.363920 0.514620 0.255438
O O15 0.513674 0.560014 0.405914
O O16 0.351596 0.518362 0.508607
O O17 0.000000 0.688043 0.250000
#
# Coordination Sequence:
#
# PCOD8145845 Si02
#       8
#     8   8   8   8   8   8   8   8
#     4  11  21  33  52  81 123 164 202 245 291 362
#     4  11  21  35  58  84 114 166 209 241 300 361
#     4  11  19  32  52  81 118 161 202 229 290 366
#     4  11  22  32  54  84 117 158 190 235 295 363
#     4  11  21  33  50  81 118 155 193 233 294 362
#     4  10  22  40  61  88 121 153 197 251 305 358
#     4  11  20  33  49  80 122 156 195 242 287 353
#     4  10  22  40  62  89 116 155 203 247 303 368
#
# _framework density 19.939149
#
# number of rings (size 3 to 8) (size 9 to 14) (size 15 to 20)
#    0.000    1.250    6.250    1.500    0.000    1.000 
#    0.000    1.250    0.000    0.000    0.000   14.875 
#    0.000    0.000    0.000    0.000    0.000    0.000 
#
# Total GULP energy -396555.071028 kJ/mol
# GULP energy per Si atom -12392.345970 kJ/mol
# Density = 1.989377 g / cm^3
# Si number density = 19.939149 Si / 1000 Ang^3
#
#
#
# Elastic Constant Matrix: (Units=GPa)
#
#
# Indices 1 2 3 4 5 6 
#
# 1 73.6030 17.2890 16.6755 0.0000 -4.4927 0.0000
# 2 17.2890 57.7919 28.4933 0.0000 -6.2611 0.0000
# 3 16.6755 28.4933 89.5925 0.0000 -8.0063 0.0000
# 4 0.0000 0.0000 0.0000 22.4897 0.0000 -2.3411
# 5 -4.4927 -6.2611 -8.0063 0.0000 36.5708 0.0000
# 6 0.0000 0.0000 0.0000 -2.3411 0.0000 22.3887
#
#
#
# Elastic Compliance Matrix: (Units=1/GPa)
#
#
# Indices 1 2 3 4 5 6 
#
# 1 0.014830 -0.003581 -0.001544 0.000000 0.000871 0.000000
# 2 -0.003581 0.021549 -0.006014 0.000000 0.001933 0.000000
# 3 -0.001544 -0.006014 0.013517 0.000000 0.001740 0.000000
# 4 0.000000 0.000000 0.000000 0.044954 0.000000 0.004701
# 5 0.000871 0.001933 0.001740 0.000000 0.028163 0.000000
# 6 0.000000 0.000000 0.000000 0.004701 0.000000 0.045157
#
#
# Mechanical properties :
#
#
# Convention : Reuss Voigt Hill
#
# Bulk Modulus (GPa) = 36.20685 38.43365 37.32025
# Shear Modulus (GPa) = 25.04316 26.85848 25.95082
#
# Velocity S-wave (km/s) = 3.54782 3.67416 3.61155
# Velocity P-wave (km/s) = 5.91446 6.10873 6.01238
#
# Compressibility (1/GPa) = 0.02761908
#
# Stress axis : x y z
#
# Youngs Moduli (GPa) = 67.42862 46.40505 73.98030
#
# Poissons Ratio (x) = 0.16619 0.11419
# Poissons Ratio (y) = 0.24148 0.44492
# Poissons Ratio (z) = 0.10408 0.27908
#
# Static dielectric constant tensor:
#      x y z
#    x 3.568790 0.000000 -0.048110 
#    y 0.000000 3.119280 0.000000 
#    z -0.048110 0.000000 3.933710 
# 
# 
# High freq. dielectric constant tensor:
#      x y z
#    x 1.770730 0.000000 -0.002740 
#    y 0.000000 1.718700 0.000000 
#    z -0.002740 0.000000 1.801580 
# 
# From -- ./inp_files/90833.got.cif
#   From: 2010.06.25/outbox.cif.g09.slc.cpg/sg15_46_cif.got.tgz:90833.got - 2010.06.28 07:06:18.
