data_PCOD8145134
_publ_section_title
;
Structure prediction by ZEFSAII (Michael W. Deem and Ramdas Pophale) SiO2 
 PCOD8145134
Probable space group: C 2/C
;
_chemical_formula_sum "Si O2"
_cell_formula_units_Z 56
_cell_length_a 17.312133
_cell_length_b 9.641542
_cell_length_c 16.943894
_cell_angle_alpha 90.000000
_cell_angle_beta 57.188741
_cell_angle_gamma 90.000000
_cell_volume 2376.990376
_symmetry_space_group_name_H-M "C 2/C"
_symmetry_group_IT_number 15
_symmetry_cell_setting 'monoclinic'
loop_
_space_group_symop_operation_xyz
x,y,z
-x,y,1/2-z
-x,-y,-z
x,-y,1/2+z
1/2+x,1/2+y,z
1/2-x,1/2+y,1/2-z
1/2-x,1/2-y,-z
1/2+x,1/2-y,1/2+z
loop_
_atom_site_type_symbol
_atom_site_label
_atom_site_fract_x
_atom_site_fract_y
_atom_site_fract_z
Si Si1 0.027056 0.705550 0.824481
Si Si2 0.932710 0.995501 0.716464
Si Si3 0.901779 0.528385 0.425757
Si Si4 0.665773 0.018631 0.211458
Si Si5 0.318293 0.348977 0.060712
Si Si6 0.568189 0.774314 0.872061
Si Si7 0.282753 0.421889 0.914406
O O1 0.116450 0.610188 0.780554
O O2 0.000000 0.738055 0.750000
O O3 0.943647 0.626080 0.913555
O O4 0.047786 0.858043 0.848192
O O5 0.947103 0.124609 0.653792
O O6 0.000000 0.018671 0.750000
O O7 0.831898 0.986811 0.811706
O O8 0.885429 0.560382 0.342207
O O9 0.805793 0.522180 0.525058
O O10 0.972089 0.640770 0.424181
O O11 0.772465 0.974157 0.139070
O O12 0.650976 0.147498 0.279484
O O13 0.400691 0.263445 0.056086
O O14 0.236345 0.239689 0.091729
O O15 0.345184 0.417331 0.960709
#
# Coordination Sequence:
#
# PCOD8145134 Si02
#       7
#     8   8   8   8   8   8   8
#     4   8  15  30  59  90 113 160 217 254 296 377
#     4  11  22  38  66  96 125 169 218 269 316 391
#     4   9  19  39  67  91 124 176 216 266 324 401
#     4   9  17  36  60  90 125 172 213 253 327 390
#     4  10  22  37  63  96 127 165 217 273 311 384
#     4  11  23  38  64  96 136 162 221 275 326 378
#     4  10  22  42  68  90 130 174 222 255 334 396
#
# _framework density 23.559203
#
# number of rings (size 3 to 8) (size 9 to 14) (size 15 to 20)
#    0.000    2.286    1.429    2.143    8.000    0.571 
#    0.000    7.143    3.143    0.000    0.000    0.000 
#    0.000    0.000    0.000    0.000    0.000    0.000 
#
# Total GULP energy -346935.887494 kJ/mol
# GULP energy per Si atom -12390.567410 kJ/mol
# Density = 2.350558 g / cm^3
# Si number density = 23.559203 Si / 1000 Ang^3
#
#
#
# Elastic Constant Matrix: (Units=GPa)
#
#
# Indices 1 2 3 4 5 6 
#
# 1 94.3082 45.4432 30.8613 0.0000 2.3799 0.0000
# 2 45.4432 134.7142 23.6975 0.0000 2.1516 0.0000
# 3 30.8613 23.6975 56.5320 0.0000 -9.0733 0.0000
# 4 0.0000 0.0000 0.0000 38.8118 0.0000 0.7825
# 5 2.3799 2.1516 -9.0733 0.0000 18.3264 0.0000
# 6 0.0000 0.0000 0.0000 0.7825 0.0000 47.5709
#
#
#
# Elastic Compliance Matrix: (Units=1/GPa)
#
#
# Indices 1 2 3 4 5 6 
#
# 1 0.014930 -0.003641 -0.007460 0.000000 -0.005205 0.000000
# 2 -0.003641 0.009039 -0.002060 0.000000 -0.001608 0.000000
# 3 -0.007460 -0.002060 0.024789 0.000000 0.013483 0.000000
# 4 0.000000 0.000000 0.000000 0.025774 0.000000 -0.000424
# 5 -0.005205 -0.001608 0.013483 0.000000 0.062106 0.000000
# 6 0.000000 0.000000 0.000000 -0.000424 0.000000 0.021028
#
#
# Mechanical properties :
#
#
# Convention : Reuss Voigt Hill
#
# Bulk Modulus (GPa) = 44.56757 53.95096 49.25927
# Shear Modulus (GPa) = 26.11416 33.31198 29.71307
#
# Velocity S-wave (km/s) = 3.33295 3.76436 3.55520
# Velocity P-wave (km/s) = 5.81117 6.46867 6.14872
#
# Compressibility (1/GPa) = 0.02243784
#
# Stress axis : x y z
#
# Youngs Moduli (GPa) = 66.97701 110.62711 40.34086
#
# Poissons Ratio (x) = 0.40281 0.30093
# Poissons Ratio (y) = 0.24387 0.08308
# Poissons Ratio (z) = 0.49963 0.22784
#
# Static dielectric constant tensor:
#      x y z
#    x -1.394890 0.000000 -6.817590 
#    y 0.000000 4.312760 0.000000 
#    z -6.817590 0.000000 -3.887590 
# 
# 
# High freq. dielectric constant tensor:
#      x y z
#    x 1.911160 0.000000 -0.006620 
#    y 0.000000 1.925000 0.000000 
#    z -0.006620 0.000000 1.926280 
# 
# From -- ./inp_files/251816.got.cif
#   From: 2010.06.25/outbox.cif.g09.slc.cpg/sg15_126_cif.got.tgz:251816.got - 2010.06.28 07:06:18.
