data_PCOD8145500
_publ_section_title
;
Structure prediction by ZEFSAII (Michael W. Deem and Ramdas Pophale) SiO2 
 PCOD8145500
Probable space group: C 2/C
;
_chemical_formula_sum "Si O2"
_cell_formula_units_Z 56
_cell_length_a 23.445696
_cell_length_b 8.322855
_cell_length_c 24.395969
_cell_angle_alpha 90.000000
_cell_angle_beta 146.143331
_cell_angle_gamma 90.000000
_cell_volume 2652.162479
_symmetry_space_group_name_H-M "C 2/C"
_symmetry_group_IT_number 15
_symmetry_cell_setting 'monoclinic'
loop_
_space_group_symop_operation_xyz
x,y,z
-x,y,1/2-z
-x,-y,-z
x,-y,1/2+z
1/2+x,1/2+y,z
1/2-x,1/2+y,1/2-z
1/2-x,1/2-y,-z
1/2+x,1/2-y,1/2+z
loop_
_atom_site_type_symbol
_atom_site_label
_atom_site_fract_x
_atom_site_fract_y
_atom_site_fract_z
Si Si1 0.792118 0.602877 0.067351
Si Si2 0.261517 0.544091 0.305316
Si Si3 0.456997 0.081291 0.411544
Si Si4 0.351107 0.394380 0.477434
Si Si5 0.865571 0.473198 0.020079
Si Si6 0.804117 0.184973 0.672674
Si Si7 0.935138 0.937723 0.368333
O O1 0.697537 0.493142 0.011312
O O2 0.865299 0.498797 0.085933
O O3 0.848436 0.681046 0.165350
O O4 0.750000 0.750000 0.000000
O O5 0.153893 0.506955 0.190058
O O6 0.280866 0.408273 0.367075
O O7 0.260801 0.721191 0.332353
O O8 0.350099 0.545055 0.330634
O O9 0.450471 0.273021 0.414655
O O10 0.500000 0.000000 0.500000
O O11 0.529980 0.048689 0.418278
O O12 0.361066 0.212693 0.503233
O O13 0.461262 0.464133 0.550342
O O14 0.767871 0.556875 0.914322
O O15 0.899659 0.097252 0.777526
#
# Coordination Sequence:
#
# PCOD8145500 Si02
#       7
#     8   8   8   8   8   8   8
#     4   9  19  41  65  86 119 160 206 255 303 360
#     4  10  22  39  59  88 124 162 205 255 305 368
#     4  11  23  39  62  91 122 163 207 253 310 371
#     4  11  23  38  61  93 124 161 204 254 311 367
#     4  11  22  39  63  90 123 162 205 256 308 366
#     4   9  21  40  63  88 121 163 207 252 304 363
#     4  11  22  40  63  90 125 163 202 251 309 367
#
# _framework density 21.114846
#
# number of rings (size 3 to 8) (size 9 to 14) (size 15 to 20)
#    0.000    1.714    0.000    5.143    0.000    6.857 
#    0.000   16.429    0.000   12.000    0.000    0.000 
#    0.000    0.000    0.000    0.000    0.000    0.000 
#
# Total GULP energy -347198.138932 kJ/mol
# GULP energy per Si atom -12399.933533 kJ/mol
# Density = 2.106679 g / cm^3
# Si number density = 21.114846 Si / 1000 Ang^3
#
#
#
# Elastic Constant Matrix: (Units=GPa)
#
#
# Indices 1 2 3 4 5 6 
#
# 1 140.6811 37.8531 66.2614 0.0000 1.8619 0.0000
# 2 37.8531 108.8938 54.9960 0.0000 -0.6685 -0.0001
# 3 66.2614 54.9960 126.2315 0.0000 -2.4960 0.0000
# 4 0.0000 0.0000 0.0000 25.7864 0.0000 -3.0724
# 5 1.8619 -0.6685 -2.4960 0.0000 27.6767 0.0000
# 6 0.0000 -0.0001 0.0000 -3.0724 0.0000 34.6579
#
#
#
# Elastic Compliance Matrix: (Units=1/GPa)
#
#
# Indices 1 2 3 4 5 6 
#
# 1 0.009561 -0.001006 -0.004602 0.000000 -0.001082 0.000000
# 2 -0.001006 0.011881 -0.004649 0.000000 -0.000065 0.000000
# 3 -0.004602 -0.004649 0.012389 0.000000 0.001315 0.000000
# 4 0.000000 0.000000 0.000000 0.039194 0.000000 0.003474
# 5 -0.001082 -0.000065 0.001315 0.000000 0.036321 0.000000
# 6 0.000000 0.000000 0.000000 0.003474 0.000000 0.029161
#
#
# Mechanical properties :
#
#
# Convention : Reuss Voigt Hill
#
# Bulk Modulus (GPa) = 75.09567 77.11416 76.10491
# Shear Modulus (GPa) = 30.58849 32.07060 31.32954
#
# Velocity S-wave (km/s) = 3.81027 3.90149 3.85615
# Velocity P-wave (km/s) = 7.41621 7.54295 7.47985
#
# Compressibility (1/GPa) = 0.01331635
#
# Stress axis : x y z
#
# Youngs Moduli (GPa) = 104.59459 84.17032 80.71634
#
# Poissons Ratio (x) = 0.08468 0.37143
# Poissons Ratio (y) = 0.10523 0.37527
# Poissons Ratio (z) = 0.48131 0.39133
#
# Static dielectric constant tensor:
#      x y z
#    x -0.736460 0.000000 -0.979930 
#    y 0.000000 3.885200 0.000000 
#    z -0.979930 0.000000 3.971850 
# 
# 
# High freq. dielectric constant tensor:
#      x y z
#    x 1.831870 0.000000 -0.012790 
#    y 0.000000 1.830700 0.000000 
#    z -0.012790 0.000000 1.825250 
# 
# From -- ./inp_files/281383.got.cif
#   From: 2010.06.25/outbox.cif.g09.slc.cpg/sg15_141_cif.got.tgz:281383.got - 2010.06.28 07:06:18.
