data_PCOD8145858
_publ_section_title
;
Structure prediction by ZEFSAII (Michael W. Deem and Ramdas Pophale) SiO2 
 PCOD8145858
Probable space group: C 2/C
;
_chemical_formula_sum "Si O2"
_cell_formula_units_Z 64
_cell_length_a 32.789770
_cell_length_b 16.772543
_cell_length_c 9.132297
_cell_angle_alpha 90.000000
_cell_angle_beta 140.022052
_cell_angle_gamma 90.000000
_cell_volume 3226.900150
_symmetry_space_group_name_H-M "C 2/C"
_symmetry_group_IT_number 15
_symmetry_cell_setting 'monoclinic'
loop_
_space_group_symop_operation_xyz
x,y,z
-x,y,1/2-z
-x,-y,-z
x,-y,1/2+z
1/2+x,1/2+y,z
1/2-x,1/2+y,1/2-z
1/2-x,1/2-y,-z
1/2+x,1/2-y,1/2+z
loop_
_atom_site_type_symbol
_atom_site_label
_atom_site_fract_x
_atom_site_fract_y
_atom_site_fract_z
Si Si1 0.550454 0.939229 0.568857
Si Si2 0.369260 0.992817 0.973460
Si Si3 0.488084 0.381977 0.559453
Si Si4 0.662619 0.592917 0.195493
Si Si5 0.019749 0.277680 0.593767
Si Si6 0.398411 0.513269 0.222078
Si Si7 0.895310 0.735985 0.906955
Si Si8 0.191425 0.402316 0.435480
O O1 0.570616 0.961072 0.457655
O O2 0.525142 0.848872 0.491216
O O3 0.500000 0.000000 0.500000
O O4 0.609213 0.943191 0.844955
O O5 0.321169 0.031212 0.724001
O O6 0.336489 0.922742 0.979796
O O7 0.500000 0.345762 0.750000
O O8 0.455181 0.309124 0.383537
O O9 0.437759 0.453062 0.432125
O O10 0.555029 0.412977 0.681760
O O11 0.660268 0.549812 0.347544
O O12 0.628116 0.677574 0.109132
O O13 0.733795 0.606995 0.338989
O O14 0.626209 0.533633 0.986275
O O15 0.944822 0.262350 0.410204
O O16 0.062843 0.304035 0.849367
O O17 0.836498 0.681078 0.698664
#
# Coordination Sequence:
#
# PCOD8145858 Si02
#       8
#     8   8   8   8   8   8   8   8
#     4  11  22  37  63  93 125 160 199 260 317 388
#     4  10  22  40  61  91 122 163 212 250 314 370
#     4  11  22  37  62  89 129 160 200 262 322 380
#     4  12  23  42  65  89 125 170 219 263 312 373
#     4  11  22  38  62  92 130 156 199 263 327 375
#     4  11  23  39  62  95 120 162 217 258 315 376
#     4  11  23  38  62  94 120 167 209 257 323 380
#     4  11  23  42  64  90 126 169 218 265 302 379
#
# _framework density 19.833275
#
# number of rings (size 3 to 8) (size 9 to 14) (size 15 to 20)
#    0.000    1.000    5.000    3.000    1.750    2.000 
#    0.000    0.000    0.000    0.750    0.000    0.000 
#    0.000    0.000    0.000    0.000    0.000    0.000 
#
# Total GULP energy -396584.892783 kJ/mol
# GULP energy per Si atom -12393.277899 kJ/mol
# Density = 1.978813 g / cm^3
# Si number density = 19.833275 Si / 1000 Ang^3
#
#
#
# Elastic Constant Matrix: (Units=GPa)
#
#
# Indices 1 2 3 4 5 6 
#
# 1 114.7105 51.7002 27.6722 0.0000 3.7875 0.0000
# 2 51.7002 122.8554 28.7921 0.0000 1.0447 0.0000
# 3 27.6722 28.7921 62.0013 0.0000 2.9478 0.0000
# 4 0.0000 0.0000 0.0000 3.5198 0.0000 5.2096
# 5 3.7875 1.0447 2.9478 0.0000 35.1625 0.0000
# 6 0.0000 0.0000 0.0000 5.2096 0.0000 28.4751
#
#
#
# Elastic Compliance Matrix: (Units=1/GPa)
#
#
# Indices 1 2 3 4 5 6 
#
# 1 0.011314 -0.004017 -0.003145 0.000000 -0.000836 0.000000
# 2 -0.004017 0.010560 -0.003129 0.000000 0.000381 0.000000
# 3 -0.003145 -0.003129 0.019041 0.000000 -0.001165 0.000000
# 4 0.000000 0.000000 0.000000 0.389601 0.000000 -0.071279
# 5 -0.000836 0.000381 -0.001165 0.000000 0.028616 0.000000
# 6 0.000000 0.000000 0.000000 -0.071279 0.000000 0.048159
#
#
# Mechanical properties :
#
#
# Convention : Reuss Voigt Hill
#
# Bulk Modulus (GPa) = 49.18012 57.32181 53.25097
# Shear Modulus (GPa) = 9.35190 26.19168 17.77179
#
# Velocity S-wave (km/s) = 2.17382 3.63794 2.99667
# Velocity P-wave (km/s) = 5.58133 6.82720 6.23546
#
# Compressibility (1/GPa) = 0.02033342
#
# Stress axis : x y z
#
# Youngs Moduli (GPa) = 88.38332 94.69433 52.51937
#
# Poissons Ratio (x) = 0.38041 0.16515
# Poissons Ratio (y) = 0.35506 0.16434
# Poissons Ratio (z) = 0.27792 0.29631
#
# Static dielectric constant tensor:
#      x y z
#    x 3.642200 0.000000 -0.106380 
#    y 0.000000 3.537550 0.000000 
#    z -0.106380 0.000000 3.498710 
# 
# 
# High freq. dielectric constant tensor:
#      x y z
#    x 1.771690 0.000000 -0.008300 
#    y 0.000000 1.777090 0.000000 
#    z -0.008300 0.000000 1.766240 
# 
# From -- ./inp_files/70640.got.cif
#   From: 2010.06.25/outbox.cif.g09.slc.cpg/sg15_36_cif.got.tgz:70640.got - 2010.06.28 07:06:18.
