data_PCOD8145926
_publ_section_title
;
Structure prediction by ZEFSAII (Michael W. Deem and Ramdas Pophale) SiO2 
 PCOD8145926
Probable space group: C 2/C
;
_chemical_formula_sum "Si O2"
_cell_formula_units_Z 40
_cell_length_a 7.285930
_cell_length_b 14.876734
_cell_length_c 27.278068
_cell_angle_alpha 90.000000
_cell_angle_beta 142.141593
_cell_angle_gamma 90.000000
_cell_volume 1814.558470
_symmetry_space_group_name_H-M "C 2/C"
_symmetry_group_IT_number 15
_symmetry_cell_setting 'monoclinic'
loop_
_space_group_symop_operation_xyz
x,y,z
-x,y,1/2-z
-x,-y,-z
x,-y,1/2+z
1/2+x,1/2+y,z
1/2-x,1/2+y,1/2-z
1/2-x,1/2-y,-z
1/2+x,1/2-y,1/2+z
loop_
_atom_site_type_symbol
_atom_site_label
_atom_site_fract_x
_atom_site_fract_y
_atom_site_fract_z
Si Si1 0.583377 0.175170 0.712090
Si Si2 0.004121 0.079550 0.567849
Si Si3 0.593228 0.051688 0.398215
Si Si4 0.908464 0.961205 0.157693
Si Si5 0.226122 0.629883 0.257143
O O1 0.500000 0.192852 0.750000
O O2 0.276528 0.149501 0.620341
O O3 0.836153 0.097077 0.760765
O O4 0.702835 0.267377 0.714399
O O5 0.868512 0.074015 0.593965
O O6 0.735371 0.106124 0.474237
O O7 0.137902 0.983208 0.579723
O O8 0.400906 0.121172 0.325033
O O9 0.405192 0.963989 0.378859
O O10 0.987286 0.066895 0.176424
O O11 0.000000 0.591542 0.250000
#
# Coordination Sequence:
#
# PCOD8145926 Si02
#       5
#     8   8   8   8   8
#     4  10  22  40  63  92 123 163 215 257 306 373
#     4  10  22  41  61  96 125 160 205 263 308 373
#     4  11  22  39  65  91 127 165 201 258 320 358
#     4  11  21  42  65  90 122 168 210 257 308 376
#     4  12  23  39  63  94 124 165 218 256 302 379
#
# _framework density 22.043928000000001
#
# number of rings (size 3 to 8) (size 9 to 14) (size 15 to 20)
#    0.000    1.200    4.000    3.000    2.800    0.000 
#    0.000   12.000    0.000    0.000    0.000    0.000 
#    0.000    0.000    0.000    0.000    0.000    0.000 
#
# Total GULP energy -247938.390794 kJ/mol
# GULP energy per Si atom -12396.919540 kJ/mol
# Density = 2.199376 g / cm^3
# Si number density = 22.043928 Si / 1000 Ang^3
#
#
#
# Elastic Constant Matrix: (Units=GPa)
#
#
# Indices 1 2 3 4 5 6 
#
# 1 86.2001 4.4567 18.5292 -0.0001 -6.9806 0.0003
# 2 4.4567 86.1132 18.5611 -0.0001 1.2855 0.0001
# 3 18.5292 18.5611 136.2521 -0.0011 -5.5542 0.0000
# 4 -0.0001 -0.0001 -0.0011 18.7683 -0.0003 2.0178
# 5 -6.9806 1.2855 -5.5542 -0.0003 24.7841 0.0002
# 6 0.0003 0.0001 0.0000 2.0178 0.0002 19.8906
#
#
#
# Elastic Compliance Matrix: (Units=1/GPa)
#
#
# Indices 1 2 3 4 5 6 
#
# 1 0.012191 -0.000358 -0.001482 0.000000 0.003120 0.000000
# 2 -0.000358 0.011999 -0.001630 0.000000 -0.001089 0.000000
# 3 -0.001482 -0.001630 0.007821 0.000000 0.001420 0.000000
# 4 0.000000 0.000000 0.000000 0.053869 0.000001 -0.005465
# 5 0.003120 -0.001089 0.001420 0.000001 0.041602 -0.000001
# 6 0.000000 0.000000 0.000000 -0.005465 -0.000001 0.050829
#
#
# Mechanical properties :
#
#
# Convention : Reuss Voigt Hill
#
# Bulk Modulus (GPa) = 39.88848 43.51771 41.70309
# Shear Modulus (GPa) = 25.82546 30.48982 28.15764
#
# Velocity S-wave (km/s) = 3.42650 3.72309 3.57787
# Velocity P-wave (km/s) = 5.81281 6.18596 6.00229
#
# Compressibility (1/GPa) = 0.02506990
#
# Stress axis : x y z
#
# Youngs Moduli (GPa) = 82.03024 83.34174 127.86389
#
# Poissons Ratio (x) = 0.02984 0.18948
# Poissons Ratio (y) = 0.02937 0.20845
# Poissons Ratio (z) = 0.12156 0.13587
#
# Static dielectric constant tensor:
#      x y z
#    x 4.120290 0.000000 -0.023880 
#    y 0.000000 3.537990 0.000000 
#    z -0.023880 0.000000 4.077780 
# 
# 
# High freq. dielectric constant tensor:
#      x y z
#    x 1.885960 0.000000 -0.008140 
#    y 0.000000 1.828840 0.000000 
#    z -0.008140 0.000000 1.865070 
# 
# From -- ./inp_files/265398.got.cif
#   From: 2010.06.25/outbox.cif.g09.slc.cpg/sg15_133_cif.got.tgz:265398.got - 2010.06.28 07:06:18.
