data_PCOD8145339
_publ_section_title
;
Structure prediction by ZEFSAII (Michael W. Deem and Ramdas Pophale) SiO2 
 PCOD8145339
Probable space group: C 2/C
;
_chemical_formula_sum "Si O2"
_cell_formula_units_Z 56
_cell_length_a 28.702909
_cell_length_b 11.058046
_cell_length_c 9.058294
_cell_angle_alpha 90.000000
_cell_angle_beta 111.641909
_cell_angle_gamma 90.000000
_cell_volume 2672.411737
_symmetry_space_group_name_H-M "C 2/C"
_symmetry_group_IT_number 15
_symmetry_cell_setting 'monoclinic'
loop_
_space_group_symop_operation_xyz
x,y,z
-x,y,1/2-z
-x,-y,-z
x,-y,1/2+z
1/2+x,1/2+y,z
1/2-x,1/2+y,1/2-z
1/2-x,1/2-y,-z
1/2+x,1/2-y,1/2+z
loop_
_atom_site_type_symbol
_atom_site_label
_atom_site_fract_x
_atom_site_fract_y
_atom_site_fract_z
Si Si1 0.108290 0.160500 0.099907
Si Si2 0.300248 0.648696 0.812456
Si Si3 0.842461 0.609949 0.482764
Si Si4 0.481995 0.816119 0.573601
Si Si5 0.852003 0.010652 0.612183
Si Si6 0.685801 0.127431 0.723306
Si Si7 0.454378 0.082932 0.588745
O O1 0.152381 0.257718 0.146288
O O2 0.113562 0.077889 0.250558
O O3 0.053555 0.219767 0.047645
O O4 0.111308 0.085474 0.951400
O O5 0.323247 0.781053 0.859717
O O6 0.320410 0.596966 0.682153
O O7 0.240777 0.658362 0.729575
O O8 0.313373 0.564604 0.966971
O O9 0.812087 0.603705 0.599086
O O10 0.836019 0.489037 0.382627
O O11 0.901424 0.628519 0.590292
O O12 0.500000 0.763191 0.750000
O O13 0.533237 0.842391 0.544717
O O14 0.450651 0.940232 0.553182
O O15 0.500000 0.112451 0.750000
#
# Coordination Sequence:
#
# PCOD8145339 Si02
#       7
#     8   8   8   8   8   8   8
#     4  11  23  46  67  96 133 177 222 279 323 400
#     4  11  25  44  66  95 136 178 226 274 328 397
#     4  12  26  41  69 101 134 174 226 273 342 400
#     4  10  22  40  67  93 132 163 211 276 339 384
#     4  10  25  44  69  88 134 182 225 263 333 384
#     4  12  26  41  67 101 136 172 222 280 336 396
#     4  10  22  38  64 100 132 167 209 272 345 390
#
# _framework density 20.954853
#
# number of rings (size 3 to 8) (size 9 to 14) (size 15 to 20)
#    0.000    1.143    2.857    2.143   12.000    0.571 
#    0.000    0.714    0.000    0.000    0.000    0.000 
#    0.000    0.000    0.000    0.000    0.000    0.000 
#
# Total GULP energy -347337.643394 kJ/mol
# GULP energy per Si atom -12404.915836 kJ/mol
# Density = 2.090716 g / cm^3
# Si number density = 20.954853 Si / 1000 Ang^3
#
#
#
# Elastic Constant Matrix: (Units=GPa)
#
#
# Indices 1 2 3 4 5 6 
#
# 1 73.5769 15.4763 14.3057 0.0000 15.3088 0.0000
# 2 15.4763 90.5945 47.8326 0.0000 2.3888 0.0000
# 3 14.3057 47.8326 90.5683 0.0000 -3.3211 0.0000
# 4 0.0000 0.0000 0.0000 25.0284 0.0000 2.5773
# 5 15.3088 2.3888 -3.3211 0.0000 33.1805 0.0000
# 6 0.0000 0.0000 0.0000 2.5773 0.0000 19.0111
#
#
#
# Elastic Compliance Matrix: (Units=1/GPa)
#
#
# Indices 1 2 3 4 5 6 
#
# 1 0.015825 -0.001450 -0.002005 0.000000 -0.007398 0.000000
# 2 -0.001450 0.015562 -0.008036 0.000000 -0.001256 0.000000
# 3 -0.002005 -0.008036 0.015715 0.000000 0.003077 0.000000
# 4 0.000000 0.000000 0.000000 0.040520 0.000000 -0.005493
# 5 -0.007398 -0.001256 0.003077 0.000000 0.033950 0.000000
# 6 0.000000 0.000000 0.000000 -0.005493 0.000000 0.053346
#
#
# Mechanical properties :
#
#
# Convention : Reuss Voigt Hill
#
# Bulk Modulus (GPa) = 41.45862 45.55211 43.50536
# Shear Modulus (GPa) = 24.27900 27.25235 25.76568
#
# Velocity S-wave (km/s) = 3.40756 3.61019 3.51034
# Velocity P-wave (km/s) = 5.94219 6.25807 6.10218
#
# Compressibility (1/GPa) = 0.02412044
#
# Stress axis : x y z
#
# Youngs Moduli (GPa) = 63.19010 64.26016 63.63341
#
# Poissons Ratio (x) = 0.09315 0.12761
# Poissons Ratio (y) = 0.09160 0.51135
# Poissons Ratio (z) = 0.12672 0.51638
#
# Static dielectric constant tensor:
#      x y z
#    x 3.803670 0.000000 -0.158490 
#    y 0.000000 3.865510 0.000000 
#    z -0.158490 0.000000 3.925720 
# 
# 
# High freq. dielectric constant tensor:
#      x y z
#    x 1.817470 0.000000 -0.004570 
#    y 0.000000 1.820780 0.000000 
#    z -0.004570 0.000000 1.834000 
# 
# From -- ./inp_files/65535.got.cif
#   From: 2010.06.25/outbox.cif.g09.slc.cpg/sg15_33_cif.got.tgz:65535.got - 2010.06.28 07:06:18.
