data_PCOD8145464
_publ_section_title
;
Structure prediction by ZEFSAII (Michael W. Deem and Ramdas Pophale) SiO2 
 PCOD8145464
Probable space group: C 2/C
;
_chemical_formula_sum "Si O2"
_cell_formula_units_Z 48
_cell_length_a 19.634959
_cell_length_b 18.193312
_cell_length_c 8.145649
_cell_angle_alpha 90.000000
_cell_angle_beta 39.125566
_cell_angle_gamma 90.000000
_cell_volume 1836.166148
_symmetry_space_group_name_H-M "C 2/C"
_symmetry_group_IT_number 15
_symmetry_cell_setting 'monoclinic'
loop_
_space_group_symop_operation_xyz
x,y,z
-x,y,1/2-z
-x,-y,-z
x,-y,1/2+z
1/2+x,1/2+y,z
1/2-x,1/2+y,1/2-z
1/2-x,1/2-y,-z
1/2+x,1/2-y,1/2+z
loop_
_atom_site_type_symbol
_atom_site_label
_atom_site_fract_x
_atom_site_fract_y
_atom_site_fract_z
Si Si1 0.125773 0.601824 0.479667
Si Si2 0.835953 0.765447 0.065993
Si Si3 0.500000 0.631745 0.750000
Si Si4 0.921294 0.094455 0.551360
Si Si5 0.500000 0.883958 0.750000
Si Si6 0.895630 0.259065 0.108728
Si Si7 0.305837 0.026920 0.475440
O O1 0.171242 0.682362 0.355181
O O2 0.180153 0.561783 0.536015
O O3 0.166861 0.548842 0.259364
O O4 0.000000 0.602778 0.750000
O O5 0.882888 0.820341 0.114363
O O6 0.720278 0.793547 0.218029
O O7 0.913392 0.767636 0.761886
O O8 0.473611 0.582768 0.636318
O O9 0.595760 0.688112 0.525250
O O10 0.815574 0.044121 0.738520
O O11 0.000000 0.074230 0.250000
O O12 0.518269 0.825957 0.565968
O O13 0.604763 0.933292 0.578697
#
# Coordination Sequence:
#
# PCOD8145464 Si02
#       7
#     8   8   4   8   4   8   8
#     4  12  27  45  73 110 153 198 251 318 391 467
#     4  11  23  42  72 111 150 195 246 315 388 458
#     4  11  24  42  72 118 150 194 261 320 393 454
#     4  12  26  51  78 112 156 207 260 328 384 458
#     4  11  22  42  70 112 144 198 245 308 387 466
#     4  10  22  38  70 110 151 186 243 315 376 464
#     4  12  28  48  75 106 157 204 257 317 393 464
#
# _framework density 26.141425999999999
#
# number of rings (size 3 to 8) (size 9 to 14) (size 15 to 20)
#    0.000    0.667    4.167    3.000    7.000    1.333 
#    3.000    0.833    3.667    0.000    0.000    0.000 
#    0.000    0.000    0.000    0.000    0.000    0.000 
#
# Total GULP energy -297450.643679 kJ/mol
# GULP energy per Si atom -12393.776820 kJ/mol
# Density = 2.608193 g / cm^3
# Si number density = 26.141426 Si / 1000 Ang^3
#
#
#
# Elastic Constant Matrix: (Units=GPa)
#
#
# Indices 1 2 3 4 5 6 
#
# 1 113.6605 21.0586 37.6087 0.0000 4.7783 0.0000
# 2 21.0586 78.8333 19.0352 0.0000 -15.9611 0.0000
# 3 37.6087 19.0352 110.2145 0.0000 -3.7430 0.0000
# 4 0.0000 0.0000 0.0000 -147.8315 0.0000 36.9731
# 5 4.7783 -15.9611 -3.7430 0.0000 47.7754 0.0000
# 6 0.0000 0.0000 0.0000 36.9731 0.0000 26.2903
#
#
#
# Elastic Compliance Matrix: (Units=1/GPa)
#
#
# Indices 1 2 3 4 5 6 
#
# 1 0.010395 -0.002430 -0.003199 0.000000 -0.002102 0.000000
# 2 -0.002430 0.014728 -0.001543 0.000000 0.005042 0.000000
# 3 -0.003199 -0.001543 0.010452 0.000000 0.000623 0.000000
# 4 0.000000 0.000000 0.000000 -0.005004 0.000000 0.007038
# 5 -0.002102 0.005042 0.000623 0.000000 0.022875 0.000000
# 6 0.000000 0.000000 0.000000 0.007038 0.000000 0.028139
#
#
# Mechanical properties :
#
#
# Convention : Reuss Voigt Hill
#
# Bulk Modulus (GPa) = 47.10062 50.90148 49.00105
# Shear Modulus (GPa) = 48.54054 0.24721 24.39388
#
# Velocity S-wave (km/s) = 4.31379 0.30785 3.05806
# Velocity P-wave (km/s) = 6.54740 4.43173 5.59055
#
# Compressibility (1/GPa) = 0.02123114
#
# Stress axis : x y z
#
# Youngs Moduli (GPa) = 96.19821 67.89938 95.67125
#
# Poissons Ratio (x) = 0.16500 0.30604
# Poissons Ratio (y) = 0.23377 0.14764
# Poissons Ratio (z) = 0.30773 0.10478
#
# Static dielectric constant tensor:
#      x y z
#    x 4.520960 0.000000 0.046260 
#    y 0.000000 4.718340 0.000000 
#    z 0.046260 0.000000 4.945270 
# 
# 
# High freq. dielectric constant tensor:
#      x y z
#    x 2.036860 0.000000 -0.000310 
#    y 0.000000 2.045410 0.000000 
#    z -0.000310 0.000000 2.062250 
# 
# From -- ./inp_files/57741.got.cif
#   From: 2010.06.25/outbox.cif.g09.slc.cpg/sg15_29_cif.got.tgz:57741.got - 2010.06.28 07:06:18.
