data_PCOD8145425
_publ_section_title
;
Structure prediction by ZEFSAII (Michael W. Deem and Ramdas Pophale) SiO2 
 PCOD8145425
Probable space group: C 2/C
;
_chemical_formula_sum "Si O2"
_cell_formula_units_Z 52
_cell_length_a 20.644159
_cell_length_b 10.818056
_cell_length_c 16.163032
_cell_angle_alpha 90.000000
_cell_angle_beta 46.488960
_cell_angle_gamma 90.000000
_cell_volume 2617.893857
_symmetry_space_group_name_H-M "C 2/C"
_symmetry_group_IT_number 15
_symmetry_cell_setting 'monoclinic'
loop_
_space_group_symop_operation_xyz
x,y,z
-x,y,1/2-z
-x,-y,-z
x,-y,1/2+z
1/2+x,1/2+y,z
1/2-x,1/2+y,1/2-z
1/2-x,1/2-y,-z
1/2+x,1/2-y,1/2+z
loop_
_atom_site_type_symbol
_atom_site_label
_atom_site_fract_x
_atom_site_fract_y
_atom_site_fract_z
Si Si1 0.570325 0.988219 0.249069
Si Si2 0.334689 0.788931 0.875649
Si Si3 0.364408 0.225898 0.688644
Si Si4 0.940904 0.009997 0.134649
Si Si5 0.829928 0.783285 0.198938
Si Si6 0.496958 0.870416 0.545736
Si Si7 0.500000 0.614062 0.750000
O O1 0.500000 0.922319 0.250000
O O2 0.642819 0.064680 0.131135
O O3 0.517999 0.100541 0.344347
O O4 0.612143 0.883822 0.269068
O O5 0.306942 0.780773 0.804798
O O6 0.413454 0.698593 0.834517
O O7 0.250000 0.750000 0.000000
O O8 0.404405 0.353748 0.686380
O O9 0.257451 0.229770 0.780776
O O10 0.409755 0.198389 0.558619
O O11 0.854097 0.925981 0.193653
O O12 0.994056 0.966471 0.170418
O O13 0.000000 0.000000 0.000000
O O14 0.915038 0.713214 0.082662
O O15 0.500000 0.000000 0.500000
#
# Coordination Sequence:
#
# PCOD8145425 Si02
#       7
#     8   8   8   8   8   8   4
#     4  10  22  39  63  91 126 165 214 257 323 386
#     4  10  22  38  67  90 122 165 210 273 319 370
#     4  11  24  39  65  89 132 166 209 268 323 384
#     4  11  24  42  69  90 132 180 209 274 330 383
#     4  10  23  38  61  99 118 163 225 254 322 391
#     4   9  20  40  60  87 119 163 206 264 308 379
#     4  10  24  44  60  98 132 156 230 260 314 404
#
# _framework density 19.863295999999998
#
# number of rings (size 3 to 8) (size 9 to 14) (size 15 to 20)
#    0.000    1.846    2.308    0.000   11.846    0.000 
#    0.000    0.000    0.000    8.308    0.000    0.000 
#    0.000    0.000    0.000    0.000    0.000    0.000 
#
# Total GULP energy -322181.106341 kJ/mol
# GULP energy per Si atom -12391.581013 kJ/mol
# Density = 1.981809 g / cm^3
# Si number density = 19.863296 Si / 1000 Ang^3
#
#
#
# Elastic Constant Matrix: (Units=GPa)
#
#
# Indices 1 2 3 4 5 6 
#
# 1 126.8768 46.0060 38.2405 0.0000 -9.5987 0.0000
# 2 46.0060 128.1348 33.1141 0.0000 -7.0126 0.0000
# 3 38.2405 33.1141 91.7516 0.0000 -13.7022 0.0000
# 4 0.0000 0.0000 0.0000 28.5581 0.0000 2.0776
# 5 -9.5987 -7.0126 -13.7022 0.0000 27.2983 0.0000
# 6 0.0000 0.0000 0.0000 2.0776 0.0000 28.1425
#
#
#
# Elastic Compliance Matrix: (Units=1/GPa)
#
#
# Indices 1 2 3 4 5 6 
#
# 1 0.009845 -0.002706 -0.002933 0.000000 0.001294 0.000000
# 2 -0.002706 0.009363 -0.002199 0.000000 0.000350 0.000000
# 3 -0.002933 -0.002199 0.013704 0.000000 0.005282 0.000000
# 4 0.000000 0.000000 0.000000 0.035205 0.000000 -0.002599
# 5 0.001294 0.000350 0.005282 0.000000 0.039829 0.000000
# 6 0.000000 0.000000 0.000000 -0.002599 0.000000 0.035725
#
#
# Mechanical properties :
#
#
# Convention : Reuss Voigt Hill
#
# Bulk Modulus (GPa) = 58.02013 64.60937 61.31475
# Shear Modulus (GPa) = 30.28580 32.09327 31.18953
#
# Velocity S-wave (km/s) = 3.90899 4.02395 3.96689
# Velocity P-wave (km/s) = 7.04605 7.36119 7.20534
#
# Compressibility (1/GPa) = 0.01723540
#
# Stress axis : x y z
#
# Youngs Moduli (GPa) = 101.57636 106.79977 72.97047
#
# Poissons Ratio (x) = 0.28898 0.21405
# Poissons Ratio (y) = 0.27485 0.16048
# Poissons Ratio (z) = 0.29796 0.23489
#
# Static dielectric constant tensor:
#      x y z
#    x 3.498690 0.000000 0.126190 
#    y 0.000000 3.830940 0.000000 
#    z 0.126190 0.000000 4.263310 
# 
# 
# High freq. dielectric constant tensor:
#      x y z
#    x 1.763540 0.000000 -0.003710 
#    y 0.000000 1.785510 0.000000 
#    z -0.003710 0.000000 1.770460 
# 
# From -- ./inp_files/215024.got.cif
#   From: 2010.06.25/outbox.cif.g09.slc.cpg/sg15_108_cif.got.tgz:215024.got - 2010.06.28 07:06:18.
