data_PCOD8145262
_publ_section_title
;
Structure prediction by ZEFSAII (Michael W. Deem and Ramdas Pophale) SiO2 
 PCOD8145262
Probable space group: C 2/C
;
_chemical_formula_sum "Si O2"
_cell_formula_units_Z 60
_cell_length_a 12.635852
_cell_length_b 7.968374
_cell_length_c 30.525724
_cell_angle_alpha 90.000000
_cell_angle_beta 102.609485
_cell_angle_gamma 90.000000
_cell_volume 2999.417452
_symmetry_space_group_name_H-M "C 2/C"
_symmetry_group_IT_number 15
_symmetry_cell_setting 'monoclinic'
loop_
_space_group_symop_operation_xyz
x,y,z
-x,y,1/2-z
-x,-y,-z
x,-y,1/2+z
1/2+x,1/2+y,z
1/2-x,1/2+y,1/2-z
1/2-x,1/2-y,-z
1/2+x,1/2-y,1/2+z
loop_
_atom_site_type_symbol
_atom_site_label
_atom_site_fract_x
_atom_site_fract_y
_atom_site_fract_z
Si Si1 0.000858 0.029361 0.448254
Si Si2 0.680324 0.590009 0.908860
Si Si3 0.000000 0.862291 0.250000
Si Si4 0.688559 0.256115 0.949500
Si Si5 0.898783 0.556656 0.285404
Si Si6 0.241356 0.943870 0.597556
Si Si7 0.678707 0.550694 0.316493
Si Si8 0.873705 0.431254 0.186611
O O1 0.071781 0.889206 0.428768
O O2 0.885442 0.018004 0.414553
O O3 0.059850 0.208957 0.445275
O O4 0.000000 0.000000 0.500000
O O5 0.741646 0.416916 0.928650
O O6 0.658045 0.571712 0.855344
O O7 0.747313 0.759767 0.922787
O O8 0.055663 0.745293 0.217921
O O9 0.095246 0.985670 0.273100
O O10 0.696310 0.081518 0.925369
O O11 0.750000 0.250000 0.000000
O O12 0.802290 0.544444 0.311120
O O13 0.856340 0.478768 0.235784
O O14 0.999741 0.453275 0.314499
O O15 0.293327 0.950424 0.650833
O O16 0.654241 0.740915 0.326993
#
# Coordination Sequence:
#
# PCOD8145262 Si02
#       8
#     8   8   4   8   8   8   8   8
#     4  10  23  43  67  96 125 168 214 266 336 395
#     4  10  25  41  64 100 125 169 223 261 320 403
#     4  10  22  38  60  94 126 168 222 268 310 398
#     4  10  22  45  65  95 130 160 216 272 321 402
#     4  10  23  41  61  94 130 176 219 264 330 373
#     4  12  22  45  67  92 139 168 213 281 322 386
#     4  12  22  41  62  92 132 171 220 267 325 376
#     4  10  22  40  64  92 130 175 218 269 316 388
#
# _framework density 20.003883999999999
#
# number of rings (size 3 to 8) (size 9 to 14) (size 15 to 20)
#    0.800    0.800    2.667    3.200    0.000    7.467 
#    2.400    1.333    0.000    0.000    0.000    0.000 
#    0.000    0.000    0.000    0.000    0.000    0.000 
#
# Total GULP energy -371769.402483 kJ/mol
# GULP energy per Si atom -12392.313416 kJ/mol
# Density = 1.995835 g / cm^3
# Si number density = 20.003884 Si / 1000 Ang^3
#
#
#
# Elastic Constant Matrix: (Units=GPa)
#
#
# Indices 1 2 3 4 5 6 
#
# 1 118.5718 19.1159 39.8944 0.0000 -2.2689 0.0000
# 2 19.1159 109.3255 15.6384 0.0000 -4.1816 0.0000
# 3 39.8944 15.6384 91.2739 0.0000 8.8753 0.0000
# 4 0.0000 0.0000 0.0000 15.4139 0.0000 -0.3619
# 5 -2.2689 -4.1816 8.8753 0.0000 33.0596 0.0000
# 6 0.0000 0.0000 0.0000 -0.3619 0.0000 29.9858
#
#
#
# Elastic Compliance Matrix: (Units=1/GPa)
#
#
# Indices 1 2 3 4 5 6 
#
# 1 0.010124 -0.001073 -0.004411 0.000000 0.001743 0.000000
# 2 -0.001073 0.009580 -0.001318 0.000000 0.001492 0.000000
# 3 -0.004411 -0.001318 0.013508 0.000000 -0.004096 0.000000
# 4 0.000000 0.000000 0.000000 0.064895 0.000000 0.000783
# 5 0.001743 0.001492 -0.004096 0.000000 0.031656 0.000000
# 6 0.000000 0.000000 0.000000 0.000783 0.000000 0.033359
#
#
# Mechanical properties :
#
#
# Convention : Reuss Voigt Hill
#
# Bulk Modulus (GPa) = 50.99446 52.05206 51.52326
# Shear Modulus (GPa) = 27.28357 31.99337 29.63847
#
# Velocity S-wave (km/s) = 3.69713 4.00354 3.85338
# Velocity P-wave (km/s) = 6.61609 6.88829 6.75356
#
# Compressibility (1/GPa) = 0.01960997
#
# Stress axis : x y z
#
# Youngs Moduli (GPa) = 98.77483 104.38320 74.03049
#
# Poissons Ratio (x) = 0.11196 0.32653
# Poissons Ratio (y) = 0.10595 0.09755
# Poissons Ratio (z) = 0.43568 0.13754
#
# Static dielectric constant tensor:
#      x y z
#    x 3.582050 0.000000 0.049830 
#    y 0.000000 3.705970 0.000000 
#    z 0.049830 0.000000 3.382900 
# 
# 
# High freq. dielectric constant tensor:
#      x y z
#    x 1.772910 0.000000 0.004030 
#    y 0.000000 1.783040 0.000000 
#    z 0.004030 0.000000 1.782310 
# 
# From -- ./inp_files/310350.got.cif
#   From: 2010.06.25/outbox.cif.g09.slc.cpg/sg15_156_cif.got.tgz:310350.got - 2010.06.28 07:06:18.
