data_PCOD8145344
_publ_section_title
;
Structure prediction by ZEFSAII (Michael W. Deem and Ramdas Pophale) SiO2 
 PCOD8145344
Probable space group: C 2/C
;
_chemical_formula_sum "Si O2"
_cell_formula_units_Z 60
_cell_length_a 19.979627
_cell_length_b 21.629522
_cell_length_c 8.069063
_cell_angle_alpha 90.000000
_cell_angle_beta 127.632193
_cell_angle_gamma 90.000000
_cell_volume 2761.552820
_symmetry_space_group_name_H-M "C 2/C"
_symmetry_group_IT_number 15
_symmetry_cell_setting 'monoclinic'
loop_
_space_group_symop_operation_xyz
x,y,z
-x,y,1/2-z
-x,-y,-z
x,-y,1/2+z
1/2+x,1/2+y,z
1/2-x,1/2+y,1/2-z
1/2-x,1/2-y,-z
1/2+x,1/2-y,1/2+z
loop_
_atom_site_type_symbol
_atom_site_label
_atom_site_fract_x
_atom_site_fract_y
_atom_site_fract_z
Si Si1 0.000000 0.444755 0.250000
Si Si2 0.058003 0.954835 0.191889
Si Si3 0.712991 0.537422 0.545026
Si Si4 0.421337 0.837266 0.308385
Si Si5 0.337100 0.986439 0.506729
Si Si6 0.668095 0.151402 0.474849
Si Si7 0.151667 0.854544 0.133153
Si Si8 0.595351 0.218632 0.050471
O O1 0.034122 0.404348 0.146723
O O2 0.076872 0.486160 0.441803
O O3 0.082691 0.895912 0.121851
O O4 0.000000 0.928530 0.250000
O O5 0.140635 0.990318 0.382366
O O6 0.000000 0.000000 0.000000
O O7 0.804529 0.535729 0.593370
O O8 0.747222 0.517175 0.776022
O O9 0.678846 0.607954 0.506523
O O10 0.366250 0.832762 0.391530
O O11 0.495530 0.786657 0.431820
O O12 0.372213 0.821776 0.060150
O O13 0.359260 0.918547 0.612462
O O14 0.768588 0.157560 0.628105
O O15 0.638711 0.197587 0.287328
O O16 0.112378 0.789258 0.028165
#
# Coordination Sequence:
#
# PCOD8145344 Si02
#       8
#     4   8   8   8   8   8   8   8
#     4  10  22  38  64 104 138 176 232 270 346 418
#     4  12  23  40  67  95 130 173 224 284 352 411
#     4  11  22  43  62  98 137 169 224 282 344 413
#     4  10  25  43  64 102 134 182 234 284 334 412
#     4  11  24  38  67 100 139 182 216 280 358 407
#     4  11  23  44  69  96 139 177 233 282 343 411
#     4  11  24  44  68  99 133 181 227 282 347 414
#     4  10  24  45  67  93 141 178 235 285 329 403
#
# _framework density 21.726906
#
# number of rings (size 3 to 8) (size 9 to 14) (size 15 to 20)
#    0.000    1.333    4.000    2.400    5.600    4.800 
#    0.000    1.333    0.000    0.000    0.000    0.000 
#    0.000    0.000    0.000    0.000    0.000    0.000 
#
# Total GULP energy -371644.123553 kJ/mol
# GULP energy per Si atom -12388.137452 kJ/mol
# Density = 2.167745 g / cm^3
# Si number density = 21.726906 Si / 1000 Ang^3
#
#
#
# Elastic Constant Matrix: (Units=GPa)
#
#
# Indices 1 2 3 4 5 6 
#
# 1 122.7750 50.3364 30.0783 0.0000 -3.7488 0.0000
# 2 50.3364 129.7840 28.9931 0.0000 5.8731 0.0000
# 3 30.0783 28.9931 62.9687 0.0000 1.6646 0.0000
# 4 0.0000 0.0000 0.0000 25.4171 0.0000 5.8557
# 5 -3.7488 5.8731 1.6646 0.0000 39.6265 0.0000
# 6 0.0000 0.0000 0.0000 5.8557 0.0000 33.2174
#
#
#
# Elastic Compliance Matrix: (Units=1/GPa)
#
#
# Indices 1 2 3 4 5 6 
#
# 1 0.010415 -0.003335 -0.003482 0.000000 0.001626 0.000000
# 2 -0.003335 0.009705 -0.002832 0.000000 -0.001635 0.000000
# 3 -0.003482 -0.002832 0.018867 0.000000 -0.000702 0.000000
# 4 0.000000 0.000000 0.000000 0.041009 0.000000 -0.007229
# 5 0.001626 -0.001635 -0.000702 0.000000 0.025661 0.000000
# 6 0.000000 0.000000 0.000000 -0.007229 0.000000 0.031379
#
#
# Mechanical properties :
#
#
# Convention : Reuss Voigt Hill
#
# Bulk Modulus (GPa) = 50.79299 59.37146 55.08222
# Shear Modulus (GPa) = 30.69381 33.39353 32.04367
#
# Velocity S-wave (km/s) = 3.76268 3.92467 3.84453
# Velocity P-wave (km/s) = 6.50428 6.92264 6.71672
#
# Compressibility (1/GPa) = 0.01968776
#
# Stress axis : x y z
#
# Youngs Moduli (GPa) = 96.01433 103.03593 53.00256
#
# Poissons Ratio (x) = 0.34364 0.18457
# Poissons Ratio (y) = 0.32022 0.15012
# Poissons Ratio (z) = 0.33436 0.29184
#
# Static dielectric constant tensor:
#      x y z
#    x 4.098060 0.000000 0.019000 
#    y 0.000000 4.030800 0.000000 
#    z 0.019000 0.000000 3.908650 
# 
# 
# High freq. dielectric constant tensor:
#      x y z
#    x 1.862040 0.000000 0.008510 
#    y 0.000000 1.843860 0.000000 
#    z 0.008510 0.000000 1.852890 
# 
# From -- ./inp_files/58094.got.cif
#   From: 2010.06.25/outbox.cif.g09.slc.cpg/sg15_30_cif.got.tgz:58094.got - 2010.06.28 07:06:18.
