data_PCOD8145827
_publ_section_title
;
Structure prediction by ZEFSAII (Michael W. Deem and Ramdas Pophale) SiO2 
 PCOD8145827
Probable space group: C 2/C
;
_chemical_formula_sum "Si O2"
_cell_formula_units_Z 48
_cell_length_a 18.804075
_cell_length_b 11.306631
_cell_length_c 12.347884
_cell_angle_alpha 90.000000
_cell_angle_beta 128.368119
_cell_angle_gamma 90.000000
_cell_volume 2058.331776
_symmetry_space_group_name_H-M "C 2/C"
_symmetry_group_IT_number 15
_symmetry_cell_setting 'monoclinic'
loop_
_space_group_symop_operation_xyz
x,y,z
-x,y,1/2-z
-x,-y,-z
x,-y,1/2+z
1/2+x,1/2+y,z
1/2-x,1/2+y,1/2-z
1/2-x,1/2-y,-z
1/2+x,1/2-y,1/2+z
loop_
_atom_site_type_symbol
_atom_site_label
_atom_site_fract_x
_atom_site_fract_y
_atom_site_fract_z
Si Si1 0.761591 0.940802 0.464427
Si Si2 0.563428 0.987558 0.209784
Si Si3 0.620199 0.773028 0.696066
Si Si4 0.055016 0.268960 0.053151
Si Si5 0.769158 0.801639 0.676512
Si Si6 0.400145 0.642541 0.615917
O O1 0.667172 0.998468 0.344930
O O2 0.756239 0.912546 0.586762
O O3 0.774711 0.818881 0.411543
O O4 0.844469 0.029742 0.518673
O O5 0.500000 0.945813 0.250000
O O6 0.552028 0.904838 0.093559
O O7 0.547009 0.124103 0.162806
O O8 0.547760 0.711257 0.543031
O O9 0.710962 0.825737 0.729503
O O10 0.651175 0.694024 0.826521
O O11 0.123085 0.204692 0.201151
O O12 0.096939 0.244950 0.972735
O O13 0.500000 0.602528 0.750000
#
# Coordination Sequence:
#
# PCOD8145827 Si02
#       6
#     8   8   8   8   8   8
#     4  10  23  42  62  88 121 159 204 251 308 366
#     4  11  22  38  64  91 121 160 201 253 308 363
#     4  11  23  38  61  91 124 159 203 254 306 363
#     4  10  22  40  60  89 122 158 203 247 302 365
#     4  10  23  41  62  88 120 161 203 250 306 370
#     4  10  23  41  62  90 123 160 205 256 306 362
#
# _framework density 23.319856999999999
#
# number of rings (size 3 to 8) (size 9 to 14) (size 15 to 20)
#    0.000    1.667    0.000    4.000    0.000   10.667 
#    0.000    5.000    0.000    0.000    0.000    0.000 
#    0.000    0.000    0.000    0.000    0.000    0.000 
#
# Total GULP energy -297359.136684 kJ/mol
# GULP energy per Si atom -12389.964029 kJ/mol
# Density = 2.326678 g / cm^3
# Si number density = 23.319857 Si / 1000 Ang^3
#
#
#
# Elastic Constant Matrix: (Units=GPa)
#
#
# Indices 1 2 3 4 5 6 
#
# 1 95.0182 32.5764 20.9038 0.0000 -1.8562 0.0000
# 2 32.5764 86.2362 32.7929 0.0000 -4.1694 0.0000
# 3 20.9038 32.7929 96.8618 0.0000 9.9035 0.0000
# 4 0.0000 0.0000 0.0000 18.5021 0.0000 -0.4092
# 5 -1.8562 -4.1694 9.9035 0.0000 30.2072 0.0000
# 6 0.0000 0.0000 0.0000 -0.4092 0.0000 32.1703
#
#
#
# Elastic Compliance Matrix: (Units=1/GPa)
#
#
# Indices 1 2 3 4 5 6 
#
# 1 0.012228 -0.004088 -0.001318 0.000000 0.000619 0.000000
# 2 -0.004088 0.015029 -0.004544 0.000000 0.003313 0.000000
# 3 -0.001318 -0.004544 0.012643 0.000000 -0.004853 0.000000
# 4 0.000000 0.000000 0.000000 0.054063 0.000000 0.000688
# 5 0.000619 0.003313 -0.004853 0.000000 0.035191 0.000000
# 6 0.000000 0.000000 0.000000 0.000688 0.000000 0.031093
#
#
# Mechanical properties :
#
#
# Convention : Reuss Voigt Hill
#
# Bulk Modulus (GPa) = 50.00401 50.07359 50.03880
# Shear Modulus (GPa) = 26.76445 28.96548 27.86496
#
# Velocity S-wave (km/s) = 3.39146 3.52816 3.46049
# Velocity P-wave (km/s) = 6.06838 6.17384 6.12134
#
# Compressibility (1/GPa) = 0.01999840
#
# Stress axis : x y z
#
# Youngs Moduli (GPa) = 81.77993 66.53971 79.09352
#
# Poissons Ratio (x) = 0.27201 0.10427
# Poissons Ratio (y) = 0.33431 0.35944
# Poissons Ratio (z) = 0.10781 0.30239
#
# Static dielectric constant tensor:
#      x y z
#    x 3.989200 0.000000 0.134370 
#    y 0.000000 3.855630 0.000000 
#    z 0.134370 0.000000 4.528470 
# 
# 
# High freq. dielectric constant tensor:
#      x y z
#    x 1.912140 0.000000 0.015490 
#    y 0.000000 1.898630 0.000000 
#    z 0.015490 0.000000 1.953300 
# 
# From -- ./inp_files/111220.got.cif
#   From: 2010.06.25/outbox.cif.g09.slc.cpg/sg15_56_cif.got.tgz:111220.got - 2010.06.28 07:06:18.
