data_PCOD8145347
_publ_section_title
;
Structure prediction by ZEFSAII (Michael W. Deem and Ramdas Pophale) SiO2 
 PCOD8145347
Probable space group: C 2/C
;
_chemical_formula_sum "Si O2"
_cell_formula_units_Z 40
_cell_length_a 8.743762
_cell_length_b 11.132629
_cell_length_c 28.672285
_cell_angle_alpha 90.000000
_cell_angle_beta 138.213451
_cell_angle_gamma 90.000000
_cell_volume 1859.797333
_symmetry_space_group_name_H-M "C 2/C"
_symmetry_group_IT_number 15
_symmetry_cell_setting 'monoclinic'
loop_
_space_group_symop_operation_xyz
x,y,z
-x,y,1/2-z
-x,-y,-z
x,-y,1/2+z
1/2+x,1/2+y,z
1/2-x,1/2+y,1/2-z
1/2-x,1/2-y,-z
1/2+x,1/2-y,1/2+z
loop_
_atom_site_type_symbol
_atom_site_label
_atom_site_fract_x
_atom_site_fract_y
_atom_site_fract_z
Si Si1 0.303011 0.820784 0.278390
Si Si2 0.187318 0.282421 0.841902
Si Si3 0.119655 0.011341 0.664115
Si Si4 0.860352 0.130046 0.174370
Si Si5 0.596559 0.254134 0.419831
O O1 0.299582 0.824435 0.334775
O O2 0.278183 0.944154 0.243964
O O3 0.534800 0.761852 0.312343
O O4 0.089216 0.730897 0.218975
O O5 0.248377 0.414481 0.837175
O O6 0.264738 0.265102 0.913204
O O7 0.035205 0.118766 0.612203
O O8 0.894942 0.953176 0.636971
O O9 0.590078 0.146389 0.121661
O O10 0.000000 0.073632 0.250000
O O11 0.750000 0.250000 0.500000
#
# Coordination Sequence:
#
# PCOD8145347 Si02
#       5
#     8   8   8   8   8
#     4   9  19  37  58  93 127 147 196 264 312 351
#     4   9  19  37  60  90 119 156 205 240 307 370
#     4  10  22  38  64  87 126 158 196 261 316 349
#     4  11  21  38  62  95 117 153 214 248 303 371
#     4  11  25  44  59  87 133 166 204 251 300 367
#
# _framework density 21.507721
#
# number of rings (size 3 to 8) (size 9 to 14) (size 15 to 20)
#    0.000    2.000    4.000    0.000    5.600    8.000 
#    0.000    4.000    0.000    0.000    0.000    0.000 
#    0.000    0.000    0.000    0.000    0.000    0.000 
#
# Total GULP energy -247797.365553 kJ/mol
# GULP energy per Si atom -12389.868278 kJ/mol
# Density = 2.145877 g / cm^3
# Si number density = 21.507721 Si / 1000 Ang^3
#
#
#
# Elastic Constant Matrix: (Units=GPa)
#
#
# Indices 1 2 3 4 5 6 
#
# 1 101.2829 17.3124 43.2388 0.0000 -32.3128 0.0000
# 2 17.3124 61.2608 11.7724 0.0000 -12.4220 0.0000
# 3 43.2388 11.7724 98.9850 0.0000 -30.4310 0.0000
# 4 0.0000 0.0000 0.0000 11.5160 0.0000 -5.9078
# 5 -32.3128 -12.4220 -30.4310 0.0000 35.3493 0.0000
# 6 0.0000 0.0000 0.0000 -5.9078 0.0000 37.3213
#
#
#
# Elastic Compliance Matrix: (Units=1/GPa)
#
#
# Indices 1 2 3 4 5 6 
#
# 1 0.014727 -0.001483 -0.003098 0.000000 0.010274 0.000000
# 2 -0.001483 0.017730 0.000052 0.000000 0.004919 0.000000
# 3 -0.003098 0.000052 0.014394 0.000000 0.009577 0.000000
# 4 0.000000 0.000000 0.000000 0.094511 0.000000 0.014961
# 5 0.010274 0.004919 0.009577 0.000000 0.047654 0.000000
# 6 0.000000 0.000000 0.000000 0.014961 0.000000 0.029163
#
#
# Mechanical properties :
#
#
# Convention : Reuss Voigt Hill
#
# Bulk Modulus (GPa) = 26.46093 45.13066 35.79579
# Shear Modulus (GPa) = 20.84754 29.45098 25.14926
#
# Velocity S-wave (km/s) = 3.11674 3.70445 3.42323
# Velocity P-wave (km/s) = 5.02810 6.27107 5.68367
#
# Compressibility (1/GPa) = 0.03779157
#
# Stress axis : x y z
#
# Youngs Moduli (GPa) = 67.90138 56.40032 69.47224
#
# Poissons Ratio (x) = 0.08366 0.21525
# Poissons Ratio (y) = 0.10072 -0.00358
# Poissons Ratio (z) = 0.21038 -0.00290
#
# Static dielectric constant tensor:
#      x y z
#    x 4.445200 0.000000 -0.477750 
#    y 0.000000 3.784170 0.000000 
#    z -0.477750 0.000000 3.532860 
# 
# 
# High freq. dielectric constant tensor:
#      x y z
#    x 1.873380 0.000000 -0.019460 
#    y 0.000000 1.839000 0.000000 
#    z -0.019460 0.000000 1.777510 
# 
# From -- ./inp_files/262743.got.cif
#   From: 2010.06.25/outbox.cif.g09.slc.cpg/sg15_132_cif.got.tgz:262743.got - 2010.06.28 07:06:18.
