data_PCOD8145640
_publ_section_title
;
Structure prediction by ZEFSAII (Michael W. Deem and Ramdas Pophale) SiO2 
 PCOD8145640
Probable space group: C 2/C
;
_chemical_formula_sum "Si O2"
_cell_formula_units_Z 52
_cell_length_a 18.321170
_cell_length_b 13.293416
_cell_length_c 22.538728
_cell_angle_alpha 90.000000
_cell_angle_beta 154.076615
_cell_angle_gamma 90.000000
_cell_volume 2399.763611
_symmetry_space_group_name_H-M "C 2/C"
_symmetry_group_IT_number 15
_symmetry_cell_setting 'monoclinic'
loop_
_space_group_symop_operation_xyz
x,y,z
-x,y,1/2-z
-x,-y,-z
x,-y,1/2+z
1/2+x,1/2+y,z
1/2-x,1/2+y,1/2-z
1/2-x,1/2-y,-z
1/2+x,1/2-y,1/2+z
loop_
_atom_site_type_symbol
_atom_site_label
_atom_site_fract_x
_atom_site_fract_y
_atom_site_fract_z
Si Si1 0.501862 0.321755 0.379956
Si Si2 0.712213 0.501291 0.225809
Si Si3 0.182116 0.805433 0.627986
Si Si4 0.321795 0.567609 0.174271
Si Si5 0.500000 0.605811 0.750000
Si Si6 0.944144 0.760896 0.649321
Si Si7 0.014685 0.657707 0.590467
O O1 0.431609 0.422540 0.360373
O O2 0.365883 0.232616 0.280155
O O3 0.655730 0.295748 0.536976
O O4 0.560343 0.334191 0.353611
O O5 0.657026 0.580160 0.133938
O O6 0.755221 0.561830 0.316353
O O7 0.880014 0.444234 0.330001
O O8 0.046792 0.728794 0.557335
O O9 0.342131 0.459528 0.157522
O O10 0.504135 0.620895 0.307267
O O11 0.180389 0.634157 0.039548
O O12 0.750000 0.750000 0.500000
O O13 0.061904 0.720501 0.683223
O O14 0.000000 0.703319 0.750000
#
# Coordination Sequence:
#
# PCOD8145640 Si02
#       7
#     8   8   8   8   4   8   8
#     4  10  24  40  66  93 124 171 210 264 322 387
#     4  10  22  39  63  98 126 165 211 275 324 373
#     4  11  22  42  65  98 128 162 218 268 324 376
#     4  11  20  41  64  90 128 172 213 264 319 394
#     4  10  22  42  60  88 126 172 216 254 320 388
#     4  12  23  39  61  92 127 172 209 256 325 386
#     4  11  23  39  66  95 130 167 214 270 325 382
#
# _framework density 21.668800000000001
#
# number of rings (size 3 to 8) (size 9 to 14) (size 15 to 20)
#    0.000    1.231    3.846    1.846    2.154    3.077 
#    8.308    0.000    0.000    0.000    0.000    0.000 
#    0.000    0.000    0.000    0.000    0.000    0.000 
#
# Total GULP energy -322141.460272 kJ/mol
# GULP energy per Si atom -12390.056164 kJ/mol
# Density = 2.161948 g / cm^3
# Si number density = 21.668800 Si / 1000 Ang^3
#
#
#
# Elastic Constant Matrix: (Units=GPa)
#
#
# Indices 1 2 3 4 5 6 
#
# 1 124.4096 31.6219 43.3281 -0.0009 -34.3555 -0.0010
# 2 31.6219 80.6238 29.8557 -0.0012 -8.5286 -0.0021
# 3 43.3281 29.8557 103.2288 -0.0014 -17.4004 -0.0038
# 4 -0.0009 -0.0012 -0.0014 22.0375 -0.0004 -2.0367
# 5 -34.3555 -8.5286 -17.4004 -0.0004 45.9569 -0.0010
# 6 -0.0010 -0.0021 -0.0038 -2.0367 -0.0010 35.4829
#
#
#
# Elastic Compliance Matrix: (Units=1/GPa)
#
#
# Indices 1 2 3 4 5 6 
#
# 1 0.011732 -0.002764 -0.002919 0.000000 0.007152 0.000000
# 2 -0.002764 0.014597 -0.003155 0.000001 -0.000552 0.000000
# 3 -0.002919 -0.003155 0.012133 0.000001 0.001826 0.000001
# 4 0.000000 0.000001 0.000001 0.045619 0.000001 0.002619
# 5 0.007152 -0.000552 0.001826 0.000001 0.027695 0.000001
# 6 0.000000 0.000000 0.000001 0.002619 0.000001 0.028333
#
#
# Mechanical properties :
#
#
# Convention : Reuss Voigt Hill
#
# Bulk Modulus (GPa) = 48.10877 57.54153 52.82515
# Shear Modulus (GPa) = 30.35559 34.25923 32.30741
#
# Velocity S-wave (km/s) = 3.74691 3.98054 3.86549
# Velocity P-wave (km/s) = 6.40071 6.90934 6.65988
#
# Compressibility (1/GPa) = 0.02078623
#
# Stress axis : x y z
#
# Youngs Moduli (GPa) = 85.23455 68.50642 82.42156
#
# Poissons Ratio (x) = 0.18935 0.24062
# Poissons Ratio (y) = 0.23558 0.26001
# Poissons Ratio (z) = 0.24884 0.21612
#
# Static dielectric constant tensor:
#      x y z
#    x 4.169620 0.000000 -0.404250 
#    y 0.000000 3.903280 -0.000010 
#    z -0.404250 -0.000010 3.725940 
# 
# 
# High freq. dielectric constant tensor:
#      x y z
#    x 1.866970 0.000000 -0.017090 
#    y 0.000000 1.845380 0.000000 
#    z -0.017090 0.000000 1.833880 
# 
# From -- ./inp_files/249129.got.cif
#   From: 2010.06.25/outbox.cif.g09.slc.cpg/sg15_125_cif.got.tgz:249129.got - 2010.06.28 07:06:18.
