data_PCOD8145776
_publ_section_title
;
Structure prediction by ZEFSAII (Michael W. Deem and Ramdas Pophale) SiO2 
 PCOD8145776
Probable space group: C 2/C
;
_chemical_formula_sum "Si O2"
_cell_formula_units_Z 56
_cell_length_a 19.130425
_cell_length_b 8.497297
_cell_length_c 17.990573
_cell_angle_alpha 90.000000
_cell_angle_beta 127.542776
_cell_angle_gamma 90.000000
_cell_volume 2318.825562
_symmetry_space_group_name_H-M "C 2/C"
_symmetry_group_IT_number 15
_symmetry_cell_setting 'monoclinic'
loop_
_space_group_symop_operation_xyz
x,y,z
-x,y,1/2-z
-x,-y,-z
x,-y,1/2+z
1/2+x,1/2+y,z
1/2-x,1/2+y,1/2-z
1/2-x,1/2-y,-z
1/2+x,1/2-y,1/2+z
loop_
_atom_site_type_symbol
_atom_site_label
_atom_site_fract_x
_atom_site_fract_y
_atom_site_fract_z
Si Si1 0.800766 0.941007 0.449459
Si Si2 0.359020 0.807938 0.092895
Si Si3 0.814320 0.100316 0.302939
Si Si4 0.649771 0.702294 0.921337
Si Si5 0.095826 0.972014 0.778386
Si Si6 0.965287 0.536608 0.090045
Si Si7 0.357291 0.962064 0.369331
O O1 0.699996 0.956976 0.415405
O O2 0.824136 0.763251 0.491079
O O3 0.806596 0.977635 0.366006
O O4 0.868521 0.057948 0.533931
O O5 0.358425 0.681809 0.157742
O O6 0.453649 0.881001 0.133731
O O7 0.897719 0.045049 0.306605
O O8 0.829101 0.281003 0.335648
O O9 0.726369 0.077174 0.195587
O O10 0.645555 0.633283 0.834766
O O11 0.567012 0.816362 0.881933
O O12 0.750000 0.750000 0.000000
O O13 0.000000 0.983464 0.750000
O O14 0.067809 0.534996 0.136436
O O15 0.897195 0.530084 0.977161
#
# Coordination Sequence:
#
# PCOD8145776 Si02
#       7
#     8   8   8   8   8   8   8
#     4  10  22  39  71 103 134 186 233 285 349 429
#     4  10  22  42  71 100 137 189 237 280 356 434
#     4  12  25  46  69 106 144 185 240 299 364 425
#     4  11  21  44  70  98 133 186 234 286 349 435
#     4  11  26  45  67 100 139 182 236 299 362 423
#     4  11  23  47  69 102 144 185 241 292 355 434
#     4  11  27  42  71 105 144 188 232 305 362 420
#
# _framework density 24.150157
#
# number of rings (size 3 to 8) (size 9 to 14) (size 15 to 20)
#    0.000    1.143    2.857    2.571    6.000    1.143 
#    2.571    2.857    0.000    0.000    0.000    0.000 
#    0.000    0.000    0.000    0.000    0.000    0.000 
#
# Total GULP energy -346893.733293 kJ/mol
# GULP energy per Si atom -12389.061903 kJ/mol
# Density = 2.409519 g / cm^3
# Si number density = 24.150157 Si / 1000 Ang^3
#
#
#
# Elastic Constant Matrix: (Units=GPa)
#
#
# Indices 1 2 3 4 5 6 
#
# 1 127.9837 57.0515 24.6548 0.0000 -4.0328 0.0000
# 2 57.0515 103.6605 25.6525 0.0000 -8.7713 0.0000
# 3 24.6548 25.6525 60.2552 0.0000 -9.7989 0.0000
# 4 0.0000 0.0000 0.0000 22.4603 0.0000 1.3511
# 5 -4.0328 -8.7713 -9.7989 0.0000 35.2890 0.0000
# 6 0.0000 0.0000 0.0000 1.3511 0.0000 39.1997
#
#
#
# Elastic Compliance Matrix: (Units=1/GPa)
#
#
# Indices 1 2 3 4 5 6 
#
# 1 0.010597 -0.005355 -0.002174 0.000000 -0.000724 0.000000
# 2 -0.005355 0.013563 -0.003282 0.000000 0.001848 0.000000
# 3 -0.002174 -0.003282 0.019595 0.000000 0.004377 0.000000
# 4 0.000000 0.000000 0.000000 0.044615 0.000000 -0.001538
# 5 -0.000724 0.001848 0.004377 0.000000 0.029929 0.000000
# 6 0.000000 0.000000 0.000000 -0.001538 0.000000 0.025563
#
#
# Mechanical properties :
#
#
# Convention : Reuss Voigt Hill
#
# Bulk Modulus (GPa) = 45.18459 56.29076 50.73767
# Shear Modulus (GPa) = 28.92473 31.69252 30.30862
#
# Velocity S-wave (km/s) = 3.46454 3.62651 3.54645
# Velocity P-wave (km/s) = 5.89530 6.39490 6.15017
#
# Compressibility (1/GPa) = 0.02213144
#
# Stress axis : x y z
#
# Youngs Moduli (GPa) = 94.36876 73.73010 51.03441
#
# Poissons Ratio (x) = 0.39486 0.11093
# Poissons Ratio (y) = 0.50539 0.16751
# Poissons Ratio (z) = 0.20512 0.24201
#
# Static dielectric constant tensor:
#      x y z
#    x 4.411400 0.000000 -0.086730 
#    y 0.000000 4.638030 0.000000 
#    z -0.086730 0.000000 4.326860 
# 
# 
# High freq. dielectric constant tensor:
#      x y z
#    x 1.962600 0.000000 -0.004620 
#    y 0.000000 1.967980 0.000000 
#    z -0.004620 0.000000 1.946510 
# 
# From -- ./inp_files/247590.got.cif
#   From: 2010.06.25/outbox.cif.g09.slc.cpg/sg15_124_cif.got.tgz:247590.got - 2010.06.28 07:06:18.
