data_PCOD8145391
_publ_section_title
;
Structure prediction by ZEFSAII (Michael W. Deem and Ramdas Pophale) SiO2 
 PCOD8145391
Probable space group: C 2/C
;
_chemical_formula_sum "Si O2"
_cell_formula_units_Z 48
_cell_length_a 18.156745
_cell_length_b 14.834848
_cell_length_c 10.029319
_cell_angle_alpha 90.000000
_cell_angle_beta 53.816082
_cell_angle_gamma 90.000000
_cell_volume 2180.388619
_symmetry_space_group_name_H-M "C 2/C"
_symmetry_group_IT_number 15
_symmetry_cell_setting 'monoclinic'
loop_
_space_group_symop_operation_xyz
x,y,z
-x,y,1/2-z
-x,-y,-z
x,-y,1/2+z
1/2+x,1/2+y,z
1/2-x,1/2+y,1/2-z
1/2-x,1/2-y,-z
1/2+x,1/2-y,1/2+z
loop_
_atom_site_type_symbol
_atom_site_label
_atom_site_fract_x
_atom_site_fract_y
_atom_site_fract_z
Si Si1 0.603380 0.930246 0.478258
Si Si2 0.454020 0.121823 0.926774
Si Si3 0.602720 0.432913 0.120985
Si Si4 0.830679 0.745094 0.514592
Si Si5 0.261159 0.801653 0.627677
Si Si6 0.794124 0.996945 0.742134
O O1 0.526598 0.887162 0.466371
O O2 0.619813 0.850215 0.566755
O O3 0.572915 0.019843 0.588021
O O4 0.697584 0.958196 0.302820
O O5 0.500000 0.168741 0.750000
O O6 0.367419 0.183983 0.056636
O O7 0.500000 0.467752 0.250000
O O8 0.655830 0.439977 0.203971
O O9 0.601117 0.328456 0.078151
O O10 0.649230 0.491953 0.955239
O O11 0.750000 0.750000 0.500000
O O12 0.789647 0.741644 0.707953
O O13 0.250000 0.750000 0.500000
O O14 0.215318 0.900183 0.675442
#
# Coordination Sequence:
#
# PCOD8145391 Si02
#       6
#     8   8   8   8   8   8
#     4  10  22  39  63  95 128 167 210 264 320 388
#     4  10  22  38  65  95 126 165 216 262 317 382
#     4  11  24  42  64  96 127 169 221 266 321 393
#     4  11  23  40  65  92 129 169 209 258 329 378
#     4  10  23  41  63  95 128 170 212 262 324 382
#     4  10  23  41  68  91 130 172 214 263 330 386
#
# _framework density 22.014424999999999
#
# number of rings (size 3 to 8) (size 9 to 14) (size 15 to 20)
#    0.000    1.667    1.667    1.500    7.000    4.667 
#    0.000    4.167    0.000    0.000    0.000    0.000 
#    0.000    0.000    0.000    0.000    0.000    0.000 
#
# Total GULP energy -297499.063438 kJ/mol
# GULP energy per Si atom -12395.794310 kJ/mol
# Density = 2.196432 g / cm^3
# Si number density = 22.014425 Si / 1000 Ang^3
#
#
#
# Elastic Constant Matrix: (Units=GPa)
#
#
# Indices 1 2 3 4 5 6 
#
# 1 119.8702 29.0298 37.6690 0.0000 -12.7370 0.0000
# 2 29.0298 85.6009 10.1740 0.0000 -4.1373 0.0000
# 3 37.6690 10.1740 102.2739 0.0000 -11.7221 0.0000
# 4 0.0000 0.0000 0.0000 18.7789 0.0000 -0.9119
# 5 -12.7370 -4.1373 -11.7221 0.0000 37.7549 0.0000
# 6 0.0000 0.0000 0.0000 -0.9119 0.0000 27.8329
#
#
#
# Elastic Compliance Matrix: (Units=1/GPa)
#
#
# Indices 1 2 3 4 5 6 
#
# 1 0.010322 -0.003010 -0.003257 0.000000 0.002141 0.000000
# 2 -0.003010 0.012734 -0.000119 0.000000 0.000343 0.000000
# 3 -0.003257 -0.000119 0.011262 0.000000 0.002385 0.000000
# 4 0.000000 0.000000 0.000000 0.053336 0.000000 0.001747
# 5 0.002141 0.000343 0.002385 0.000000 0.027987 0.000000
# 6 0.000000 0.000000 0.000000 0.001747 0.000000 0.035986
#
#
# Mechanical properties :
#
#
# Convention : Reuss Voigt Hill
#
# Bulk Modulus (GPa) = 46.41061 51.27674 48.84367
# Shear Modulus (GPa) = 29.14068 32.26482 30.70275
#
# Velocity S-wave (km/s) = 3.64223 3.83250 3.73857
# Velocity P-wave (km/s) = 6.23020 6.55187 6.39306
#
# Compressibility (1/GPa) = 0.02154680
#
# Stress axis : x y z
#
# Youngs Moduli (GPa) = 96.87720 78.53239 88.79072
#
# Poissons Ratio (x) = 0.23638 0.28919
# Poissons Ratio (y) = 0.29160 0.01054
# Poissons Ratio (z) = 0.31553 0.00933
#
# Static dielectric constant tensor:
#      x y z
#    x 3.874820 0.000000 -0.134040 
#    y 0.000000 4.032500 0.000000 
#    z -0.134040 0.000000 4.050950 
# 
# 
# High freq. dielectric constant tensor:
#      x y z
#    x 1.864220 0.000000 -0.010000 
#    y 0.000000 1.867420 0.000000 
#    z -0.010000 0.000000 1.864950 
# 
# From -- ./inp_files/106273.got.cif
#   From: 2010.06.25/outbox.cif.g09.slc.cpg/sg15_54_cif.got.tgz:106273.got - 2010.06.28 07:06:18.
