data_PCOD8145786
_publ_section_title
;
Structure prediction by ZEFSAII (Michael W. Deem and Ramdas Pophale) SiO2 
 PCOD8145786
Probable space group: C 2/C
;
_chemical_formula_sum "Si O2"
_cell_formula_units_Z 48
_cell_length_a 26.433097
_cell_length_b 8.878057
_cell_length_c 9.971153
_cell_angle_alpha 90.000000
_cell_angle_beta 93.436347
_cell_angle_gamma 90.000000
_cell_volume 2335.768496
_symmetry_space_group_name_H-M "C 2/C"
_symmetry_group_IT_number 15
_symmetry_cell_setting 'monoclinic'
loop_
_space_group_symop_operation_xyz
x,y,z
-x,y,1/2-z
-x,-y,-z
x,-y,1/2+z
1/2+x,1/2+y,z
1/2-x,1/2+y,1/2-z
1/2-x,1/2-y,-z
1/2+x,1/2-y,1/2+z
loop_
_atom_site_type_symbol
_atom_site_label
_atom_site_fract_x
_atom_site_fract_y
_atom_site_fract_z
Si Si1 0.804147 0.194659 0.164873
Si Si2 0.624134 0.431756 0.241806
Si Si3 0.471818 0.102334 0.886761
Si Si4 0.859780 0.400415 0.362792
Si Si5 0.086692 0.139938 0.013528
Si Si6 0.691526 0.800143 0.624907
O O1 0.834165 0.341164 0.221918
O O2 0.746031 0.195264 0.207229
O O3 0.829865 0.041548 0.215563
O O4 0.804673 0.195213 0.004485
O O5 0.592240 0.495871 0.111585
O O6 0.585209 0.415150 0.359972
O O7 0.648820 0.270130 0.214326
O O8 0.500000 0.114803 0.750000
O O9 0.416308 0.033955 0.843187
O O10 0.464501 0.269230 0.952086
O O11 0.500000 0.000000 0.000000
O O12 0.865188 0.255488 0.462685
O O13 0.825143 0.531055 0.419160
#
# Coordination Sequence:
#
# PCOD8145786 Si02
#       6
#     8   8   8   8   8   8
#     4  10  22  40  56  98 130 178 216 271 320 393
#     4  11  20  42  60  94 128 176 207 269 330 388
#     4  10  24  44  70  98 124 166 221 276 326 396
#     4   9  23  39  66  91 128 168 221 272 318 383
#     4   9  23  40  68  89 131 166 214 268 332 384
#     4  11  22  35  66  89 136 175 222 261 328 391
#
# _framework density 20.549982
#
# number of rings (size 3 to 8) (size 9 to 14) (size 15 to 20)
#    1.000    1.000    1.667    1.000    7.000    0.000 
#    0.000    3.333    0.000    0.000    0.000    0.000 
#    0.000    0.000    0.000    0.000    0.000    0.000 
#
# Total GULP energy -297452.391598 kJ/mol
# GULP energy per Si atom -12393.849650 kJ/mol
# Density = 2.050321 g / cm^3
# Si number density = 20.549982 Si / 1000 Ang^3
#
#
#
# Elastic Constant Matrix: (Units=GPa)
#
#
# Indices 1 2 3 4 5 6 
#
# 1 97.7162 27.2250 28.8071 0.0000 -0.6146 0.0000
# 2 27.2250 80.8075 30.7648 0.0000 -3.7377 0.0000
# 3 28.8071 30.7648 101.0579 0.0000 -21.9763 0.0000
# 4 0.0000 0.0000 0.0000 27.4725 0.0000 -2.7886
# 5 -0.6146 -3.7377 -21.9763 0.0000 27.0682 0.0000
# 6 0.0000 0.0000 0.0000 -2.7886 0.0000 35.6144
#
#
#
# Elastic Compliance Matrix: (Units=1/GPa)
#
#
# Indices 1 2 3 4 5 6 
#
# 1 0.011953 -0.002979 -0.003074 0.000000 -0.002635 0.000000
# 2 -0.002979 0.014817 -0.003924 0.000000 -0.001208 0.000000
# 3 -0.003074 -0.003924 0.014370 0.000000 0.011055 0.000000
# 4 0.000000 0.000000 0.000000 0.036692 0.000000 0.002873
# 5 -0.002635 -0.001208 0.011055 0.000000 0.045693 0.000000
# 6 0.000000 0.000000 0.000000 0.002873 0.000000 0.028304
#
#
# Mechanical properties :
#
#
# Convention : Reuss Voigt Hill
#
# Bulk Modulus (GPa) = 47.19858 50.35284 48.77571
# Shear Modulus (GPa) = 27.95738 30.88332 29.42035
#
# Velocity S-wave (km/s) = 3.69244 3.88085 3.78782
# Velocity P-wave (km/s) = 6.41844 6.68111 6.55109
#
# Compressibility (1/GPa) = 0.02118708
#
# Stress axis : x y z
#
# Youngs Moduli (GPa) = 83.65954 67.49080 69.58859
#
# Poissons Ratio (x) = 0.20105 0.21388
# Poissons Ratio (y) = 0.24922 0.27307
# Poissons Ratio (z) = 0.25713 0.26484
#
# Static dielectric constant tensor:
#      x y z
#    x 3.589290 0.000000 0.116230 
#    y 0.000000 3.609970 0.000000 
#    z 0.116230 0.000000 3.516450 
# 
# 
# High freq. dielectric constant tensor:
#      x y z
#    x 1.788720 0.000000 0.005590 
#    y 0.000000 1.802750 0.000000 
#    z 0.005590 0.000000 1.795040 
# 
# From -- ./inp_files/68585.got.cif
#   From: 2010.06.25/outbox.cif.g09.slc.cpg/sg15_35_cif.got.tgz:68585.got - 2010.06.28 07:06:18.
