data_PCOD8145449
_publ_section_title
;
Structure prediction by ZEFSAII (Michael W. Deem and Ramdas Pophale) SiO2 
 PCOD8145449
Probable space group: C 2/C
;
_chemical_formula_sum "Si O2"
_cell_formula_units_Z 56
_cell_length_a 30.368875
_cell_length_b 16.500780
_cell_length_c 8.711002
_cell_angle_alpha 90.000000
_cell_angle_beta 144.872870
_cell_angle_gamma 90.000000
_cell_volume 2511.687213
_symmetry_space_group_name_H-M "C 2/C"
_symmetry_group_IT_number 15
_symmetry_cell_setting 'monoclinic'
loop_
_space_group_symop_operation_xyz
x,y,z
-x,y,1/2-z
-x,-y,-z
x,-y,1/2+z
1/2+x,1/2+y,z
1/2-x,1/2+y,1/2-z
1/2-x,1/2-y,-z
1/2+x,1/2-y,1/2+z
loop_
_atom_site_type_symbol
_atom_site_label
_atom_site_fract_x
_atom_site_fract_y
_atom_site_fract_z
Si Si1 0.567941 0.060849 0.142430
Si Si2 0.500000 0.797905 0.250000
Si Si3 0.766830 0.309327 0.909268
Si Si4 0.396881 0.711560 0.186736
Si Si5 0.500000 0.697015 0.750000
Si Si6 0.668297 0.048926 0.713055
Si Si7 0.122561 0.896318 0.438219
Si Si8 0.337575 0.458515 0.624580
O O1 0.613241 0.085135 0.425064
O O2 0.623960 0.023991 0.172024
O O3 0.536483 0.145108 0.984655
O O4 0.500000 0.000000 0.000000
O O5 0.444514 0.733050 0.172393
O O6 0.820853 0.264066 0.944066
O O7 0.812221 0.386966 0.100412
O O8 0.750000 0.250000 0.000000
O O9 0.688522 0.329687 0.595817
O O10 0.437382 0.742386 0.464829
O O11 0.371388 0.617606 0.125113
O O12 0.459482 0.643591 0.767286
O O13 0.746482 0.024409 0.844856
O O14 0.149744 0.946652 0.661524
O O15 0.115684 0.960463 0.282279
#
# Coordination Sequence:
#
# PCOD8145449 Si02
#       8
#     8   4   8   8   4   8   8   8
#     4  12  24  43  61 100 132 172 215 264 339 399
#     4  12  28  41  63 100 142 170 204 284 338 381
#     4  11  20  42  68  95 127 170 223 272 317 390
#     4  11  25  44  62  96 137 169 216 270 330 391
#     4  10  22  41  67  92 122 176 218 250 330 389
#     4  11  22  39  68  89 128 172 217 269 316 394
#     4  10  22  38  68  95 125 169 220 268 321 385
#     4  10  22  42  63  95 124 171 221 265 319 380
#
# _framework density 22.295770999999998
#
# number of rings (size 3 to 8) (size 9 to 14) (size 15 to 20)
#    0.000    1.143    5.714    2.571    4.000    4.000 
#    0.000    0.714    0.000    0.000    0.000    0.000 
#    0.000    0.000    0.000    0.000    0.000    0.000 
#
# Total GULP energy -346986.804782 kJ/mol
# GULP energy per Si atom -12392.385885 kJ/mol
# Density = 2.224502 g / cm^3
# Si number density = 22.295771 Si / 1000 Ang^3
#
#
#
# Elastic Constant Matrix: (Units=GPa)
#
#
# Indices 1 2 3 4 5 6 
#
# 1 128.7744 36.0291 7.0914 0.0000 30.6866 0.0000
# 2 36.0291 64.7140 -4.4676 0.0000 16.3276 0.0000
# 3 7.0914 -4.4676 54.7535 0.0000 12.8681 0.0000
# 4 0.0000 0.0000 0.0000 24.2550 0.0000 1.0385
# 5 30.6866 16.3276 12.8681 0.0000 30.7727 0.0000
# 6 0.0000 0.0000 0.0000 1.0385 0.0000 47.0962
#
#
#
# Elastic Compliance Matrix: (Units=1/GPa)
#
#
# Indices 1 2 3 4 5 6 
#
# 1 0.010971 -0.003782 0.000410 0.000000 -0.009105 0.000000
# 2 -0.003782 0.020007 0.004137 0.000000 -0.008574 0.000000
# 3 0.000410 0.004137 0.021248 0.000000 -0.011490 0.000000
# 4 0.000000 0.000000 0.000000 0.041268 0.000000 -0.000910
# 5 -0.009105 -0.008574 -0.011490 0.000000 0.050929 0.000000
# 6 0.000000 0.000000 0.000000 -0.000910 0.000000 0.021253
#
#
# Mechanical properties :
#
#
# Convention : Reuss Voigt Hill
#
# Bulk Modulus (GPa) = 18.60222 36.17197 27.38710
# Shear Modulus (GPa) = 27.46267 34.39740 30.93004
#
# Velocity S-wave (km/s) = 3.51343 3.93208 3.72863
# Velocity P-wave (km/s) = 4.98201 6.07239 5.55402
#
# Compressibility (1/GPa) = 0.05375703
#
# Stress axis : x y z
#
# Youngs Moduli (GPa) = 91.15077 49.98168 47.06235
#
# Poissons Ratio (x) = 0.18905 -0.01931
# Poissons Ratio (y) = 0.34477 -0.19472
# Poissons Ratio (z) = -0.03740 -0.20679
#
# Static dielectric constant tensor:
#      x y z
#    x 4.119600 0.000000 0.401250 
#    y 0.000000 3.118610 0.000000 
#    z 0.401250 0.000000 4.198740 
# 
# 
# High freq. dielectric constant tensor:
#      x y z
#    x 1.887570 0.000000 0.022850 
#    y 0.000000 1.866360 0.000000 
#    z 0.022850 0.000000 1.873910 
# 
# From -- ./inp_files/49065.got.cif
#   From: 2010.06.25/outbox.cif.g09.slc.cpg/sg15_25_cif.got.tgz:49065.got - 2010.06.28 07:06:18.
