data_PCOD8145136
_publ_section_title
;
Structure prediction by ZEFSAII (Michael W. Deem and Ramdas Pophale) SiO2 
 PCOD8145136
Probable space group: C 2/C
;
_chemical_formula_sum "Si O2"
_cell_formula_units_Z 56
_cell_length_a 19.227778
_cell_length_b 6.569623
_cell_length_c 25.930908
_cell_angle_alpha 90.000000
_cell_angle_beta 52.481346
_cell_angle_gamma 90.000000
_cell_volume 2598.037370
_symmetry_space_group_name_H-M "C 2/C"
_symmetry_group_IT_number 15
_symmetry_cell_setting 'monoclinic'
loop_
_space_group_symop_operation_xyz
x,y,z
-x,y,1/2-z
-x,-y,-z
x,-y,1/2+z
1/2+x,1/2+y,z
1/2-x,1/2+y,1/2-z
1/2-x,1/2-y,-z
1/2+x,1/2-y,1/2+z
loop_
_atom_site_type_symbol
_atom_site_label
_atom_site_fract_x
_atom_site_fract_y
_atom_site_fract_z
Si Si1 0.229667 0.896132 0.128000
Si Si2 0.030140 0.607937 0.792788
Si Si3 0.172708 0.914801 0.848086
Si Si4 0.522101 0.389423 0.593671
Si Si5 0.177469 0.384762 0.005101
Si Si6 0.287771 0.267902 0.781687
Si Si7 0.593430 0.221156 0.111349
O O1 0.288734 0.709566 0.121211
O O2 0.144381 0.814081 0.137008
O O3 0.196996 0.033170 0.190432
O O4 0.288371 0.034138 0.064390
O O5 0.995617 0.793780 0.842593
O O6 0.135208 0.600946 0.745817
O O7 0.000000 0.662733 0.750000
O O8 0.993160 0.392318 0.828823
O O9 0.067491 0.899958 0.898348
O O10 0.215029 0.829417 0.776560
O O11 0.199048 0.153073 0.839340
O O12 0.591134 0.249019 0.531829
O O13 0.562888 0.610927 0.584172
O O14 0.157963 0.570046 0.052383
O O15 0.250000 0.250000 0.000000
#
# Coordination Sequence:
#
# PCOD8145136 Si02
#       7
#     8   8   8   8   8   8   8
#     4  12  25  42  73  98 133 185 223 273 348 399
#     4  10  22  37  63  98 134 167 224 272 336 401
#     4  11  25  42  66 101 136 179 221 272 334 413
#     4  10  24  43  65  97 137 174 220 286 333 394
#     4  11  25  45  71  98 134 171 233 289 331 401
#     4  11  24  42  66  95 139 175 219 268 333 407
#     4  11  24  42  70 100 132 175 228 285 338 392
#
# _framework density 21.554732999999999
#
# number of rings (size 3 to 8) (size 9 to 14) (size 15 to 20)
#    0.000    1.143    2.857    2.143    6.000    4.571 
#    0.000    1.429    0.000    0.000    0.000    0.000 
#    0.000    0.000    0.000    0.000    0.000    0.000 
#
# Total GULP energy -347337.028651 kJ/mol
# GULP energy per Si atom -12404.893880 kJ/mol
# Density = 2.150567 g / cm^3
# Si number density = 21.554733 Si / 1000 Ang^3
#
#
#
# Elastic Constant Matrix: (Units=GPa)
#
#
# Indices 1 2 3 4 5 6 
#
# 1 102.0433 45.3482 14.8037 -0.0046 -11.9465 -0.0198
# 2 45.3482 103.1043 9.7909 -0.0091 -10.8871 -0.0110
# 3 14.8037 9.7909 50.7655 0.0021 -6.4826 -0.0090
# 4 -0.0046 -0.0091 0.0021 44.8433 -0.0020 -0.4179
# 5 -11.9465 -10.8871 -6.4826 -0.0020 32.5992 -0.0041
# 6 -0.0198 -0.0110 -0.0090 -0.4179 -0.0041 39.4967
#
#
#
# Elastic Compliance Matrix: (Units=1/GPa)
#
#
# Indices 1 2 3 4 5 6 
#
# 1 0.012704 -0.005098 -0.002405 0.000001 0.002475 0.000005
# 2 -0.005098 0.012219 -0.000603 0.000002 0.002093 0.000001
# 3 -0.002405 -0.000603 0.020909 -0.000001 0.003075 0.000004
# 4 0.000001 0.000002 -0.000001 0.022302 0.000002 0.000236
# 5 0.002475 0.002093 0.003075 0.000002 0.032893 0.000006
# 6 0.000005 0.000001 0.000004 0.000236 0.000006 0.025321
#
#
# Mechanical properties :
#
#
# Convention : Reuss Voigt Hill
#
# Bulk Modulus (GPa) = 33.76109 43.97764 38.86936
# Shear Modulus (GPa) = 32.80118 35.78585 34.29351
#
# Velocity S-wave (km/s) = 3.90521 4.07901 3.99306
# Velocity P-wave (km/s) = 6.00260 6.52928 6.27147
#
# Compressibility (1/GPa) = 0.02961990
#
# Stress axis : x y z
#
# Youngs Moduli (GPa) = 78.71592 81.83759 47.82676
#
# Poissons Ratio (x) = 0.41719 0.11504
# Poissons Ratio (y) = 0.40128 0.02883
# Poissons Ratio (z) = 0.18934 0.04934
#
# Static dielectric constant tensor:
#      x y z
#    x 3.785540 -0.000030 -0.136610 
#    y -0.000030 4.011870 -0.000020 
#    z -0.136610 -0.000020 3.878410 
# 
# 
# High freq. dielectric constant tensor:
#      x y z
#    x 1.851480 0.000000 -0.006040 
#    y 0.000000 1.858190 0.000000 
#    z -0.006040 0.000000 1.841790 
# 
# From -- ./inp_files/299879.got.cif
#   From: 2010.06.25/outbox.cif.g09.slc.cpg/sg15_150_cif.got.tgz:299879.got - 2010.06.28 07:06:18.
