data_PCOD8145662
_publ_section_title
;
Structure prediction by ZEFSAII (Michael W. Deem and Ramdas Pophale) SiO2 
 PCOD8145662
Probable space group: C 2/C
;
_chemical_formula_sum "Si O2"
_cell_formula_units_Z 48
_cell_length_a 17.488085
_cell_length_b 13.072580
_cell_length_c 16.402374
_cell_angle_alpha 90.000000
_cell_angle_beta 143.493632
_cell_angle_gamma 90.000000
_cell_volume 2230.812632
_symmetry_space_group_name_H-M "C 2/C"
_symmetry_group_IT_number 15
_symmetry_cell_setting 'monoclinic'
loop_
_space_group_symop_operation_xyz
x,y,z
-x,y,1/2-z
-x,-y,-z
x,-y,1/2+z
1/2+x,1/2+y,z
1/2-x,1/2+y,1/2-z
1/2-x,1/2-y,-z
1/2+x,1/2-y,1/2+z
loop_
_atom_site_type_symbol
_atom_site_label
_atom_site_fract_x
_atom_site_fract_y
_atom_site_fract_z
Si Si1 0.899396 0.547457 0.597439
Si Si2 0.976773 0.253657 0.068561
Si Si3 0.184098 0.349966 0.039397
Si Si4 0.104544 0.148708 0.909162
Si Si5 0.759225 0.187044 0.777439
Si Si6 0.834182 0.935969 0.486371
O O1 0.952358 0.649469 0.603345
O O2 0.893717 0.456839 0.524806
O O3 0.761122 0.572081 0.518602
O O4 0.000000 0.507597 0.750000
O O5 0.945438 0.150285 0.092906
O O6 0.124920 0.251863 0.168791
O O7 0.879650 0.258850 0.907009
O O8 0.258330 0.352730 0.017572
O O9 0.276278 0.345846 0.197821
O O10 0.092942 0.248957 0.956958
O O11 0.000000 0.147993 0.750000
O O12 0.097333 0.047012 0.959232
O O13 0.758390 0.087038 0.836249
#
# Coordination Sequence:
#
# PCOD8145662 Si02
#       6
#     8   8   8   8   8   8
#     4  11  19  39  62  91 123 162 207 251 307 366
#     4  10  22  39  64  92 126 160 201 259 312 371
#     4  10  24  39  61  90 123 163 209 250 305 372
#     4  10  22  42  63  87 122 167 207 253 302 371
#     4  10  23  42  59  98 122 163 202 256 319 361
#     4   9  22  39  62  94 121 161 207 256 308 369
#
# _framework density 21.516822000000001
#
# number of rings (size 3 to 8) (size 9 to 14) (size 15 to 20)
#    1.000    1.000    1.667    1.000    2.333    5.333 
#    0.000    1.667    0.000    0.000    0.000    0.000 
#    0.000    0.000    0.000    0.000    0.000    0.000 
#
# Total GULP energy -297425.511174 kJ/mol
# GULP energy per Si atom -12392.729632 kJ/mol
# Density = 2.146785 g / cm^3
# Si number density = 21.516822 Si / 1000 Ang^3
#
#
#
# Elastic Constant Matrix: (Units=GPa)
#
#
# Indices 1 2 3 4 5 6 
#
# 1 35.0916 16.4351 6.7496 0.0000 -8.3379 0.0000
# 2 16.4351 145.8652 38.3834 0.0000 -7.0827 0.0000
# 3 6.7496 38.3834 130.3397 0.0000 -9.1790 0.0000
# 4 0.0000 0.0000 0.0000 40.6791 0.0000 -9.3233
# 5 -8.3379 -7.0827 -9.1790 0.0000 33.7802 0.0000
# 6 0.0000 0.0000 0.0000 -9.3233 0.0000 6.7936
#
#
#
# Elastic Compliance Matrix: (Units=1/GPa)
#
#
# Indices 1 2 3 4 5 6 
#
# 1 0.031711 -0.003173 -0.000207 0.000000 0.007106 0.000000
# 2 -0.003173 0.007781 -0.002108 0.000000 0.000275 0.000000
# 3 -0.000207 -0.002108 0.008430 0.000000 0.001798 0.000000
# 4 0.000000 0.000000 0.000000 0.035863 0.000000 0.049217
# 5 0.007106 0.000275 0.001798 0.000000 0.031903 0.000000
# 6 0.000000 0.000000 0.000000 0.049217 0.000000 0.214741
#
#
# Mechanical properties :
#
#
# Convention : Reuss Voigt Hill
#
# Bulk Modulus (GPa) = 27.06656 48.27030 37.66843
# Shear Modulus (GPa) = 14.13541 32.89914 23.51728
#
# Velocity S-wave (km/s) = 2.56588 3.91448 3.30960
# Velocity P-wave (km/s) = 4.62438 6.55083 5.67002
#
# Compressibility (1/GPa) = 0.03694596
#
# Stress axis : x y z
#
# Youngs Moduli (GPa) = 31.53454 128.51462 118.61981
#
# Poissons Ratio (x) = 0.40784 0.02458
# Poissons Ratio (y) = 0.10007 0.25002
# Poissons Ratio (z) = 0.00653 0.27088
#
# Static dielectric constant tensor:
#      x y z
#    x 3.713370 0.000000 0.007180 
#    y 0.000000 4.038520 0.000000 
#    z 0.007180 0.000000 3.780180 
# 
# 
# High freq. dielectric constant tensor:
#      x y z
#    x 1.825610 0.000000 -0.000400 
#    y 0.000000 1.846390 0.000000 
#    z -0.000400 0.000000 1.842820 
# 
# From -- ./inp_files/215475.got.cif
#   From: 2010.06.25/outbox.cif.g09.slc.cpg/sg15_108_cif.got.tgz:215475.got - 2010.06.28 07:06:18.
