data_PCOD8145729
_publ_section_title
;
Structure prediction by ZEFSAII (Michael W. Deem and Ramdas Pophale) SiO2 
 PCOD8145729
Probable space group: C 2/C
;
_chemical_formula_sum "Si O2"
_cell_formula_units_Z 56
_cell_length_a 25.749026
_cell_length_b 13.745626
_cell_length_c 14.519832
_cell_angle_alpha 90.000000
_cell_angle_beta 150.348478
_cell_angle_gamma 90.000000
_cell_volume 2542.432884
_symmetry_space_group_name_H-M "C 2/C"
_symmetry_group_IT_number 15
_symmetry_cell_setting 'monoclinic'
loop_
_space_group_symop_operation_xyz
x,y,z
-x,y,1/2-z
-x,-y,-z
x,-y,1/2+z
1/2+x,1/2+y,z
1/2-x,1/2+y,1/2-z
1/2-x,1/2-y,-z
1/2+x,1/2-y,1/2+z
loop_
_atom_site_type_symbol
_atom_site_label
_atom_site_fract_x
_atom_site_fract_y
_atom_site_fract_z
Si Si1 0.439005 0.657961 0.571282
Si Si2 0.227142 0.585241 0.744874
Si Si3 0.619953 0.074762 0.959155
Si Si4 0.781939 0.715576 0.258260
Si Si5 0.179607 0.655258 0.869934
Si Si6 0.993588 0.230245 0.013600
Si Si7 0.465090 0.443595 0.597962
O O1 0.500000 0.707913 0.750000
O O2 0.315134 0.641364 0.410790
O O3 0.454253 0.726335 0.506366
O O4 0.499613 0.556140 0.642301
O O5 0.147618 0.511948 0.572121
O O6 0.213296 0.690954 0.679157
O O7 0.214043 0.592185 0.834795
O O8 0.341766 0.550009 0.897877
O O9 0.500000 0.063638 0.750000
O O10 0.685089 0.078871 0.963517
O O11 0.646079 0.178145 0.046924
O O12 0.869512 0.738637 0.314485
O O13 0.058813 0.689107 0.670396
O O14 0.250000 0.750000 0.000000
O O15 0.010755 0.125413 0.088840
O O16 0.500000 0.399381 0.750000
#
# Coordination Sequence:
#
# PCOD8145729 Si02
#       7
#     8   8   8   8   8   8   8
#     4  11  23  44  66  97 144 181 227 296 360 419
#     4  11  24  43  68 104 142 179 236 300 348 429
#     4  12  25  45  70 104 142 189 241 297 353 425
#     4  11  23  45  69 101 143 182 238 292 351 438
#     4  12  23  42  76 100 137 194 239 295 363 422
#     4  11  23  41  71  99 131 183 241 287 353 425
#     4  10  22  39  67 101 135 174 230 298 355 415
#
# _framework density 22.026146000000001
#
# number of rings (size 3 to 8) (size 9 to 14) (size 15 to 20)
#    0.000    0.857    5.714    1.286    2.000    1.714 
#   10.286    0.000    0.000    0.000    0.000    0.000 
#    0.000    0.000    0.000    0.000    0.000    0.000 
#
# Total GULP energy -346986.976812 kJ/mol
# GULP energy per Si atom -12392.392029 kJ/mol
# Density = 2.197601 g / cm^3
# Si number density = 22.026146 Si / 1000 Ang^3
#
#
#
# Elastic Constant Matrix: (Units=GPa)
#
#
# Indices 1 2 3 4 5 6 
#
# 1 113.1067 25.9772 41.1336 0.0000 -6.2443 0.0000
# 2 25.9772 72.0567 15.2445 0.0000 -13.5205 0.0000
# 3 41.1336 15.2445 114.6565 0.0000 -8.0469 0.0000
# 4 0.0000 0.0000 0.0000 37.1401 0.0000 -8.2303
# 5 -6.2443 -13.5205 -8.0469 0.0000 31.6217 0.0000
# 6 0.0000 0.0000 0.0000 -8.2303 0.0000 23.6303
#
#
#
# Elastic Compliance Matrix: (Units=1/GPa)
#
#
# Indices 1 2 3 4 5 6 
#
# 1 0.010829 -0.003191 -0.003468 0.000000 -0.000108 0.000000
# 2 -0.003191 0.016316 -0.000590 0.000000 0.006196 0.000000
# 3 -0.003468 -0.000590 0.010160 0.000000 0.001648 0.000000
# 4 0.000000 0.000000 0.000000 0.029177 0.000000 0.010162
# 5 -0.000108 0.006196 0.001648 0.000000 0.034671 0.000000
# 6 0.000000 0.000000 0.000000 0.010162 0.000000 0.045858
#
#
# Mechanical properties :
#
#
# Convention : Reuss Voigt Hill
#
# Bulk Modulus (GPa) = 43.84562 51.61450 47.73006
# Shear Modulus (GPa) = 29.56628 32.97606 31.27117
#
# Velocity S-wave (km/s) = 3.66775 3.87348 3.77202
# Velocity P-wave (km/s) = 6.15515 6.59464 6.37868
#
# Compressibility (1/GPa) = 0.02280730
#
# Stress axis : x y z
#
# Youngs Moduli (GPa) = 92.34111 61.29112 98.42377
#
# Poissons Ratio (x) = 0.19556 0.34138
# Poissons Ratio (y) = 0.29463 0.05805
# Poissons Ratio (z) = 0.32028 0.03615
#
# Static dielectric constant tensor:
#      x y z
#    x 3.905040 0.000000 -0.027880 
#    y 0.000000 4.131910 0.000000 
#    z -0.027880 0.000000 3.984550 
# 
# 
# High freq. dielectric constant tensor:
#      x y z
#    x 1.860370 0.000000 0.008100 
#    y 0.000000 1.857430 0.000000 
#    z 0.008100 0.000000 1.870150 
# 
# From -- ./inp_files/178424.got.cif
#   From: 2010.06.25/outbox.cif.g09.slc.cpg/sg15_90_cif.got.tgz:178424.got - 2010.06.28 07:06:18.
