data_PCOD8145467
_publ_section_title
;
Structure prediction by ZEFSAII (Michael W. Deem and Ramdas Pophale) SiO2 
 PCOD8145467
Probable space group: C 2/C
;
_chemical_formula_sum "Si O2"
_cell_formula_units_Z 44
_cell_length_a 8.411955
_cell_length_b 17.682677
_cell_length_c 18.604917
_cell_angle_alpha 90.000000
_cell_angle_beta 49.825137
_cell_angle_gamma 90.000000
_cell_volume 2114.516267
_symmetry_space_group_name_H-M "C 2/C"
_symmetry_group_IT_number 15
_symmetry_cell_setting 'monoclinic'
loop_
_space_group_symop_operation_xyz
x,y,z
-x,y,1/2-z
-x,-y,-z
x,-y,1/2+z
1/2+x,1/2+y,z
1/2-x,1/2+y,1/2-z
1/2-x,1/2-y,-z
1/2+x,1/2-y,1/2+z
loop_
_atom_site_type_symbol
_atom_site_label
_atom_site_fract_x
_atom_site_fract_y
_atom_site_fract_z
Si Si1 0.181205 0.086178 0.379904
Si Si2 0.755144 0.483189 0.484655
Si Si3 0.100007 0.287240 0.601932
Si Si4 0.500000 0.325538 0.250000
Si Si5 0.198921 0.553721 0.887689
Si Si6 0.226028 0.893662 0.702307
O O1 0.244490 0.167121 0.392012
O O2 0.260136 0.084547 0.275547
O O3 0.933806 0.075515 0.457396
O O4 0.285716 0.018942 0.396484
O O5 0.732265 0.553874 0.547936
O O6 0.953795 0.434081 0.449354
O O7 0.250000 0.250000 0.500000
O O8 0.982942 0.223798 0.683090
O O9 0.914910 0.338791 0.622300
O O10 0.700228 0.379451 0.187147
O O11 0.267722 0.471079 0.842575
O O12 0.000000 0.856137 0.750000
#
# Coordination Sequence:
#
# PCOD8145467 Si02
#       6
#     8   8   8   4   8   8
#     4  11  21  42  67 101 133 181 231 280 342 416
#     4  10  22  38  71 103 134 176 233 286 336 401
#     4  12  27  46  67  96 145 183 226 286 359 411
#     4  12  24  42  68 102 136 180 224 282 348 406
#     4  11  22  41  68 104 139 173 233 289 335 412
#     4  12  23  45  72  98 136 189 237 279 349 421
#
# _framework density 20.808541999999999
#
# number of rings (size 3 to 8) (size 9 to 14) (size 15 to 20)
#    0.000    0.727    6.364    1.091    2.545    1.455 
#    3.273    1.818    0.000    0.000    0.000    0.000 
#    0.000    0.000    0.000    0.000    0.000    0.000 
#
# Total GULP energy -272777.405400 kJ/mol
# GULP energy per Si atom -12398.972973 kJ/mol
# Density = 2.076118 g / cm^3
# Si number density = 20.808542 Si / 1000 Ang^3
#
#
#
# Elastic Constant Matrix: (Units=GPa)
#
#
# Indices 1 2 3 4 5 6 
#
# 1 122.8706 34.4736 35.8420 0.0000 -8.7859 0.0003
# 2 34.4736 85.9011 28.6790 0.0000 -15.0100 0.0001
# 3 35.8420 28.6790 96.5338 -0.0001 -0.9536 0.0001
# 4 0.0000 0.0000 -0.0001 44.9827 0.0000 -9.7141
# 5 -8.7859 -15.0100 -0.9536 0.0000 33.9862 -0.0001
# 6 0.0003 0.0001 0.0001 -9.7141 -0.0001 25.6059
#
#
#
# Elastic Compliance Matrix: (Units=1/GPa)
#
#
# Indices 1 2 3 4 5 6 
#
# 1 0.009829 -0.002792 -0.002808 0.000000 0.001229 0.000000
# 2 -0.002792 0.014878 -0.003326 0.000000 0.005756 0.000000
# 3 -0.002808 -0.003326 0.012372 0.000000 -0.001848 0.000000
# 4 0.000000 0.000000 0.000000 0.024215 0.000000 0.009186
# 5 0.001229 0.005756 -0.001848 0.000000 0.032232 0.000000
# 6 0.000000 0.000000 0.000000 0.009186 0.000000 0.042538
#
#
# Mechanical properties :
#
#
# Convention : Reuss Voigt Hill
#
# Bulk Modulus (GPa) = 52.01398 55.92162 53.96780
# Shear Modulus (GPa) = 31.18665 34.66903 32.92784
#
# Velocity S-wave (km/s) = 3.87556 4.08621 3.98228
# Velocity P-wave (km/s) = 6.71397 7.01395 6.86560
#
# Compressibility (1/GPa) = 0.01922560
#
# Stress axis : x y z
#
# Youngs Moduli (GPa) = 101.73978 67.21215 80.83077
#
# Poissons Ratio (x) = 0.18769 0.22695
# Poissons Ratio (y) = 0.28410 0.26888
# Poissons Ratio (z) = 0.28565 0.22358
#
# Static dielectric constant tensor:
#      x y z
#    x 4.119440 0.000000 -0.025210 
#    y 0.000000 3.692050 0.000000 
#    z -0.025210 0.000000 4.167270 
# 
# 
# High freq. dielectric constant tensor:
#      x y z
#    x 1.819360 0.000000 -0.002650 
#    y 0.000000 1.791200 0.000000 
#    z -0.002650 0.000000 1.836160 
# 
# From -- ./inp_files/136266.got.cif
#   From: 2010.06.25/outbox.cif.g09.slc.cpg/sg15_69_cif.got.tgz:136266.got - 2010.06.28 07:06:18.
