data_PCOD8145768
_publ_section_title
;
Structure prediction by ZEFSAII (Michael W. Deem and Ramdas Pophale) SiO2 
 PCOD8145768
Probable space group: C 2/C
;
_chemical_formula_sum "Si O2"
_cell_formula_units_Z 64
_cell_length_a 18.749732
_cell_length_b 13.723916
_cell_length_c 18.128275
_cell_angle_alpha 90.000000
_cell_angle_beta 39.864737
_cell_angle_gamma 90.000000
_cell_volume 2990.007533
_symmetry_space_group_name_H-M "C 2/C"
_symmetry_group_IT_number 15
_symmetry_cell_setting 'monoclinic'
loop_
_space_group_symop_operation_xyz
x,y,z
-x,y,1/2-z
-x,-y,-z
x,-y,1/2+z
1/2+x,1/2+y,z
1/2-x,1/2+y,1/2-z
1/2-x,1/2-y,-z
1/2+x,1/2-y,1/2+z
loop_
_atom_site_type_symbol
_atom_site_label
_atom_site_fract_x
_atom_site_fract_y
_atom_site_fract_z
Si Si1 0.801194 0.958865 0.361654
Si Si2 0.185437 0.666101 0.249351
Si Si3 0.935730 0.075036 0.495156
Si Si4 0.722856 0.186284 0.719472
Si Si5 0.416658 0.660694 0.249085
Si Si6 0.626221 0.018585 0.880800
Si Si7 0.979738 0.799264 0.184021
Si Si8 0.187762 0.910895 0.984855
O O1 0.691169 0.946039 0.401109
O O2 0.899386 0.893466 0.250012
O O3 0.764773 0.920554 0.470662
O O4 0.843856 0.069040 0.332352
O O5 0.271666 0.744657 0.212841
O O6 0.181726 0.581827 0.312208
O O7 0.065510 0.714157 0.332020
O O8 0.217220 0.625575 0.144377
O O9 0.849780 0.149210 0.603508
O O10 0.021989 0.137135 0.377474
O O11 0.858916 0.015135 0.500891
O O12 0.000000 0.000000 0.500000
O O13 0.666038 0.246866 0.697660
O O14 0.640701 0.096897 0.803775
O O15 0.500000 0.687403 0.250000
O O16 0.500000 0.000000 0.000000
O O17 0.000000 0.759469 0.250000
O O18 0.092611 0.830037 0.055587
#
# Coordination Sequence:
#
# PCOD8145768 Si02
#       8
#     8   8   8   8   8   8   8   8
#     4  11  21  47  70 101 141 176 232 297 340 414
#     4  12  25  43  68 100 140 180 236 284 343 422
#     4  12  23  44  74 100 137 192 236 287 344 415
#     4  12  27  45  68 105 140 183 246 283 342 433
#     4  12  24  44  75 107 142 181 235 295 350 411
#     4  12  28  47  65  99 143 185 222 293 365 409
#     4  10  22  39  70 102 132 176 234 285 344 406
#     4  11  23  42  73 102 134 184 234 291 349 403
#
# _framework density 21.404627999999999
#
# number of rings (size 3 to 8) (size 9 to 14) (size 15 to 20)
#    0.000    0.500    6.250    2.625    3.500    3.500 
#    2.250    0.625    0.000    0.000    0.000    0.000 
#    0.000    0.000    0.000    0.000    0.000    0.000 
#
# Total GULP energy -396822.423062 kJ/mol
# GULP energy per Si atom -12400.700721 kJ/mol
# Density = 2.135591 g / cm^3
# Si number density = 21.404628 Si / 1000 Ang^3
#
#
#
# Elastic Constant Matrix: (Units=GPa)
#
#
# Indices 1 2 3 4 5 6 
#
# 1 131.0887 35.4556 27.7845 0.0000 -0.2638 0.0000
# 2 35.4556 84.1658 22.1202 0.0000 2.3896 0.0000
# 3 27.7845 22.1202 106.9330 0.0000 6.6616 0.0000
# 4 0.0000 0.0000 0.0000 25.8065 0.0000 -9.3530
# 5 -0.2638 2.3896 6.6616 0.0000 24.1737 0.0000
# 6 0.0000 0.0000 0.0000 -9.3530 0.0000 34.5893
#
#
#
# Elastic Compliance Matrix: (Units=1/GPa)
#
#
# Indices 1 2 3 4 5 6 
#
# 1 0.008885 -0.003328 -0.001676 0.000000 0.000888 0.000000
# 2 -0.003328 0.013818 -0.001940 0.000000 -0.000868 0.000000
# 3 -0.001676 -0.001940 0.010355 0.000000 -0.002680 0.000000
# 4 0.000000 0.000000 0.000000 0.042960 0.000000 0.011616
# 5 0.000888 -0.000868 -0.002680 0.000000 0.042201 0.000000
# 6 0.000000 0.000000 0.000000 0.011616 0.000000 0.032052
#
#
# Mechanical properties :
#
#
# Convention : Reuss Voigt Hill
#
# Bulk Modulus (GPa) = 52.15908 54.76758 53.46333
# Shear Modulus (GPa) = 29.31722 32.70239 31.00981
#
# Velocity S-wave (km/s) = 3.70492 3.91297 3.81037
# Velocity P-wave (km/s) = 6.53628 6.78657 6.66260
#
# Compressibility (1/GPa) = 0.01917212
#
# Stress axis : x y z
#
# Youngs Moduli (GPa) = 112.54351 72.37144 96.56975
#
# Poissons Ratio (x) = 0.24085 0.16181
# Poissons Ratio (y) = 0.37453 0.18730
# Poissons Ratio (z) = 0.18858 0.14037
#
# Static dielectric constant tensor:
#      x y z
#    x 3.980770 0.000000 -0.003080 
#    y 0.000000 4.100390 0.000000 
#    z -0.003080 0.000000 3.885580 
# 
# 
# High freq. dielectric constant tensor:
#      x y z
#    x 1.847930 0.000000 0.006160 
#    y 0.000000 1.845370 0.000000 
#    z 0.006160 0.000000 1.829090 
# 
# From -- ./inp_files/211360.got.cif
#   From: 2010.06.25/outbox.cif.g09.slc.cpg/sg15_106_cif.got.tgz:211360.got - 2010.06.28 07:06:18.
