data_PCOD8145507
_publ_section_title
;
Structure prediction by ZEFSAII (Michael W. Deem and Ramdas Pophale) SiO2 
 PCOD8145507
Probable space group: C 2/C
;
_chemical_formula_sum "Si O2"
_cell_formula_units_Z 64
_cell_length_a 17.505311
_cell_length_b 13.107677
_cell_length_c 14.927948
_cell_angle_alpha 90.000000
_cell_angle_beta 63.864545
_cell_angle_gamma 90.000000
_cell_volume 3075.059961
_symmetry_space_group_name_H-M "C 2/C"
_symmetry_group_IT_number 15
_symmetry_cell_setting 'monoclinic'
loop_
_space_group_symop_operation_xyz
x,y,z
-x,y,1/2-z
-x,-y,-z
x,-y,1/2+z
1/2+x,1/2+y,z
1/2-x,1/2+y,1/2-z
1/2-x,1/2-y,-z
1/2+x,1/2-y,1/2+z
loop_
_atom_site_type_symbol
_atom_site_label
_atom_site_fract_x
_atom_site_fract_y
_atom_site_fract_z
Si Si1 0.375608 0.699321 0.678910
Si Si2 0.874052 0.788085 0.642555
Si Si3 0.450598 0.401528 0.436377
Si Si4 0.267787 0.456255 0.495386
Si Si5 0.681588 0.323171 0.492027
Si Si6 0.701896 0.108519 0.212266
Si Si7 0.215141 0.419675 0.328020
Si Si8 0.015967 0.890446 0.647965
O O1 0.471038 0.659485 0.648579
O O2 0.352325 0.714051 0.586549
O O3 0.371709 0.809611 0.729037
O O4 0.308493 0.619920 0.754941
O O5 0.928977 0.843364 0.537765
O O6 0.788700 0.848370 0.709870
O O7 0.855225 0.669876 0.635350
O O8 0.939832 0.806850 0.688518
O O9 0.360408 0.403782 0.428371
O O10 0.480771 0.520728 0.430720
O O11 0.277327 0.565387 0.537594
O O12 0.212739 0.395585 0.598579
O O13 0.217312 0.463471 0.428060
O O14 0.750000 0.250000 0.500000
O O15 0.602892 0.326684 0.600888
O O16 0.682465 0.002800 0.273252
O O17 0.000000 0.949419 0.750000
#
# Coordination Sequence:
#
# PCOD8145507 Si02
#       8
#     8   8   8   8   8   8   8   8
#     4  11  22  37  64  91 124 167 207 260 314 367
#     4  10  22  40  62  86 129 164 201 256 316 372
#     4  10  22  39  59  91 124 157 205 259 315 360
#     4  10  23  40  62  92 130 163 206 265 308 376
#     4  11  23  39  64  95 126 162 213 259 313 372
#     4  10  22  39  63  89 127 167 214 251 308 377
#     4  11  23  40  63  94 124 168 210 250 318 371
#     4  11  24  36  62  97 125 161 207 264 316 366
#
# _framework density 20.812601999999998
#
# number of rings (size 3 to 8) (size 9 to 14) (size 15 to 20)
#    0.000    1.500    2.500    1.875   12.250    4.500 
#    0.000    0.625    0.000    0.000    6.500    0.000 
#    0.000    0.000    0.000    0.000    0.000    0.000 
#
# Total GULP energy -396517.016693 kJ/mol
# GULP energy per Si atom -12391.156772 kJ/mol
# Density = 2.076523 g / cm^3
# Si number density = 20.812602 Si / 1000 Ang^3
#
#
#
# Elastic Constant Matrix: (Units=GPa)
#
#
# Indices 1 2 3 4 5 6 
#
# 1 67.2789 38.8566 39.8050 0.0000 -10.0883 0.0000
# 2 38.8566 97.2421 44.5743 0.0000 -15.8490 0.0000
# 3 39.8050 44.5743 108.1039 0.0000 -4.6885 0.0000
# 4 0.0000 0.0000 0.0000 33.3606 0.0000 -5.9086
# 5 -10.0883 -15.8490 -4.6885 0.0000 30.2380 0.0000
# 6 0.0000 0.0000 0.0000 -5.9086 0.0000 35.7795
#
#
#
# Elastic Compliance Matrix: (Units=1/GPa)
#
#
# Indices 1 2 3 4 5 6 
#
# 1 0.021962 -0.005632 -0.005613 0.000000 0.003505 0.000000
# 2 -0.005632 0.015253 -0.003977 0.000000 0.005499 0.000000
# 3 -0.005613 -0.003977 0.012872 0.000000 -0.001961 0.000000
# 4 0.000000 0.000000 0.000000 0.030879 0.000000 0.005099
# 5 0.003505 0.005499 -0.001961 0.000000 0.036819 0.000000
# 6 0.000000 0.000000 0.000000 0.005099 0.000000 0.028791
#
#
# Mechanical properties :
#
#
# Convention : Reuss Voigt Hill
#
# Bulk Modulus (GPa) = 50.90526 57.67741 54.29134
# Shear Modulus (GPa) = 27.23796 29.83490 28.53643
#
# Velocity S-wave (km/s) = 3.62155 3.79027 3.70687
# Velocity P-wave (km/s) = 6.48070 6.85038 6.66811
#
# Compressibility (1/GPa) = 0.01964433
#
# Stress axis : x y z
#
# Youngs Moduli (GPa) = 45.53248 65.55904 77.68905
#
# Poissons Ratio (x) = 0.36922 0.43604
# Poissons Ratio (y) = 0.25643 0.30899
# Poissons Ratio (z) = 0.25555 0.26074
#
# Static dielectric constant tensor:
#      x y z
#    x 3.749160 0.000000 -0.040350 
#    y 0.000000 3.772050 0.000000 
#    z -0.040350 0.000000 3.908610 
# 
# 
# High freq. dielectric constant tensor:
#      x y z
#    x 1.794620 0.000000 0.001240 
#    y 0.000000 1.804460 0.000000 
#    z 0.001240 0.000000 1.825170 
# 
# From -- ./inp_files/162252.got.cif
#   From: 2010.06.25/outbox.cif.g09.slc.cpg/sg15_82_cif.got.tgz:162252.got - 2010.06.28 07:06:18.
