data_PCOD8145890
_publ_section_title
;
Structure prediction by ZEFSAII (Michael W. Deem and Ramdas Pophale) SiO2 
 PCOD8145890
Probable space group: C 2/C
;
_chemical_formula_sum "Si O2"
_cell_formula_units_Z 64
_cell_length_a 30.004594
_cell_length_b 13.309864
_cell_length_c 21.265867
_cell_angle_alpha 90.000000
_cell_angle_beta 159.040796
_cell_angle_gamma 90.000000
_cell_volume 3037.856129
_symmetry_space_group_name_H-M "C 2/C"
_symmetry_group_IT_number 15
_symmetry_cell_setting 'monoclinic'
loop_
_space_group_symop_operation_xyz
x,y,z
-x,y,1/2-z
-x,-y,-z
x,-y,1/2+z
1/2+x,1/2+y,z
1/2-x,1/2+y,1/2-z
1/2-x,1/2-y,-z
1/2+x,1/2-y,1/2+z
loop_
_atom_site_type_symbol
_atom_site_label
_atom_site_fract_x
_atom_site_fract_y
_atom_site_fract_z
Si Si1 0.300810 0.448981 0.154086
Si Si2 0.076583 0.717655 0.016269
Si Si3 0.442052 0.618600 0.270677
Si Si4 0.604098 0.002146 0.000490
Si Si5 0.812651 0.333729 0.301104
Si Si6 0.690706 0.583956 0.527167
Si Si7 0.334502 0.083026 0.149611
Si Si8 0.940649 0.245795 0.868033
O O1 0.384077 0.545380 0.246833
O O2 0.188514 0.478721 0.051626
O O3 0.390520 0.367279 0.305624
O O4 0.244619 0.400022 0.017393
O O5 0.963391 0.773398 0.831132
O O6 0.114877 0.619925 0.028145
O O7 0.186089 0.798390 0.165193
O O8 0.051426 0.693107 0.055611
O O9 0.568733 0.568156 0.410224
O O10 0.346132 0.637964 0.086827
O O11 0.650766 0.941985 0.122759
O O12 0.460666 0.975563 0.797627
O O13 0.791783 0.348027 0.198063
O O14 0.912509 0.249251 0.454893
O O15 0.753034 0.477273 0.593458
O O16 0.360215 0.192336 0.211974
#
# Coordination Sequence:
#
# PCOD8145890 Si02
#       8
#     8   8   8   8   8   8   8   8
#     4  11  23  43  63  95 131 163 208 270 314 370
#     4  11  23  40  63  96 124 169 208 255 322 374
#     4   9  22  40  64  92 125 166 212 260 316 370
#     4  11  23  42  63  92 129 164 208 264 317 378
#     4  10  22  40  62  91 124 163 208 261 308 374
#     4   9  18  42  63  87 127 162 215 258 306 374
#     4  10  22  42  65  92 124 169 211 259 314 374
#     4  11  23  39  65  92 125 166 216 250 315 379
#
# _framework density 21.067489999999999
#
# number of rings (size 3 to 8) (size 9 to 14) (size 15 to 20)
#    0.000    1.750    1.250    2.250    1.750    5.500 
#    9.000    1.875    0.000    0.000    0.000    0.000 
#    0.000    0.000    0.000    0.000    0.000    0.000 
#
# Total GULP energy -396739.151136 kJ/mol
# GULP energy per Si atom -12398.098473 kJ/mol
# Density = 2.101954 g / cm^3
# Si number density = 21.067490 Si / 1000 Ang^3
#
#
#
# Elastic Constant Matrix: (Units=GPa)
#
#
# Indices 1 2 3 4 5 6 
#
# 1 92.9495 31.8614 20.9155 0.0000 1.5687 0.0000
# 2 31.8614 96.6934 41.9280 0.0000 -4.4743 0.0000
# 3 20.9155 41.9280 92.3367 0.0000 -8.4163 0.0000
# 4 0.0000 0.0000 0.0000 25.8024 0.0000 -0.3178
# 5 1.5687 -4.4743 -8.4163 0.0000 22.3932 0.0000
# 6 0.0000 0.0000 0.0000 -0.3178 0.0000 29.1738
#
#
#
# Elastic Compliance Matrix: (Units=1/GPa)
#
#
# Indices 1 2 3 4 5 6 
#
# 1 0.012323 -0.003566 -0.001362 0.000000 -0.002088 0.000000
# 2 -0.003566 0.013913 -0.005419 0.000000 0.000993 0.000000
# 3 -0.001362 -0.005419 0.013988 0.000000 0.004270 0.000000
# 4 0.000000 0.000000 0.000000 0.038761 0.000000 0.000422
# 5 -0.002088 0.000993 0.004270 0.000000 0.046606 0.000000
# 6 0.000000 0.000000 0.000000 0.000422 0.000000 0.034282
#
#
# Mechanical properties :
#
#
# Convention : Reuss Voigt Hill
#
# Bulk Modulus (GPa) = 51.20693 52.37659 51.79176
# Shear Modulus (GPa) = 26.72677 27.95887 27.34282
#
# Velocity S-wave (km/s) = 3.56564 3.64690 3.60650
# Velocity P-wave (km/s) = 6.42734 6.53058 6.47916
#
# Compressibility (1/GPa) = 0.01952861
#
# Stress axis : x y z
#
# Youngs Moduli (GPa) = 81.15051 71.87543 71.48768
#
# Poissons Ratio (x) = 0.25634 0.09738
# Poissons Ratio (y) = 0.28942 0.38741
# Poissons Ratio (z) = 0.11054 0.38951
#
# Static dielectric constant tensor:
#      x y z
#    x 3.825640 0.000000 -0.022140 
#    y 0.000000 3.537130 0.000000 
#    z -0.022140 0.000000 4.041010 
# 
# 
# High freq. dielectric constant tensor:
#      x y z
#    x 1.829710 0.000000 -0.002140 
#    y 0.000000 1.807610 0.000000 
#    z -0.002140 0.000000 1.844490 
# 
# From -- ./inp_files/259459.got.cif
#   From: 2010.06.25/outbox.cif.g09.slc.cpg/sg15_130_cif.got.tgz:259459.got - 2010.06.28 07:06:18.
