data_PCOD8145051
_publ_section_title
;
Structure prediction by ZEFSAII (Michael W. Deem and Ramdas Pophale) SiO2 
 PCOD8145051
Probable space group: C 2/C
;
_chemical_formula_sum "Si O2"
_cell_formula_units_Z 60
_cell_length_a 27.227850
_cell_length_b 17.606837
_cell_length_c 12.576479
_cell_angle_alpha 90.000000
_cell_angle_beta 27.307894
_cell_angle_gamma 90.000000
_cell_volume 2765.990273
_symmetry_space_group_name_H-M "C 2/C"
_symmetry_group_IT_number 15
_symmetry_cell_setting 'monoclinic'
loop_
_space_group_symop_operation_xyz
x,y,z
-x,y,1/2-z
-x,-y,-z
x,-y,1/2+z
1/2+x,1/2+y,z
1/2-x,1/2+y,1/2-z
1/2-x,1/2-y,-z
1/2+x,1/2-y,1/2+z
loop_
_atom_site_type_symbol
_atom_site_label
_atom_site_fract_x
_atom_site_fract_y
_atom_site_fract_z
Si Si1 0.614677 0.202947 0.072831
Si Si2 0.409431 0.899116 0.686459
Si Si3 0.757578 0.032705 0.269467
Si Si4 0.297675 0.355844 0.514051
Si Si5 0.500000 0.620422 0.250000
Si Si6 0.270389 0.625307 0.622305
Si Si7 0.139658 0.428983 0.184245
Si Si8 0.595805 0.543042 0.865953
O O1 0.500000 0.227653 0.250000
O O2 0.604776 0.128147 0.164703
O O3 0.659469 0.271476 0.056980
O O4 0.695340 0.188021 0.820944
O O5 0.329328 0.852771 0.763563
O O6 0.529745 0.883091 0.416670
O O7 0.375965 0.986488 0.739241
O O8 0.818934 0.094212 0.078950
O O9 0.652830 0.069329 0.528791
O O10 0.744750 0.955481 0.228446
O O11 0.815515 0.018334 0.272618
O O12 0.358440 0.391316 0.296140
O O13 0.394452 0.657875 0.394810
O O14 0.441281 0.571959 0.449833
O O15 0.234672 0.614060 0.568158
O O16 0.500000 0.500000 0.000000
#
# Coordination Sequence:
#
# PCOD8145051 Si02
#       8
#     8   8   8   8   4   8   8   8
#     4  12  26  46  70 100 142 190 226 282 357 428
#     4  11  22  41  67 102 133 182 223 293 341 412
#     4  11  21  39  65 103 134 175 226 289 334 403
#     4  12  26  43  66 102 140 181 237 277 350 422
#     4  10  22  36  68  98 126 182 220 278 348 392
#     4  11  21  44  67 100 139 177 232 282 346 418
#     4  11  21  38  70 103 136 169 238 288 345 395
#     4  11  21  39  63  95 135 177 228 286 328 405
#
# _framework density 21.692049999999998
#
# number of rings (size 3 to 8) (size 9 to 14) (size 15 to 20)
#    0.000    0.800    5.333    3.600    1.867    0.533 
#    0.000    3.333    0.000    0.000    0.000    0.000 
#    0.000    0.000    0.000    0.000    0.000    0.000 
#
# Total GULP energy -371694.361143 kJ/mol
# GULP energy per Si atom -12389.812038 kJ/mol
# Density = 2.164268 g / cm^3
# Si number density = 21.692050 Si / 1000 Ang^3
#
#
#
# Elastic Constant Matrix: (Units=GPa)
#
#
# Indices 1 2 3 4 5 6 
#
# 1 95.5099 28.2730 37.2985 0.0000 -14.6140 0.0000
# 2 28.2730 58.5860 28.3300 0.0000 -2.2238 0.0000
# 3 37.2985 28.3300 119.1597 0.0000 -0.7370 0.0000
# 4 0.0000 0.0000 0.0000 15.7434 0.0000 2.2185
# 5 -14.6140 -2.2238 -0.7370 0.0000 53.2930 0.0000
# 6 0.0000 0.0000 0.0000 2.2185 0.0000 27.4116
#
#
#
# Elastic Compliance Matrix: (Units=1/GPa)
#
#
# Indices 1 2 3 4 5 6 
#
# 1 0.013682 -0.004982 -0.003077 0.000000 0.003501 0.000000
# 2 -0.004982 0.021130 -0.003467 0.000000 -0.000532 0.000000
# 3 -0.003077 -0.003467 0.010174 0.000000 -0.000848 0.000000
# 4 0.000000 0.000000 0.000000 0.064252 0.000000 -0.005200
# 5 0.003501 -0.000532 -0.000848 0.000000 0.019690 0.000000
# 6 0.000000 0.000000 0.000000 -0.005200 0.000000 0.036902
#
#
# Mechanical properties :
#
#
# Convention : Reuss Voigt Hill
#
# Bulk Modulus (GPa) = 45.59155 51.22873 48.41014
# Shear Modulus (GPa) = 25.48505 31.24655 28.36580
#
# Velocity S-wave (km/s) = 3.43134 3.79946 3.62008
# Velocity P-wave (km/s) = 6.06317 6.55099 6.31179
#
# Compressibility (1/GPa) = 0.02193389
#
# Stress axis : x y z
#
# Youngs Moduli (GPa) = 73.08783 47.32658 98.28790
#
# Poissons Ratio (x) = 0.23579 0.30238
# Poissons Ratio (y) = 0.36414 0.34080
# Poissons Ratio (z) = 0.22486 0.16410
#
# Static dielectric constant tensor:
#      x y z
#    x 4.012120 0.000000 -0.288720 
#    y 0.000000 3.366350 0.000000 
#    z -0.288720 0.000000 4.291710 
# 
# 
# High freq. dielectric constant tensor:
#      x y z
#    x 1.866000 0.000000 -0.001890 
#    y 0.000000 1.808300 0.000000 
#    z -0.001890 0.000000 1.868490 
# 
# From -- ./inp_files/123987.got.cif
#   From: 2010.06.25/outbox.cif.g09.slc.cpg/sg15_62_cif.got.tgz:123987.got - 2010.06.28 07:06:18.
