data_PCOD8145838
_publ_section_title
;
Structure prediction by ZEFSAII (Michael W. Deem and Ramdas Pophale) SiO2 
 PCOD8145838
Probable space group: C 2/C
;
_chemical_formula_sum "Si O2"
_cell_formula_units_Z 48
_cell_length_a 21.118360
_cell_length_b 19.392232
_cell_length_c 5.202441
_cell_angle_alpha 90.000000
_cell_angle_beta 67.846739
_cell_angle_gamma 90.000000
_cell_volume 1973.285143
_symmetry_space_group_name_H-M "C 2/C"
_symmetry_group_IT_number 15
_symmetry_cell_setting 'monoclinic'
loop_
_space_group_symop_operation_xyz
x,y,z
-x,y,1/2-z
-x,-y,-z
x,-y,1/2+z
1/2+x,1/2+y,z
1/2-x,1/2+y,1/2-z
1/2-x,1/2-y,-z
1/2+x,1/2-y,1/2+z
loop_
_atom_site_type_symbol
_atom_site_label
_atom_site_fract_x
_atom_site_fract_y
_atom_site_fract_z
Si Si1 0.901349 0.732139 0.518147
Si Si2 0.541669 0.088649 0.943707
Si Si3 0.075991 0.029456 0.921917
Si Si4 0.241777 0.314656 0.194196
Si Si5 0.390993 0.683982 0.559167
Si Si6 0.693716 0.041054 0.659093
O O1 0.950398 0.669830 0.514505
O O2 0.827580 0.700281 0.541351
O O3 0.928797 0.771037 0.221328
O O4 0.898559 0.783827 0.764707
O O5 0.500000 0.078718 0.750000
O O6 0.612414 0.049787 0.793715
O O7 0.500000 0.056095 0.250000
O O8 0.073445 0.109934 0.991034
O O9 0.114395 0.011436 0.595513
O O10 0.000000 0.000000 0.000000
O O11 0.310401 0.322462 0.259291
O O12 0.231102 0.385927 0.055202
O O13 0.250000 0.250000 0.000000
O O14 0.717165 0.991597 0.392938
#
# Coordination Sequence:
#
# PCOD8145838 Si02
#       6
#     8   8   8   8   8   8
#     4  10  22  40  60  97 121 156 218 267 323 388
#     4  11  23  42  62  91 132 168 210 268 319 390
#     4  10  22  41  56  81 121 163 207 261 307 376
#     4   9  22  42  69  95 134 168 213 276 334 392
#     4  11  21  39  65  89 119 171 209 262 335 384
#     4  11  25  42  65  99 133 172 221 271 323 393
#
# _framework density 24.324916999999999
#
# number of rings (size 3 to 8) (size 9 to 14) (size 15 to 20)
#    0.000    1.667    0.000    3.500    0.000   12.667 
#   18.000    0.000    0.000    0.000    0.000    0.000 
#    0.000    0.000    0.000    0.000    0.000    0.000 
#
# Total GULP energy -297510.366642 kJ/mol
# GULP energy per Si atom -12396.265277 kJ/mol
# Density = 2.426955 g / cm^3
# Si number density = 24.324917 Si / 1000 Ang^3
#
#
#
# Elastic Constant Matrix: (Units=GPa)
#
#
# Indices 1 2 3 4 5 6 
#
# 1 41.4162 37.5041 32.8346 0.0000 24.1133 0.0000
# 2 37.5041 152.5091 32.5549 0.0000 6.3322 0.0000
# 3 32.8346 32.5549 131.4205 0.0000 36.9643 0.0000
# 4 0.0000 0.0000 0.0000 51.0922 0.0000 15.5009
# 5 24.1133 6.3322 36.9643 0.0000 30.0104 0.0000
# 6 0.0000 0.0000 0.0000 15.5009 0.0000 49.8039
#
#
#
# Elastic Compliance Matrix: (Units=1/GPa)
#
#
# Indices 1 2 3 4 5 6 
#
# 1 0.066523 -0.014554 0.001768 0.000000 -0.052557 0.000000
# 2 -0.014554 0.010127 -0.002388 0.000000 0.012498 0.000000
# 3 0.001768 -0.002388 0.012266 0.000000 -0.016025 0.000000
# 4 0.000000 0.000000 0.000000 0.021613 0.000000 -0.006727
# 5 -0.052557 0.012498 -0.016025 0.000000 0.092653 0.000000
# 6 0.000000 0.000000 0.000000 -0.006727 0.000000 0.022172
#
#
# Mechanical properties :
#
#
# Convention : Reuss Voigt Hill
#
# Bulk Modulus (GPa) = 17.07426 59.01478 38.04452
# Shear Modulus (GPa) = 18.16692 41.01142 29.58917
#
# Velocity S-wave (km/s) = 2.73581 4.11053 3.49150
# Velocity P-wave (km/s) = 4.12481 6.84414 5.65050
#
# Compressibility (1/GPa) = 0.05856770
#
# Stress axis : x y z
#
# Youngs Moduli (GPa) = 15.03242 98.74804 81.52373
#
# Poissons Ratio (x) = 1.43718 -0.14410
# Poissons Ratio (y) = 0.21878 0.19466
# Poissons Ratio (z) = -0.02657 0.23578
#
# Static dielectric constant tensor:
#      x y z
#    x 5.435360 0.000000 -0.765200 
#    y 0.000000 4.530260 0.000000 
#    z -0.765200 0.000000 2.941350 
# 
# 
# High freq. dielectric constant tensor:
#      x y z
#    x 1.966410 0.000000 0.005980 
#    y 0.000000 1.985050 0.000000 
#    z 0.005980 0.000000 1.957180 
# 
# From -- ./inp_files/15420.got.cif
#   From: 2010.06.25/outbox.cif.g09.slc.cpg/sg15_8_cif.got.tgz:15420.got - 2010.06.28 07:06:18.
