data_PCOD8145821
_publ_section_title
;
Structure prediction by ZEFSAII (Michael W. Deem and Ramdas Pophale) SiO2 
 PCOD8145821
Probable space group: C 2/C
;
_chemical_formula_sum "Si O2"
_cell_formula_units_Z 36
_cell_length_a 12.604626
_cell_length_b 5.034984
_cell_length_c 26.986735
_cell_angle_alpha 90.000000
_cell_angle_beta 109.308297
_cell_angle_gamma 90.000000
_cell_volume 1616.355127
_symmetry_space_group_name_H-M "C 2/C"
_symmetry_group_IT_number 15
_symmetry_cell_setting 'monoclinic'
loop_
_space_group_symop_operation_xyz
x,y,z
-x,y,1/2-z
-x,-y,-z
x,-y,1/2+z
1/2+x,1/2+y,z
1/2-x,1/2+y,1/2-z
1/2-x,1/2-y,-z
1/2+x,1/2-y,1/2+z
loop_
_atom_site_type_symbol
_atom_site_label
_atom_site_fract_x
_atom_site_fract_y
_atom_site_fract_z
Si Si1 0.000000 0.455599 0.250000
Si Si2 0.309921 0.775802 0.778220
Si Si3 0.926950 0.251115 0.501946
Si Si4 0.679664 0.297078 0.848434
Si Si5 0.309752 0.792887 0.585302
O O1 0.932622 0.642036 0.278205
O O2 0.918771 0.270973 0.205323
O O3 0.284787 0.474830 0.758242
O O4 0.298213 0.789848 0.836417
O O5 0.814798 0.266040 0.452462
O O6 0.899248 0.251128 0.555736
O O7 0.000000 0.500000 0.500000
O O8 0.000000 0.000000 0.500000
O O9 0.659030 0.592732 0.865516
O O10 0.683514 0.094097 0.894652
#
# Coordination Sequence:
#
# PCOD8145821 Si02
#       5
#     4   8   8   8   8
#     4  10  24  42  64  90 132 176 212 254 312 368
#     4  10  22  40  60  87 124 167 215 261 302 358
#     4  11  24  45  70  95 126 165 206 262 329 384
#     4  11  23  41  65  94 130 171 212 260 310 370
#     4  11  25  43  65  98 130 159 213 268 311 378
#
# _framework density 22.272334000000001
#
# number of rings (size 3 to 8) (size 9 to 14) (size 15 to 20)
#    0.000    1.333    0.000    5.333    0.000   16.889 
#    0.000    6.667    0.000    0.000    0.000    0.000 
#    0.000    0.000    0.000    0.000    0.000    0.000 
#
# Total GULP energy -223262.367371 kJ/mol
# GULP energy per Si atom -12403.464854 kJ/mol
# Density = 2.222164 g / cm^3
# Si number density = 22.272334 Si / 1000 Ang^3
#
#
#
# Elastic Constant Matrix: (Units=GPa)
#
#
# Indices 1 2 3 4 5 6 
#
# 1 167.0563 40.7148 50.1657 0.0000 -30.6381 0.0000
# 2 40.7148 105.6812 15.3818 0.0000 -13.3544 0.0000
# 3 50.1657 15.3818 87.8567 0.0000 -22.8576 0.0000
# 4 0.0000 0.0000 0.0000 40.4867 0.0000 -11.4433
# 5 -30.6381 -13.3544 -22.8576 0.0000 35.5611 0.0000
# 6 0.0000 0.0000 0.0000 -11.4433 0.0000 35.1472
#
#
#
# Elastic Compliance Matrix: (Units=1/GPa)
#
#
# Indices 1 2 3 4 5 6 
#
# 1 0.008264 -0.002179 -0.003239 0.000000 0.004219 0.000000
# 2 -0.002179 0.010571 -0.000075 0.000000 0.002044 0.000000
# 3 -0.003239 -0.000075 0.015024 0.000000 0.006838 0.000000
# 4 0.000000 0.000000 0.000000 0.027203 0.000000 0.008857
# 5 0.004219 0.002044 0.006838 0.000000 0.036919 0.000000
# 6 0.000000 0.000000 0.000000 0.008857 0.000000 0.031335
#
#
# Mechanical properties :
#
#
# Convention : Reuss Voigt Hill
#
# Bulk Modulus (GPa) = 43.72011 63.67986 53.69999
# Shear Modulus (GPa) = 33.80073 39.19445 36.49759
#
# Velocity S-wave (km/s) = 3.89988 4.19953 4.05247
# Velocity P-wave (km/s) = 6.32069 7.22276 6.78673
#
# Compressibility (1/GPa) = 0.02287277
#
# Stress axis : x y z
#
# Youngs Moduli (GPa) = 121.01261 94.59735 66.56064
#
# Poissons Ratio (x) = 0.20613 0.21561
# Poissons Ratio (y) = 0.26369 0.00497
# Poissons Ratio (z) = 0.39199 0.00706
#
# Static dielectric constant tensor:
#      x y z
#    x 4.282980 0.000000 -0.306970 
#    y 0.000000 3.963210 0.000000 
#    z -0.306970 0.000000 3.952060 
# 
# 
# High freq. dielectric constant tensor:
#      x y z
#    x 1.892220 0.000000 -0.021820 
#    y 0.000000 1.893010 0.000000 
#    z -0.021820 0.000000 1.871960 
# 
# From -- ./inp_files/267071.got.cif
#   From: 2010.06.25/outbox.cif.g09.slc.cpg/sg15_134_cif.got.tgz:267071.got - 2010.06.28 07:06:18.
