data_PCOD8145447
_publ_section_title
;
Structure prediction by ZEFSAII (Michael W. Deem and Ramdas Pophale) SiO2 
 PCOD8145447
Probable space group: C 2/C
;
_chemical_formula_sum "Si O2"
_cell_formula_units_Z 36
_cell_length_a 8.801734
_cell_length_b 29.162305
_cell_length_c 8.483938
_cell_angle_alpha 90.000000
_cell_angle_beta 51.863412
_cell_angle_gamma 90.000000
_cell_volume 1712.808651
_symmetry_space_group_name_H-M "C 2/C"
_symmetry_group_IT_number 15
_symmetry_cell_setting 'monoclinic'
loop_
_space_group_symop_operation_xyz
x,y,z
-x,y,1/2-z
-x,-y,-z
x,-y,1/2+z
1/2+x,1/2+y,z
1/2-x,1/2+y,1/2-z
1/2-x,1/2-y,-z
1/2+x,1/2-y,1/2+z
loop_
_atom_site_type_symbol
_atom_site_label
_atom_site_fract_x
_atom_site_fract_y
_atom_site_fract_z
Si Si1 0.704141 0.697031 0.542187
Si Si2 0.646819 0.634899 0.295076
Si Si3 0.860165 0.935121 0.099915
Si Si4 0.500000 0.506765 0.250000
Si Si5 0.542063 0.137214 0.890901
O O1 0.500000 0.687418 0.750000
O O2 0.750000 0.750000 0.500000
O O3 0.700973 0.678625 0.366151
O O4 0.864235 0.672267 0.546450
O O5 0.500000 0.649530 0.250000
O O6 0.553327 0.596625 0.469986
O O7 0.844274 0.617049 0.089803
O O8 0.674132 0.906144 0.264030
O O9 0.847887 0.960059 0.937770
O O10 0.875378 0.975052 0.216932
O O11 0.500000 0.162737 0.750000
#
# Coordination Sequence:
#
# PCOD8145447 Si02
#       5
#     8   8   8   4   8
#     4  12  25  44  66 103 135 169 223 276 322 393
#     4  12  23  44  70  94 133 182 219 267 334 395
#     4  11  21  43  63  95 134 168 226 266 341 372
#     4  10  22  38  68  94 130 172 216 292 306 406
#     4  12  23  43  70  96 131 184 218 264 339 392
#
# _framework density 21.018111999999999
#
# number of rings (size 3 to 8) (size 9 to 14) (size 15 to 20)
#    0.000    0.444    5.556    3.333    0.000    0.889 
#    0.000   16.667    0.000    0.000    0.000    0.000 
#    0.000    0.000    0.000    0.000    0.000    0.000 
#
# Total GULP energy -223171.743800 kJ/mol
# GULP energy per Si atom -12398.430211 kJ/mol
# Density = 2.097027 g / cm^3
# Si number density = 21.018112 Si / 1000 Ang^3
#
#
#
# Elastic Constant Matrix: (Units=GPa)
#
#
# Indices 1 2 3 4 5 6 
#
# 1 132.3591 70.0571 66.7221 0.0000 1.7134 0.0000
# 2 70.0571 144.2049 67.7134 0.0000 8.7579 0.0000
# 3 66.7221 67.7134 163.9370 0.0000 -20.3650 0.0000
# 4 0.0000 0.0000 0.0000 38.1788 0.0000 -5.4499
# 5 1.7134 8.7579 -20.3650 0.0000 46.0015 0.0000
# 6 0.0000 0.0000 0.0000 -5.4499 0.0000 10.6849
#
#
#
# Elastic Compliance Matrix: (Units=1/GPa)
#
#
# Indices 1 2 3 4 5 6 
#
# 1 0.011195 -0.003943 -0.003054 0.000000 -0.001019 0.000000
# 2 -0.003943 0.010525 -0.003146 0.000000 -0.003250 0.000000
# 3 -0.003054 -0.003146 0.009239 0.000000 0.004803 0.000000
# 4 0.000000 0.000000 0.000000 0.028249 0.000000 0.014409
# 5 -0.001019 -0.003250 0.004803 0.000000 0.024521 0.000000
# 6 0.000000 0.000000 0.000000 0.014409 0.000000 0.100939
#
#
# Mechanical properties :
#
#
# Convention : Reuss Voigt Hill
#
# Bulk Modulus (GPa) = 93.69962 94.38736 94.04349
# Shear Modulus (GPa) = 23.97939 34.70693 29.34316
#
# Velocity S-wave (km/s) = 3.38137 4.06801 3.74048
# Velocity P-wave (km/s) = 7.74094 8.18963 7.96844
#
# Compressibility (1/GPa) = 0.01067240
#
# Stress axis : x y z
#
# Youngs Moduli (GPa) = 89.32651 95.01489 108.23434
#
# Poissons Ratio (x) = 0.37460 0.33059
# Poissons Ratio (y) = 0.35218 0.34053
# Poissons Ratio (z) = 0.27284 0.29894
#
# Static dielectric constant tensor:
#      x y z
#    x 4.165870 0.000000 0.268330 
#    y 0.000000 3.741150 0.000000 
#    z 0.268330 0.000000 4.350240 
# 
# 
# High freq. dielectric constant tensor:
#      x y z
#    x 1.823040 0.000000 0.009970 
#    y 0.000000 1.817020 0.000000 
#    z 0.009970 0.000000 1.850870 
# 
# From -- ./inp_files/25258.got.cif
#   From: 2010.06.25/outbox.cif.g09.slc.cpg/sg15_13_cif.got.tgz:25258.got - 2010.06.28 07:06:18.
