data_PCOD8145517
_publ_section_title
;
Structure prediction by ZEFSAII (Michael W. Deem and Ramdas Pophale) SiO2 
 PCOD8145517
Probable space group: C 2/C
;
_chemical_formula_sum "Si O2"
_cell_formula_units_Z 64
_cell_length_a 18.888043
_cell_length_b 14.958108
_cell_length_c 24.057306
_cell_angle_alpha 90.000000
_cell_angle_beta 150.988946
_cell_angle_gamma 90.000000
_cell_volume 3296.347371
_symmetry_space_group_name_H-M "C 2/C"
_symmetry_group_IT_number 15
_symmetry_cell_setting 'monoclinic'
loop_
_space_group_symop_operation_xyz
x,y,z
-x,y,1/2-z
-x,-y,-z
x,-y,1/2+z
1/2+x,1/2+y,z
1/2-x,1/2+y,1/2-z
1/2-x,1/2-y,-z
1/2+x,1/2-y,1/2+z
loop_
_atom_site_type_symbol
_atom_site_label
_atom_site_fract_x
_atom_site_fract_y
_atom_site_fract_z
Si Si1 0.667504 0.204658 0.863646
Si Si2 0.798426 0.852377 0.955352
Si Si3 0.840403 0.360646 0.020997
Si Si4 0.617404 0.274158 0.184131
Si Si5 0.653338 0.319616 0.333958
Si Si6 0.825566 0.619089 0.747000
Si Si7 0.148432 0.580728 0.247110
Si Si8 0.817809 0.558067 0.020797
O O1 0.500000 0.233730 0.750000
O O2 0.708418 0.157450 0.949245
O O3 0.704269 0.136233 0.839032
O O4 0.761055 0.295647 0.922689
O O5 0.671755 0.777926 0.874622
O O6 0.765759 0.906484 0.876705
O O7 0.791064 0.917586 0.003297
O O8 0.951906 0.800858 0.056581
O O9 0.786752 0.460950 0.974540
O O10 0.011655 0.349065 0.127444
O O11 0.662720 0.314480 0.274387
O O12 0.717720 0.318850 0.207072
O O13 0.645408 0.166294 0.203333
O O14 0.500000 0.359287 0.250000
O O15 0.786977 0.379610 0.446796
O O16 0.804385 0.513933 0.748485
O O17 0.983579 0.567683 0.156937
#
# Coordination Sequence:
#
# PCOD8145517 Si02
#       8
#     8   8   8   8   8   8   8   8
#     4   9  18  38  62  86 114 148 196 252 291 340
#     4  11  20  35  61  85 118 153 192 248 287 349
#     4   9  20  37  62  89 115 148 196 244 296 350
#     4  11  23  39  56  87 120 157 200 242 295 350
#     4  11  21  35  56  84 122 153 192 238 292 351
#     4  10  22  41  61  85 118 158 200 241 294 358
#     4  10  22  39  60  86 113 157 202 243 297 356
#     4  11  19  36  59  90 115 154 193 238 300 356
#
# _framework density 19.415430000000001
#
# number of rings (size 3 to 8) (size 9 to 14) (size 15 to 20)
#    0.000    1.750    2.500    3.000    0.000    5.000 
#    2.250    3.750    0.000    0.000    0.000    0.000 
#    0.000    0.000    0.000    0.000    0.000    0.000 
#
# Total GULP energy -396703.179566 kJ/mol
# GULP energy per Si atom -12396.974361 kJ/mol
# Density = 1.937124 g / cm^3
# Si number density = 19.415430 Si / 1000 Ang^3
#
#
#
# Elastic Constant Matrix: (Units=GPa)
#
#
# Indices 1 2 3 4 5 6 
#
# 1 68.6080 36.6302 27.2659 0.0010 10.3240 0.0003
# 2 36.6302 127.1761 40.9194 0.0084 7.4980 0.0016
# 3 27.2659 40.9194 78.0280 0.0175 -5.2807 0.0038
# 4 0.0010 0.0084 0.0175 33.8240 0.0071 -0.3657
# 5 10.3240 7.4980 -5.2807 0.0071 18.9427 0.0006
# 6 0.0003 0.0016 0.0038 -0.3657 0.0006 21.4162
#
#
#
# Elastic Compliance Matrix: (Units=1/GPa)
#
#
# Indices 1 2 3 4 5 6 
#
# 1 0.020544 -0.003205 -0.006288 0.000006 -0.011681 0.000002
# 2 -0.003205 0.010496 -0.004634 0.000001 -0.003700 0.000000
# 3 -0.006288 -0.004634 0.018142 -0.000010 0.010319 -0.000003
# 4 0.000006 0.000001 -0.000010 0.029570 -0.000017 0.000505
# 5 -0.011681 -0.003700 0.010319 -0.000017 0.063498 -0.000004
# 6 0.000002 0.000000 -0.000003 0.000505 -0.000004 0.046702
#
#
# Mechanical properties :
#
#
# Convention : Reuss Voigt Hill
#
# Bulk Modulus (GPa) = 47.78908 53.71590 50.75249
# Shear Modulus (GPa) = 22.30321 26.10302 24.20312
#
# Velocity S-wave (km/s) = 3.39298 3.67065 3.53454
# Velocity P-wave (km/s) = 6.32591 6.75955 6.54632
#
# Compressibility (1/GPa) = 0.02092528
#
# Stress axis : x y z
#
# Youngs Moduli (GPa) = 48.67685 95.27853 55.12039
#
# Poissons Ratio (x) = 0.30538 0.34662
# Poissons Ratio (y) = 0.15602 0.25545
# Poissons Ratio (z) = 0.30610 0.44156
#
# Static dielectric constant tensor:
#      x y z
#    x 3.177390 0.000000 -0.090610 
#    y 0.000000 3.753750 -0.000010 
#    z -0.090610 -0.000010 3.632020 
# 
# 
# High freq. dielectric constant tensor:
#      x y z
#    x 1.722300 0.000000 -0.003750 
#    y 0.000000 1.762770 0.000000 
#    z -0.003750 0.000000 1.762690 
# 
# From -- ./inp_files/123519.got.cif
#   From: 2010.06.25/outbox.cif.g09.slc.cpg/sg15_62_cif.got.tgz:123519.got - 2010.06.28 07:06:18.
