data_PCOD8145222
_publ_section_title
;
Structure prediction by ZEFSAII (Michael W. Deem and Ramdas Pophale) SiO2 
 PCOD8145222
Probable space group: C 2/C
;
_chemical_formula_sum "Si O2"
_cell_formula_units_Z 36
_cell_length_a 5.015492
_cell_length_b 29.594428
_cell_length_c 11.400317
_cell_angle_alpha 90.000000
_cell_angle_beta 61.491899
_cell_angle_gamma 90.000000
_cell_volume 1486.981548
_symmetry_space_group_name_H-M "C 2/C"
_symmetry_group_IT_number 15
_symmetry_cell_setting 'monoclinic'
loop_
_space_group_symop_operation_xyz
x,y,z
-x,y,1/2-z
-x,-y,-z
x,-y,1/2+z
1/2+x,1/2+y,z
1/2-x,1/2+y,1/2-z
1/2-x,1/2-y,-z
1/2+x,1/2-y,1/2+z
loop_
_atom_site_type_symbol
_atom_site_label
_atom_site_fract_x
_atom_site_fract_y
_atom_site_fract_z
Si Si1 0.500000 0.196842 0.750000
Si Si2 0.000000 0.519044 0.250000
Si Si3 0.000000 0.961185 0.250000
Si Si4 0.594363 0.262462 0.912654
Si Si5 0.363812 0.645484 0.480140
Si Si6 0.860523 0.586634 0.478829
O O1 0.717526 0.230404 0.782002
O O2 0.716851 0.165043 0.629334
O O3 0.692153 0.489678 0.305174
O O4 0.004548 0.547638 0.369112
O O5 0.248703 0.931461 0.128169
O O6 0.750000 0.250000 0.000000
O O7 0.588579 0.315780 0.878918
O O8 0.250000 0.250000 0.000000
O O9 0.571223 0.603423 0.467856
O O10 0.104133 0.627204 0.446767
#
# Coordination Sequence:
#
# PCOD8145222 Si02
#       6
#     4   4   4   8   8   8
#     4  10  22  41  65  90 132 182 228 278 331 397
#     4  12  26  45  68  98 137 174 215 274 352 425
#     4  12  24  46  71  98 129 174 223 270 337 432
#     4  10  22  38  59  89 125 171 218 267 328 388
#     4  11  23  41  63  97 131 170 226 281 329 394
#     4  12  25  43  69 100 132 172 220 282 342 397
#
# _framework density 24.210115999999999
#
# number of rings (size 3 to 8) (size 9 to 14) (size 15 to 20)
#    0.000    0.889    0.000    8.000    0.000    8.889 
#    0.000    0.000    0.000    0.000    0.000    0.000 
#    0.000    0.000    0.000    0.000    0.000    0.000 
#
# Total GULP energy -223133.446323 kJ/mol
# GULP energy per Si atom -12396.302574 kJ/mol
# Density = 2.415501 g / cm^3
# Si number density = 24.210116 Si / 1000 Ang^3
#
#
#
# Elastic Constant Matrix: (Units=GPa)
#
#
# Indices 1 2 3 4 5 6 
#
# 1 140.1568 38.0055 20.3197 0.0000 23.4362 0.0000
# 2 38.0055 98.8695 6.7165 0.0000 3.2004 0.0000
# 3 20.3197 6.7165 50.3221 0.0000 10.2586 0.0000
# 4 0.0000 0.0000 0.0000 48.5759 0.0000 7.2974
# 5 23.4362 3.2004 10.2586 0.0000 32.2498 0.0000
# 6 0.0000 0.0000 0.0000 7.2974 0.0000 32.1784
#
#
#
# Elastic Compliance Matrix: (Units=1/GPa)
#
#
# Indices 1 2 3 4 5 6 
#
# 1 0.009284 -0.003237 -0.002146 0.000000 -0.005743 0.000000
# 2 -0.003237 0.011347 -0.000489 0.000000 0.001382 0.000000
# 3 -0.002146 -0.000489 0.021896 0.000000 -0.005357 0.000000
# 4 0.000000 0.000000 0.000000 0.021312 0.000000 -0.004833
# 5 -0.005743 0.001382 -0.005357 0.000000 0.036748 0.000000
# 6 0.000000 0.000000 0.000000 -0.004833 0.000000 0.032173
#
#
# Mechanical properties :
#
#
# Convention : Reuss Voigt Hill
#
# Bulk Modulus (GPa) = 32.48590 46.60353 39.54472
# Shear Modulus (GPa) = 32.30683 37.55459 34.93071
#
# Velocity S-wave (km/s) = 3.65695 3.94279 3.80256
# Velocity P-wave (km/s) = 5.59272 6.32605 5.97065
#
# Compressibility (1/GPa) = 0.03078258
#
# Stress axis : x y z
#
# Youngs Moduli (GPa) = 107.71115 88.12751 45.67076
#
# Poissons Ratio (x) = 0.28528 0.09801
# Poissons Ratio (y) = 0.34867 0.02234
# Poissons Ratio (z) = 0.23115 0.04310
#
# Static dielectric constant tensor:
#      x y z
#    x 4.219520 0.000000 -0.416000 
#    y 0.000000 5.795890 0.000000 
#    z -0.416000 0.000000 3.297420 
# 
# 
# High freq. dielectric constant tensor:
#      x y z
#    x 1.973300 0.000000 0.004660 
#    y 0.000000 1.975210 0.000000 
#    z 0.004660 0.000000 1.952160 
# 
# From -- ./inp_files/72717.got.cif
#   From: 2010.06.25/outbox.cif.g09.slc.cpg/sg15_37_cif.got.tgz:72717.got - 2010.06.28 07:06:18.
