data_PCOD8145284
_publ_section_title
;
Structure prediction by ZEFSAII (Michael W. Deem and Ramdas Pophale) SiO2 
 PCOD8145284
Probable space group: C 2/C
;
_chemical_formula_sum "Si O2"
_cell_formula_units_Z 40
_cell_length_a 18.234681
_cell_length_b 16.244597
_cell_length_c 7.855016
_cell_angle_alpha 90.000000
_cell_angle_beta 50.950632
_cell_angle_gamma 90.000000
_cell_volume 1806.980599
_symmetry_space_group_name_H-M "C 2/C"
_symmetry_group_IT_number 15
_symmetry_cell_setting 'monoclinic'
loop_
_space_group_symop_operation_xyz
x,y,z
-x,y,1/2-z
-x,-y,-z
x,-y,1/2+z
1/2+x,1/2+y,z
1/2-x,1/2+y,1/2-z
1/2-x,1/2-y,-z
1/2+x,1/2-y,1/2+z
loop_
_atom_site_type_symbol
_atom_site_label
_atom_site_fract_x
_atom_site_fract_y
_atom_site_fract_z
Si Si1 0.891967 0.280866 0.099759
Si Si2 0.086628 0.657893 0.295312
Si Si3 0.500000 0.485704 0.750000
Si Si4 0.000000 0.487507 0.750000
Si Si5 0.376771 0.408474 0.652868
Si Si6 0.172118 0.391092 0.996163
O O1 0.857740 0.187529 0.150173
O O2 0.840840 0.331765 0.323667
O O3 0.864908 0.322054 0.957306
O O4 0.005262 0.276001 0.960435
O O5 0.165321 0.660213 0.327982
O O6 0.025992 0.571919 0.372464
O O7 0.458609 0.424848 0.669678
O O8 0.587664 0.543453 0.565985
O O9 0.091812 0.541802 0.587937
O O10 0.272307 0.438958 0.861695
#
# Coordination Sequence:
#
# PCOD8145284 Si02
#       6
#     8   8   4   4   8   8
#     4  10  22  43  62 101 133 173 217 262 325 396
#     4  10  23  38  68  96 142 176 200 271 330 384
#     4  10  26  50  66  90 126 176 224 292 322 374
#     4  10  22  38  62 102 142 158 210 260 328 406
#     4  11  26  46  69  93 127 174 232 272 332 388
#     4  12  23  40  69 102 130 180 211 266 333 392
#
# _framework density 22.136374
#
# number of rings (size 3 to 8) (size 9 to 14) (size 15 to 20)
#    0.000    1.600    2.000    2.400    8.400    0.800 
#    3.600    0.000    0.000    0.000    0.000    0.000 
#    0.000    0.000    0.000    0.000    0.000    0.000 
#
# Total GULP energy -247896.841216 kJ/mol
# GULP energy per Si atom -12394.842061 kJ/mol
# Density = 2.208599 g / cm^3
# Si number density = 22.136374 Si / 1000 Ang^3
#
#
#
# Elastic Constant Matrix: (Units=GPa)
#
#
# Indices 1 2 3 4 5 6 
#
# 1 86.2838 18.5101 55.3516 0.0000 -3.5102 0.0000
# 2 18.5101 95.2178 43.9038 0.0000 -2.8816 0.0000
# 3 55.3516 43.9038 132.4448 0.0000 1.1877 0.0000
# 4 0.0000 0.0000 0.0000 9.4182 0.0000 8.3191
# 5 -3.5102 -2.8816 1.1877 0.0000 44.2250 0.0000
# 6 0.0000 0.0000 0.0000 8.3191 0.0000 6.2247
#
#
#
# Elastic Compliance Matrix: (Units=1/GPa)
#
#
# Indices 1 2 3 4 5 6 
#
# 1 0.015927 0.000027 -0.006678 0.000000 0.001445 0.000000
# 2 0.000027 0.012435 -0.004141 0.000000 0.000924 0.000000
# 3 -0.006678 -0.004141 0.011724 0.000000 -0.001115 0.000000
# 4 0.000000 0.000000 0.000000 -0.588271 0.000000 0.786202
# 5 0.001445 0.000924 -0.001115 0.000000 0.022816 0.000000
# 6 0.000000 0.000000 0.000000 0.786202 0.000000 -0.890080
#
#
# Mechanical properties :
#
#
# Convention : Reuss Voigt Hill
#
# Bulk Modulus (GPa) = 54.05381 61.05305 57.55343
# Shear Modulus (GPa) = -3.60309 25.05231 10.72461
#
# Velocity S-wave (km/s) = -1.27719 3.36776 2.20348
# Velocity P-wave (km/s) = 4.72193 6.53932 5.70348
#
# Compressibility (1/GPa) = 0.01850008
#
# Stress axis : x y z
#
# Youngs Moduli (GPa) = 62.78790 80.42132 85.29538
#
# Poissons Ratio (x) = -0.00215 0.56960
# Poissons Ratio (y) = -0.00168 0.35324
# Poissons Ratio (z) = 0.41929 0.33305
#
# Static dielectric constant tensor:
#      x y z
#    x 3.885030 0.000000 0.145570 
#    y 0.000000 3.906460 0.000000 
#    z 0.145570 0.000000 4.101340 
# 
# 
# High freq. dielectric constant tensor:
#      x y z
#    x 1.869910 0.000000 0.008180 
#    y 0.000000 1.860300 0.000000 
#    z 0.008180 0.000000 1.875870 
# 
# From -- ./inp_files/55177.got.cif
#   From: 2010.06.25/outbox.cif.g09.slc.cpg/sg15_28_cif.got.tgz:55177.got - 2010.06.28 07:06:18.
