data_PCOD8145208
_publ_section_title
;
Structure prediction by ZEFSAII (Michael W. Deem and Ramdas Pophale) SiO2 
 PCOD8145208
Probable space group: C 2/C
;
_chemical_formula_sum "Si O2"
_cell_formula_units_Z 60
_cell_length_a 8.707639
_cell_length_b 24.534352
_cell_length_c 25.085494
_cell_angle_alpha 90.000000
_cell_angle_beta 147.034381
_cell_angle_gamma 90.000000
_cell_volume 2916.116514
_symmetry_space_group_name_H-M "C 2/C"
_symmetry_group_IT_number 15
_symmetry_cell_setting 'monoclinic'
loop_
_space_group_symop_operation_xyz
x,y,z
-x,y,1/2-z
-x,-y,-z
x,-y,1/2+z
1/2+x,1/2+y,z
1/2-x,1/2+y,1/2-z
1/2-x,1/2-y,-z
1/2+x,1/2-y,1/2+z
loop_
_atom_site_type_symbol
_atom_site_label
_atom_site_fract_x
_atom_site_fract_y
_atom_site_fract_z
Si Si1 0.309544 0.295468 0.742978
Si Si2 0.681003 0.518523 0.003109
Si Si3 0.000000 0.879200 0.250000
Si Si4 0.884705 0.594210 0.567054
Si Si5 0.931252 0.806029 0.127477
Si Si6 0.818432 0.665533 0.449473
Si Si7 0.309655 0.905069 0.845508
Si Si8 0.792068 0.108314 0.864076
O O1 0.500000 0.274390 0.750000
O O2 0.527132 0.300953 0.856112
O O3 0.168039 0.353491 0.688117
O O4 0.065159 0.252072 0.681052
O O5 0.774590 0.460754 0.005423
O O6 0.955838 0.551589 0.102838
O O7 0.500000 0.500000 0.000000
O O8 0.498901 0.556975 0.910462
O O9 0.280544 0.915552 0.328460
O O10 0.004791 0.843585 0.304130
O O11 0.814084 0.644693 0.508571
O O12 0.742818 0.609432 0.582232
O O13 0.068679 0.835130 0.115414
O O14 0.596381 0.796850 0.021250
O O15 0.847811 0.615075 0.417289
O O16 0.000000 0.932165 0.750000
O O17 0.500000 0.096981 0.750000
#
# Coordination Sequence:
#
# PCOD8145208 Si02
#       8
#     8   8   4   8   8   8   8   8
#     4   9  21  38  63  91 120 162 204 251 313 368
#     4  10  22  40  59  91 125 162 206 251 307 365
#     4  10  22  38  58  96 122 152 212 256 290 376
#     4  10  22  39  61  91 128 161 200 258 306 360
#     4  11  20  40  67  88 119 164 204 253 314 362
#     4   9  20  41  61  91 124 154 210 255 302 370
#     4   9  19  39  62  92 126 161 211 252 301 379
#     4  11  21  40  63  91 126 161 209 252 304 372
#
# _framework density 20.575310999999999
#
# number of rings (size 3 to 8) (size 9 to 14) (size 15 to 20)
#    0.000    2.400    2.667    0.400    0.933    2.667 
#   12.000    5.333    0.000    0.000    0.000    0.000 
#    0.000    0.000    0.000    0.000    0.000    0.000 
#
# Total GULP energy -371790.876258 kJ/mol
# GULP energy per Si atom -12393.029209 kJ/mol
# Density = 2.052848 g / cm^3
# Si number density = 20.575311 Si / 1000 Ang^3
#
#
#
# Elastic Constant Matrix: (Units=GPa)
#
#
# Indices 1 2 3 4 5 6 
#
# 1 71.6803 37.5177 45.0031 0.0034 6.7307 0.0039
# 2 37.5177 90.2922 52.3255 -0.0010 18.0190 -0.0006
# 3 45.0031 52.3255 129.2822 -0.0024 5.4691 0.0176
# 4 0.0034 -0.0010 -0.0024 38.8043 0.0041 9.7473
# 5 6.7307 18.0190 5.4691 0.0041 26.9371 0.0083
# 6 0.0039 -0.0006 0.0176 9.7473 0.0083 -0.5356
#
#
#
# Elastic Compliance Matrix: (Units=1/GPa)
#
#
# Indices 1 2 3 4 5 6 
#
# 1 0.019757 -0.005437 -0.004662 0.000000 -0.000353 -0.000009
# 2 -0.005437 0.018230 -0.005071 0.000017 -0.009806 -0.000062
# 3 -0.004662 -0.005071 0.011315 -0.000017 0.002260 0.000070
# 4 0.000000 0.000017 -0.000017 0.004626 -0.000035 0.084178
# 5 -0.000353 -0.009806 0.002260 -0.000035 0.043313 0.000120
# 6 -0.000009 -0.000062 0.000070 0.084178 0.000120 -0.335116
#
#
# Mechanical properties :
#
#
# Convention : Reuss Voigt Hill
#
# Bulk Modulus (GPa) = 52.73807 62.32750 57.53278
# Shear Modulus (GPa) = -24.84884 23.46838 -0.69023
#
# Velocity S-wave (km/s) = -3.47897 3.38095 -0.57982
# Velocity P-wave (km/s) = 3.09026 6.75272 5.25114
#
# Compressibility (1/GPa) = 0.01896164
#
# Stress axis : x y z
#
# Youngs Moduli (GPa) = 50.61605 54.85459 88.38208
#
# Poissons Ratio (x) = 0.29826 0.41201
# Poissons Ratio (y) = 0.27521 0.44817
# Poissons Ratio (z) = 0.23596 0.27816
#
# Static dielectric constant tensor:
#      x y z
#    x 3.608380 0.000000 0.194920 
#    y 0.000000 3.721920 -0.000010 
#    z 0.194920 -0.000010 4.126530 
# 
# 
# High freq. dielectric constant tensor:
#      x y z
#    x 1.788940 0.000000 0.011460 
#    y 0.000000 1.788860 0.000000 
#    z 0.011460 0.000000 1.822020 
# 
# From -- ./inp_files/290312.got.cif
#   From: 2010.06.25/outbox.cif.g09.slc.cpg/sg15_146_cif.got.tgz:290312.got - 2010.06.28 07:06:18.
