data_PCOD8145478
_publ_section_title
;
Structure prediction by ZEFSAII (Michael W. Deem and Ramdas Pophale) SiO2 
 PCOD8145478
Probable space group: C 2/C
;
_chemical_formula_sum "Si O2"
_cell_formula_units_Z 36
_cell_length_a 16.283757
_cell_length_b 21.088322
_cell_length_c 10.286615
_cell_angle_alpha 90.000000
_cell_angle_beta 150.582144
_cell_angle_gamma 90.000000
_cell_volume 1735.024408
_symmetry_space_group_name_H-M "C 2/C"
_symmetry_group_IT_number 15
_symmetry_cell_setting 'monoclinic'
loop_
_space_group_symop_operation_xyz
x,y,z
-x,y,1/2-z
-x,-y,-z
x,-y,1/2+z
1/2+x,1/2+y,z
1/2-x,1/2+y,1/2-z
1/2-x,1/2-y,-z
1/2+x,1/2-y,1/2+z
loop_
_atom_site_type_symbol
_atom_site_label
_atom_site_fract_x
_atom_site_fract_y
_atom_site_fract_z
Si Si1 0.670522 0.039649 0.702689
Si Si2 0.000000 0.242783 0.250000
Si Si3 0.306721 0.941743 0.554807
Si Si4 0.354251 0.184741 0.788147
Si Si5 0.000000 0.325779 0.750000
Si Si6 0.500000 0.507346 0.750000
O O1 0.631216 0.029143 0.496305
O O2 0.615597 0.109284 0.673711
O O3 0.872702 0.036797 0.994573
O O4 0.599258 0.981026 0.696826
O O5 0.965823 0.286151 0.328071
O O6 0.159195 0.199197 0.499577
O O7 0.357244 0.868269 0.624878
O O8 0.107129 0.947908 0.299460
O O9 0.414683 0.213115 0.013373
#
# Coordination Sequence:
#
# PCOD8145478 Si02
#       6
#     8   4   8   8   4   4
#     4   9  18  32  55  79 115 151 179 225 272 337
#     4  10  23  43  62  86 102 151 204 251 280 344
#     4   9  19  31  52  82 119 149 186 212 278 349
#     4  10  22  41  62  83 116 146 198 240 295 325
#     4  10  22  39  56  89 121 151 178 242 284 350
#     4   8  17  32  48  79 117 160 180 217 258 346
#
# _framework density 20.748987
#
# number of rings (size 3 to 8) (size 9 to 14) (size 15 to 20)
#    1.333    1.333    0.000    1.333    0.000    7.111 
#    0.000    4.444    0.000    0.000    0.000    0.000 
#    0.000    0.000    0.000    0.000    0.000    0.000 
#
# Total GULP energy -223021.169681 kJ/mol
# GULP energy per Si atom -12390.064982 kJ/mol
# Density = 2.070176 g / cm^3
# Si number density = 20.748987 Si / 1000 Ang^3
#
#
#
# Elastic Constant Matrix: (Units=GPa)
#
#
# Indices 1 2 3 4 5 6 
#
# 1 143.6830 47.7929 57.0764 0.0000 -10.2317 0.0000
# 2 47.7929 61.7189 22.5404 0.0000 -8.5324 0.0000
# 3 57.0764 22.5404 121.8525 0.0000 -31.1479 0.0000
# 4 0.0000 0.0000 0.0000 26.9085 0.0000 -8.2495
# 5 -10.2317 -8.5324 -31.1479 0.0000 44.9885 0.0000
# 6 0.0000 0.0000 0.0000 -8.2495 0.0000 21.9398
#
#
#
# Elastic Compliance Matrix: (Units=1/GPa)
#
#
# Indices 1 2 3 4 5 6 
#
# 1 0.010890 -0.007133 -0.004245 0.000000 -0.001815 0.000000
# 2 -0.007133 0.022112 -0.000112 0.000000 0.002494 0.000000
# 3 -0.004245 -0.000112 0.012106 0.000000 0.007395 0.000000
# 4 0.000000 0.000000 0.000000 0.042005 0.000000 0.015794
# 5 -0.001815 0.002494 0.007395 0.000000 0.027408 0.000000
# 6 0.000000 0.000000 0.000000 0.015794 0.000000 0.051518
#
#
# Mechanical properties :
#
#
# Convention : Reuss Voigt Hill
#
# Bulk Modulus (GPa) = 45.19260 64.67486 54.93373
# Shear Modulus (GPa) = 25.45904 32.09034 28.77469
#
# Velocity S-wave (km/s) = 3.50666 3.93695 3.72802
# Velocity P-wave (km/s) = 6.18251 7.20443 6.71295
#
# Compressibility (1/GPa) = 0.02212752
#
# Stress axis : x y z
#
# Youngs Moduli (GPa) = 91.83145 45.22522 82.60286
#
# Poissons Ratio (x) = 0.32259 0.35068
# Poissons Ratio (y) = 0.65503 0.00921
# Poissons Ratio (z) = 0.38985 0.00504
#
# Static dielectric constant tensor:
#      x y z
#    x 3.850790 0.000000 -0.002130 
#    y 0.000000 3.231450 0.000000 
#    z -0.002130 0.000000 4.287340 
# 
# 
# High freq. dielectric constant tensor:
#      x y z
#    x 1.824750 0.000000 0.005840 
#    y 0.000000 1.764710 0.000000 
#    z 0.005840 0.000000 1.856640 
# 
# From -- ./inp_files/33207.got.cif
#   From: 2010.06.25/outbox.cif.g09.slc.cpg/sg15_17_cif.got.tgz:33207.got - 2010.06.28 07:06:18.
