data_PCOD8145596
_publ_section_title
;
Structure prediction by ZEFSAII (Michael W. Deem and Ramdas Pophale) SiO2 
 PCOD8145596
Probable space group: C 2/C
;
_chemical_formula_sum "Si O2"
_cell_formula_units_Z 56
_cell_length_a 29.110690
_cell_length_b 22.208345
_cell_length_c 9.250890
_cell_angle_alpha 90.000000
_cell_angle_beta 153.741993
_cell_angle_gamma 90.000000
_cell_volume 2645.946725
_symmetry_space_group_name_H-M "C 2/C"
_symmetry_group_IT_number 15
_symmetry_cell_setting 'monoclinic'
loop_
_space_group_symop_operation_xyz
x,y,z
-x,y,1/2-z
-x,-y,-z
x,-y,1/2+z
1/2+x,1/2+y,z
1/2-x,1/2+y,1/2-z
1/2-x,1/2-y,-z
1/2+x,1/2-y,1/2+z
loop_
_atom_site_type_symbol
_atom_site_label
_atom_site_fract_x
_atom_site_fract_y
_atom_site_fract_z
Si Si1 0.840850 0.356004 0.537559
Si Si2 0.080006 0.356418 0.263080
Si Si3 0.310349 0.738956 0.817096
Si Si4 0.618410 0.063382 0.608209
Si Si5 0.686868 0.067576 0.272953
Si Si6 0.500000 0.526567 0.750000
Si Si7 0.403550 0.568469 0.766363
Si Si8 0.000000 0.838246 0.750000
O O1 0.769903 0.297377 0.304712
O O2 0.830435 0.405204 0.384449
O O3 0.787880 0.388667 0.523563
O O4 0.960518 0.336499 0.902922
O O5 0.154121 0.300208 0.506197
O O6 0.128889 0.387788 0.262123
O O7 0.084434 0.406632 0.402759
O O8 0.250000 0.750000 0.500000
O O9 0.412411 0.702205 0.071864
O O10 0.675137 0.000252 0.798832
O O11 0.500000 0.045690 0.250000
O O12 0.779759 0.074605 0.420185
O O13 0.433093 0.565036 0.678376
O O14 0.427590 0.488672 0.437247
O O15 0.460572 0.624341 0.001088
#
# Coordination Sequence:
#
# PCOD8145596 Si02
#       8
#     8   8   8   8   8   4   8   4
#     4  11  23  41  66  95 130 169 213 270 324 381
#     4  11  24  42  65  96 131 167 215 272 322 386
#     4  12  23  41  69  92 122 170 222 265 319 389
#     4  10  24  41  62  96 136 167 208 269 331 384
#     4  12  22  38  67  99 127 173 217 254 326 391
#     4   9  22  40  62  86 140 170 207 268 312 374
#     4  10  22  39  62  94 129 172 214 260 318 381
#     4  11  22  42  64  94 124 164 221 270 314 378
#
# _framework density 21.164448
#
# number of rings (size 3 to 8) (size 9 to 14) (size 15 to 20)
#    0.000    1.143    2.857    3.000    4.000    4.000 
#    0.000    0.000    7.857    0.000    0.000    0.000 
#    0.000    0.000    0.000    0.000    0.000    0.000 
#
# Total GULP energy -347069.343391 kJ/mol
# GULP energy per Si atom -12395.333693 kJ/mol
# Density = 2.111628 g / cm^3
# Si number density = 21.164448 Si / 1000 Ang^3
#
#
#
# Elastic Constant Matrix: (Units=GPa)
#
#
# Indices 1 2 3 4 5 6 
#
# 1 131.6610 44.4294 35.2502 0.0000 0.8779 0.0000
# 2 44.4294 119.0254 57.1344 0.0000 10.9044 0.0000
# 3 35.2502 57.1344 82.1146 0.0000 10.4560 0.0000
# 4 0.0000 0.0000 0.0000 23.6974 0.0000 10.3945
# 5 0.8779 10.9044 10.4560 0.0000 33.0556 0.0000
# 6 0.0000 0.0000 0.0000 10.3945 0.0000 -21.4670
#
#
#
# Elastic Compliance Matrix: (Units=1/GPa)
#
#
# Indices 1 2 3 4 5 6 
#
# 1 0.009018 -0.002323 -0.002419 0.000000 0.001292 0.000000
# 2 -0.002323 0.013280 -0.008015 0.000000 -0.001784 0.000000
# 3 -0.002419 -0.008015 0.019223 0.000000 -0.003372 0.000000
# 4 0.000000 0.000000 0.000000 0.034806 0.000000 0.016853
# 5 0.001292 -0.001784 -0.003372 0.000000 0.031873 0.000000
# 6 0.000000 0.000000 0.000000 0.016853 0.000000 -0.038423
#
#
# Mechanical properties :
#
#
# Convention : Reuss Voigt Hill
#
# Bulk Modulus (GPa) = 62.48068 67.38100 64.93084
# Shear Modulus (GPa) = 49.68735 20.12300 34.90518
#
# Velocity S-wave (km/s) = 4.85054 3.08684 4.06548
# Velocity P-wave (km/s) = 7.80743 6.67913 7.26522
#
# Compressibility (1/GPa) = 0.01600495
#
# Stress axis : x y z
#
# Youngs Moduli (GPa) = 110.88391 75.30227 52.02063
#
# Poissons Ratio (x) = 0.17496 0.12586
# Poissons Ratio (y) = 0.25763 0.41697
# Poissons Ratio (z) = 0.26827 0.60358
#
# Static dielectric constant tensor:
#      x y z
#    x 3.901790 0.000000 0.010030 
#    y 0.000000 4.129380 0.000000 
#    z 0.010030 0.000000 3.458900 
# 
# 
# High freq. dielectric constant tensor:
#      x y z
#    x 1.830190 0.000000 0.008630 
#    y 0.000000 1.831950 0.000000 
#    z 0.008630 0.000000 1.832460 
# 
# From -- ./inp_files/70859.got.cif
#   From: 2010.06.25/outbox.cif.g09.slc.cpg/sg15_36_cif.got.tgz:70859.got - 2010.06.28 07:06:18.
