data_PCOD8145045
_publ_section_title
;
Structure prediction by ZEFSAII (Michael W. Deem and Ramdas Pophale) SiO2 
 PCOD8145045
Probable space group: C 2/C
;
_chemical_formula_sum "Si O2"
_cell_formula_units_Z 48
_cell_length_a 18.869142
_cell_length_b 15.230069
_cell_length_c 10.832854
_cell_angle_alpha 90.000000
_cell_angle_beta 49.640140
_cell_angle_gamma 90.000000
_cell_volume 2372.178834
_symmetry_space_group_name_H-M "C 2/C"
_symmetry_group_IT_number 15
_symmetry_cell_setting 'monoclinic'
loop_
_space_group_symop_operation_xyz
x,y,z
-x,y,1/2-z
-x,-y,-z
x,-y,1/2+z
1/2+x,1/2+y,z
1/2-x,1/2+y,1/2-z
1/2-x,1/2-y,-z
1/2+x,1/2-y,1/2+z
loop_
_atom_site_type_symbol
_atom_site_label
_atom_site_fract_x
_atom_site_fract_y
_atom_site_fract_z
Si Si1 0.000000 0.785125 0.250000
Si Si2 0.319257 0.111527 0.197531
Si Si3 0.017899 0.339291 0.496678
Si Si4 0.298130 0.343243 0.450801
Si Si5 0.500000 0.245936 0.750000
Si Si6 0.193585 0.214461 0.950998
Si Si7 0.785170 0.578843 0.686322
O O1 0.003683 0.734277 0.376200
O O2 0.907014 0.843040 0.360795
O O3 0.257899 0.100404 0.387824
O O4 0.302277 0.206400 0.154214
O O5 0.285736 0.025423 0.162852
O O6 0.428364 0.097302 0.103390
O O7 0.109145 0.387984 0.442076
O O8 0.029384 0.309255 0.339929
O O9 0.250000 0.250000 0.500000
O O10 0.286077 0.387558 0.334003
O O11 0.587519 0.305219 0.611418
O O12 0.239714 0.122150 0.859963
O O13 0.250000 0.250000 0.000000
#
# Coordination Sequence:
#
# PCOD8145045 Si02
#       7
#     4   8   8   8   4   8   8
#     4  12  22  42  74  94 128 176 232 268 330 396
#     4  11  25  40  64 100 131 166 220 269 329 391
#     4  11  20  39  65 101 131 167 211 279 334 397
#     4  12  22  44  67  95 129 176 222 269 326 394
#     4  10  22  36  66  92 132 168 222 252 330 398
#     4  11  22  42  62  89 128 174 207 263 328 385
#     4  12  24  41  68  97 134 174 218 270 332 390
#
# _framework density 20.234562
#
# number of rings (size 3 to 8) (size 9 to 14) (size 15 to 20)
#    0.000    0.667    6.667    1.500    2.333    0.000 
#    0.000    3.333    0.000    0.000    0.000    0.000 
#    0.000    0.000    0.000    0.000    0.000    0.000 
#
# Total GULP energy -297313.700407 kJ/mol
# GULP energy per Si atom -12388.070850 kJ/mol
# Density = 2.018851 g / cm^3
# Si number density = 20.234562 Si / 1000 Ang^3
#
#
#
# Elastic Constant Matrix: (Units=GPa)
#
#
# Indices 1 2 3 4 5 6 
#
# 1 97.7452 19.4723 30.4389 0.0000 -6.1802 0.0000
# 2 19.4723 74.2762 26.1607 0.0000 -13.0519 0.0000
# 3 30.4389 26.1607 116.8721 0.0000 -14.0923 0.0000
# 4 0.0000 0.0000 0.0000 11.5287 0.0000 0.1144
# 5 -6.1802 -13.0519 -14.0923 0.0000 50.9574 0.0000
# 6 0.0000 0.0000 0.0000 0.1144 0.0000 28.4409
#
#
#
# Elastic Compliance Matrix: (Units=1/GPa)
#
#
# Indices 1 2 3 4 5 6 
#
# 1 0.011433 -0.002092 -0.002490 0.000000 0.000162 0.000000
# 2 -0.002092 0.015436 -0.002549 0.000000 0.002995 0.000000
# 3 -0.002490 -0.002549 0.009994 0.000000 0.001809 0.000000
# 4 0.000000 0.000000 0.000000 0.086744 0.000000 -0.000349
# 5 0.000162 0.002995 0.001809 0.000000 0.020911 0.000000
# 6 0.000000 0.000000 0.000000 -0.000349 0.000000 0.035162
#
#
# Mechanical properties :
#
#
# Convention : Reuss Voigt Hill
#
# Bulk Modulus (GPa) = 44.24677 49.00414 46.62546
# Shear Modulus (GPa) = 24.81702 32.37350 28.59526
#
# Velocity S-wave (km/s) = 3.50589 4.00423 3.76332
# Velocity P-wave (km/s) = 6.18892 6.75641 6.47888
#
# Compressibility (1/GPa) = 0.02260052
#
# Stress axis : x y z
#
# Youngs Moduli (GPa) = 87.46573 64.78452 100.06438
#
# Poissons Ratio (x) = 0.13552 0.24915
# Poissons Ratio (y) = 0.18296 0.25509
# Poissons Ratio (z) = 0.21778 0.16515
#
# Static dielectric constant tensor:
#      x y z
#    x 4.010000 0.000000 -0.119800 
#    y 0.000000 3.548220 0.000000 
#    z -0.119800 0.000000 3.826180 
# 
# 
# High freq. dielectric constant tensor:
#      x y z
#    x 1.808190 0.000000 -0.003340 
#    y 0.000000 1.753460 0.000000 
#    z -0.003340 0.000000 1.811020 
# 
# From -- ./inp_files/112954.got.cif
#   From: 2010.06.25/outbox.cif.g09.slc.cpg/sg15_57_cif.got.tgz:112954.got - 2010.06.28 07:06:18.
