data_PCOD8145419
_publ_section_title
;
Structure prediction by ZEFSAII (Michael W. Deem and Ramdas Pophale) SiO2 
 PCOD8145419
Probable space group: C 2/C
;
_chemical_formula_sum "Si O2"
_cell_formula_units_Z 36
_cell_length_a 10.883091
_cell_length_b 18.911718
_cell_length_c 10.456646
_cell_angle_alpha 90.000000
_cell_angle_beta 127.338903
_cell_angle_gamma 90.000000
_cell_volume 1711.104601
_symmetry_space_group_name_H-M "C 2/C"
_symmetry_group_IT_number 15
_symmetry_cell_setting 'monoclinic'
loop_
_space_group_symop_operation_xyz
x,y,z
-x,y,1/2-z
-x,-y,-z
x,-y,1/2+z
1/2+x,1/2+y,z
1/2-x,1/2+y,1/2-z
1/2-x,1/2-y,-z
1/2+x,1/2-y,1/2+z
loop_
_atom_site_type_symbol
_atom_site_label
_atom_site_fract_x
_atom_site_fract_y
_atom_site_fract_z
Si Si1 0.000000 0.697869 0.750000
Si Si2 0.392564 0.669588 0.294964
Si Si3 0.135768 0.182690 0.937279
Si Si4 0.374878 0.909251 0.982394
Si Si5 0.122114 0.438362 0.941077
O O1 0.121834 0.746998 0.748789
O O2 0.886313 0.650755 0.595356
O O3 0.500000 0.634783 0.250000
O O4 0.447561 0.671758 0.477223
O O5 0.238005 0.622579 0.196816
O O6 0.000000 0.192991 0.750000
O O7 0.250000 0.250000 0.000000
O O8 0.231078 0.111711 0.973327
O O9 0.540827 0.922281 0.024584
O O10 0.315625 0.980926 0.013432
O O11 0.000000 0.427644 0.750000
#
# Coordination Sequence:
#
# PCOD8145419 Si02
#       5
#     4   8   8   8   8
#     4  10  22  38  66  96 134 176 224 278 342 398
#     4  10  25  41  67 102 141 176 233 288 344 407
#     4  12  27  47  72 102 139 183 233 287 346 414
#     4  11  22  43  68 102 136 183 230 286 341 415
#     4  11  23  44  72  98 136 184 231 281 346 411
#
# _framework density 21.039041000000001
#
# number of rings (size 3 to 8) (size 9 to 14) (size 15 to 20)
#    0.667    0.444    3.333    2.667    3.111    2.667 
#    0.000    2.222    0.000    0.000    0.000    0.000 
#    0.000    0.000    0.000    0.000    0.000    0.000 
#
# Total GULP energy -223033.346486 kJ/mol
# GULP energy per Si atom -12390.741471 kJ/mol
# Density = 2.099115 g / cm^3
# Si number density = 21.039041 Si / 1000 Ang^3
#
#
#
# Elastic Constant Matrix: (Units=GPa)
#
#
# Indices 1 2 3 4 5 6 
#
# 1 100.4953 45.5397 41.8869 0.0000 -15.7100 0.0000
# 2 45.5397 152.4904 50.2858 0.0000 14.4783 0.0000
# 3 41.8869 50.2858 152.2904 0.0000 -1.1888 0.0000
# 4 0.0000 0.0000 0.0000 26.9136 0.0000 14.2726
# 5 -15.7100 14.4783 -1.1888 0.0000 29.5918 0.0000
# 6 0.0000 0.0000 0.0000 14.2726 0.0000 16.2514
#
#
#
# Elastic Compliance Matrix: (Units=1/GPa)
#
#
# Indices 1 2 3 4 5 6 
#
# 1 0.014522 -0.004460 -0.002445 0.000000 0.009794 0.000000
# 2 -0.004460 0.009158 -0.001851 0.000000 -0.006923 0.000000
# 3 -0.002445 -0.001851 0.007849 0.000000 -0.000077 0.000000
# 4 0.000000 0.000000 0.000000 0.069547 0.000000 -0.061079
# 5 0.009794 -0.006923 -0.000077 0.000000 0.042377 0.000000
# 6 0.000000 0.000000 0.000000 -0.061079 0.000000 0.115175
#
#
# Mechanical properties :
#
#
# Convention : Reuss Voigt Hill
#
# Bulk Modulus (GPa) = 71.34586 75.63344 73.48965
# Shear Modulus (GPa) = 17.80547 32.38894 25.09720
#
# Velocity S-wave (km/s) = 2.91229 3.92786 3.45757
# Velocity P-wave (km/s) = 6.73004 7.52316 7.13762
#
# Compressibility (1/GPa) = 0.01401623
#
# Stress axis : x y z
#
# Youngs Moduli (GPa) = 68.86066 109.19947 127.39712
#
# Poissons Ratio (x) = 0.48708 0.31148
# Poissons Ratio (y) = 0.30715 0.23581
# Poissons Ratio (z) = 0.16836 0.20213
#
# Static dielectric constant tensor:
#      x y z
#    x 3.714160 0.000000 -0.237160 
#    y 0.000000 3.971620 0.000000 
#    z -0.237160 0.000000 3.738910 
# 
# 
# High freq. dielectric constant tensor:
#      x y z
#    x 1.814670 0.000000 -0.023780 
#    y 0.000000 1.838040 0.000000 
#    z -0.023780 0.000000 1.819720 
# 
# From -- ./inp_files/87642.got.cif
#   From: 2010.06.25/outbox.cif.g09.slc.cpg/sg15_44_cif.got.tgz:87642.got - 2010.06.28 07:06:18.
