data_PCOD8145010
_publ_section_title
;
Structure prediction by ZEFSAII (Michael W. Deem and Ramdas Pophale) SiO2 
 PCOD8145010
Probable space group: C 2/C
;
_chemical_formula_sum "Si O2"
_cell_formula_units_Z 52
_cell_length_a 18.315094
_cell_length_b 20.559047
_cell_length_c 9.917728
_cell_angle_alpha 90.000000
_cell_angle_beta 136.740833
_cell_angle_gamma 90.000000
_cell_volume 2559.203083
_symmetry_space_group_name_H-M "C 2/C"
_symmetry_group_IT_number 15
_symmetry_cell_setting 'monoclinic'
loop_
_space_group_symop_operation_xyz
x,y,z
-x,y,1/2-z
-x,-y,-z
x,-y,1/2+z
1/2+x,1/2+y,z
1/2-x,1/2+y,1/2-z
1/2-x,1/2-y,-z
1/2+x,1/2-y,1/2+z
loop_
_atom_site_type_symbol
_atom_site_label
_atom_site_fract_x
_atom_site_fract_y
_atom_site_fract_z
Si Si1 0.400144 0.741563 0.878062
Si Si2 0.500000 0.024292 0.750000
Si Si3 0.704830 0.041216 0.425894
Si Si4 0.342867 0.116818 0.392539
Si Si5 0.205657 0.648003 0.636875
Si Si6 0.000000 0.716016 0.250000
Si Si7 0.219547 0.900088 0.987395
Si Si8 0.500000 0.335023 0.750000
O O1 0.389254 0.816700 0.899332
O O2 0.285552 0.707703 0.720636
O O3 0.452076 0.736787 0.799897
O O4 0.478392 0.709349 0.091459
O O5 0.439022 0.069971 0.563104
O O6 0.418636 0.978998 0.722593
O O7 0.722307 0.081204 0.312825
O O8 0.743382 0.085579 0.602078
O O9 0.778736 0.977858 0.521008
O O10 0.263395 0.131755 0.409139
O O11 0.204584 0.626575 0.791413
O O12 0.088558 0.669330 0.434579
O O13 0.098677 0.880788 0.849654
#
# Coordination Sequence:
#
# PCOD8145010 Si02
#       8
#     8   4   8   8   8   4   8   4
#     4  11  26  42  65  97 129 168 215 258 320 379
#     4  10  22  36  60  96 125 165 216 258 328 376
#     4  11  22  40  63  92 131 167 209 264 317 379
#     4  11  23  37  64  93 128 162 212 268 324 371
#     4  11  25  43  62  95 133 168 211 261 319 380
#     4  12  25  40  67  91 136 165 202 258 326 380
#     4  10  24  43  65  91 128 171 216 265 311 369
#     4  10  25  46  67  91 123 172 224 258 310 372
#
# _framework density 20.318826000000001
#
# number of rings (size 3 to 8) (size 9 to 14) (size 15 to 20)
#    0.000    1.231    1.538    3.692    8.615    1.231 
#    0.000    7.692    0.000    0.000    0.000    0.000 
#    0.000    0.000    0.000    0.000    0.000    0.000 
#
# Total GULP energy -322545.482926 kJ/mol
# GULP energy per Si atom -12405.595497 kJ/mol
# Density = 2.027258 g / cm^3
# Si number density = 20.318826 Si / 1000 Ang^3
#
#
#
# Elastic Constant Matrix: (Units=GPa)
#
#
# Indices 1 2 3 4 5 6 
#
# 1 106.5203 33.9734 56.9829 0.0000 -29.3314 0.0000
# 2 33.9734 84.3398 38.0510 0.0000 -11.0925 0.0000
# 3 56.9829 38.0510 98.1032 0.0000 -0.7667 0.0000
# 4 0.0000 0.0000 0.0000 31.8875 0.0000 -8.3089
# 5 -29.3314 -11.0925 -0.7667 0.0000 34.5664 0.0000
# 6 0.0000 0.0000 0.0000 -8.3089 0.0000 33.4062
#
#
#
# Elastic Compliance Matrix: (Units=1/GPa)
#
#
# Indices 1 2 3 4 5 6 
#
# 1 0.020343 -0.000875 -0.011346 0.000000 0.016730 0.000000
# 2 -0.000875 0.015141 -0.005333 0.000000 0.003998 0.000000
# 3 -0.011346 -0.005333 0.018767 0.000000 -0.010923 0.000000
# 4 0.000000 0.000000 0.000000 0.033534 0.000000 0.008341
# 5 0.016730 0.003998 -0.010923 0.000000 0.044167 0.000000
# 6 0.000000 0.000000 0.000000 0.008341 0.000000 0.032009
#
#
# Mechanical properties :
#
#
# Convention : Reuss Voigt Hill
#
# Bulk Modulus (GPa) = 52.24007 60.77532 56.50769
# Shear Modulus (GPa) = 24.33670 30.63575 27.48622
#
# Velocity S-wave (km/s) = 3.46459 3.88719 3.68196
# Velocity P-wave (km/s) = 6.46301 7.07974 6.77840
#
# Compressibility (1/GPa) = 0.01914239
#
# Stress axis : x y z
#
# Youngs Moduli (GPa) = 49.15599 66.04450 53.28529
#
# Poissons Ratio (x) = 0.05781 0.60458
# Poissons Ratio (y) = 0.04303 0.28418
# Poissons Ratio (z) = 0.55773 0.35222
#
# Static dielectric constant tensor:
#      x y z
#    x 4.575690 0.000000 -0.418840 
#    y 0.000000 3.719400 0.000000 
#    z -0.418840 0.000000 3.836870 
# 
# 
# High freq. dielectric constant tensor:
#      x y z
#    x 1.794890 0.000000 -0.018830 
#    y 0.000000 1.802520 0.000000 
#    z -0.018830 0.000000 1.799880 
# 
# From -- ./inp_files/50601.got.cif
#   From: 2010.06.25/outbox.cif.g09.slc.cpg/sg15_26_cif.got.tgz:50601.got - 2010.06.28 07:06:18.
