data_PCOD8145849
_publ_section_title
;
Structure prediction by ZEFSAII (Michael W. Deem and Ramdas Pophale) SiO2 
 PCOD8145849
Probable space group: C 2/C
;
_chemical_formula_sum "Si O2"
_cell_formula_units_Z 44
_cell_length_a 20.726874
_cell_length_b 19.371029
_cell_length_c 5.120616
_cell_angle_alpha 90.000000
_cell_angle_beta 77.750257
_cell_angle_gamma 90.000000
_cell_volume 2009.122480
_symmetry_space_group_name_H-M "C 2/C"
_symmetry_group_IT_number 15
_symmetry_cell_setting 'monoclinic'
loop_
_space_group_symop_operation_xyz
x,y,z
-x,y,1/2-z
-x,-y,-z
x,-y,1/2+z
1/2+x,1/2+y,z
1/2-x,1/2+y,1/2-z
1/2-x,1/2-y,-z
1/2+x,1/2-y,1/2+z
loop_
_atom_site_type_symbol
_atom_site_label
_atom_site_fract_x
_atom_site_fract_y
_atom_site_fract_z
Si Si1 0.316213 0.655827 0.873371
Si Si2 0.821171 0.314354 0.779017
Si Si3 0.760406 0.958213 0.109381
Si Si4 0.133695 0.385030 0.255755
Si Si5 0.000000 0.547283 0.750000
Si Si6 0.923305 0.955119 0.318117
O O1 0.335109 0.733805 0.799136
O O2 0.291038 0.617700 0.630674
O O3 0.379843 0.613176 0.920421
O O4 0.254283 0.658580 0.126932
O O5 0.840208 0.327468 0.465547
O O6 0.866443 0.355030 0.950167
O O7 0.680753 0.952458 0.193000
O O8 0.785299 0.009432 0.318382
O O9 0.061933 0.403140 0.217361
O O10 0.000000 0.500000 0.500000
O O11 0.000000 0.932740 0.250000
O O12 0.906856 0.013657 0.546952
#
# Coordination Sequence:
#
# PCOD8145849 Si02
#       6
#     8   8   8   8   4   8
#     4  10  22  40  63  90 123 166 200 257 313 365
#     4  10  24  40  62  89 126 161 209 253 307 370
#     4  11  21  34  58  89 117 149 199 250 300 357
#     4  11  23  42  59  91 125 161 205 256 300 374
#     4  12  24  42  68  90 124 168 202 256 318 362
#     4  10  22  40  61  89 123 159 205 256 309 372
#
# _framework density 21.900106000000001
#
# number of rings (size 3 to 8) (size 9 to 14) (size 15 to 20)
#    0.000    1.455    0.000    5.455    0.000   12.364 
#    3.273    0.000    0.000    0.000    0.000    0.000 
#    0.000    0.000    0.000    0.000    0.000    0.000 
#
# Total GULP energy -272768.381760 kJ/mol
# GULP energy per Si atom -12398.562807 kJ/mol
# Density = 2.185026 g / cm^3
# Si number density = 21.900106 Si / 1000 Ang^3
#
#
#
# Elastic Constant Matrix: (Units=GPa)
#
#
# Indices 1 2 3 4 5 6 
#
# 1 106.3347 53.1487 30.1999 0.0000 -0.5518 0.0000
# 2 53.1487 110.6904 24.3805 0.0000 -8.1641 0.0000
# 3 30.1999 24.3805 67.8394 0.0000 8.2374 0.0000
# 4 0.0000 0.0000 0.0000 21.8919 0.0000 -7.6559
# 5 -0.5518 -8.1641 8.2374 0.0000 32.2601 0.0000
# 6 0.0000 0.0000 0.0000 -7.6559 0.0000 24.0605
#
#
#
# Elastic Compliance Matrix: (Units=1/GPa)
#
#
# Indices 1 2 3 4 5 6 
#
# 1 0.013274 -0.005527 -0.003901 0.000000 -0.000176 0.000000
# 2 -0.005527 0.012509 -0.002485 0.000000 0.003706 0.000000
# 3 -0.003901 -0.002485 0.018013 0.000000 -0.005295 0.000000
# 4 0.000000 0.000000 0.000000 0.051398 0.000000 0.016355
# 5 -0.000176 0.003706 -0.005295 0.000000 0.033285 0.000000
# 6 0.000000 0.000000 0.000000 0.016355 0.000000 0.046766
#
#
# Mechanical properties :
#
#
# Convention : Reuss Voigt Hill
#
# Bulk Modulus (GPa) = 50.07716 55.59142 52.83429
# Shear Modulus (GPa) = 24.30383 27.45152 25.87767
#
# Velocity S-wave (km/s) = 3.33492 3.54430 3.44120
# Velocity P-wave (km/s) = 6.14367 6.49528 6.32192
#
# Compressibility (1/GPa) = 0.01996919
#
# Stress axis : x y z
#
# Youngs Moduli (GPa) = 75.33497 79.94385 55.51397
#
# Poissons Ratio (x) = 0.44187 0.21658
# Poissons Ratio (y) = 0.41639 0.13795
# Poissons Ratio (z) = 0.29392 0.19865
#
# Static dielectric constant tensor:
#      x y z
#    x 5.009460 0.000000 -0.241300 
#    y 0.000000 3.892750 0.000000 
#    z -0.241300 0.000000 4.017850 
# 
# 
# High freq. dielectric constant tensor:
#      x y z
#    x 1.868340 0.000000 0.007990 
#    y 0.000000 1.854490 0.000000 
#    z 0.007990 0.000000 1.864800 
# 
# From -- ./inp_files/12886.got.cif
#   From: 2010.06.25/outbox.cif.g09.slc.cpg/sg15_7_cif.got.tgz:12886.got - 2010.06.28 07:06:18.
