data_PCOD8145813
_publ_section_title
;
Structure prediction by ZEFSAII (Michael W. Deem and Ramdas Pophale) SiO2 
 PCOD8145813
Probable space group: C 2/C
;
_chemical_formula_sum "Si O2"
_cell_formula_units_Z 36
_cell_length_a 8.311537
_cell_length_b 27.183486
_cell_length_c 13.777600
_cell_angle_alpha 90.000000
_cell_angle_beta 34.440556
_cell_angle_gamma 90.000000
_cell_volume 1760.482722
_symmetry_space_group_name_H-M "C 2/C"
_symmetry_group_IT_number 15
_symmetry_cell_setting 'monoclinic'
loop_
_space_group_symop_operation_xyz
x,y,z
-x,y,1/2-z
-x,-y,-z
x,-y,1/2+z
1/2+x,1/2+y,z
1/2-x,1/2+y,1/2-z
1/2-x,1/2-y,-z
1/2+x,1/2-y,1/2+z
loop_
_atom_site_type_symbol
_atom_site_label
_atom_site_fract_x
_atom_site_fract_y
_atom_site_fract_z
Si Si1 0.301994 0.961938 0.987083
Si Si2 0.000000 0.358207 0.250000
Si Si3 0.949484 0.191483 0.987588
Si Si4 0.500000 0.272011 0.250000
Si Si5 0.165828 0.554538 0.802587
Si Si6 0.000000 0.611960 0.250000
O O1 0.518954 0.922540 0.834312
O O2 0.423255 0.015149 0.895716
O O3 0.309582 0.947311 0.094773
O O4 0.980210 0.958467 0.104784
O O5 0.254173 0.319160 0.106186
O O6 0.063112 0.392606 0.312427
O O7 0.992913 0.194524 0.849400
O O8 0.788395 0.239358 0.109249
O O9 0.778759 0.143697 0.101548
#
# Coordination Sequence:
#
# PCOD8145813 Si02
#       6
#     8   4   8   4   8   4
#     4  10  22  40  60  84 128 171 207 240 300 350
#     4  12  23  36  63 100 120 152 205 260 295 354
#     4  10  23  40  69  90 118 153 203 248 315 368
#     4   9  22  48  67  86 118 162 193 246 324 389
#     4  10  23  39  59  88 127 169 204 251 294 349
#     4  11  21  36  64  92 114 166 206 246 291 367
#
# _framework density 20.448938999999999
#
# number of rings (size 3 to 8) (size 9 to 14) (size 15 to 20)
#    0.000    1.778    2.222    0.667    6.222    2.667 
#    0.000    0.000    0.000    0.000    0.000    0.000 
#    0.000    0.000    0.000    0.000    0.000    0.000 
#
# Total GULP energy -223060.029418 kJ/mol
# GULP energy per Si atom -12392.223857 kJ/mol
# Density = 2.040240 g / cm^3
# Si number density = 20.448939 Si / 1000 Ang^3
#
#
#
# Elastic Constant Matrix: (Units=GPa)
#
#
# Indices 1 2 3 4 5 6 
#
# 1 61.1320 32.8200 54.2857 0.0000 -31.7899 0.0000
# 2 32.8200 81.2609 61.2604 0.0000 -19.1626 0.0000
# 3 54.2857 61.2604 140.2591 0.0000 -15.3497 0.0000
# 4 0.0000 0.0000 0.0000 2.4287 0.0000 4.2811
# 5 -31.7899 -19.1626 -15.3497 0.0000 33.1013 0.0000
# 6 0.0000 0.0000 0.0000 4.2811 0.0000 36.2214
#
#
#
# Elastic Compliance Matrix: (Units=1/GPa)
#
#
# Indices 1 2 3 4 5 6 
#
# 1 0.053105 0.001220 -0.016253 0.000000 0.044171 0.000000
# 2 0.001220 0.020204 -0.008310 0.000000 0.009014 0.000000
# 3 -0.016253 -0.008310 0.015607 0.000000 -0.013182 0.000000
# 4 0.000000 0.000000 0.000000 0.520102 0.000000 -0.061472
# 5 0.044171 0.009014 -0.013182 0.000000 0.071737 0.000000
# 6 0.000000 0.000000 0.000000 -0.061472 0.000000 0.034873
#
#
# Mechanical properties :
#
#
# Convention : Reuss Voigt Hill
#
# Bulk Modulus (GPa) = 23.67929 64.37601 44.02765
# Shear Modulus (GPa) = 6.44006 23.30269 14.87137
#
# Velocity S-wave (km/s) = 1.77656 3.37939 2.69967
# Velocity P-wave (km/s) = 3.97657 6.83935 5.59419
#
# Compressibility (1/GPa) = 0.04223099
#
# Stress axis : x y z
#
# Youngs Moduli (GPa) = 18.83047 49.49602 64.07376
#
# Poissons Ratio (x) = -0.06040 1.04138
# Poissons Ratio (y) = -0.02298 0.53246
# Poissons Ratio (z) = 0.30605 0.41131
#
# Static dielectric constant tensor:
#      x y z
#    x 3.830830 0.000000 0.208180 
#    y 0.000000 3.776970 0.000000 
#    z 0.208180 0.000000 4.811460 
# 
# 
# High freq. dielectric constant tensor:
#      x y z
#    x 1.781100 0.000000 -0.001690 
#    y 0.000000 1.800670 0.000000 
#    z -0.001690 0.000000 1.821280 
# 
# From -- ./inp_files/23364.got.cif
#   From: 2010.06.25/outbox.cif.g09.slc.cpg/sg15_12_cif.got.tgz:23364.got - 2010.06.28 07:06:18.
