data_PCOD8145303
_publ_section_title
;
Structure prediction by ZEFSAII (Michael W. Deem and Ramdas Pophale) SiO2 
 PCOD8145303
Probable space group: C 2/C
;
_chemical_formula_sum "Si O2"
_cell_formula_units_Z 48
_cell_length_a 11.927620
_cell_length_b 12.744516
_cell_length_c 14.087543
_cell_angle_alpha 90.000000
_cell_angle_beta 84.403670
_cell_angle_gamma 90.000000
_cell_volume 2131.264971
_symmetry_space_group_name_H-M "C 2/C"
_symmetry_group_IT_number 15
_symmetry_cell_setting 'monoclinic'
loop_
_space_group_symop_operation_xyz
x,y,z
-x,y,1/2-z
-x,-y,-z
x,-y,1/2+z
1/2+x,1/2+y,z
1/2-x,1/2+y,1/2-z
1/2-x,1/2-y,-z
1/2+x,1/2-y,1/2+z
loop_
_atom_site_type_symbol
_atom_site_label
_atom_site_fract_x
_atom_site_fract_y
_atom_site_fract_z
Si Si1 0.403912 0.224683 0.561806
Si Si2 0.343032 0.757188 0.411436
Si Si3 0.216761 0.961420 0.627179
Si Si4 0.243806 0.159610 0.736135
Si Si5 0.371254 0.124539 0.254053
Si Si6 0.246781 0.592157 0.055099
O O1 0.537984 0.208452 0.554260
O O2 0.351663 0.174162 0.660154
O O3 0.365425 0.345994 0.555375
O O4 0.354455 0.165549 0.474527
O O5 0.250000 0.750000 0.500000
O O6 0.364454 0.641054 0.362632
O O7 0.295280 0.840786 0.338201
O O8 0.336770 0.917385 0.653469
O O9 0.179099 0.054569 0.703152
O O10 0.230481 0.995124 0.516465
O O11 0.153181 0.252073 0.731251
O O12 0.500000 0.098484 0.250000
O O13 0.298154 0.057704 0.337557
#
# Coordination Sequence:
#
# PCOD8145303 Si02
#       6
#     8   8   8   8   8   8
#     4   9  19  40  67  84 121 171 206 255 313 380
#     4  11  24  38  65  99 131 157 214 276 311 357
#     4  10  23  41  60  95 125 166 213 249 327 383
#     4   9  21  44  60  86 127 169 211 247 321 392
#     4  10  22  38  62  91 125 162 212 269 313 366
#     4   9  20  39  63  86 123 169 212 248 315 390
#
# _framework density 22.521837999999999
#
# number of rings (size 3 to 8) (size 9 to 14) (size 15 to 20)
#    0.000    2.333    0.000    1.500    7.000    4.000 
#    0.000    5.000    0.000    0.000    0.000    0.000 
#    0.000    0.000    0.000    0.000    0.000    0.000 
#
# Total GULP energy -297402.006236 kJ/mol
# GULP energy per Si atom -12391.750260 kJ/mol
# Density = 2.247058 g / cm^3
# Si number density = 22.521838 Si / 1000 Ang^3
#
#
#
# Elastic Constant Matrix: (Units=GPa)
#
#
# Indices 1 2 3 4 5 6 
#
# 1 47.1397 -23.9421 10.2017 0.0000 5.6621 0.0000
# 2 -23.9421 79.4327 -1.2473 0.0000 1.4841 0.0000
# 3 10.2017 -1.2473 83.4187 0.0000 5.3821 0.0000
# 4 0.0000 0.0000 0.0000 38.0550 0.0000 5.9526
# 5 5.6621 1.4841 5.3821 0.0000 27.6341 0.0000
# 6 0.0000 0.0000 0.0000 5.9526 0.0000 1.1912
#
#
#
# Elastic Compliance Matrix: (Units=1/GPa)
#
#
# Indices 1 2 3 4 5 6 
#
# 1 0.026549 0.008058 -0.002782 0.000000 -0.005331 0.000000
# 2 0.008058 0.015052 -0.000609 0.000000 -0.002341 0.000000
# 3 -0.002782 -0.000609 0.012436 0.000000 -0.001819 0.000000
# 4 0.000000 0.000000 0.000000 0.120345 0.000000 -0.601373
# 5 -0.005331 -0.002341 -0.001819 0.000000 0.037759 0.000000
# 6 0.000000 0.000000 0.000000 -0.601373 0.000000 3.844589
#
#
# Mechanical properties :
#
#
# Convention : Reuss Voigt Hill
#
# Bulk Modulus (GPa) = 15.78042 20.00174 17.89108
# Shear Modulus (GPa) = 1.22895 28.37465 14.80180
#
# Velocity S-wave (km/s) = 0.73950 3.55332 2.56641
# Velocity P-wave (km/s) = 2.78407 5.07298 4.09183
#
# Compressibility (1/GPa) = 0.06336965
#
# Stress axis : x y z
#
# Youngs Moduli (GPa) = 37.66678 66.43530 80.41002
#
# Poissons Ratio (x) = -0.53534 0.22373
# Poissons Ratio (y) = -0.30352 0.04900
# Poissons Ratio (z) = 0.10480 0.04048
#
# Static dielectric constant tensor:
#      x y z
#    x 3.534840 0.000000 0.270680 
#    y 0.000000 4.367030 0.000000 
#    z 0.270680 0.000000 4.316400 
# 
# 
# High freq. dielectric constant tensor:
#      x y z
#    x 1.848120 0.000000 0.021020 
#    y 0.000000 1.890710 0.000000 
#    z 0.021020 0.000000 1.903970 
# 
# From -- ./inp_files/143645.got.cif
#   From: 2010.06.25/outbox.cif.g09.slc.cpg/sg15_72_cif.got.tgz:143645.got - 2010.06.28 07:06:18.
