data_PCOD8145908
_publ_section_title
;
Structure prediction by ZEFSAII (Michael W. Deem and Ramdas Pophale) SiO2 
 PCOD8145908
Probable space group: C 2/C
;
_chemical_formula_sum "Si O2"
_cell_formula_units_Z 44
_cell_length_a 23.060439
_cell_length_b 9.158371
_cell_length_c 26.353029
_cell_angle_alpha 90.000000
_cell_angle_beta 159.307514
_cell_angle_gamma 90.000000
_cell_volume 1966.636508
_symmetry_space_group_name_H-M "C 2/C"
_symmetry_group_IT_number 15
_symmetry_cell_setting 'monoclinic'
loop_
_space_group_symop_operation_xyz
x,y,z
-x,y,1/2-z
-x,-y,-z
x,-y,1/2+z
1/2+x,1/2+y,z
1/2-x,1/2+y,1/2-z
1/2-x,1/2-y,-z
1/2+x,1/2-y,1/2+z
loop_
_atom_site_type_symbol
_atom_site_label
_atom_site_fract_x
_atom_site_fract_y
_atom_site_fract_z
Si Si1 0.500000 0.926939 0.250000
Si Si2 0.138427 0.150887 0.466321
Si Si3 0.691648 0.790780 0.054629
Si Si4 0.487704 0.965811 0.348507
Si Si5 0.124436 0.985733 0.556326
Si Si6 0.041132 0.858230 0.341680
O O1 0.665886 0.827097 0.383518
O O2 0.490721 0.031956 0.292775
O O3 0.041257 0.300738 0.380648
O O4 0.092529 0.100211 0.485445
O O5 0.075029 0.031034 0.374165
O O6 0.684986 0.729174 0.990325
O O7 0.609980 0.951081 0.986264
O O8 0.596410 0.677569 0.012237
O O9 0.868183 0.811559 0.225621
O O10 0.308862 0.982786 0.226862
O O11 0.000000 0.000000 0.500000
O O12 0.000000 0.820113 0.250000
#
# Coordination Sequence:
#
# PCOD8145908 Si02
#       6
#     4   8   8   8   8   8
#     4  10  22  40  62  98 140 178 210 276 330 404
#     4  10  24  41  67  98 134 178 227 275 334 408
#     4  11  23  42  65  95 134 172 221 274 334 396
#     4  11  23  40  66  98 131 173 223 272 338 400
#     4  10  24  47  66  90 131 174 230 289 336 392
#     4  11  23  39  65  99 138 179 215 269 338 404
#
# _framework density 22.373222999999999
#
# number of rings (size 3 to 8) (size 9 to 14) (size 15 to 20)
#    0.000    1.455    1.818    2.182    7.636    1.455 
#    0.000    0.909    0.000    0.000    0.000    0.000 
#    0.000    0.000    0.000    0.000    0.000    0.000 
#
# Total GULP energy -272602.334602 kJ/mol
# GULP energy per Si atom -12391.015209 kJ/mol
# Density = 2.232230 g / cm^3
# Si number density = 22.373223 Si / 1000 Ang^3
#
#
#
# Elastic Constant Matrix: (Units=GPa)
#
#
# Indices 1 2 3 4 5 6 
#
# 1 84.0310 -10.3316 33.9632 0.0002 29.6883 0.0006
# 2 -10.3316 71.7993 31.9330 -0.0012 3.3584 -0.0003
# 3 33.9632 31.9330 123.2753 -0.0109 3.5164 -0.0027
# 4 0.0002 -0.0012 -0.0109 34.4177 -0.0026 -6.2927
# 5 29.6883 3.3584 3.5164 -0.0026 37.1830 -0.0001
# 6 0.0006 -0.0003 -0.0027 -6.2927 -0.0001 18.7349
#
#
#
# Elastic Compliance Matrix: (Units=1/GPa)
#
#
# Indices 1 2 3 4 5 6 
#
# 1 0.022000 0.007300 -0.007452 -0.000004 -0.017520 -0.000003
# 2 0.007300 0.018203 -0.006531 -0.000002 -0.006855 -0.000002
# 3 -0.007452 -0.006531 0.011702 0.000005 0.005433 0.000003
# 4 -0.000004 -0.000002 0.000005 0.030956 0.000005 0.010397
# 5 -0.017520 -0.006855 0.005433 0.000005 0.040988 0.000003
# 6 -0.000003 -0.000002 0.000003 0.010397 0.000003 0.056869
#
#
# Mechanical properties :
#
#
# Convention : Reuss Voigt Hill
#
# Bulk Modulus (GPa) = 25.94860 43.35944 34.65402
# Shear Modulus (GPa) = 24.16275 32.96986 28.56631
#
# Velocity S-wave (km/s) = 3.28988 3.84295 3.57712
# Velocity P-wave (km/s) = 5.10434 6.25405 5.70822
#
# Compressibility (1/GPa) = 0.03853772
#
# Stress axis : x y z
#
# Youngs Moduli (GPa) = 45.45530 54.93492 85.45680
#
# Poissons Ratio (x) = -0.40100 0.63684
# Poissons Ratio (y) = -0.33180 0.55811
# Poissons Ratio (z) = 0.33874 0.35877
#
# Static dielectric constant tensor:
#      x y z
#    x 3.714640 0.000000 -0.231910 
#    y 0.000000 3.946340 -0.000010 
#    z -0.231910 -0.000010 4.537810 
# 
# 
# High freq. dielectric constant tensor:
#      x y z
#    x 1.843060 0.000000 -0.011520 
#    y 0.000000 1.885570 0.000000 
#    z -0.011520 0.000000 1.897850 
# 
# From -- ./inp_files/318653.got.cif
#   From: 2010.06.25/outbox.cif.g09.slc.cpg/sg15_160_cif.got.tgz:318653.got - 2010.06.28 07:06:18.
