data_PCOD8145402
_publ_section_title
;
Structure prediction by ZEFSAII (Michael W. Deem and Ramdas Pophale) SiO2 
 PCOD8145402
Probable space group: C 2/C
;
_chemical_formula_sum "Si O2"
_cell_formula_units_Z 28
_cell_length_a 6.928735
_cell_length_b 18.813453
_cell_length_c 10.195956
_cell_angle_alpha 90.000000
_cell_angle_beta 74.274009
_cell_angle_gamma 90.000000
_cell_volume 1279.328988
_symmetry_space_group_name_H-M "C 2/C"
_symmetry_group_IT_number 15
_symmetry_cell_setting 'monoclinic'
loop_
_space_group_symop_operation_xyz
x,y,z
-x,y,1/2-z
-x,-y,-z
x,-y,1/2+z
1/2+x,1/2+y,z
1/2-x,1/2+y,1/2-z
1/2-x,1/2-y,-z
1/2+x,1/2-y,1/2+z
loop_
_atom_site_type_symbol
_atom_site_label
_atom_site_fract_x
_atom_site_fract_y
_atom_site_fract_z
Si Si1 0.500000 0.726569 0.750000
Si Si2 0.959281 0.420387 0.549942
Si Si3 0.832399 0.826299 0.023088
Si Si4 0.267362 0.642292 0.166845
O O1 0.551337 0.674710 0.860898
O O2 0.306588 0.776470 0.804747
O O3 0.856283 0.380249 0.444995
O O4 0.809524 0.409104 0.701973
O O5 0.000000 0.500000 0.500000
O O6 0.173772 0.386534 0.547141
O O7 0.750000 0.750000 0.000000
O O8 0.992200 0.854638 0.885338
#
# Coordination Sequence:
#
# PCOD8145402 Si02
#       4
#     4   8   8   8
#     4  10  22  38  66 110 132 172 234 284 356 410
#     4  10  23  44  68  96 136 189 226 282 349 416
#     4  12  22  41  71 101 136 181 225 296 348 406
#     4  10  22  43  66 100 139 171 237 292 340 412
#
# _framework density 21.886472999999999
#
# number of rings (size 3 to 8) (size 9 to 14) (size 15 to 20)
#    0.000    1.714    5.714    1.714    0.000    1.143 
#   10.286    0.000    0.000    0.000    0.000    0.000 
#    0.000    0.000    0.000    0.000    0.000    0.000 
#
# Total GULP energy -173501.841463 kJ/mol
# GULP energy per Si atom -12392.988676 kJ/mol
# Density = 2.183666 g / cm^3
# Si number density = 21.886473 Si / 1000 Ang^3
#
#
#
# Elastic Constant Matrix: (Units=GPa)
#
#
# Indices 1 2 3 4 5 6 
#
# 1 104.4816 57.3622 22.3116 0.0000 11.7442 0.0000
# 2 57.3622 144.4744 54.0218 0.0000 3.7180 0.0000
# 3 22.3116 54.0218 119.7450 0.0000 7.3943 0.0000
# 4 0.0000 0.0000 0.0000 41.3277 0.0000 -2.2774
# 5 11.7442 3.7180 7.3943 0.0000 17.3730 0.0000
# 6 0.0000 0.0000 0.0000 -2.2774 0.0000 27.6853
#
#
#
# Elastic Compliance Matrix: (Units=1/GPa)
#
#
# Indices 1 2 3 4 5 6 
#
# 1 0.013240 -0.005188 0.000368 0.000000 -0.007996 0.000000
# 2 -0.005188 0.010360 -0.003889 0.000000 0.002945 0.000000
# 3 0.000368 -0.003889 0.010271 0.000000 -0.003788 0.000000
# 4 0.000000 0.000000 0.000000 0.024307 0.000000 0.002000
# 5 -0.007996 0.002945 -0.003788 0.000000 0.063948 0.000000
# 6 0.000000 0.000000 0.000000 0.002000 0.000000 0.036285
#
#
# Mechanical properties :
#
#
# Convention : Reuss Voigt Hill
#
# Bulk Modulus (GPa) = 60.78586 70.67691 65.73138
# Shear Modulus (GPa) = 27.57646 32.94422 30.26034
#
# Velocity S-wave (km/s) = 3.55347 3.88394 3.72237
# Velocity P-wave (km/s) = 6.68354 7.24403 6.96942
#
# Compressibility (1/GPa) = 0.01645119
#
# Stress axis : x y z
#
# Youngs Moduli (GPa) = 75.52905 96.52489 97.36192
#
# Poissons Ratio (x) = 0.50081 -0.03578
# Poissons Ratio (y) = 0.39188 0.37864
# Poissons Ratio (z) = -0.02776 0.37538
#
# Static dielectric constant tensor:
#      x y z
#    x 4.040450 0.000000 0.435020 
#    y 0.000000 3.633160 0.000000 
#    z 0.435020 0.000000 5.052630 
# 
# 
# High freq. dielectric constant tensor:
#      x y z
#    x 1.862730 0.000000 0.032190 
#    y 0.000000 1.826470 0.000000 
#    z 0.032190 0.000000 1.869680 
# 
# From -- ./inp_files/151095.got.cif
#   From: 2010.06.25/outbox.cif.g09.slc.cpg/sg15_76_cif.got.tgz:151095.got - 2010.06.28 07:06:18.
