data_PCOD8145802
_publ_section_title
;
Structure prediction by ZEFSAII (Michael W. Deem and Ramdas Pophale) SiO2 
 PCOD8145802
Probable space group: C 2/C
;
_chemical_formula_sum "Si O2"
_cell_formula_units_Z 36
_cell_length_a 12.613998
_cell_length_b 26.570584
_cell_length_c 5.000498
_cell_angle_alpha 90.000000
_cell_angle_beta 102.550882
_cell_angle_gamma 90.000000
_cell_volume 1635.923331
_symmetry_space_group_name_H-M "C 2/C"
_symmetry_group_IT_number 15
_symmetry_cell_setting 'monoclinic'
loop_
_space_group_symop_operation_xyz
x,y,z
-x,y,1/2-z
-x,-y,-z
x,-y,1/2+z
1/2+x,1/2+y,z
1/2-x,1/2+y,1/2-z
1/2-x,1/2-y,-z
1/2+x,1/2-y,1/2+z
loop_
_atom_site_type_symbol
_atom_site_label
_atom_site_fract_x
_atom_site_fract_y
_atom_site_fract_z
Si Si1 0.870546 0.671341 0.195269
Si Si2 0.928459 0.231977 0.963780
Si Si3 0.808022 0.612810 0.659416
Si Si4 0.427182 0.620269 0.969517
Si Si5 0.000000 0.464334 0.250000
O O1 0.840761 0.726602 0.307321
O O2 0.822653 0.629705 0.363009
O O3 0.000000 0.668845 0.250000
O O4 0.823371 0.659662 0.875772
O O5 0.883099 0.177116 0.021945
O O6 0.000000 0.217851 0.750000
O O7 0.000000 0.254722 0.250000
O O8 0.686079 0.590031 0.624975
O O9 0.894561 0.569238 0.750463
O O10 0.500000 0.615230 0.750000
O O11 0.500000 0.598749 0.250000
O O12 0.000000 0.500000 0.500000
#
# Coordination Sequence:
#
# PCOD8145802 Si02
#       5
#     8   8   8   8   4
#     4  11  19  34  56  90 129 157 211 254 300 369
#     4   9  18  32  52  82 127 173 205 254 291 337
#     4  12  23  39  66  91 118 167 203 255 323 369
#     4  10  22  40  59  88 129 170 216 245 289 363
#     4  12  26  46  68  96 126 146 198 268 338 388
#
# _framework density 22.005918999999999
#
# number of rings (size 3 to 8) (size 9 to 14) (size 15 to 20)
#    0.000    1.333    2.222    5.333    0.000    1.778 
#    0.000    0.000    0.000    4.000    0.000    0.000 
#    0.000    0.000    0.000    0.000    0.000    0.000 
#
# Total GULP energy -223012.510653 kJ/mol
# GULP energy per Si atom -12389.583925 kJ/mol
# Density = 2.195583 g / cm^3
# Si number density = 22.005919 Si / 1000 Ang^3
#
#
#
# Elastic Constant Matrix: (Units=GPa)
#
#
# Indices 1 2 3 4 5 6 
#
# 1 134.4116 32.0520 45.2962 0.0000 20.4677 0.0000
# 2 32.0520 60.8669 17.3225 0.0000 2.3216 0.0000
# 3 45.2962 17.3225 136.2594 0.0000 -1.1684 0.0000
# 4 0.0000 0.0000 0.0000 -28.1786 0.0000 6.2461
# 5 20.4677 2.3216 -1.1684 0.0000 38.6891 0.0000
# 6 0.0000 0.0000 0.0000 6.2461 0.0000 9.0819
#
#
#
# Elastic Compliance Matrix: (Units=1/GPa)
#
#
# Indices 1 2 3 4 5 6 
#
# 1 0.010261 -0.004378 -0.002899 0.000000 -0.005253 0.000000
# 2 -0.004378 0.018960 -0.000945 0.000000 0.001150 0.000000
# 3 -0.002899 -0.000945 0.008439 0.000000 0.001845 0.000000
# 4 0.000000 0.000000 0.000000 -0.030793 0.000000 0.021178
# 5 -0.005253 0.001150 0.001845 0.000000 0.028613 0.000000
# 6 0.000000 0.000000 0.000000 0.021178 0.000000 0.095543
#
#
# Mechanical properties :
#
#
# Convention : Reuss Voigt Hill
#
# Bulk Modulus (GPa) = 47.13753 57.87551 52.50652
# Shear Modulus (GPa) = 32.35441 19.70962 26.03202
#
# Velocity S-wave (km/s) = 3.83856 2.99599 3.44314
# Velocity P-wave (km/s) = 6.41193 6.19072 6.30230
#
# Compressibility (1/GPa) = 0.02121452
#
# Stress axis : x y z
#
# Youngs Moduli (GPa) = 97.45845 52.74347 118.50042
#
# Poissons Ratio (x) = 0.23090 0.34359
# Poissons Ratio (y) = 0.42664 0.11201
# Poissons Ratio (z) = 0.28258 0.04985
#
# Static dielectric constant tensor:
#      x y z
#    x 3.896560 0.000000 -0.168630 
#    y 0.000000 3.805110 0.000000 
#    z -0.168630 0.000000 5.235720 
# 
# 
# High freq. dielectric constant tensor:
#      x y z
#    x 1.863170 0.000000 -0.013670 
#    y 0.000000 1.816880 0.000000 
#    z -0.013670 0.000000 1.885600 
# 
# From -- ./inp_files/4821.got.cif
#   From: 2010.06.25/outbox.cif.g09.slc.cpg/sg15_3_cif.got.tgz:4821.got - 2010.06.28 07:06:18.
