data_PCOD8145684
_publ_section_title
;
Structure prediction by ZEFSAII (Michael W. Deem and Ramdas Pophale) SiO2 
 PCOD8145684
Probable space group: C 2/C
;
_chemical_formula_sum "Si O2"
_cell_formula_units_Z 64
_cell_length_a 28.814760
_cell_length_b 12.088757
_cell_length_c 15.141854
_cell_angle_alpha 90.000000
_cell_angle_beta 38.533967
_cell_angle_gamma 90.000000
_cell_volume 3285.857744
_symmetry_space_group_name_H-M "C 2/C"
_symmetry_group_IT_number 15
_symmetry_cell_setting 'monoclinic'
loop_
_space_group_symop_operation_xyz
x,y,z
-x,y,1/2-z
-x,-y,-z
x,-y,1/2+z
1/2+x,1/2+y,z
1/2-x,1/2+y,1/2-z
1/2-x,1/2-y,-z
1/2+x,1/2-y,1/2+z
loop_
_atom_site_type_symbol
_atom_site_label
_atom_site_fract_x
_atom_site_fract_y
_atom_site_fract_z
Si Si1 0.439424 0.112301 0.270095
Si Si2 0.986021 0.736985 0.030390
Si Si3 0.077420 0.942401 0.903448
Si Si4 0.950653 0.354218 0.241377
Si Si5 0.785195 0.079034 0.413955
Si Si6 0.188991 0.244191 0.982401
Si Si7 0.273614 0.153388 0.529904
Si Si8 0.150646 0.854459 0.353666
O O1 0.500000 0.152774 0.250000
O O2 0.465916 0.150200 0.134990
O O3 0.361493 0.166005 0.416125
O O4 0.430344 0.981473 0.282445
O O5 0.911426 0.803587 0.117951
O O6 0.053477 0.817010 0.965012
O O7 0.009383 0.667414 0.910310
O O8 0.128343 0.940858 0.739482
O O9 0.124902 0.015626 0.905002
O O10 0.000000 0.000000 0.000000
O O11 0.876024 0.283187 0.355433
O O12 0.000000 0.313744 0.250000
O O13 0.775623 0.137274 0.523276
O O14 0.748858 0.155445 0.389885
O O15 0.742761 0.964104 0.491182
O O16 0.157378 0.211817 0.934301
O O17 0.250000 0.250000 0.500000
O O18 0.230470 0.156681 0.687400
#
# Coordination Sequence:
#
# PCOD8145684 Si02
#       8
#     8   8   8   8   8   8   8   8
#     4  11  25  42  61  95 129 169 214 262 321 384
#     4  11  20  40  65  91 127 165 209 261 319 379
#     4   9  20  38  60  89 123 158 203 256 313 376
#     4  11  21  38  66  93 124 161 214 265 315 382
#     4  10  22  40  64  91 126 162 207 269 314 377
#     4  11  21  40  64  96 123 158 220 264 318 372
#     4  11  22  45  64  86 130 172 211 257 326 385
#     4  10  22  39  65  93 120 167 212 261 315 379
#
# _framework density 19.477409999999999
#
# number of rings (size 3 to 8) (size 9 to 14) (size 15 to 20)
#    0.000    1.500    5.000    0.375    0.000    1.000 
#    6.750    1.250    0.000    0.000    0.000    0.000 
#    0.000    0.000    0.000    0.000    0.000    0.000 
#
# Total GULP energy -396663.330383 kJ/mol
# GULP energy per Si atom -12395.729074 kJ/mol
# Density = 1.943308 g / cm^3
# Si number density = 19.477410 Si / 1000 Ang^3
#
#
#
# Elastic Constant Matrix: (Units=GPa)
#
#
# Indices 1 2 3 4 5 6 
#
# 1 101.7951 49.7069 50.2487 0.0000 -1.6560 0.0000
# 2 49.7069 86.5131 23.7415 0.0001 -2.6704 0.0000
# 3 50.2487 23.7415 123.0077 0.0000 -10.7209 0.0000
# 4 0.0000 0.0001 0.0000 31.3333 0.0000 -1.6985
# 5 -1.6560 -2.6704 -10.7209 0.0000 31.2805 0.0000
# 6 0.0000 0.0000 0.0000 -1.6985 0.0000 28.8586
#
#
#
# Elastic Compliance Matrix: (Units=1/GPa)
#
#
# Indices 1 2 3 4 5 6 
#
# 1 0.016278 -0.007961 -0.005254 0.000000 -0.001619 0.000000
# 2 -0.007961 0.016100 0.000235 0.000000 0.001033 0.000000
# 3 -0.005254 0.000235 0.010522 0.000000 0.003348 0.000000
# 4 0.000000 0.000000 0.000000 0.032017 0.000000 0.001884
# 5 -0.001619 0.001033 0.003348 0.000000 0.033119 0.000000
# 6 0.000000 0.000000 0.000000 0.001884 0.000000 0.034763
#
#
# Mechanical properties :
#
#
# Convention : Reuss Voigt Hill
#
# Bulk Modulus (GPa) = 59.03148 62.07889 60.55519
# Shear Modulus (GPa) = 28.66849 30.80242 29.73545
#
# Velocity S-wave (km/s) = 3.84068 3.98105 3.91149
# Velocity P-wave (km/s) = 7.07398 7.28513 7.18033
#
# Compressibility (1/GPa) = 0.01694011
#
# Stress axis : x y z
#
# Youngs Moduli (GPa) = 61.43159 62.10997 95.03470
#
# Poissons Ratio (x) = 0.49445 0.49933
# Poissons Ratio (y) = 0.48905 -0.02229
# Poissons Ratio (z) = 0.32278 -0.01457
#
# Static dielectric constant tensor:
#      x y z
#    x 3.402490 0.000000 -0.313890 
#    y 0.000000 3.802360 0.000000 
#    z -0.313890 0.000000 3.605040 
# 
# 
# High freq. dielectric constant tensor:
#      x y z
#    x 1.738200 0.000000 -0.022030 
#    y 0.000000 1.770340 0.000000 
#    z -0.022030 0.000000 1.766150 
# 
# From -- ./inp_files/177821.got.cif
#   From: 2010.06.25/outbox.cif.g09.slc.cpg/sg15_89_cif.got.tgz:177821.got - 2010.06.28 07:06:18.
