data_PCOD8145160
_publ_section_title
;
Structure prediction by ZEFSAII (Michael W. Deem and Ramdas Pophale) SiO2 
 PCOD8145160
Probable space group: C 2/C
;
_chemical_formula_sum "Si O2"
_cell_formula_units_Z 48
_cell_length_a 5.028740
_cell_length_b 17.570851
_cell_length_c 24.293069
_cell_angle_alpha 90.000000
_cell_angle_beta 77.769672
_cell_angle_gamma 90.000000
_cell_volume 2097.799573
_symmetry_space_group_name_H-M "C 2/C"
_symmetry_group_IT_number 15
_symmetry_cell_setting 'monoclinic'
loop_
_space_group_symop_operation_xyz
x,y,z
-x,y,1/2-z
-x,-y,-z
x,-y,1/2+z
1/2+x,1/2+y,z
1/2-x,1/2+y,1/2-z
1/2-x,1/2-y,-z
1/2+x,1/2-y,1/2+z
loop_
_atom_site_type_symbol
_atom_site_label
_atom_site_fract_x
_atom_site_fract_y
_atom_site_fract_z
Si Si1 0.500000 0.747558 0.250000
Si Si2 0.741230 0.431603 0.860094
Si Si3 0.857358 0.098282 0.611107
Si Si4 0.795454 0.627038 0.682242
Si Si5 0.036850 0.772085 0.463861
Si Si6 0.742415 0.834024 0.861183
Si Si7 0.000000 0.500526 0.750000
O O1 0.701888 0.798742 0.278787
O O2 0.693654 0.696097 0.202913
O O3 0.644117 0.507232 0.896865
O O4 0.517558 0.365889 0.876943
O O5 0.029209 0.403200 0.870432
O O6 0.785765 0.450221 0.793631
O O7 0.552310 0.130426 0.630331
O O8 0.972447 0.137678 0.550539
O O9 0.020867 0.123294 0.658840
O O10 0.815440 0.551207 0.717776
O O11 0.250000 0.750000 0.500000
O O12 0.112131 0.732273 0.403167
O O13 0.750000 0.750000 0.500000
#
# Coordination Sequence:
#
# PCOD8145160 Si02
#       7
#     4   8   8   8   8   8   4
#     4  11  24  40  70 110 151 178 232 292 353 424
#     4  11  24  42  65 101 148 179 226 274 352 424
#     4  11  23  46  70  98 135 184 233 279 343 417
#     4  10  22  37  68 103 140 179 235 271 329 423
#     4  12  27  50  75  99 132 182 245 300 347 407
#     4  12  26  44  68 107 142 182 225 292 354 410
#     4   9  20  38  62 102 143 194 210 264 337 430
#
# _framework density 22.881119000000002
#
# number of rings (size 3 to 8) (size 9 to 14) (size 15 to 20)
#    0.000    1.000    1.667    5.000    2.333   10.000 
#    0.000    5.000    0.000    0.000    0.000    0.000 
#    0.000    0.000    0.000    0.000    0.000    0.000 
#
# Total GULP energy -297643.664675 kJ/mol
# GULP energy per Si atom -12401.819361 kJ/mol
# Density = 2.282904 g / cm^3
# Si number density = 22.881119 Si / 1000 Ang^3
#
#
#
# Elastic Constant Matrix: (Units=GPa)
#
#
# Indices 1 2 3 4 5 6 
#
# 1 103.1407 27.6241 23.5545 0.0000 -8.1419 0.0000
# 2 27.6241 99.8256 27.7343 0.0000 -9.6820 0.0000
# 3 23.5545 27.7343 78.9169 0.0000 -13.7006 0.0000
# 4 0.0000 0.0000 0.0000 27.9671 0.0000 -6.7120
# 5 -8.1419 -9.6820 -13.7006 0.0000 43.5949 0.0000
# 6 0.0000 0.0000 0.0000 -6.7120 0.0000 31.1140
#
#
#
# Elastic Compliance Matrix: (Units=1/GPa)
#
#
# Indices 1 2 3 4 5 6 
#
# 1 0.010901 -0.002298 -0.002307 0.000000 0.000801 0.000000
# 2 -0.002298 0.011657 -0.003211 0.000000 0.001151 0.000000
# 3 -0.002307 -0.003211 0.015115 0.000000 0.003606 0.000000
# 4 0.000000 0.000000 0.000000 0.037709 0.000000 0.008135
# 5 0.000801 0.001151 0.003606 0.000000 0.024477 0.000000
# 6 0.000000 0.000000 0.000000 0.008135 0.000000 0.033895
#
#
# Mechanical properties :
#
#
# Convention : Reuss Voigt Hill
#
# Bulk Modulus (GPa) = 45.37100 48.85657 47.11378
# Shear Modulus (GPa) = 31.90160 34.06656 32.98408
#
# Velocity S-wave (km/s) = 3.73799 3.86275 3.80088
# Velocity P-wave (km/s) = 6.20501 6.42597 6.31646
#
# Compressibility (1/GPa) = 0.02204051
#
# Stress axis : x y z
#
# Youngs Moduli (GPa) = 91.73450 85.78467 66.16077
#
# Poissons Ratio (x) = 0.19713 0.15264
# Poissons Ratio (y) = 0.21080 0.21245
# Poissons Ratio (z) = 0.21164 0.27546
#
# Static dielectric constant tensor:
#      x y z
#    x 4.054450 0.000000 -0.211580 
#    y 0.000000 4.372180 0.000000 
#    z -0.211580 0.000000 4.050880 
# 
# 
# High freq. dielectric constant tensor:
#      x y z
#    x 1.911480 0.000000 -0.010360 
#    y 0.000000 1.914100 0.000000 
#    z -0.010360 0.000000 1.879570 
# 
# From -- ./inp_files/260700.got.cif
#   From: 2010.06.25/outbox.cif.g09.slc.cpg/sg15_131_cif.got.tgz:260700.got - 2010.06.28 07:06:18.
