data_PCOD8145795
_publ_section_title
;
Structure prediction by ZEFSAII (Michael W. Deem and Ramdas Pophale) SiO2 
 PCOD8145795
Probable space group: C 2/C
;
_chemical_formula_sum "Si O2"
_cell_formula_units_Z 52
_cell_length_a 6.469050
_cell_length_b 20.557977
_cell_length_c 24.147815
_cell_angle_alpha 90.000000
_cell_angle_beta 57.137308
_cell_angle_gamma 90.000000
_cell_volume 2697.517327
_symmetry_space_group_name_H-M "C 2/C"
_symmetry_group_IT_number 15
_symmetry_cell_setting 'monoclinic'
loop_
_space_group_symop_operation_xyz
x,y,z
-x,y,1/2-z
-x,-y,-z
x,-y,1/2+z
1/2+x,1/2+y,z
1/2-x,1/2+y,1/2-z
1/2-x,1/2-y,-z
1/2+x,1/2-y,1/2+z
loop_
_atom_site_type_symbol
_atom_site_label
_atom_site_fract_x
_atom_site_fract_y
_atom_site_fract_z
Si Si1 0.464876 0.765190 0.548354
Si Si2 0.660576 0.051086 0.940484
Si Si3 0.506127 0.530090 0.187911
Si Si4 0.418056 0.872826 0.642566
Si Si5 0.863396 0.068814 0.021011
Si Si6 0.706936 0.845167 0.030747
Si Si7 0.000000 0.591295 0.250000
O O1 0.434283 0.802700 0.610857
O O2 0.391728 0.809915 0.508294
O O3 0.277802 0.702915 0.571764
O O4 0.750000 0.750000 0.500000
O O5 0.493159 0.098429 0.926096
O O6 0.862239 0.018465 0.872782
O O7 0.809152 0.091517 0.965615
O O8 0.500000 0.000000 0.000000
O O9 0.500000 0.498010 0.250000
O O10 0.648619 0.598772 0.170622
O O11 0.232452 0.544127 0.206129
O O12 0.608782 0.927999 0.592168
O O13 0.461874 0.863038 0.701794
O O14 0.039747 0.120791 0.024438
O O15 0.000000 0.000000 0.000000
#
# Coordination Sequence:
#
# PCOD8145795 Si02
#       7
#     8   8   8   8   8   8   4
#     4  11  22  38  59  91 127 160 206 260 315 377
#     4  12  20  35  60  94 130 163 206 258 315 382
#     4  10  22  40  58  94 128 164 207 256 323 389
#     4  11  21  37  57  89 127 158 209 258 316 380
#     4  12  21  32  59  93 129 160 200 260 320 374
#     4  11  22  35  56  95 124 164 196 257 319 365
#     4  10  24  36  60  84 130 168 200 256 324 384
#
# _framework density 19.276986000000001
#
# number of rings (size 3 to 8) (size 9 to 14) (size 15 to 20)
#    0.000    0.923    6.154    0.923    2.154    1.231 
#    0.000    0.000    0.000    0.000   38.000    0.000 
#    0.000    0.000    0.000    0.000    0.000    0.000 
#
# Total GULP energy -322191.437228 kJ/mol
# GULP energy per Si atom -12391.978355 kJ/mol
# Density = 1.923311 g / cm^3
# Si number density = 19.276986 Si / 1000 Ang^3
#
#
#
# Elastic Constant Matrix: (Units=GPa)
#
#
# Indices 1 2 3 4 5 6 
#
# 1 147.0481 58.6143 55.0956 0.0000 -6.2082 0.0000
# 2 58.6143 95.6699 46.1224 0.0000 -2.8840 0.0000
# 3 55.0956 46.1224 119.8592 0.0000 0.5545 0.0000
# 4 0.0000 0.0000 0.0000 29.9009 0.0000 2.2936
# 5 -6.2082 -2.8840 0.5545 0.0000 32.9404 0.0000
# 6 0.0000 0.0000 0.0000 2.2936 0.0000 42.4501
#
#
#
# Elastic Compliance Matrix: (Units=1/GPa)
#
#
# Indices 1 2 3 4 5 6 
#
# 1 0.009708 -0.004603 -0.002698 0.000000 0.001472 0.000000
# 2 -0.004603 0.015064 -0.003683 0.000000 0.000513 0.000000
# 3 -0.002698 -0.003683 0.011005 0.000000 -0.001016 0.000000
# 4 0.000000 0.000000 0.000000 0.033583 0.000000 -0.001814
# 5 0.001472 0.000513 -0.001016 0.000000 0.030697 0.000000
# 6 0.000000 0.000000 0.000000 -0.001814 0.000000 0.023655
#
#
# Mechanical properties :
#
#
# Convention : Reuss Voigt Hill
#
# Bulk Modulus (GPa) = 72.41658 75.80464 74.11061
# Shear Modulus (GPa) = 33.27020 34.57460 33.92240
#
# Velocity S-wave (km/s) = 4.15891 4.23965 4.19947
# Velocity P-wave (km/s) = 7.79166 7.96087 7.87672
#
# Compressibility (1/GPa) = 0.01380899
#
# Stress axis : x y z
#
# Youngs Moduli (GPa) = 103.00422 66.38436 90.86412
#
# Poissons Ratio (x) = 0.30556 0.24517
# Poissons Ratio (y) = 0.47411 0.33467
# Poissons Ratio (z) = 0.27793 0.24451
#
# Static dielectric constant tensor:
#      x y z
#    x 4.262510 0.000000 0.040510 
#    y 0.000000 3.634220 0.000000 
#    z 0.040510 0.000000 3.448670 
# 
# 
# High freq. dielectric constant tensor:
#      x y z
#    x 1.788470 0.000000 -0.003210 
#    y 0.000000 1.730210 0.000000 
#    z -0.003210 0.000000 1.721170 
# 
# From -- ./inp_files/227588.got.cif
#   From: 2010.06.25/outbox.cif.g09.slc.cpg/sg15_114_cif.got.tgz:227588.got - 2010.06.28 07:06:18.
