data_PCOD8145515
_publ_section_title
;
Structure prediction by ZEFSAII (Michael W. Deem and Ramdas Pophale) SiO2 
 PCOD8145515
Probable space group: C 2/C
;
_chemical_formula_sum "Si O2"
_cell_formula_units_Z 64
_cell_length_a 23.779566
_cell_length_b 21.870680
_cell_length_c 17.869722
_cell_angle_alpha 90.000000
_cell_angle_beta 19.993856
_cell_angle_gamma 90.000000
_cell_volume 3177.662127
_symmetry_space_group_name_H-M "C 2/C"
_symmetry_group_IT_number 15
_symmetry_cell_setting 'monoclinic'
loop_
_space_group_symop_operation_xyz
x,y,z
-x,y,1/2-z
-x,-y,-z
x,-y,1/2+z
1/2+x,1/2+y,z
1/2-x,1/2+y,1/2-z
1/2-x,1/2-y,-z
1/2+x,1/2-y,1/2+z
loop_
_atom_site_type_symbol
_atom_site_label
_atom_site_fract_x
_atom_site_fract_y
_atom_site_fract_z
Si Si1 0.521069 0.340683 0.066256
Si Si2 0.676724 0.507693 0.064053
Si Si3 0.192186 0.432178 0.795177
Si Si4 0.681644 0.628406 0.554630
Si Si5 0.318912 0.935670 0.256626
Si Si6 0.783160 0.122726 0.755049
Si Si7 0.823326 0.995180 0.760425
Si Si8 0.504773 0.791241 0.832816
O O1 0.359570 0.372523 0.305507
O O2 0.466735 0.351625 0.047489
O O3 0.525933 0.270666 0.083165
O O4 0.687632 0.376974 0.883576
O O5 0.500000 0.513632 0.250000
O O6 0.745857 0.439750 0.955159
O O7 0.670489 0.520216 0.159831
O O8 0.783812 0.561203 0.889779
O O9 0.233503 0.496469 0.704726
O O10 0.221211 0.440754 0.847981
O O11 0.006060 0.414805 0.009506
O O12 0.500000 0.647392 0.750000
O O13 0.819451 0.679057 0.363135
O O14 0.213820 0.887129 0.339304
O O15 0.732464 0.058948 0.858023
O O16 0.642534 0.168011 0.955818
O O17 0.000000 0.000000 0.500000
O O18 0.500000 0.779964 0.750000
#
# Coordination Sequence:
#
# PCOD8145515 Si02
#       8
#     8   8   8   8   8   8   8   8
#     4  12  23  40  60  83 122 181 209 258 324 383
#     4  11  21  35  62  95 125 169 211 258 317 385
#     4  10  22  39  60  84 121 168 209 266 316 369
#     4  11  23  37  58  86 128 168 218 262 318 379
#     4  10  24  39  59  89 122 163 217 266 315 373
#     4  11  24  41  57  85 128 173 209 263 323 373
#     4  11  19  39  64  89 129 164 204 253 326 390
#     4  12  26  41  58  91 127 170 227 269 312 394
#
# _framework density 20.140592999999999
#
# number of rings (size 3 to 8) (size 9 to 14) (size 15 to 20)
#    0.000    1.000    3.750    3.750    8.750    0.500 
#    0.000    0.000    0.000    0.000    0.000    0.875 
#    3.750    0.000    0.000    0.000    0.000    0.000 
#
# Total GULP energy -396457.481012 kJ/mol
# GULP energy per Si atom -12389.296282 kJ/mol
# Density = 2.009475 g / cm^3
# Si number density = 20.140593 Si / 1000 Ang^3
#
#
#
# Elastic Constant Matrix: (Units=GPa)
#
#
# Indices 1 2 3 4 5 6 
#
# 1 105.6575 35.9619 29.4919 -0.0296 1.7292 0.0203
# 2 35.9619 94.0200 51.8827 -0.0137 -1.0813 0.0234
# 3 29.4919 51.8827 84.5935 -0.0110 -7.0687 0.0228
# 4 -0.0296 -0.0137 -0.0110 32.9966 0.0130 2.6622
# 5 1.7292 -1.0813 -7.0687 0.0130 32.6136 -0.0143
# 6 0.0203 0.0234 0.0228 2.6622 -0.0143 28.5069
#
#
#
# Elastic Compliance Matrix: (Units=1/GPa)
#
#
# Indices 1 2 3 4 5 6 
#
# 1 0.011123 -0.003137 -0.002049 0.000009 -0.001138 -0.000005
# 2 -0.003137 0.017048 -0.009473 0.000002 -0.001322 -0.000005
# 3 -0.002049 -0.009473 0.018666 -0.000001 0.003840 -0.000004
# 4 0.000009 0.000002 -0.000001 0.030536 -0.000014 -0.002852
# 5 -0.001138 -0.001322 0.003840 -0.000014 0.031511 0.000016
# 6 -0.000005 -0.000005 -0.000004 -0.002852 0.000016 0.035346
#
#
# Mechanical properties :
#
#
# Convention : Reuss Voigt Hill
#
# Bulk Modulus (GPa) = 57.07730 57.66042 57.36886
# Shear Modulus (GPa) = 27.87285 29.95241 28.91263
#
# Velocity S-wave (km/s) = 3.72414 3.86056 3.79296
# Velocity P-wave (km/s) = 6.84786 6.96872 6.90855
#
# Compressibility (1/GPa) = 0.01752010
#
# Stress axis : x y z
#
# Youngs Moduli (GPa) = 89.90604 58.65847 53.57286
#
# Poissons Ratio (x) = 0.18400 0.10977
# Poissons Ratio (y) = 0.28201 0.50747
# Poissons Ratio (z) = 0.18421 0.55565
#
# Static dielectric constant tensor:
#      x y z
#    x 4.332590 -0.000060 0.013150 
#    y -0.000060 3.571290 -0.000150 
#    z 0.013150 -0.000150 4.008960 
# 
# 
# High freq. dielectric constant tensor:
#      x y z
#    x 1.809700 -0.000010 -0.020200 
#    y -0.000010 1.753950 0.000010 
#    z -0.020200 0.000010 1.764280 
# 
# From -- ./inp_files/220261.got.cif
#   From: 2010.06.25/outbox.cif.g09.slc.cpg/sg15_111_cif.got.tgz:220261.got - 2010.06.28 07:06:18.
