data_PCOD8145978
_publ_section_title
;
Structure prediction by ZEFSAII (Michael W. Deem and Ramdas Pophale) SiO2 
 PCOD8145978
Probable space group: C 2/C
;
_chemical_formula_sum "Si O2"
_cell_formula_units_Z 60
_cell_length_a 24.218274
_cell_length_b 9.307367
_cell_length_c 22.285457
_cell_angle_alpha 90.000000
_cell_angle_beta 35.738270
_cell_angle_gamma 90.000000
_cell_volume 2934.043249
_symmetry_space_group_name_H-M "C 2/C"
_symmetry_group_IT_number 15
_symmetry_cell_setting 'monoclinic'
loop_
_space_group_symop_operation_xyz
x,y,z
-x,y,1/2-z
-x,-y,-z
x,-y,1/2+z
1/2+x,1/2+y,z
1/2-x,1/2+y,1/2-z
1/2-x,1/2-y,-z
1/2+x,1/2-y,1/2+z
loop_
_atom_site_type_symbol
_atom_site_label
_atom_site_fract_x
_atom_site_fract_y
_atom_site_fract_z
Si Si1 0.206554 0.909674 0.039411
Si Si2 0.153435 0.701100 0.393837
Si Si3 0.243794 0.472329 0.377663
Si Si4 0.268300 0.311859 0.676497
Si Si5 0.761533 0.419920 0.371416
Si Si6 0.592010 0.319269 0.774080
Si Si7 0.000000 0.988333 0.750000
Si Si8 0.028397 0.161229 0.461303
O O1 0.259425 0.988862 0.047733
O O2 0.250000 0.750000 0.000000
O O3 0.091922 0.912363 0.152073
O O4 0.232518 0.000579 0.958108
O O5 0.151786 0.542482 0.426338
O O6 0.235857 0.717882 0.272243
O O7 0.175810 0.816515 0.426683
O O8 0.056629 0.733257 0.443968
O O9 0.262803 0.309052 0.343044
O O10 0.329904 0.564811 0.276031
O O11 0.224324 0.460896 0.692649
O O12 0.381668 0.307490 0.577127
O O13 0.858498 0.328667 0.292811
O O14 0.522870 0.382481 0.784727
O O15 0.535390 0.297215 0.885143
O O16 0.000000 0.000000 0.500000
#
# Coordination Sequence:
#
# PCOD8145978 Si02
#       8
#     8   8   8   8   8   8   4   8
#     4  11  23  45  69  99 132 184 228 279 357 406
#     4  11  23  39  65  97 128 172 217 272 332 398
#     4  10  22  40  64  92 131 170 215 278 327 401
#     4  12  22  42  64  94 138 171 217 275 332 398
#     4  11  22  42  69  91 133 174 218 278 337 399
#     4  10  23  42  66 100 128 174 229 269 336 405
#     4  10  24  42  70  96 138 170 232 282 330 424
#     4  12  23  38  67  96 131 179 224 264 340 401
#
# _framework density 20.449594999999999
#
# number of rings (size 3 to 8) (size 9 to 14) (size 15 to 20)
#    0.000    1.067    5.333    2.400    0.000    6.400 
#    0.000    2.000    0.000    0.000    0.000    0.000 
#    0.000    0.000    0.000    0.000    0.000    0.000 
#
# Total GULP energy -371859.774240 kJ/mol
# GULP energy per Si atom -12395.325808 kJ/mol
# Density = 2.040305 g / cm^3
# Si number density = 20.449595 Si / 1000 Ang^3
#
#
#
# Elastic Constant Matrix: (Units=GPa)
#
#
# Indices 1 2 3 4 5 6 
#
# 1 98.0192 40.0951 39.0645 0.0000 -0.6659 -0.0002
# 2 40.0951 112.6084 44.9767 -0.0013 -10.5201 0.0009
# 3 39.0645 44.9767 87.4813 -0.0009 -1.5557 0.0006
# 4 0.0000 -0.0013 -0.0009 34.1960 0.0006 0.1314
# 5 -0.6659 -10.5201 -1.5557 0.0006 35.0653 -0.0003
# 6 -0.0002 0.0009 0.0006 0.1314 -0.0003 41.0036
#
#
#
# Elastic Compliance Matrix: (Units=1/GPa)
#
#
# Indices 1 2 3 4 5 6 
#
# 1 0.013165 -0.003037 -0.004333 0.000000 -0.000853 0.000000
# 2 -0.003037 0.012223 -0.004868 0.000000 0.003393 0.000000
# 3 -0.004333 -0.004868 0.015854 0.000000 -0.000839 0.000000
# 4 0.000000 0.000000 0.000000 0.029244 0.000000 -0.000094
# 5 -0.000853 0.003393 -0.000839 0.000000 0.029483 0.000000
# 6 0.000000 0.000000 0.000000 -0.000094 0.000000 0.024388
#
#
# Mechanical properties :
#
#
# Convention : Reuss Voigt Hill
#
# Bulk Modulus (GPa) = 59.64069 60.70906 60.17488
# Shear Modulus (GPa) = 32.37923 33.65116 33.01520
#
# Velocity S-wave (km/s) = 3.98347 4.06096 4.02240
# Velocity P-wave (km/s) = 7.09827 7.19306 7.14582
#
# Compressibility (1/GPa) = 0.01676708
#
# Stress axis : x y z
#
# Youngs Moduli (GPa) = 75.95737 81.81417 63.07748
#
# Poissons Ratio (x) = 0.24845 0.27330
# Poissons Ratio (y) = 0.23067 0.30704
# Poissons Ratio (z) = 0.32911 0.39825
#
# Static dielectric constant tensor:
#      x y z
#    x 4.452140 -0.000010 -0.068300 
#    y -0.000010 3.829400 0.000000 
#    z -0.068300 0.000000 3.727990 
# 
# 
# High freq. dielectric constant tensor:
#      x y z
#    x 1.809490 0.000000 0.006650 
#    y 0.000000 1.801410 0.000000 
#    z 0.006650 0.000000 1.789260 
# 
# From -- ./inp_files/283362.got.cif
#   From: 2010.06.25/outbox.cif.g09.slc.cpg/sg15_142_cif.got.tgz:283362.got - 2010.06.28 07:06:18.
