data_PCOD8145634
_publ_section_title
;
Structure prediction by ZEFSAII (Michael W. Deem and Ramdas Pophale) SiO2 
 PCOD8145634
Probable space group: C 2/C
;
_chemical_formula_sum "Si O2"
_cell_formula_units_Z 64
_cell_length_a 9.571268
_cell_length_b 27.539832
_cell_length_c 19.073253
_cell_angle_alpha 90.000000
_cell_angle_beta 139.778267
_cell_angle_gamma 90.000000
_cell_volume 3246.520664
_symmetry_space_group_name_H-M "C 2/C"
_symmetry_group_IT_number 15
_symmetry_cell_setting 'monoclinic'
loop_
_space_group_symop_operation_xyz
x,y,z
-x,y,1/2-z
-x,-y,-z
x,-y,1/2+z
1/2+x,1/2+y,z
1/2-x,1/2+y,1/2-z
1/2-x,1/2-y,-z
1/2+x,1/2-y,1/2+z
loop_
_atom_site_type_symbol
_atom_site_label
_atom_site_fract_x
_atom_site_fract_y
_atom_site_fract_z
Si Si1 0.028007 0.880303 0.082330
Si Si2 0.519075 0.131848 0.935895
Si Si3 0.804769 0.057490 0.228414
Si Si4 0.457186 0.132981 0.065763
Si Si5 0.844013 0.298848 0.253747
Si Si6 0.314055 0.444862 0.235274
Si Si7 0.679122 0.201510 0.259269
Si Si8 0.009166 0.878527 0.917191
O O1 0.143537 0.830526 0.149297
O O2 0.106786 0.925014 0.159637
O O3 0.772340 0.874152 0.986759
O O4 0.082401 0.893590 0.023189
O O5 0.484822 0.171102 0.862637
O O6 0.405387 0.081282 0.872316
O O7 0.423671 0.150921 0.973113
O O8 0.773831 0.124859 0.045355
O O9 0.586982 0.082012 0.115269
O O10 0.858908 0.080221 0.325125
O O11 0.000000 0.066882 0.250000
O O12 0.757943 0.001046 0.221089
O O13 0.588657 0.173244 0.157859
O O14 0.753269 0.253094 0.259758
O O15 0.000000 0.282878 0.250000
O O16 0.500000 0.434249 0.250000
O O17 0.500000 0.208844 0.250000
O O18 0.883044 0.172780 0.369760
#
# Coordination Sequence:
#
# PCOD8145634 Si02
#       8
#     8   8   8   8   8   8   8   8
#     4  11  23  43  63  88 129 165 200 251 310 364
#     4  11  23  41  64  91 124 168 204 247 306 366
#     4  10  22  39  63  96 126 158 208 257 299 360
#     4  11  23  41  64  91 124 168 204 247 306 366
#     4  11  26  42  63  93 125 158 205 257 304 366
#     4  10  22  39  63  96 126 158 208 257 299 360
#     4  11  26  42  63  93 125 158 205 257 304 366
#     4  11  23  43  63  88 129 165 200 251 310 364
#
# _framework density 19.713412000000002
#
# number of rings (size 3 to 8) (size 9 to 14) (size 15 to 20)
#    0.000    1.250    5.000    0.000    3.500    4.000 
#    0.000    1.250    0.000    0.000    0.000    0.000 
#    0.000    0.000    0.000    0.000    0.000    0.000 
#
# Total GULP energy -396960.253076 kJ/mol
# GULP energy per Si atom -12405.007909 kJ/mol
# Density = 1.966854 g / cm^3
# Si number density = 19.713412 Si / 1000 Ang^3
#
#
#
# Elastic Constant Matrix: (Units=GPa)
#
#
# Indices 1 2 3 4 5 6 
#
# 1 78.8156 57.4697 28.5336 -0.0002 -3.0179 0.0001
# 2 57.4697 118.1024 40.1404 0.0000 1.6895 0.0002
# 3 28.5336 40.1404 91.5882 0.0002 -3.5003 -0.0003
# 4 -0.0002 0.0000 0.0002 20.4644 0.0000 -3.0120
# 5 -3.0179 1.6895 -3.5003 0.0000 50.4748 -0.0001
# 6 0.0001 0.0002 -0.0003 -3.0120 -0.0001 29.9811
#
#
#
# Elastic Compliance Matrix: (Units=1/GPa)
#
#
# Indices 1 2 3 4 5 6 
#
# 1 0.020167 -0.009065 -0.002258 0.000000 0.001353 0.000000
# 2 -0.009065 0.014045 -0.003379 0.000000 -0.001246 0.000000
# 3 -0.002258 -0.003379 0.013137 0.000000 0.000889 0.000000
# 4 0.000000 0.000000 0.000000 0.049599 0.000000 0.004983
# 5 0.001353 -0.001246 0.000889 0.000000 0.019996 0.000000
# 6 0.000000 0.000000 0.000000 0.004983 0.000000 0.033855
#
#
# Mechanical properties :
#
#
# Convention : Reuss Voigt Hill
#
# Bulk Modulus (GPa) = 55.72868 60.08817 57.90843
# Shear Modulus (GPa) = 26.85501 31.00821 28.93161
#
# Velocity S-wave (km/s) = 3.69490 3.97035 3.83510
# Velocity P-wave (km/s) = 6.82157 7.18089 7.00354
#
# Compressibility (1/GPa) = 0.01794408
#
# Stress axis : x y z
#
# Youngs Moduli (GPa) = 49.58498 71.20093 76.12237
#
# Poissons Ratio (x) = 0.64547 0.17190
# Poissons Ratio (y) = 0.44951 0.25720
# Poissons Ratio (z) = 0.11197 0.24057
#
# Static dielectric constant tensor:
#      x y z
#    x 3.647470 0.000000 -0.037400 
#    y 0.000000 3.475680 0.000000 
#    z -0.037400 0.000000 3.775800 
# 
# 
# High freq. dielectric constant tensor:
#      x y z
#    x 1.781050 0.000000 -0.003530 
#    y 0.000000 1.757730 0.000000 
#    z -0.003530 0.000000 1.784050 
# 
# From -- ./inp_files/138665.got.cif
#   From: 2010.06.25/outbox.cif.g09.slc.cpg/sg15_70_cif.got.tgz:138665.got - 2010.06.28 07:06:18.
