data_PCOD8145238
_publ_section_title
;
Structure prediction by ZEFSAII (Michael W. Deem and Ramdas Pophale) SiO2 
 PCOD8145238
Probable space group: C 2/C
;
_chemical_formula_sum "Si O2"
_cell_formula_units_Z 56
_cell_length_a 15.929210
_cell_length_b 24.204975
_cell_length_c 8.659683
_cell_angle_alpha 90.000000
_cell_angle_beta 118.194580
_cell_angle_gamma 90.000000
_cell_volume 2942.716116
_symmetry_space_group_name_H-M "C 2/C"
_symmetry_group_IT_number 15
_symmetry_cell_setting 'monoclinic'
loop_
_space_group_symop_operation_xyz
x,y,z
-x,y,1/2-z
-x,-y,-z
x,-y,1/2+z
1/2+x,1/2+y,z
1/2-x,1/2+y,1/2-z
1/2-x,1/2-y,-z
1/2+x,1/2-y,1/2+z
loop_
_atom_site_type_symbol
_atom_site_label
_atom_site_fract_x
_atom_site_fract_y
_atom_site_fract_z
Si Si1 0.608590 0.445187 0.016678
Si Si2 0.533629 0.749562 0.939015
Si Si3 0.796775 0.165490 0.423529
Si Si4 0.666055 0.756198 0.608334
Si Si5 0.258790 0.642982 0.737993
Si Si6 0.613761 0.561768 0.165680
Si Si7 0.900958 0.675533 0.735223
O O1 0.659913 0.401172 0.168124
O O2 0.639238 0.505233 0.102013
O O3 0.498885 0.429854 0.946954
O O4 0.641641 0.440914 0.869086
O O5 0.500000 0.777882 0.750000
O O6 0.435613 0.730590 0.931597
O O7 0.605329 0.699040 0.967105
O O8 0.584457 0.792072 0.093259
O O9 0.714510 0.198961 0.263443
O O10 0.748990 0.151634 0.546436
O O11 0.824306 0.110177 0.355984
O O12 0.727799 0.701035 0.659623
O O13 0.653239 0.784043 0.430874
O O14 0.163147 0.624698 0.752043
O O15 0.000000 0.652868 0.750000
#
# Coordination Sequence:
#
# PCOD8145238 Si02
#       7
#     8   8   8   8   8   8   8
#     4  10  22  38  60  82 119 154 194 243 281 356
#     4  11  21  36  52  82 117 156 187 237 292 343
#     4  12  23  36  58  85 121 158 195 242 288 358
#     4  11  22  36  55  82 117 152 198 237 288 355
#     4  12  21  36  56  83 113 154 195 235 295 342
#     4  10  22  39  56  87 116 155 196 235 297 337
#     4  10  23  37  55  80 118 153 196 244 292 347
#
# _framework density 19.030038000000001
#
# number of rings (size 3 to 8) (size 9 to 14) (size 15 to 20)
#    0.000    1.143    2.857    4.286    2.000    1.143 
#    0.000    0.000    0.000    0.000    0.000   17.000 
#    0.000    0.000    0.000    0.000    0.000    0.000 
#
# Total GULP energy -346932.236262 kJ/mol
# GULP energy per Si atom -12390.437009 kJ/mol
# Density = 1.898672 g / cm^3
# Si number density = 19.030038 Si / 1000 Ang^3
#
#
#
# Elastic Constant Matrix: (Units=GPa)
#
#
# Indices 1 2 3 4 5 6 
#
# 1 97.2696 34.9271 32.8850 0.0000 -21.3718 0.0000
# 2 34.9271 66.6497 28.8585 0.0000 6.2080 0.0000
# 3 32.8850 28.8585 122.1484 0.0000 -7.1544 0.0000
# 4 0.0000 0.0000 0.0000 17.0795 0.0000 12.4548
# 5 -21.3718 6.2080 -7.1544 0.0000 28.3227 0.0000
# 6 0.0000 0.0000 0.0000 12.4548 0.0000 -63.6268
#
#
#
# Elastic Compliance Matrix: (Units=1/GPa)
#
#
# Indices 1 2 3 4 5 6 
#
# 1 0.017749 -0.010065 -0.001509 0.000000 0.015218 0.000000
# 2 -0.010065 0.023070 -0.003534 0.000000 -0.013544 0.000000
# 3 -0.001509 -0.003534 0.009548 0.000000 0.002048 0.000000
# 4 0.000000 0.000000 0.000000 0.051236 0.000000 0.010029
# 5 0.015218 -0.013544 0.002048 0.000000 0.050276 0.000000
# 6 0.000000 0.000000 0.000000 0.010029 0.000000 -0.013753
#
#
# Mechanical properties :
#
#
# Convention : Reuss Voigt Hill
#
# Bulk Modulus (GPa) = 49.62701 53.26766 51.44734
# Shear Modulus (GPa) = 28.56185 8.98155 18.77170
#
# Velocity S-wave (km/s) = 3.87833 2.17484 3.14415
# Velocity P-wave (km/s) = 6.79633 5.86163 6.34621
#
# Compressibility (1/GPa) = 0.02015032
#
# Stress axis : x y z
#
# Youngs Moduli (GPa) = 56.34254 43.34619 104.73481
#
# Poissons Ratio (x) = 0.43628 0.15805
# Poissons Ratio (y) = 0.56709 0.37014
# Poissons Ratio (z) = 0.08502 0.15319
#
# Static dielectric constant tensor:
#      x y z
#    x 3.830980 0.000000 0.039700 
#    y 0.000000 3.197320 0.000000 
#    z 0.039700 0.000000 3.745020 
# 
# 
# High freq. dielectric constant tensor:
#      x y z
#    x 1.760140 0.000000 -0.011830 
#    y 0.000000 1.698710 0.000000 
#    z -0.011830 0.000000 1.758620 
# 
# From -- ./inp_files/50339.got.cif
#   From: 2010.06.25/outbox.cif.g09.slc.cpg/sg15_26_cif.got.tgz:50339.got - 2010.06.28 07:06:18.
