data_PCOD8145323
_publ_section_title
;
Structure prediction by ZEFSAII (Michael W. Deem and Ramdas Pophale) SiO2 
 PCOD8145323
Probable space group: C 2/C
;
_chemical_formula_sum "Si O2"
_cell_formula_units_Z 40
_cell_length_a 23.073079
_cell_length_b 14.973123
_cell_length_c 18.928079
_cell_angle_alpha 90.000000
_cell_angle_beta 16.639165
_cell_angle_gamma 90.000000
_cell_volume 1872.455981
_symmetry_space_group_name_H-M "C 2/C"
_symmetry_group_IT_number 15
_symmetry_cell_setting 'monoclinic'
loop_
_space_group_symop_operation_xyz
x,y,z
-x,y,1/2-z
-x,-y,-z
x,-y,1/2+z
1/2+x,1/2+y,z
1/2-x,1/2+y,1/2-z
1/2-x,1/2-y,-z
1/2+x,1/2-y,1/2+z
loop_
_atom_site_type_symbol
_atom_site_label
_atom_site_fract_x
_atom_site_fract_y
_atom_site_fract_z
Si Si1 0.228762 0.347356 0.491968
Si Si2 0.278794 0.018537 0.383656
Si Si3 0.018091 0.057785 0.074815
Si Si4 0.735647 0.078333 0.840191
Si Si5 0.217992 0.353370 0.026270
O O1 0.250000 0.250000 0.500000
O O2 0.324640 0.421262 0.432918
O O3 0.306155 0.352376 0.320341
O O4 0.000000 0.377812 0.750000
O O5 0.143015 0.019252 0.471534
O O6 0.276481 0.914718 0.410134
O O7 0.495950 0.062095 0.112192
O O8 0.908534 0.125905 0.254346
O O9 0.172953 0.110962 0.841684
O O10 0.838725 0.015736 0.237859
O O11 0.250000 0.250000 0.000000
O O12 0.000000 0.375890 0.250000
#
# Coordination Sequence:
#
# PCOD8145323 Si02
#       5
#     8   8   8   8   8
#     4  10  22  38  63  92 126 166 216 260 311 391
#     4  11  21  42  65  91 126 170 217 264 321 396
#     4  11  22  39  67  90 126 169 205 266 330 370
#     4  10  22  41  61  95 128 160 212 266 320 382
#     4  12  23  41  64  96 129 171 224 267 317 397
#
# _framework density 21.362318999999999
#
# number of rings (size 3 to 8) (size 9 to 14) (size 15 to 20)
#    0.000    1.200    4.000    3.000    2.800    0.000 
#    0.000   10.000    0.000    0.000    0.000    0.000 
#    0.000    0.000    0.000    0.000    0.000    0.000 
#
# Total GULP energy -247792.671924 kJ/mol
# GULP energy per Si atom -12389.633596 kJ/mol
# Density = 2.131370 g / cm^3
# Si number density = 21.362319 Si / 1000 Ang^3
#
#
#
# Elastic Constant Matrix: (Units=GPa)
#
#
# Indices 1 2 3 4 5 6 
#
# 1 110.1991 17.2407 56.3838 0.0089 8.8792 -0.0258
# 2 17.2407 93.2958 12.7178 0.1509 4.0273 -0.0212
# 3 56.3838 12.7178 115.8990 0.0999 14.7253 0.0219
# 4 0.0089 0.1509 0.0999 21.7480 -0.0453 -2.5915
# 5 8.8792 4.0273 14.7253 -0.0453 40.9233 0.0469
# 6 -0.0258 -0.0212 0.0219 -2.5915 0.0469 30.2563
#
#
#
# Elastic Compliance Matrix: (Units=1/GPa)
#
#
# Indices 1 2 3 4 5 6 
#
# 1 0.012287 -0.001466 -0.005760 0.000033 -0.000449 0.000017
# 2 -0.001466 0.011074 -0.000423 -0.000075 -0.000620 0.000001
# 3 -0.005760 -0.000423 0.011855 -0.000057 -0.002974 -0.000014
# 4 0.000033 -0.000075 -0.000057 0.046456 0.000068 0.003979
# 5 -0.000449 -0.000620 -0.002974 0.000068 0.025665 -0.000033
# 6 0.000017 0.000001 -0.000014 0.003979 -0.000033 0.033392
#
#
# Mechanical properties :
#
#
# Convention : Reuss Voigt Hill
#
# Bulk Modulus (GPa) = 50.20605 54.67540 52.44073
# Shear Modulus (GPa) = 30.73793 34.12229 32.43011
#
# Velocity S-wave (km/s) = 3.79738 4.00097 3.90051
# Velocity P-wave (km/s) = 6.54064 6.85519 6.69976
#
# Compressibility (1/GPa) = 0.01991792
#
# Stress axis : x y z
#
# Youngs Moduli (GPa) = 81.38709 90.30099 84.35567
#
# Poissons Ratio (x) = 0.13239 0.48585
# Poissons Ratio (y) = 0.11932 0.03570
# Poissons Ratio (z) = 0.46876 0.03821
#
# Static dielectric constant tensor:
#      x y z
#    x 4.333900 0.013940 0.082590 
#    y 0.013940 10.102090 -0.060880 
#    z 0.082590 -0.060880 4.282830 
# 
# 
# High freq. dielectric constant tensor:
#      x y z
#    x 1.848080 -0.000010 -0.009120 
#    y -0.000010 1.800960 0.000030 
#    z -0.009120 0.000030 1.855690 
# 
# From -- ./inp_files/215663.got.cif
#   From: 2010.06.25/outbox.cif.g09.slc.cpg/sg15_108_cif.got.tgz:215663.got - 2010.06.28 07:06:18.
