data_PCOD8145531
_publ_section_title
;
Structure prediction by ZEFSAII (Michael W. Deem and Ramdas Pophale) SiO2 
 PCOD8145531
Probable space group: C 2/C
;
_chemical_formula_sum "Si O2"
_cell_formula_units_Z 64
_cell_length_a 13.738305
_cell_length_b 25.767955
_cell_length_c 16.906354
_cell_angle_alpha 90.000000
_cell_angle_beta 27.996912
_cell_angle_gamma 90.000000
_cell_volume 2809.495444
_symmetry_space_group_name_H-M "C 2/C"
_symmetry_group_IT_number 15
_symmetry_cell_setting 'monoclinic'
loop_
_space_group_symop_operation_xyz
x,y,z
-x,y,1/2-z
-x,-y,-z
x,-y,1/2+z
1/2+x,1/2+y,z
1/2-x,1/2+y,1/2-z
1/2-x,1/2-y,-z
1/2+x,1/2-y,1/2+z
loop_
_atom_site_type_symbol
_atom_site_label
_atom_site_fract_x
_atom_site_fract_y
_atom_site_fract_z
Si Si1 0.237991 0.191517 0.669527
Si Si2 0.588199 0.964325 0.369408
Si Si3 0.330751 0.684895 0.482264
Si Si4 0.446085 0.785861 0.869806
Si Si5 0.309024 0.429531 0.940230
Si Si6 0.221946 0.518491 0.121032
Si Si7 0.041524 0.912192 0.310860
Si Si8 0.944902 0.717653 0.675282
O O1 0.390312 0.178681 0.485214
O O2 0.047263 0.150620 0.806864
O O3 0.388762 0.189369 0.635170
O O4 0.144511 0.249094 0.740352
O O5 0.409280 0.931578 0.451381
O O6 0.735622 0.926248 0.312707
O O7 0.500000 0.000000 0.500000
O O8 0.715297 0.001812 0.217886
O O9 0.371154 0.624762 0.436220
O O10 0.184385 0.703035 0.515954
O O11 0.545778 0.718591 0.329976
O O12 0.211711 0.693439 0.649706
O O13 0.500000 0.818015 0.750000
O O14 0.250000 0.750000 0.000000
O O15 0.500000 0.447953 0.750000
O O16 0.301000 0.468504 0.018268
O O17 0.000000 0.537031 0.250000
O O18 0.371424 0.566962 0.994713
O O19 0.000000 0.932298 0.250000
#
# Coordination Sequence:
#
# PCOD8145531 Si02
#       8
#     8   8   8   8   8   8   8   8
#     4  11  22  40  66  94 131 178 233 283 349 417
#     4  11  24  45  69 100 139 183 233 289 351 428
#     4  10  23  39  65  92 142 179 225 282 350 414
#     4   9  19  39  62  87 125 170 223 286 343 396
#     4  11  24  42  71 104 141 188 234 285 363 427
#     4  10  23  44  72 100 138 178 227 295 361 425
#     4  12  24  42  69 101 139 183 235 294 350 408
#     4  10  22  39  60  96 134 178 225 284 340 415
#
# _framework density 22.779890999999999
#
# number of rings (size 3 to 8) (size 9 to 14) (size 15 to 20)
#    0.000    1.500    0.000    5.625   10.500    0.000 
#    2.250    8.750    0.000    0.000    0.000    0.000 
#    0.000    0.000    0.000    0.000    0.000    0.000 
#
# Total GULP energy -396501.791232 kJ/mol
# GULP energy per Si atom -12390.680976 kJ/mol
# Density = 2.272804 g / cm^3
# Si number density = 22.779891 Si / 1000 Ang^3
#
#
#
# Elastic Constant Matrix: (Units=GPa)
#
#
# Indices 1 2 3 4 5 6 
#
# 1 133.2448 30.5143 54.6115 -0.0320 27.5268 0.0189
# 2 30.5143 100.7901 39.2992 -0.0375 12.0526 0.0049
# 3 54.6115 39.2992 118.0329 -0.0113 23.3503 0.0648
# 4 -0.0320 -0.0375 -0.0113 36.6914 -0.0287 -6.0104
# 5 27.5268 12.0526 23.3503 -0.0287 37.3523 -0.0370
# 6 0.0189 0.0049 0.0648 -6.0104 -0.0370 18.6431
#
#
#
# Elastic Compliance Matrix: (Units=1/GPa)
#
#
# Indices 1 2 3 4 5 6 
#
# 1 0.010178 -0.001185 -0.003317 0.000001 -0.005045 -0.000008
# 2 -0.001185 0.011613 -0.003138 0.000011 -0.000912 0.000011
# 3 -0.003317 -0.003138 0.011831 -0.000014 -0.003939 -0.000049
# 4 0.000001 0.000011 -0.000014 0.028774 0.000035 0.009277
# 5 -0.005045 -0.000912 -0.003939 0.000035 0.033247 0.000096
# 6 -0.000008 0.000011 -0.000049 0.009277 0.000096 0.056630
#
#
# Mechanical properties :
#
#
# Convention : Reuss Voigt Hill
#
# Bulk Modulus (GPa) = 54.51657 66.76863 60.64260
# Shear Modulus (GPa) = 28.79091 33.71354 31.25222
#
# Velocity S-wave (km/s) = 3.55896 3.85121 3.70796
# Velocity P-wave (km/s) = 6.39313 7.01069 6.70902
#
# Compressibility (1/GPa) = 0.01834305
#
# Stress axis : x y z
#
# Youngs Moduli (GPa) = 98.25223 86.11101 84.52527
#
# Poissons Ratio (x) = 0.10204 0.28033
# Poissons Ratio (y) = 0.11642 0.26522
# Poissons Ratio (z) = 0.32586 0.27020
#
# Static dielectric constant tensor:
#      x y z
#    x 6.098720 0.001990 0.133370 
#    y 0.001990 4.063390 0.000450 
#    z 0.133370 0.000450 4.685590 
# 
# 
# High freq. dielectric constant tensor:
#      x y z
#    x 1.906770 -0.000010 0.009990 
#    y -0.000010 1.880290 0.000040 
#    z 0.009990 0.000040 1.905160 
# 
# From -- ./inp_files/207314.got.cif
#   From: 2010.06.25/outbox.cif.g09.slc.cpg/sg15_104_cif.got.tgz:207314.got - 2010.06.28 07:06:18.
