data_PCOD8145228
_publ_section_title
;
Structure prediction by ZEFSAII (Michael W. Deem and Ramdas Pophale) SiO2 
 PCOD8145228
Probable space group: C 2/C
;
_chemical_formula_sum "Si O2"
_cell_formula_units_Z 56
_cell_length_a 10.574722
_cell_length_b 15.420093
_cell_length_c 17.875835
_cell_angle_alpha 90.000000
_cell_angle_beta 77.725739
_cell_angle_gamma 90.000000
_cell_volume 2848.259822
_symmetry_space_group_name_H-M "C 2/C"
_symmetry_group_IT_number 15
_symmetry_cell_setting 'monoclinic'
loop_
_space_group_symop_operation_xyz
x,y,z
-x,y,1/2-z
-x,-y,-z
x,-y,1/2+z
1/2+x,1/2+y,z
1/2-x,1/2+y,1/2-z
1/2-x,1/2-y,-z
1/2+x,1/2-y,1/2+z
loop_
_atom_site_type_symbol
_atom_site_label
_atom_site_fract_x
_atom_site_fract_y
_atom_site_fract_z
Si Si1 0.193499 0.049669 0.827063
Si Si2 0.140105 0.223242 0.569873
Si Si3 0.652725 0.714820 0.735286
Si Si4 0.806976 0.533658 0.975860
Si Si5 0.363176 0.905839 0.726651
Si Si6 0.939448 0.965662 0.433751
Si Si7 0.486454 0.889838 0.563727
O O1 0.213590 0.138500 0.778193
O O2 0.251659 0.064809 0.902898
O O3 0.040733 0.022401 0.852189
O O4 0.262965 0.972295 0.775166
O O5 0.250000 0.250000 0.500000
O O6 0.204102 0.210258 0.643582
O O7 0.077627 0.135536 0.549876
O O8 0.022898 0.292642 0.583732
O O9 0.500000 0.701749 0.750000
O O10 0.694274 0.808426 0.761930
O O11 0.880324 0.442684 0.956218
O O12 0.697296 0.516557 0.053952
O O13 0.908244 0.605211 0.994912
O O14 0.500000 0.911003 0.750000
O O15 0.389539 0.930558 0.637426
O O16 0.000000 0.000000 0.500000
#
# Coordination Sequence:
#
# PCOD8145228 Si02
#       7
#     8   8   8   8   8   8   8
#     4  11  22  40  66  92 132 169 209 274 322 376
#     4  12  22  39  65  95 123 164 217 262 308 383
#     4  11  22  39  65  91 121 164 220 256 313 385
#     4  10  22  38  61  96 128 161 209 259 322 380
#     4  11  21  39  63  89 125 167 212 262 309 372
#     4  10  22  38  59  91 127 165 205 255 324 384
#     4  11  21  38  65  94 122 162 217 259 311 379
#
# _framework density 19.661128000000001
#
# number of rings (size 3 to 8) (size 9 to 14) (size 15 to 20)
#    0.000    1.143    7.143    0.000    4.000    0.000 
#    0.000    6.429    0.000    4.286    0.000    0.000 
#    0.000    0.000    0.000    0.000    0.000    0.000 
#
# Total GULP energy -347037.260945 kJ/mol
# GULP energy per Si atom -12394.187891 kJ/mol
# Density = 1.961638 g / cm^3
# Si number density = 19.661128 Si / 1000 Ang^3
#
#
#
# Elastic Constant Matrix: (Units=GPa)
#
#
# Indices 1 2 3 4 5 6 
#
# 1 81.6040 60.1971 54.4265 0.0000 -5.6240 0.0000
# 2 60.1971 115.2700 38.4275 0.0000 -1.8881 0.0000
# 3 54.4265 38.4275 126.8640 0.0000 -14.2480 0.0000
# 4 0.0000 0.0000 0.0000 31.3718 0.0000 3.6145
# 5 -5.6240 -1.8881 -14.2480 0.0000 38.7814 0.0000
# 6 0.0000 0.0000 0.0000 3.6145 0.0000 27.8467
#
#
#
# Elastic Compliance Matrix: (Units=1/GPa)
#
#
# Indices 1 2 3 4 5 6 
#
# 1 0.025120 -0.010604 -0.007524 0.000000 0.000362 0.000000
# 2 -0.010604 0.014141 0.000178 0.000000 -0.000784 0.000000
# 3 -0.007524 0.000178 0.011406 0.000000 0.003108 0.000000
# 4 0.000000 0.000000 0.000000 0.032360 0.000000 -0.004200
# 5 0.000362 -0.000784 0.003108 0.000000 0.026942 0.000000
# 6 0.000000 0.000000 0.000000 -0.004200 0.000000 0.036456
#
#
# Mechanical properties :
#
#
# Convention : Reuss Voigt Hill
#
# Bulk Modulus (GPa) = 67.72386 69.98225 68.85305
# Shear Modulus (GPa) = 26.70283 30.97911 28.84097
#
# Velocity S-wave (km/s) = 3.68931 3.97376 3.83417
# Velocity P-wave (km/s) = 7.25730 7.53165 7.39575
#
# Compressibility (1/GPa) = 0.01476585
#
# Stress axis : x y z
#
# Youngs Moduli (GPa) = 39.80917 70.71722 87.67666
#
# Poissons Ratio (x) = 0.74989 0.65969
# Poissons Ratio (y) = 0.42214 -0.01560
# Poissons Ratio (z) = 0.29953 -0.01258
#
# Static dielectric constant tensor:
#      x y z
#    x 3.670720 0.000000 -0.281550 
#    y 0.000000 3.003340 0.000000 
#    z -0.281550 0.000000 3.964300 
# 
# 
# High freq. dielectric constant tensor:
#      x y z
#    x 1.749940 0.000000 -0.011120 
#    y 0.000000 1.761350 0.000000 
#    z -0.011120 0.000000 1.782320 
# 
# From -- ./inp_files/197751.got.cif
#   From: 2010.06.25/outbox.cif.g09.slc.cpg/sg15_99_cif.got.tgz:197751.got - 2010.06.28 07:06:18.
