data_PCOD8145590
_publ_section_title
;
Structure prediction by ZEFSAII (Michael W. Deem and Ramdas Pophale) SiO2 
 PCOD8145590
Probable space group: C 2/C
;
_chemical_formula_sum "Si O2"
_cell_formula_units_Z 64
_cell_length_a 17.554317
_cell_length_b 15.829171
_cell_length_c 13.942311
_cell_angle_alpha 90.000000
_cell_angle_beta 125.462046
_cell_angle_gamma 90.000000
_cell_volume 3155.498423
_symmetry_space_group_name_H-M "C 2/C"
_symmetry_group_IT_number 15
_symmetry_cell_setting 'monoclinic'
loop_
_space_group_symop_operation_xyz
x,y,z
-x,y,1/2-z
-x,-y,-z
x,-y,1/2+z
1/2+x,1/2+y,z
1/2-x,1/2+y,1/2-z
1/2-x,1/2-y,-z
1/2+x,1/2-y,1/2+z
loop_
_atom_site_type_symbol
_atom_site_label
_atom_site_fract_x
_atom_site_fract_y
_atom_site_fract_z
Si Si1 0.608478 0.047052 0.809551
Si Si2 0.362506 0.608133 0.306190
Si Si3 0.839084 0.458544 0.469878
Si Si4 0.849661 0.585330 0.316097
Si Si5 0.427819 0.218154 0.782302
Si Si6 0.019975 0.311320 0.965536
Si Si7 0.461118 0.374376 0.074037
Si Si8 0.630108 0.558903 0.799354
O O1 0.500000 0.062994 0.750000
O O2 0.642195 0.140041 0.797251
O O3 0.614673 0.973150 0.740495
O O4 0.671489 0.012273 0.941127
O O5 0.259073 0.605617 0.274795
O O6 0.369089 0.697825 0.258702
O O7 0.432887 0.592017 0.447461
O O8 0.381946 0.539779 0.237092
O O9 0.874044 0.531752 0.426802
O O10 0.739206 0.417343 0.368805
O O11 0.914024 0.384154 0.528874
O O12 0.912013 0.670176 0.359823
O O13 0.500000 0.238478 0.750000
O O14 0.478821 0.193582 0.918583
O O15 0.054805 0.226344 0.938345
O O16 0.403230 0.421002 0.116433
O O17 0.570883 0.389612 0.176529
#
# Coordination Sequence:
#
# PCOD8145590 Si02
#       8
#     8   8   8   8   8   8   8   8
#     4  11  20  35  64  93 126 165 202 255 319 378
#     4  10  23  42  66  90 124 170 211 263 311 369
#     4  11  22  38  64  94 126 167 202 255 319 377
#     4  11  21  39  62  94 129 158 207 253 318 382
#     4  10  22  39  62  92 123 167 213 259 314 364
#     4  11  22  40  63  92 131 163 201 267 316 372
#     4  10  23  41  64  88 124 168 214 261 313 364
#     4  10  23  42  63  90 124 165 217 259 303 380
#
# _framework density 20.282059
#
# number of rings (size 3 to 8) (size 9 to 14) (size 15 to 20)
#    0.000    1.500    2.500    3.000    1.750    4.500 
#    0.000    5.625    0.000    0.000    0.000    0.000 
#    0.000    0.000    0.000    0.000    0.000    0.000 
#
# Total GULP energy -396586.443452 kJ/mol
# GULP energy per Si atom -12393.326358 kJ/mol
# Density = 2.023590 g / cm^3
# Si number density = 20.282059 Si / 1000 Ang^3
#
#
#
# Elastic Constant Matrix: (Units=GPa)
#
#
# Indices 1 2 3 4 5 6 
#
# 1 67.7854 37.8868 41.2625 0.0000 -2.7254 0.0000
# 2 37.8868 112.7891 52.4828 0.0000 -6.5704 0.0000
# 3 41.2625 52.4828 108.7251 0.0000 -5.7118 0.0000
# 4 0.0000 0.0000 0.0000 31.9638 0.0000 -13.7767
# 5 -2.7254 -6.5704 -5.7118 0.0000 39.6952 0.0000
# 6 0.0000 0.0000 0.0000 -13.7767 0.0000 19.3472
#
#
#
# Elastic Compliance Matrix: (Units=1/GPa)
#
#
# Indices 1 2 3 4 5 6 
#
# 1 0.020647 -0.004247 -0.005792 0.000000 -0.000119 0.000000
# 2 -0.004247 0.012357 -0.004293 0.000000 0.001136 0.000000
# 3 -0.005792 -0.004293 0.013512 0.000000 0.000836 0.000000
# 4 0.000000 0.000000 0.000000 0.045139 0.000000 0.032143
# 5 -0.000119 0.001136 0.000836 0.000000 0.025492 0.000000
# 6 0.000000 0.000000 0.000000 0.032143 0.000000 0.074575
#
#
# Mechanical properties :
#
#
# Convention : Reuss Voigt Hill
#
# Bulk Modulus (GPa) = 56.01916 61.39597 58.70756
# Shear Modulus (GPa) = 22.09089 28.71238 25.40164
#
# Velocity S-wave (km/s) = 3.30386 3.76660 3.54279
# Velocity P-wave (km/s) = 6.49877 7.01806 6.76340
#
# Compressibility (1/GPa) = 0.01785104
#
# Stress axis : x y z
#
# Youngs Moduli (GPa) = 48.43245 80.92791 74.00924
#
# Poissons Ratio (x) = 0.34374 0.42865
# Poissons Ratio (y) = 0.20572 0.31773
# Poissons Ratio (z) = 0.28051 0.34743
#
# Static dielectric constant tensor:
#      x y z
#    x 3.600560 0.000000 0.008580 
#    y 0.000000 3.842430 0.000000 
#    z 0.008580 0.000000 3.812970 
# 
# 
# High freq. dielectric constant tensor:
#      x y z
#    x 1.784380 0.000000 -0.009980 
#    y 0.000000 1.800770 0.000000 
#    z -0.009980 0.000000 1.798140 
# 
# From -- ./inp_files/162526.got.cif
#   From: 2010.06.25/outbox.cif.g09.slc.cpg/sg15_82_cif.got.tgz:162526.got - 2010.06.28 07:06:18.
