data_PCOD8145319
_publ_section_title
;
Structure prediction by ZEFSAII (Michael W. Deem and Ramdas Pophale) SiO2 
 PCOD8145319
Probable space group: C 2/C
;
_chemical_formula_sum "Si O2"
_cell_formula_units_Z 52
_cell_length_a 15.609300
_cell_length_b 8.350438
_cell_length_c 20.380062
_cell_angle_alpha 90.000000
_cell_angle_beta 71.841693
_cell_angle_gamma 90.000000
_cell_volume 2524.136226
_symmetry_space_group_name_H-M "C 2/C"
_symmetry_group_IT_number 15
_symmetry_cell_setting 'monoclinic'
loop_
_space_group_symop_operation_xyz
x,y,z
-x,y,1/2-z
-x,-y,-z
x,-y,1/2+z
1/2+x,1/2+y,z
1/2-x,1/2+y,1/2-z
1/2-x,1/2-y,-z
1/2+x,1/2-y,1/2+z
loop_
_atom_site_type_symbol
_atom_site_label
_atom_site_fract_x
_atom_site_fract_y
_atom_site_fract_z
Si Si1 0.479014 0.098943 0.101786
Si Si2 0.089366 0.159096 0.654053
Si Si3 0.184376 0.724606 0.705643
Si Si4 0.795987 0.093049 0.429869
Si Si5 0.895193 0.338137 0.484453
Si Si6 0.660043 0.123823 0.250994
Si Si7 0.000000 0.894941 0.750000
O O1 0.549991 0.229042 0.108130
O O2 0.402890 0.067708 0.174088
O O3 0.533074 0.933939 0.077241
O O4 0.434598 0.173632 0.047805
O O5 0.106594 0.252891 0.717658
O O6 0.180844 0.083147 0.602883
O O7 0.023099 0.008997 0.682877
O O8 0.216877 0.782427 0.626880
O O9 0.250404 0.789675 0.745797
O O10 0.187027 0.532493 0.703409
O O11 0.084503 0.784327 0.747815
O O12 0.875599 0.162657 0.458215
O O13 0.701936 0.072915 0.490750
#
# Coordination Sequence:
#
# PCOD8145319 Si02
#       7
#     8   8   8   8   8   8   4
#     4  11  23  41  63  92 128 169 212 261 306 387
#     4  11  23  40  66  94 131 155 213 264 324 366
#     4  11  24  39  65  94 128 163 211 260 332 368
#     4  10  22  43  64  92 125 170 214 263 306 380
#     4  10  23  42  65  85 127 176 216 249 309 372
#     4  12  24  41  65  98 128 169 203 272 327 378
#     4  10  22  38  62  98 120 160 198 264 322 384
#
# _framework density 20.601106000000001
#
# number of rings (size 3 to 8) (size 9 to 14) (size 15 to 20)
#    0.000    1.231    3.077    2.769    6.462    1.231 
#    0.000    0.000    0.000    0.000    0.000    0.000 
#    0.000    0.000    0.000    0.000    0.000    0.000 
#
# Total GULP energy -322447.046128 kJ/mol
# GULP energy per Si atom -12401.809466 kJ/mol
# Density = 2.055422 g / cm^3
# Si number density = 20.601106 Si / 1000 Ang^3
#
#
#
# Elastic Constant Matrix: (Units=GPa)
#
#
# Indices 1 2 3 4 5 6 
#
# 1 114.6252 34.8598 37.7269 0.0000 5.2126 0.0000
# 2 34.8598 73.9619 24.7274 0.0000 5.1786 0.0000
# 3 37.7269 24.7274 71.7982 0.0000 3.5678 0.0000
# 4 0.0000 0.0000 0.0000 27.2173 0.0000 2.5349
# 5 5.2126 5.1786 3.5678 0.0000 38.7435 0.0000
# 6 0.0000 0.0000 0.0000 2.5349 0.0000 32.8501
#
#
#
# Elastic Compliance Matrix: (Units=1/GPa)
#
#
# Indices 1 2 3 4 5 6 
#
# 1 0.011443 -0.003787 -0.004679 0.000000 -0.000603 0.000000
# 2 -0.003787 0.016628 -0.003669 0.000000 -0.001375 0.000000
# 3 -0.004679 -0.003669 0.017675 0.000000 -0.000508 0.000000
# 4 0.000000 0.000000 0.000000 0.037007 0.000000 -0.002856
# 5 -0.000603 -0.001375 -0.000508 0.000000 0.026122 0.000000
# 6 0.000000 0.000000 0.000000 -0.002856 0.000000 0.030662
#
#
# Mechanical properties :
#
#
# Convention : Reuss Voigt Hill
#
# Bulk Modulus (GPa) = 46.55943 50.55705 48.55824
# Shear Modulus (GPa) = 29.24570 30.63360 29.93965
#
# Velocity S-wave (km/s) = 3.77187 3.86033 3.81636
# Velocity P-wave (km/s) = 6.45127 6.66812 6.56059
#
# Compressibility (1/GPa) = 0.02147793
#
# Stress axis : x y z
#
# Youngs Moduli (GPa) = 87.38909 60.13913 56.57698
#
# Poissons Ratio (x) = 0.22774 0.26471
# Poissons Ratio (y) = 0.33094 0.20755
# Poissons Ratio (z) = 0.40886 0.22062
#
# Static dielectric constant tensor:
#      x y z
#    x 3.880680 0.000000 -0.023400 
#    y 0.000000 3.659360 0.000000 
#    z -0.023400 0.000000 3.773200 
# 
# 
# High freq. dielectric constant tensor:
#      x y z
#    x 1.814580 0.000000 -0.002510 
#    y 0.000000 1.798700 0.000000 
#    z -0.002510 0.000000 1.808560 
# 
# From -- ./inp_files/242407.got.cif
#   From: 2010.06.25/outbox.cif.g09.slc.cpg/sg15_122_cif.got.tgz:242407.got - 2010.06.28 07:06:18.
