data_PCOD8145324
_publ_section_title
;
Structure prediction by ZEFSAII (Michael W. Deem and Ramdas Pophale) SiO2 
 PCOD8145324
Probable space group: C 2/C
;
_chemical_formula_sum "Si O2"
_cell_formula_units_Z 48
_cell_length_a 10.087337
_cell_length_b 29.216599
_cell_length_c 8.944001
_cell_angle_alpha 90.000000
_cell_angle_beta 123.764335
_cell_angle_gamma 90.000000
_cell_volume 2191.350204
_symmetry_space_group_name_H-M "C 2/C"
_symmetry_group_IT_number 15
_symmetry_cell_setting 'monoclinic'
loop_
_space_group_symop_operation_xyz
x,y,z
-x,y,1/2-z
-x,-y,-z
x,-y,1/2+z
1/2+x,1/2+y,z
1/2-x,1/2+y,1/2-z
1/2-x,1/2-y,-z
1/2+x,1/2-y,1/2+z
loop_
_atom_site_type_symbol
_atom_site_label
_atom_site_fract_x
_atom_site_fract_y
_atom_site_fract_z
Si Si1 0.710258 0.620961 0.157481
Si Si2 0.342672 0.214009 0.880178
Si Si3 0.022997 0.803573 0.033244
Si Si4 0.500000 0.854461 0.250000
Si Si5 0.482713 0.451080 0.062952
Si Si6 0.827052 0.118178 0.028899
Si Si7 0.000000 0.328040 0.750000
O O1 0.625694 0.611880 0.266626
O O2 0.890556 0.638416 0.282727
O O3 0.604132 0.657619 0.994375
O O4 0.694410 0.571431 0.067365
O O5 0.148643 0.214894 0.738873
O O6 0.427314 0.176125 0.835169
O O7 0.421629 0.263003 0.893246
O O8 0.382804 0.203137 0.078002
O O9 0.134777 0.828343 0.980758
O O10 0.636029 0.887543 0.401052
O O11 0.500000 0.455926 0.250000
O O12 0.500000 0.500000 0.000000
O O13 0.602655 0.416571 0.051544
#
# Coordination Sequence:
#
# PCOD8145324 Si02
#       7
#     8   8   8   4   8   8   4
#     4  11  24  42  67  93 133 172 220 270 330 389
#     4  11  24  38  60  90 132 176 231 277 319 386
#     4  10  23  39  64  88 127 177 231 275 331 374
#     4  10  22  38  63  92 128 180 219 270 326 376
#     4  11  24  43  73 102 132 164 209 257 321 396
#     4  10  22  43  65  93 132 171 216 269 327 389
#     4  12  26  42  61  94 134 176 223 276 326 376
#
# _framework density 21.904302000000001
#
# number of rings (size 3 to 8) (size 9 to 14) (size 15 to 20)
#    0.000    1.333    1.667    4.000    9.333    4.000 
#    1.500    0.833    0.000    4.000    0.000    0.000 
#    0.000    0.000    0.000    0.000    0.000    0.000 
#
# Total GULP energy -297327.890886 kJ/mol
# GULP energy per Si atom -12388.662120 kJ/mol
# Density = 2.185445 g / cm^3
# Si number density = 21.904302 Si / 1000 Ang^3
#
#
#
# Elastic Constant Matrix: (Units=GPa)
#
#
# Indices 1 2 3 4 5 6 
#
# 1 91.6026 37.7542 32.7178 0.0000 7.7846 0.0000
# 2 37.7542 128.0825 63.5983 0.0000 9.6756 0.0000
# 3 32.7178 63.5983 132.2557 0.0000 -0.3704 0.0000
# 4 0.0000 0.0000 0.0000 31.0134 0.0000 -5.3790
# 5 7.7846 9.6756 -0.3704 0.0000 42.4845 0.0000
# 6 0.0000 0.0000 0.0000 -5.3790 0.0000 17.0435
#
#
#
# Elastic Compliance Matrix: (Units=1/GPa)
#
#
# Indices 1 2 3 4 5 6 
#
# 1 0.012859 -0.002727 -0.001875 0.000000 -0.001751 0.000000
# 2 -0.002727 0.011081 -0.004660 0.000000 -0.002065 0.000000
# 3 -0.001875 -0.004660 0.010270 0.000000 0.001494 0.000000
# 4 0.000000 0.000000 0.000000 0.034111 0.000000 0.010766
# 5 -0.001751 -0.002065 0.001494 0.000000 0.024342 0.000000
# 6 0.000000 0.000000 0.000000 0.010766 0.000000 0.062071
#
#
# Mechanical properties :
#
#
# Convention : Reuss Voigt Hill
#
# Bulk Modulus (GPa) = 63.74756 68.89791 66.32273
# Shear Modulus (GPa) = 28.01331 32.63298 30.32315
#
# Velocity S-wave (km/s) = 3.58004 3.86398 3.72472
# Velocity P-wave (km/s) = 6.80109 7.17143 6.98872
#
# Compressibility (1/GPa) = 0.01568688
#
# Stress axis : x y z
#
# Youngs Moduli (GPa) = 77.76555 90.24391 97.37337
#
# Poissons Ratio (x) = 0.24612 0.18253
# Poissons Ratio (y) = 0.21209 0.45373
# Poissons Ratio (z) = 0.14577 0.42051
#
# Static dielectric constant tensor:
#      x y z
#    x 4.130940 0.000000 0.313820 
#    y 0.000000 3.854850 0.000000 
#    z 0.313820 0.000000 4.183500 
# 
# 
# High freq. dielectric constant tensor:
#      x y z
#    x 1.868530 0.000000 0.007960 
#    y 0.000000 1.833820 0.000000 
#    z 0.007960 0.000000 1.873190 
# 
# From -- ./inp_files/33845.got.cif
#   From: 2010.06.25/outbox.cif.g09.slc.cpg/sg15_17_cif.got.tgz:33845.got - 2010.06.28 07:06:18.
