data_PCOD8145971
_publ_section_title
;
Structure prediction by ZEFSAII (Michael W. Deem and Ramdas Pophale) SiO2 
 PCOD8145971
Probable space group: C 2/C
;
_chemical_formula_sum "Si O2"
_cell_formula_units_Z 36
_cell_length_a 7.776645
_cell_length_b 11.459116
_cell_length_c 21.289013
_cell_angle_alpha 90.000000
_cell_angle_beta 106.831833
_cell_angle_gamma 90.000000
_cell_volume 1815.862242
_symmetry_space_group_name_H-M "C 2/C"
_symmetry_group_IT_number 15
_symmetry_cell_setting 'monoclinic'
loop_
_space_group_symop_operation_xyz
x,y,z
-x,y,1/2-z
-x,-y,-z
x,-y,1/2+z
1/2+x,1/2+y,z
1/2-x,1/2+y,1/2-z
1/2-x,1/2-y,-z
1/2+x,1/2-y,1/2+z
loop_
_atom_site_type_symbol
_atom_site_label
_atom_site_fract_x
_atom_site_fract_y
_atom_site_fract_z
Si Si1 0.201995 0.804916 0.295753
Si Si2 0.088989 0.307237 0.905649
Si Si3 0.500000 0.316334 0.750000
Si Si4 0.758059 0.955189 0.639380
Si Si5 0.142875 0.069966 0.975783
O O1 0.202657 0.714955 0.354289
O O2 0.331882 0.760876 0.254611
O O3 0.000000 0.821506 0.250000
O O4 0.283451 0.927911 0.326296
O O5 0.050135 0.183596 0.935378
O O6 0.902677 0.365388 0.867457
O O7 0.194188 0.394119 0.962240
O O8 0.438442 0.395826 0.685105
O O9 0.781457 0.982801 0.568673
O O10 0.000000 0.000000 0.000000
#
# Coordination Sequence:
#
# PCOD8145971 Si02
#       5
#     8   8   4   8   8
#     4  11  23  41  60  90 129 162 211 262 306 375
#     4  10  22  41  63  90 127 164 204 268 308 368
#     4  12  24  38  64  92 122 176 208 256 326 370
#     4  11  23  40  63  91 128 167 213 255 318 376
#     4  10  22  40  64  92 126 162 211 259 314 373
#
# _framework density 19.825294
#
# number of rings (size 3 to 8) (size 9 to 14) (size 15 to 20)
#    0.000    1.333    3.333    2.000    0.000    4.444 
#    0.000    0.000    0.000    0.000    0.000    0.000 
#    0.000    0.000    0.000    0.000    0.000    0.000 
#
# Total GULP energy -223281.146389 kJ/mol
# GULP energy per Si atom -12404.508133 kJ/mol
# Density = 1.978017 g / cm^3
# Si number density = 19.825294 Si / 1000 Ang^3
#
#
#
# Elastic Constant Matrix: (Units=GPa)
#
#
# Indices 1 2 3 4 5 6 
#
# 1 111.1782 58.2837 43.9620 0.0000 -6.5196 0.0000
# 2 58.2837 85.6993 34.0567 0.0000 -5.5741 0.0000
# 3 43.9620 34.0567 101.7915 0.0000 -1.7978 0.0000
# 4 0.0000 0.0000 0.0000 41.2673 0.0000 3.2936
# 5 -6.5196 -5.5741 -1.7978 0.0000 36.2757 0.0000
# 6 0.0000 0.0000 0.0000 3.2936 0.0000 26.4012
#
#
#
# Elastic Compliance Matrix: (Units=1/GPa)
#
#
# Indices 1 2 3 4 5 6 
#
# 1 0.015057 -0.008751 -0.003554 0.000000 0.001185 0.000000
# 2 -0.008751 0.018668 -0.002446 0.000000 0.001175 0.000000
# 3 -0.003554 -0.002446 0.012170 0.000000 -0.000411 0.000000
# 4 0.000000 0.000000 0.000000 0.024476 0.000000 -0.003053
# 5 0.001185 0.001175 -0.000411 0.000000 0.027940 0.000000
# 6 0.000000 0.000000 0.000000 -0.003053 0.000000 0.038258
#
#
# Mechanical properties :
#
#
# Convention : Reuss Voigt Hill
#
# Bulk Modulus (GPa) = 60.99837 63.47488 62.23663
# Shear Modulus (GPa) = 29.14856 31.61328 30.38092
#
# Velocity S-wave (km/s) = 3.83857 3.99757 3.91888
# Velocity P-wave (km/s) = 7.10499 7.30712 7.20677
#
# Compressibility (1/GPa) = 0.01639388
#
# Stress axis : x y z
#
# Youngs Moduli (GPa) = 66.41497 53.56654 82.16882
#
# Poissons Ratio (x) = 0.46874 0.29204
# Poissons Ratio (y) = 0.58117 0.20098
# Poissons Ratio (z) = 0.23605 0.13102
#
# Static dielectric constant tensor:
#      x y z
#    x 3.355040 0.000000 -0.055460 
#    y 0.000000 3.785130 0.000000 
#    z -0.055460 0.000000 4.241280 
# 
# 
# High freq. dielectric constant tensor:
#      x y z
#    x 1.760110 0.000000 0.003570 
#    y 0.000000 1.781420 0.000000 
#    z 0.003570 0.000000 1.794170 
# 
# From -- ./inp_files/187583.got.cif
#   From: 2010.06.25/outbox.cif.g09.slc.cpg/sg15_94_cif.got.tgz:187583.got - 2010.06.28 07:06:18.
