data_PCOD8145095
_publ_section_title
;
Structure prediction by ZEFSAII (Michael W. Deem and Ramdas Pophale) SiO2 
 PCOD8145095
Probable space group: C 2/C
;
_chemical_formula_sum "Si O2"
_cell_formula_units_Z 64
_cell_length_a 17.875235
_cell_length_b 14.256052
_cell_length_c 11.499578
_cell_angle_alpha 90.000000
_cell_angle_beta 89.442979
_cell_angle_gamma 90.000000
_cell_volume 2930.302195
_symmetry_space_group_name_H-M "C 2/C"
_symmetry_group_IT_number 15
_symmetry_cell_setting 'monoclinic'
loop_
_space_group_symop_operation_xyz
x,y,z
-x,y,1/2-z
-x,-y,-z
x,-y,1/2+z
1/2+x,1/2+y,z
1/2-x,1/2+y,1/2-z
1/2-x,1/2-y,-z
1/2+x,1/2-y,1/2+z
loop_
_atom_site_type_symbol
_atom_site_label
_atom_site_fract_x
_atom_site_fract_y
_atom_site_fract_z
Si Si1 0.298252 0.384059 0.510962
Si Si2 0.509724 0.273884 0.476231
Si Si3 0.928494 0.119071 0.322262
Si Si4 0.185496 0.456830 0.342598
Si Si5 0.897517 0.813991 0.300328
Si Si6 0.332766 0.480468 0.206077
Si Si7 0.873097 0.738567 0.646553
Si Si8 0.575106 0.870259 0.816860
O O1 0.219878 0.430522 0.470588
O O2 0.339558 0.355842 0.393209
O O3 0.342749 0.462051 0.586245
O O4 0.298105 0.289497 0.592796
O O5 0.555637 0.352970 0.544732
O O6 0.481723 0.319513 0.353498
O O7 0.437325 0.242047 0.548628
O O8 0.556238 0.181198 0.439859
O O9 0.867511 0.036962 0.316347
O O10 0.898419 0.213032 0.263763
O O11 0.000000 0.081790 0.250000
O O12 0.245499 0.471127 0.239257
O O13 0.138230 0.366186 0.309815
O O14 0.130332 0.545379 0.348148
O O15 0.881536 0.706186 0.264482
O O16 0.879436 0.882751 0.190863
O O17 0.500000 0.905430 0.750000
#
# Coordination Sequence:
#
# PCOD8145095 Si02
#       8
#     8   8   8   8   8   8   8   8
#     4   9  20  40  62  85 113 155 200 240 298 358
#     4   9  19  37  59  81 115 160 196 240 303 354
#     4   9  19  36  59  88 114 145 198 251 290 344
#     4  11  23  37  58  87 118 154 197 245 295 358
#     4   9  20  39  59  84 119 156 195 244 296 352
#     4  10  22  37  59  90 119 151 197 249 301 353
#     4   9  19  37  61  85 114 151 199 249 290 348
#     4  10  23  39  56  84 120 156 197 245 299 357
#
# _framework density 21.840751000000001
#
# number of rings (size 3 to 8) (size 9 to 14) (size 15 to 20)
#    0.000    2.500    0.000    1.125    0.000   14.000 
#    0.000    1.250    0.000    0.000    0.000    0.000 
#    0.000    0.000    0.000    0.000    0.000    0.000 
#
# Total GULP energy -396462.809165 kJ/mol
# GULP energy per Si atom -12389.462786 kJ/mol
# Density = 2.179104 g / cm^3
# Si number density = 21.840751 Si / 1000 Ang^3
#
#
#
# Elastic Constant Matrix: (Units=GPa)
#
#
# Indices 1 2 3 4 5 6 
#
# 1 79.4925 56.3665 23.4407 0.0000 13.7900 0.0000
# 2 56.3665 145.7749 29.8882 0.0000 8.7751 0.0000
# 3 23.4407 29.8882 77.3915 0.0000 5.8920 0.0000
# 4 0.0000 0.0000 0.0000 16.3782 0.0000 -4.3568
# 5 13.7900 8.7751 5.8920 0.0000 15.9291 0.0000
# 6 0.0000 0.0000 0.0000 -4.3568 0.0000 29.2314
#
#
#
# Elastic Compliance Matrix: (Units=1/GPa)
#
#
# Indices 1 2 3 4 5 6 
#
# 1 0.020205 -0.006495 -0.002626 0.000000 -0.012942 0.000000
# 2 -0.006495 0.009692 -0.001850 0.000000 0.000968 0.000000
# 3 -0.002626 -0.001850 0.014591 0.000000 -0.002105 0.000000
# 4 0.000000 0.000000 0.000000 0.063577 0.000000 0.009476
# 5 -0.012942 0.000968 -0.002105 0.000000 0.074228 0.000000
# 6 0.000000 0.000000 0.000000 0.009476 0.000000 0.035622
#
#
# Mechanical properties :
#
#
# Convention : Reuss Voigt Hill
#
# Bulk Modulus (GPa) = 44.35167 58.00552 51.17859
# Shear Modulus (GPa) = 20.21240 25.17197 22.69219
#
# Velocity S-wave (km/s) = 3.04541 3.39857 3.22682
# Velocity P-wave (km/s) = 5.71988 6.48200 6.11283
#
# Compressibility (1/GPa) = 0.02254707
#
# Stress axis : x y z
#
# Youngs Moduli (GPa) = 49.49306 103.17480 68.53430
#
# Poissons Ratio (x) = 0.67013 0.17997
# Poissons Ratio (y) = 0.32146 0.12676
# Poissons Ratio (z) = 0.12997 0.19082
#
# Static dielectric constant tensor:
#      x y z
#    x 3.940970 0.000000 0.219860 
#    y 0.000000 3.957580 0.000000 
#    z 0.219860 0.000000 3.968490 
# 
# 
# High freq. dielectric constant tensor:
#      x y z
#    x 1.847620 0.000000 0.010300 
#    y 0.000000 1.859480 0.000000 
#    z 0.010300 0.000000 1.856200 
# 
# From -- ./inp_files/105746.got.cif
#   From: 2010.06.25/outbox.cif.g09.slc.cpg/sg15_53_cif.got.tgz:105746.got - 2010.06.28 07:06:18.
