data_PCOD8145076
_publ_section_title
;
Structure prediction by ZEFSAII (Michael W. Deem and Ramdas Pophale) SiO2 
 PCOD8145076
Probable space group: C 2/C
;
_chemical_formula_sum "Si O2"
_cell_formula_units_Z 56
_cell_length_a 21.776675
_cell_length_b 22.752453
_cell_length_c 12.263071
_cell_angle_alpha 90.000000
_cell_angle_beta 26.700656
_cell_angle_gamma 90.000000
_cell_volume 2730.132387
_symmetry_space_group_name_H-M "C 2/C"
_symmetry_group_IT_number 15
_symmetry_cell_setting 'monoclinic'
loop_
_space_group_symop_operation_xyz
x,y,z
-x,y,1/2-z
-x,-y,-z
x,-y,1/2+z
1/2+x,1/2+y,z
1/2-x,1/2+y,1/2-z
1/2-x,1/2-y,-z
1/2+x,1/2-y,1/2+z
loop_
_atom_site_type_symbol
_atom_site_label
_atom_site_fract_x
_atom_site_fract_y
_atom_site_fract_z
Si Si1 0.500000 0.895735 0.750000
Si Si2 0.291622 0.624744 0.286099
Si Si3 0.484317 0.387180 0.900755
Si Si4 0.500000 0.093291 0.750000
Si Si5 0.757893 0.827376 0.397397
Si Si6 0.104870 0.014247 0.499110
Si Si7 0.601542 0.005229 0.935874
Si Si8 0.155979 0.797145 0.009009
O O1 0.607753 0.855257 0.641738
O O2 0.577318 0.935882 0.540944
O O3 0.387533 0.640971 0.236439
O O4 0.133075 0.629985 0.579819
O O5 0.345423 0.559290 0.171428
O O6 0.304978 0.667181 0.161060
O O7 0.500000 0.368490 0.750000
O O8 0.346427 0.360615 0.167589
O O9 0.472170 0.458058 0.930918
O O10 0.571554 0.054539 0.545813
O O11 0.822367 0.835690 0.415739
O O12 0.751994 0.759769 0.368222
O O13 0.239914 0.993157 0.352002
O O14 0.000000 0.045400 0.750000
O O15 0.500000 0.000000 0.000000
O O16 0.000000 0.776805 0.250000
#
# Coordination Sequence:
#
# PCOD8145076 Si02
#       8
#     4   8   8   4   8   8   8   8
#     4  11  22  38  62  92 128 172 205 268 316 372
#     4  11  23  44  65  92 130 171 219 259 326 383
#     4  11  24  42  65  96 135 167 207 266 323 390
#     4   9  24  38  56  94 124 164 211 256 310 398
#     4  11  24  43  67  96 127 165 225 266 326 368
#     4  10  22  37  61  96 124 171 215 259 318 380
#     4  10  22  37  57  87 132 167 208 252 314 386
#     4  11  23  44  70  94 123 167 221 280 309 378
#
# _framework density 20.511825000000002
#
# number of rings (size 3 to 8) (size 9 to 14) (size 15 to 20)
#    0.000    1.429    3.571    0.857    8.000    0.000 
#    1.286    0.714    0.000    0.000    0.000    0.000 
#    0.000    0.000    0.000    0.000    0.000    0.000 
#
# Total GULP energy -347087.066775 kJ/mol
# GULP energy per Si atom -12395.966671 kJ/mol
# Density = 2.046514 g / cm^3
# Si number density = 20.511825 Si / 1000 Ang^3
#
#
#
# Elastic Constant Matrix: (Units=GPa)
#
#
# Indices 1 2 3 4 5 6 
#
# 1 144.0517 25.5345 45.0687 -0.0115 -9.3809 -0.0006
# 2 25.5345 54.2646 18.3228 -0.0284 5.6940 0.0019
# 3 45.0687 18.3228 132.4694 -0.0391 -13.3402 0.0079
# 4 -0.0115 -0.0284 -0.0391 37.2885 0.0238 6.8109
# 5 -9.3809 5.6940 -13.3402 0.0238 36.1396 -0.0042
# 6 -0.0006 0.0019 0.0079 6.8109 -0.0042 34.8830
#
#
#
# Elastic Compliance Matrix: (Units=1/GPa)
#
#
# Indices 1 2 3 4 5 6 
#
# 1 0.008349 -0.003391 -0.002180 -0.000004 0.001897 0.000002
# 2 -0.003391 0.021339 -0.002311 0.000017 -0.005095 -0.000005
# 3 -0.002180 -0.002311 0.008922 0.000005 0.003091 -0.000003
# 4 -0.000004 0.000017 0.000005 0.027810 -0.000021 -0.005430
# 5 0.001897 -0.005095 0.003091 -0.000021 0.030107 0.000007
# 6 0.000002 -0.000005 -0.000003 -0.005430 0.000007 0.029727
#
#
# Mechanical properties :
#
#
# Convention : Reuss Voigt Hill
#
# Bulk Modulus (GPa) = 43.77463 56.51532 50.14498
# Shear Modulus (GPa) = 33.41505 37.78621 35.60063
#
# Velocity S-wave (km/s) = 4.04054 4.29670 4.17059
# Velocity P-wave (km/s) = 6.56928 7.22689 6.90592
#
# Compressibility (1/GPa) = 0.02284428
#
# Stress axis : x y z
#
# Youngs Moduli (GPa) = 119.77821 46.86255 112.08680
#
# Poissons Ratio (x) = 0.15893 0.24439
# Poissons Ratio (y) = 0.40621 0.25902
# Poissons Ratio (z) = 0.26116 0.10829
#
# Static dielectric constant tensor:
#      x y z
#    x 3.583890 -0.000020 -0.228640 
#    y -0.000020 3.419630 0.000020 
#    z -0.228640 0.000020 3.834000 
# 
# 
# High freq. dielectric constant tensor:
#      x y z
#    x 1.807280 0.000000 -0.019540 
#    y 0.000000 1.783640 0.000000 
#    z -0.019540 0.000000 1.809670 
# 
# From -- ./inp_files/114722.got.cif
#   From: 2010.06.25/outbox.cif.g09.slc.cpg/sg15_58_cif.got.tgz:114722.got - 2010.06.28 07:06:18.
