data_PCOD8145009
_publ_section_title
;
Structure prediction by ZEFSAII (Michael W. Deem and Ramdas Pophale) SiO2 
 PCOD8145009
Probable space group: C 2/C
;
_chemical_formula_sum "Si O2"
_cell_formula_units_Z 56
_cell_length_a 10.826497
_cell_length_b 30.851371
_cell_length_c 13.659524
_cell_angle_alpha 90.000000
_cell_angle_beta 32.241712
_cell_angle_gamma 90.000000
_cell_volume 2434.030670
_symmetry_space_group_name_H-M "C 2/C"
_symmetry_group_IT_number 15
_symmetry_cell_setting 'monoclinic'
loop_
_space_group_symop_operation_xyz
x,y,z
-x,y,1/2-z
-x,-y,-z
x,-y,1/2+z
1/2+x,1/2+y,z
1/2-x,1/2+y,1/2-z
1/2-x,1/2-y,-z
1/2+x,1/2-y,1/2+z
loop_
_atom_site_type_symbol
_atom_site_label
_atom_site_fract_x
_atom_site_fract_y
_atom_site_fract_z
Si Si1 0.366842 0.791063 0.634093
Si Si2 0.835758 0.055552 0.195498
Si Si3 0.230101 0.162023 0.545038
Si Si4 0.578525 0.526667 0.568136
Si Si5 0.125318 0.296790 0.267019
Si Si6 0.458339 0.647830 0.041372
Si Si7 0.170338 0.570427 0.929647
O O1 0.573157 0.801368 0.573081
O O2 0.306357 0.740342 0.678705
O O3 0.435639 0.804531 0.477794
O O4 0.138720 0.817305 0.816604
O O5 0.951367 0.101833 0.099235
O O6 0.596426 0.060400 0.416455
O O7 0.006290 0.023215 0.138702
O O8 0.789906 0.031893 0.122395
O O9 0.195225 0.149009 0.455094
O O10 0.309600 0.120157 0.552691
O O11 0.000000 0.180795 0.750000
O O12 0.349837 0.558891 0.721807
O O13 0.757500 0.539080 0.530933
O O14 0.000000 0.284209 0.250000
O O15 0.273759 0.340839 0.158197
#
# Coordination Sequence:
#
# PCOD8145009 Si02
#       7
#     8   8   8   8   8   8   8
#     4  12  26  45  74 102 133 184 229 287 347 419
#     4  11  22  39  63  94 132 177 225 270 340 405
#     4  12  22  42  70 107 143 174 230 292 358 409
#     4  10  22  36  60  94 130 176 225 274 325 400
#     4  12  28  51  72  98 137 186 232 283 352 421
#     4  12  25  43  71 108 140 178 232 291 354 421
#     4  11  20  39  65  91 132 182 217 279 341 397
#
# _framework density 23.007106
#
# number of rings (size 3 to 8) (size 9 to 14) (size 15 to 20)
#    0.000    0.571    7.143    1.714    0.000    0.571 
#    2.571    5.714    0.000    0.000    0.000    0.000 
#    0.000    0.000    0.000    0.000    0.000    0.000 
#
# Total GULP energy -347223.871601 kJ/mol
# GULP energy per Si atom -12400.852557 kJ/mol
# Density = 2.295474 g / cm^3
# Si number density = 23.007106 Si / 1000 Ang^3
#
#
#
# Elastic Constant Matrix: (Units=GPa)
#
#
# Indices 1 2 3 4 5 6 
#
# 1 54.1270 17.4456 -1.7669 0.0000 -0.5215 0.0000
# 2 17.4456 100.9886 6.5724 0.0000 -16.3848 0.0000
# 3 -1.7669 6.5724 88.9200 0.0000 9.9247 0.0000
# 4 0.0000 0.0000 0.0000 32.1788 0.0000 -2.1805
# 5 -0.5215 -16.3848 9.9247 0.0000 31.9662 0.0000
# 6 0.0000 0.0000 0.0000 -2.1805 0.0000 29.4525
#
#
#
# Elastic Compliance Matrix: (Units=1/GPa)
#
#
# Indices 1 2 3 4 5 6 
#
# 1 0.019699 -0.003766 0.000880 0.000000 -0.001882 0.000000
# 2 -0.003766 0.011708 -0.001661 0.000000 0.006455 0.000000
# 3 0.000880 -0.001661 0.011892 0.000000 -0.004529 0.000000
# 4 0.000000 0.000000 0.000000 0.031233 0.000000 0.002312
# 5 -0.001882 0.006455 -0.004529 0.000000 0.035967 0.000000
# 6 0.000000 0.000000 0.000000 0.002312 0.000000 0.034124
#
#
# Mechanical properties :
#
#
# Convention : Reuss Voigt Hill
#
# Bulk Modulus (GPa) = 29.23450 32.05975 30.64713
# Shear Modulus (GPa) = 30.28126 33.50515 31.89321
#
# Velocity S-wave (km/s) = 3.63184 3.82028 3.72725
# Velocity P-wave (km/s) = 5.50648 5.78138 5.64561
#
# Compressibility (1/GPa) = 0.03420616
#
# Stress axis : x y z
#
# Youngs Moduli (GPa) = 50.76306 85.41144 84.09164
#
# Poissons Ratio (x) = 0.32163 -0.07399
# Poissons Ratio (y) = 0.19115 0.13965
# Poissons Ratio (z) = -0.04466 0.14184
#
# Static dielectric constant tensor:
#      x y z
#    x 3.791140 0.000000 0.135180 
#    y 0.000000 4.182190 0.000000 
#    z 0.135180 0.000000 4.528220 
# 
# 
# High freq. dielectric constant tensor:
#      x y z
#    x 1.871160 0.000000 0.010240 
#    y 0.000000 1.911210 0.000000 
#    z 0.010240 0.000000 1.928650 
# 
# From -- ./inp_files/149267.got.cif
#   From: 2010.06.25/outbox.cif.g09.slc.cpg/sg15_75_cif.got.tgz:149267.got - 2010.06.28 07:06:18.
