data_PCOD8145939
_publ_section_title
;
Structure prediction by ZEFSAII (Michael W. Deem and Ramdas Pophale) SiO2 
 PCOD8145939
Probable space group: C 2/C
;
_chemical_formula_sum "Si O2"
_cell_formula_units_Z 44
_cell_length_a 22.584857
_cell_length_b 10.499246
_cell_length_c 8.868446
_cell_angle_alpha 90.000000
_cell_angle_beta 113.489138
_cell_angle_gamma 90.000000
_cell_volume 1928.663931
_symmetry_space_group_name_H-M "C 2/C"
_symmetry_group_IT_number 15
_symmetry_cell_setting 'monoclinic'
loop_
_space_group_symop_operation_xyz
x,y,z
-x,y,1/2-z
-x,-y,-z
x,-y,1/2+z
1/2+x,1/2+y,z
1/2-x,1/2+y,1/2-z
1/2-x,1/2-y,-z
1/2+x,1/2-y,1/2+z
loop_
_atom_site_type_symbol
_atom_site_label
_atom_site_fract_x
_atom_site_fract_y
_atom_site_fract_z
Si Si1 0.316355 0.647373 0.880024
Si Si2 0.633121 0.420868 0.766156
Si Si3 0.393257 0.966649 0.669607
Si Si4 0.000000 0.855874 0.750000
Si Si5 0.930219 0.331663 0.982708
Si Si6 0.669753 0.838259 0.165942
O O1 0.351516 0.545743 0.810437
O O2 0.357585 0.776950 0.922878
O O3 0.246140 0.682810 0.750483
O O4 0.313823 0.593527 0.047700
O O5 0.561787 0.439909 0.766956
O O6 0.633857 0.294166 0.664898
O O7 0.440629 0.880163 0.822237
O O8 0.347468 0.876718 0.522363
O O9 0.437527 0.051772 0.606671
O O10 0.349832 0.052341 0.736560
O O11 0.983424 0.771414 0.585001
#
# Coordination Sequence:
#
# PCOD8145939 Si02
#       6
#     8   8   8   4   8   8
#     4  11  24  40  66  96 132 170 219 265 329 384
#     4  11  25  42  66  96 129 180 215 265 322 382
#     4  10  22  40  63  95 130 165 214 263 336 384
#     4  10  22  48  66  90 134 168 230 262 314 386
#     4  10  23  41  63  94 126 175 213 270 321 379
#     4  11  22  41  63  97 132 166 212 273 328 387
#
# _framework density 22.813721999999999
#
# number of rings (size 3 to 8) (size 9 to 14) (size 15 to 20)
#    0.000    1.455    3.636    1.636    7.636    4.364 
#    0.000    0.000    0.000    0.000    0.000    0.000 
#    0.000    0.000    0.000    0.000    0.000    0.000 
#
# Total GULP energy -272846.855462 kJ/mol
# GULP energy per Si atom -12402.129794 kJ/mol
# Density = 2.276180 g / cm^3
# Si number density = 22.813722 Si / 1000 Ang^3
#
#
#
# Elastic Constant Matrix: (Units=GPa)
#
#
# Indices 1 2 3 4 5 6 
#
# 1 61.3951 13.2767 17.3499 0.0000 4.3483 0.0000
# 2 13.2767 52.3465 15.9329 0.0000 -13.2235 0.0000
# 3 17.3499 15.9329 124.7062 0.0000 -20.5108 0.0000
# 4 0.0000 0.0000 0.0000 32.7778 0.0000 -3.4398
# 5 4.3483 -13.2235 -20.5108 0.0000 32.2459 0.0000
# 6 0.0000 0.0000 0.0000 -3.4398 0.0000 19.8467
#
#
#
# Elastic Compliance Matrix: (Units=1/GPa)
#
#
# Indices 1 2 3 4 5 6 
#
# 1 0.018819 -0.005556 -0.003016 0.000000 -0.006735 0.000000
# 2 -0.005556 0.023184 -0.000561 0.000000 0.009900 0.000000
# 3 -0.003016 -0.000561 0.009537 0.000000 0.006243 0.000000
# 4 0.000000 0.000000 0.000000 0.031074 0.000000 0.005386
# 5 -0.006735 0.009900 0.006243 0.000000 0.039951 0.000000
# 6 0.000000 0.000000 0.000000 0.005386 0.000000 0.051320
#
#
# Mechanical properties :
#
#
# Convention : Reuss Voigt Hill
#
# Bulk Modulus (GPa) = 30.05360 36.84076 33.44718
# Shear Modulus (GPa) = 24.60132 29.76664 27.18398
#
# Velocity S-wave (km/s) = 3.28740 3.61608 3.45565
# Velocity P-wave (km/s) = 5.25465 5.79813 5.53307
#
# Compressibility (1/GPa) = 0.03327388
#
# Stress axis : x y z
#
# Youngs Moduli (GPa) = 53.13844 43.13257 104.85614
#
# Poissons Ratio (x) = 0.23966 0.31624
# Poissons Ratio (y) = 0.29525 0.05880
# Poissons Ratio (z) = 0.16026 0.02419
#
# Static dielectric constant tensor:
#      x y z
#    x 3.789990 0.000000 0.001970 
#    y 0.000000 4.058630 0.000000 
#    z 0.001970 0.000000 4.566980 
# 
# 
# High freq. dielectric constant tensor:
#      x y z
#    x 1.882010 0.000000 0.002040 
#    y 0.000000 1.894120 0.000000 
#    z 0.002040 0.000000 1.921160 
# 
# From -- ./inp_files/54360.got.cif
#   From: 2010.06.25/outbox.cif.g09.slc.cpg/sg15_28_cif.got.tgz:54360.got - 2010.06.28 07:06:18.
