data_PCOD8145413
_publ_section_title
;
Structure prediction by ZEFSAII (Michael W. Deem and Ramdas Pophale) SiO2 
 PCOD8145413
Probable space group: C 2/C
;
_chemical_formula_sum "Si O2"
_cell_formula_units_Z 40
_cell_length_a 17.547375
_cell_length_b 7.573792
_cell_length_c 23.517940
_cell_angle_alpha 90.000000
_cell_angle_beta 146.370513
_cell_angle_gamma 90.000000
_cell_volume 1730.985980
_symmetry_space_group_name_H-M "C 2/C"
_symmetry_group_IT_number 15
_symmetry_cell_setting 'monoclinic'
loop_
_space_group_symop_operation_xyz
x,y,z
-x,y,1/2-z
-x,-y,-z
x,-y,1/2+z
1/2+x,1/2+y,z
1/2-x,1/2+y,1/2-z
1/2-x,1/2-y,-z
1/2+x,1/2-y,1/2+z
loop_
_atom_site_type_symbol
_atom_site_label
_atom_site_fract_x
_atom_site_fract_y
_atom_site_fract_z
Si Si1 0.895614 0.828934 0.879521
Si Si2 0.190156 0.806504 0.023490
Si Si3 0.342773 0.713517 0.474726
Si Si4 0.878573 0.168306 0.814372
Si Si5 0.652400 0.507941 0.324724
O O1 0.891821 0.756513 0.940436
O O2 0.753000 0.789871 0.757267
O O3 0.901801 0.042219 0.883888
O O4 0.027872 0.756745 0.927067
O O5 0.266790 0.692896 0.119486
O O6 0.213553 0.015955 0.048362
O O7 0.250000 0.750000 0.000000
O O8 0.473053 0.768541 0.596193
O O9 0.220653 0.855675 0.407709
O O10 0.852150 0.047841 0.743271
O O11 0.500000 0.542809 0.250000
#
# Coordination Sequence:
#
# PCOD8145413 Si02
#       5
#     8   8   8   8   8
#     4  10  23  40  67  97 129 172 220 274 332 389
#     4  11  24  43  65  96 132 174 214 276 331 390
#     4  10  24  46  65  93 137 172 217 277 330 391
#     4  10  22  38  66  95 123 172 217 270 322 394
#     4  11  25  42  65  98 131 172 220 265 331 400
#
# _framework density 23.108217
#
# number of rings (size 3 to 8) (size 9 to 14) (size 15 to 20)
#    0.000    1.600    0.000    4.800    8.400    5.600 
#    3.600    0.000    0.000    0.000    0.000    0.000 
#    0.000    0.000    0.000    0.000    0.000    0.000 
#
# Total GULP energy -247868.318277 kJ/mol
# GULP energy per Si atom -12393.415914 kJ/mol
# Density = 2.305562 g / cm^3
# Si number density = 23.108217 Si / 1000 Ang^3
#
#
#
# Elastic Constant Matrix: (Units=GPa)
#
#
# Indices 1 2 3 4 5 6 
#
# 1 70.6583 16.7687 13.1913 -0.0001 15.5420 -0.0006
# 2 16.7687 88.1937 53.6990 -0.0001 29.0558 -0.0016
# 3 13.1913 53.6990 158.6642 0.0002 32.0903 -0.0001
# 4 -0.0001 -0.0001 0.0002 39.2391 0.0001 -21.6338
# 5 15.5420 29.0558 32.0903 0.0001 38.8684 0.0002
# 6 -0.0006 -0.0016 -0.0001 -21.6338 0.0002 5.5251
#
#
#
# Elastic Compliance Matrix: (Units=1/GPa)
#
#
# Indices 1 2 3 4 5 6 
#
# 1 0.015622 -0.001324 0.000255 -0.000001 -0.005467 -0.000002
# 2 -0.001324 0.016836 -0.003781 -0.000002 -0.008935 -0.000005
# 3 0.000255 -0.003781 0.008415 0.000000 -0.004223 0.000001
# 4 -0.000001 -0.000002 0.000000 -0.021993 0.000002 -0.086114
# 5 -0.005467 -0.008935 -0.004223 0.000002 0.038080 0.000004
# 6 -0.000002 -0.000005 0.000001 -0.086114 0.000004 -0.156192
#
#
# Mechanical properties :
#
#
# Convention : Reuss Voigt Hill
#
# Bulk Modulus (GPa) = 32.07913 53.87047 42.97480
# Shear Modulus (GPa) = -63.17918 32.31699 -15.43110
#
# Velocity S-wave (km/s) = -5.23449 3.74372 -2.58694
# Velocity P-wave (km/s) = 4.75615 6.48460 3.11682
#
# Compressibility (1/GPa) = 0.03117291
#
# Stress axis : x y z
#
# Youngs Moduli (GPa) = 64.01285 59.39592 118.83223
#
# Poissons Ratio (x) = 0.07867 -0.03033
# Poissons Ratio (y) = 0.08478 0.44930
# Poissons Ratio (z) = -0.01634 0.22457
#
# Static dielectric constant tensor:
#      x y z
#    x 4.094910 0.000000 0.295200 
#    y 0.000000 4.209460 0.000000 
#    z 0.295200 0.000000 4.817350 
# 
# 
# High freq. dielectric constant tensor:
#      x y z
#    x 1.906040 0.000000 0.008450 
#    y 0.000000 1.900810 0.000000 
#    z 0.008450 0.000000 1.934800 
# 
# From -- ./inp_files/125437.got.cif
#   From: 2010.06.25/outbox.cif.g09.slc.cpg/sg15_63_cif.got.tgz:125437.got - 2010.06.28 07:06:18.
