data_PCOD8145695
_publ_section_title
;
Structure prediction by ZEFSAII (Michael W. Deem and Ramdas Pophale) SiO2 
 PCOD8145695
Probable space group: C 2/C
;
_chemical_formula_sum "Si O2"
_cell_formula_units_Z 56
_cell_length_a 19.662730
_cell_length_b 18.853215
_cell_length_c 15.059218
_cell_angle_alpha 90.000000
_cell_angle_beta 150.627031
_cell_angle_gamma 90.000000
_cell_volume 2738.193812
_symmetry_space_group_name_H-M "C 2/C"
_symmetry_group_IT_number 15
_symmetry_cell_setting 'monoclinic'
loop_
_space_group_symop_operation_xyz
x,y,z
-x,y,1/2-z
-x,-y,-z
x,-y,1/2+z
1/2+x,1/2+y,z
1/2-x,1/2+y,1/2-z
1/2-x,1/2-y,-z
1/2+x,1/2-y,1/2+z
loop_
_atom_site_type_symbol
_atom_site_label
_atom_site_fract_x
_atom_site_fract_y
_atom_site_fract_z
Si Si1 0.771979 0.941952 0.603658
Si Si2 0.915881 0.751532 0.523537
Si Si3 0.500000 0.138639 0.750000
Si Si4 0.570172 0.852315 0.705330
Si Si5 0.211611 0.604036 0.541145
Si Si6 0.761533 0.857359 0.762640
Si Si7 0.036707 0.198171 0.612585
Si Si8 0.000000 0.135138 0.250000
O O1 0.634440 0.911058 0.401639
O O2 0.781568 0.922066 0.718275
O O3 0.906321 0.913991 0.705153
O O4 0.772164 0.026040 0.600049
O O5 0.769910 0.715396 0.328771
O O6 0.987626 0.783197 0.518354
O O7 0.898807 0.814994 0.575310
O O8 0.007633 0.688123 0.671050
O O9 0.427293 0.895221 0.556765
O O10 0.633940 0.874881 0.683242
O O11 0.541093 0.768346 0.677161
O O12 0.679672 0.867846 0.906912
O O13 0.325520 0.652960 0.717237
O O14 0.898507 0.846350 0.979111
#
# Coordination Sequence:
#
# PCOD8145695 Si02
#       8
#     8   8   4   8   8   8   8   4
#     4  11  24  43  60  97 130 174 206 252 318 394
#     4   9  20  36  63  96 126 162 209 265 314 357
#     4   9  20  38  66  88 129 164 218 258 303 374
#     4  10  22  43  66  89 120 172 214 271 307 363
#     4  11  25  43  63  90 132 166 215 254 320 383
#     4  10  22  39  65  97 128 159 214 264 319 371
#     4  11  21  40  65  97 124 157 215 272 311 367
#     4  11  22  40  66  90 133 172 208 256 319 374
#
# _framework density 20.451438
#
# number of rings (size 3 to 8) (size 9 to 14) (size 15 to 20)
#    0.000    1.714    1.429    3.000    2.000    5.714 
#    5.143    0.000    0.000    0.000    0.000    0.000 
#    0.000    0.000    0.000    0.000    0.000    0.000 
#
# Total GULP energy -347179.601212 kJ/mol
# GULP energy per Si atom -12399.271472 kJ/mol
# Density = 2.040489 g / cm^3
# Si number density = 20.451438 Si / 1000 Ang^3
#
#
#
# Elastic Constant Matrix: (Units=GPa)
#
#
# Indices 1 2 3 4 5 6 
#
# 1 105.5036 36.2228 41.0136 0.0000 -7.7742 0.0000
# 2 36.2228 96.2744 34.8841 0.0000 -12.6540 0.0000
# 3 41.0136 34.8841 100.2852 0.0000 1.7910 0.0000
# 4 0.0000 0.0000 0.0000 24.3160 0.0000 -4.3287
# 5 -7.7742 -12.6540 1.7910 0.0000 25.8137 0.0000
# 6 0.0000 0.0000 0.0000 -4.3287 0.0000 38.6779
#
#
#
# Elastic Compliance Matrix: (Units=1/GPa)
#
#
# Indices 1 2 3 4 5 6 
#
# 1 0.012206 -0.002775 -0.004073 0.000000 0.002598 0.000000
# 2 -0.002775 0.013567 -0.003693 0.000000 0.006071 0.000000
# 3 -0.004073 -0.003693 0.012992 0.000000 -0.003938 0.000000
# 4 0.000000 0.000000 0.000000 0.041961 0.000000 0.004696
# 5 0.002598 0.006071 -0.003938 0.000000 0.042771 0.000000
# 6 0.000000 0.000000 0.000000 0.004696 0.000000 0.026380
#
#
# Mechanical properties :
#
#
# Convention : Reuss Voigt Hill
#
# Bulk Modulus (GPa) = 56.54997 58.47825 57.51411
# Shear Modulus (GPa) = 28.27197 30.42436 29.34816
#
# Velocity S-wave (km/s) = 3.72209 3.86118 3.79227
# Velocity P-wave (km/s) = 6.79579 6.96664 6.88175
#
# Compressibility (1/GPa) = 0.01768348
#
# Stress axis : x y z
#
# Youngs Moduli (GPa) = 81.92760 73.70766 76.96971
#
# Poissons Ratio (x) = 0.20455 0.31349
# Poissons Ratio (y) = 0.22736 0.28423
# Poissons Ratio (z) = 0.33368 0.27219
#
# Static dielectric constant tensor:
#      x y z
#    x 3.620580 0.000000 -0.108950 
#    y 0.000000 3.604650 0.000000 
#    z -0.108950 0.000000 3.790120 
# 
# 
# High freq. dielectric constant tensor:
#      x y z
#    x 1.795770 0.000000 -0.004010 
#    y 0.000000 1.789320 0.000000 
#    z -0.004010 0.000000 1.808240 
# 
# From -- ./inp_files/169196.got.cif
#   From: 2010.06.25/outbox.cif.g09.slc.cpg/sg15_85_cif.got.tgz:169196.got - 2010.06.28 07:06:18.
