data_PCOD8145090
_publ_section_title
;
Structure prediction by ZEFSAII (Michael W. Deem and Ramdas Pophale) SiO2 
 PCOD8145090
Probable space group: C 2/C
;
_chemical_formula_sum "Si O2"
_cell_formula_units_Z 48
_cell_length_a 6.189054
_cell_length_b 31.055607
_cell_length_c 14.696528
_cell_angle_alpha 90.000000
_cell_angle_beta 140.875908
_cell_angle_gamma 90.000000
_cell_volume 1782.419081
_symmetry_space_group_name_H-M "C 2/C"
_symmetry_group_IT_number 15
_symmetry_cell_setting 'monoclinic'
loop_
_space_group_symop_operation_xyz
x,y,z
-x,y,1/2-z
-x,-y,-z
x,-y,1/2+z
1/2+x,1/2+y,z
1/2-x,1/2+y,1/2-z
1/2-x,1/2-y,-z
1/2+x,1/2-y,1/2+z
loop_
_atom_site_type_symbol
_atom_site_label
_atom_site_fract_x
_atom_site_fract_y
_atom_site_fract_z
Si Si1 0.703853 0.804710 0.079883
Si Si2 0.920778 0.464947 0.619353
Si Si3 0.685276 0.722750 0.581083
Si Si4 0.569354 0.875563 0.628758
Si Si5 0.431866 0.361895 0.553274
Si Si6 0.166460 0.556578 0.894304
O O1 0.000000 0.812667 0.250000
O O2 0.867047 0.793198 0.036477
O O3 0.459739 0.763426 0.025932
O O4 0.482876 0.848778 0.984541
O O5 0.109448 0.427088 0.622899
O O6 0.035335 0.514224 0.630716
O O7 0.520358 0.461554 0.471202
O O8 0.000000 0.454655 0.750000
O O9 0.784478 0.681681 0.547676
O O10 0.000000 0.735840 0.750000
O O11 0.234096 0.868437 0.579955
O O12 0.906687 0.858325 0.792422
O O13 0.192669 0.404428 0.473937
O O14 0.000000 0.576695 0.750000
#
# Coordination Sequence:
#
# PCOD8145090 Si02
#       6
#     8   8   8   8   8   8
#     4  10  23  38  56  81 111 150 192 230 278 342
#     4   9  14  25  42  68 102 137 167 212 277 327
#     4  10  22  37  59  82 110 146 188 238 283 328
#     4   9  16  31  50  70 104 149 176 219 274 332
#     4   9  16  29  50  75 108 138 178 226 280 324
#     4   9  15  21  40  72 107 127 164 220 278 325
#
# _framework density 26.929694999999999
#
# number of rings (size 3 to 8) (size 9 to 14) (size 15 to 20)
#    0.000    2.667    3.333    0.500    7.000    0.667 
#    0.000    0.000    0.000    0.000    0.000    1.167 
#    0.000    0.000    0.000    0.000    0.000    0.000 
#
# Total GULP energy -297557.299069 kJ/mol
# GULP energy per Si atom -12398.220795 kJ/mol
# Density = 2.686840 g / cm^3
# Si number density = 26.929695 Si / 1000 Ang^3
#
#
#
# Elastic Constant Matrix: (Units=GPa)
#
#
# Indices 1 2 3 4 5 6 
#
# 1 83.9725 68.1568 34.7329 0.0000 -12.2031 0.0000
# 2 68.1568 270.0963 112.8196 0.0000 -15.8533 0.0000
# 3 34.7329 112.8196 196.9938 0.0000 -1.0992 0.0000
# 4 0.0000 0.0000 0.0000 47.7017 0.0000 11.5921
# 5 -12.2031 -15.8533 -1.0992 0.0000 34.0859 0.0000
# 6 0.0000 0.0000 0.0000 11.5921 0.0000 1.7885
#
#
#
# Elastic Compliance Matrix: (Units=1/GPa)
#
#
# Indices 1 2 3 4 5 6 
#
# 1 0.015539 -0.003355 -0.000796 0.000000 0.003977 0.000000
# 2 -0.003355 0.005758 -0.002698 0.000000 0.001390 0.000000
# 3 -0.000796 -0.002698 0.006754 0.000000 -0.001322 0.000000
# 4 0.000000 0.000000 0.000000 -0.036455 0.000000 0.236276
# 5 0.003977 0.001390 -0.001322 0.000000 0.031365 0.000000
# 6 0.000000 0.000000 0.000000 0.236276 0.000000 -0.972275
#
#
# Mechanical properties :
#
#
# Convention : Reuss Voigt Hill
#
# Bulk Modulus (GPa) = 69.67404 109.16458 89.41931
# Shear Modulus (GPa) = -5.37155 39.07210 16.85028
#
# Velocity S-wave (km/s) = -1.41385 3.81319 2.50414
# Velocity P-wave (km/s) = 4.82322 7.74675 6.45273
#
# Compressibility (1/GPa) = 0.01435255
#
# Stress axis : x y z
#
# Youngs Moduli (GPa) = 64.35348 173.68282 148.04979
#
# Poissons Ratio (x) = 0.58275 0.11785
# Poissons Ratio (y) = 0.21592 0.39945
# Poissons Ratio (z) = 0.05123 0.46861
#
# Static dielectric constant tensor:
#      x y z
#    x 5.218040 0.000000 0.308920 
#    y 0.000000 5.774630 0.000000 
#    z 0.308920 0.000000 5.369590 
# 
# 
# High freq. dielectric constant tensor:
#      x y z
#    x 2.117230 0.000000 0.001640 
#    y 0.000000 2.111180 0.000000 
#    z 0.001640 0.000000 2.083820 
# 
# From -- ./inp_files/194301.got.cif
#   From: 2010.06.25/outbox.cif.g09.slc.cpg/sg15_98_cif.got.tgz:194301.got - 2010.06.28 07:06:18.
