data_PCOD8145328
_publ_section_title
;
Structure prediction by ZEFSAII (Michael W. Deem and Ramdas Pophale) SiO2 
 PCOD8145328
Probable space group: C 2/C
;
_chemical_formula_sum "Si O2"
_cell_formula_units_Z 32
_cell_length_a 26.338755
_cell_length_b 7.587667
_cell_length_c 11.332818
_cell_angle_alpha 90.000000
_cell_angle_beta 138.946692
_cell_angle_gamma 90.000000
_cell_volume 1487.471751
_symmetry_space_group_name_H-M "C 2/C"
_symmetry_group_IT_number 15
_symmetry_cell_setting 'monoclinic'
loop_
_space_group_symop_operation_xyz
x,y,z
-x,y,1/2-z
-x,-y,-z
x,-y,1/2+z
1/2+x,1/2+y,z
1/2-x,1/2+y,1/2-z
1/2-x,1/2-y,-z
1/2+x,1/2-y,1/2+z
loop_
_atom_site_type_symbol
_atom_site_label
_atom_site_fract_x
_atom_site_fract_y
_atom_site_fract_z
Si Si1 0.649729 0.121532 0.381609
Si Si2 0.815458 0.834848 0.272212
Si Si3 0.409983 0.446589 0.098764
Si Si4 0.321543 0.248501 0.537830
O O1 0.740477 0.100140 0.571438
O O2 0.637823 0.200416 0.230296
O O3 0.605432 0.242045 0.399221
O O4 0.621351 0.918198 0.334686
O O5 0.791220 0.729610 0.348920
O O6 0.870700 0.000301 0.404574
O O7 0.500000 0.485318 0.250000
O O8 0.371388 0.569774 0.134370
O O9 0.250000 0.250000 0.500000
#
# Coordination Sequence:
#
# PCOD8145328 Si02
#       4
#     8   8   8   8
#     4  11  20  40  66  90 124 172 208 258 324 371
#     4   9  22  39  61  96 122 161 221 257 311 383
#     4  10  24  42  61  95 135 161 211 271 321 377
#     4  10  22  38  63  94 126 166 213 268 305 381
#
# _framework density 21.513013999999998
#
# number of rings (size 3 to 8) (size 9 to 14) (size 15 to 20)
#    1.500    0.500    0.000    4.500    3.500    2.000 
#    0.000    1.250    0.000    0.000    0.000    0.000 
#    0.000    0.000    0.000    0.000    0.000    0.000 
#
# Total GULP energy -198258.880630 kJ/mol
# GULP energy per Si atom -12391.180039 kJ/mol
# Density = 2.146405 g / cm^3
# Si number density = 21.513014 Si / 1000 Ang^3
#
#
#
# Elastic Constant Matrix: (Units=GPa)
#
#
# Indices 1 2 3 4 5 6 
#
# 1 81.6974 25.0619 39.2379 0.0000 2.4711 0.0000
# 2 25.0619 134.1537 8.3854 0.0000 6.4586 0.0000
# 3 39.2379 8.3854 65.6505 0.0000 4.6404 0.0000
# 4 0.0000 0.0000 0.0000 18.6678 0.0000 -0.4896
# 5 2.4711 6.4586 4.6404 0.0000 42.7443 0.0000
# 6 0.0000 0.0000 0.0000 -0.4896 0.0000 27.0668
#
#
#
# Elastic Compliance Matrix: (Units=1/GPa)
#
#
# Indices 1 2 3 4 5 6 
#
# 1 0.018119 -0.002752 -0.010514 0.000000 0.000510 0.000000
# 2 -0.002752 0.007978 0.000705 0.000000 -0.001123 0.000000
# 3 -0.010514 0.000705 0.021556 0.000000 -0.001839 0.000000
# 4 0.000000 0.000000 0.000000 0.053594 0.000000 0.000970
# 5 0.000510 -0.001123 -0.001839 0.000000 0.023735 0.000000
# 6 0.000000 0.000000 0.000000 0.000970 0.000000 0.036963
#
#
# Mechanical properties :
#
#
# Convention : Reuss Voigt Hill
#
# Bulk Modulus (GPa) = 44.38206 47.43021 45.90613
# Shear Modulus (GPa) = 25.69689 31.61686 28.65688
#
# Velocity S-wave (km/s) = 3.45988 3.83778 3.65372
# Velocity P-wave (km/s) = 6.05278 6.46012 6.25976
#
# Compressibility (1/GPa) = 0.02253163
#
# Stress axis : x y z
#
# Youngs Moduli (GPa) = 55.19167 125.34038 46.39112
#
# Poissons Ratio (x) = 0.34496 0.48774
# Poissons Ratio (y) = 0.15190 -0.03272
# Poissons Ratio (z) = 0.58026 -0.08840
#
# Static dielectric constant tensor:
#      x y z
#    x 3.675760 0.000000 -0.254270 
#    y 0.000000 4.203120 0.000000 
#    z -0.254270 0.000000 3.461820 
# 
# 
# High freq. dielectric constant tensor:
#      x y z
#    x 1.834960 0.000000 -0.024390 
#    y 0.000000 1.856410 0.000000 
#    z -0.024390 0.000000 1.802910 
# 
# From -- ./inp_files/102233.got.cif
#   From: 2010.06.25/outbox.cif.g09.slc.cpg/sg15_52_cif.got.tgz:102233.got - 2010.06.28 07:06:18.
