data_PCOD8145257
_publ_section_title
;
Structure prediction by ZEFSAII (Michael W. Deem and Ramdas Pophale) SiO2 
 PCOD8145257
Probable space group: C 2/C
;
_chemical_formula_sum "Si O2"
_cell_formula_units_Z 48
_cell_length_a 22.283491
_cell_length_b 11.466184
_cell_length_c 20.111619
_cell_angle_alpha 90.000000
_cell_angle_beta 154.493286
_cell_angle_gamma 90.000000
_cell_volume 2212.789996
_symmetry_space_group_name_H-M "C 2/C"
_symmetry_group_IT_number 15
_symmetry_cell_setting 'monoclinic'
loop_
_space_group_symop_operation_xyz
x,y,z
-x,y,1/2-z
-x,-y,-z
x,-y,1/2+z
1/2+x,1/2+y,z
1/2-x,1/2+y,1/2-z
1/2-x,1/2-y,-z
1/2+x,1/2-y,1/2+z
loop_
_atom_site_type_symbol
_atom_site_label
_atom_site_fract_x
_atom_site_fract_y
_atom_site_fract_z
Si Si1 0.658865 0.987045 0.539008
Si Si2 0.162415 0.368539 0.912415
Si Si3 0.655530 0.651155 0.106393
Si Si4 0.344469 0.651157 0.795332
Si Si5 0.750000 0.249999 0.171131
Si Si6 0.158867 0.487044 0.278725
O O1 0.701985 0.050067 0.514231
O O2 0.762409 0.030601 0.700924
O O3 0.676007 0.846488 0.550464
O O4 0.499999 0.016405 0.399986
O O5 0.201985 0.449935 0.889740
O O6 0.000000 0.335096 0.750000
O O7 0.250000 0.250000 0.000000
O O8 0.500001 0.354803 0.079600
O O9 0.750001 0.749998 0.163340
O O10 0.642182 0.683272 0.171379
O O11 0.737587 0.530598 0.176101
O O12 0.357818 0.683274 0.887014
O O13 0.823993 0.346486 0.198450
#
# Coordination Sequence:
#
# PCOD8145257 Si02
#       6
#     8   8   8   8   8   8
#     4  11  23  42  65  91 127 167 209 259 310 368
#     4  10  24  45  68  92 120 161 211 258 309 368
#     4  10  22  38  60  92 127 164 206 253 308 371
#     4  10  22  38  60  92 127 164 206 253 308 371
#     4  10  24  37  64  91 126 162 206 254 314 372
#     4  11  23  42  65  91 127 167 209 259 310 368
#
# _framework density 21.692072
#
# number of rings (size 3 to 8) (size 9 to 14) (size 15 to 20)
#    1.000    0.667    0.000    4.000    0.000   10.000 
#    0.000    0.000    0.000    0.000    0.000    0.000 
#    0.000    0.000    0.000    0.000    0.000    0.000 
#
# Total GULP energy -297339.937851 kJ/mol
# GULP energy per Si atom -12389.164077 kJ/mol
# Density = 2.164270 g / cm^3
# Si number density = 21.692072 Si / 1000 Ang^3
#
#
#
# Elastic Constant Matrix: (Units=GPa)
#
#
# Indices 1 2 3 4 5 6 
#
# 1 90.2141 70.2411 52.4486 0.0001 -3.7684 0.0001
# 2 70.2411 173.2319 69.7369 -0.0001 -0.2470 0.0000
# 3 52.4486 69.7369 134.3229 -0.0004 25.3543 0.0000
# 4 0.0001 -0.0001 -0.0004 35.1663 -0.0002 -0.8239
# 5 -3.7684 -0.2470 25.3543 -0.0002 29.2853 0.0000
# 6 0.0001 0.0000 0.0000 -0.8239 0.0000 36.8508
#
#
#
# Elastic Compliance Matrix: (Units=1/GPa)
#
#
# Indices 1 2 3 4 5 6 
#
# 1 0.019093 -0.005231 -0.006210 0.000000 0.007789 0.000000
# 2 -0.005231 0.009144 -0.003099 0.000000 0.002087 0.000000
# 3 -0.006210 -0.003099 0.013907 0.000000 -0.012865 0.000000
# 4 0.000000 0.000000 0.000000 0.028451 0.000000 0.000636
# 5 0.007789 0.002087 -0.012865 0.000000 0.046305 0.000000
# 6 0.000000 0.000000 0.000000 0.000636 0.000000 0.027151
#
#
# Mechanical properties :
#
#
# Convention : Reuss Voigt Hill
#
# Bulk Modulus (GPa) = 76.54005 86.95800 81.74903
# Shear Modulus (GPa) = 28.17156 33.94996 31.06076
#
# Velocity S-wave (km/s) = 3.60766 3.96041 3.78814
# Velocity P-wave (km/s) = 7.26051 7.81586 7.54330
#
# Compressibility (1/GPa) = 0.01306506
#
# Stress axis : x y z
#
# Youngs Moduli (GPa) = 52.37518 109.36125 71.90841
#
# Poissons Ratio (x) = 0.57205 0.44653
# Poissons Ratio (y) = 0.27397 0.22283
# Poissons Ratio (z) = 0.32523 0.33888
#
# Static dielectric constant tensor:
#      x y z
#    x 3.581850 0.000000 0.038960 
#    y 0.000000 4.050860 0.000000 
#    z 0.038960 0.000000 3.661470 
# 
# 
# High freq. dielectric constant tensor:
#      x y z
#    x 1.821160 0.000000 0.008960 
#    y 0.000000 1.868910 0.000000 
#    z 0.008960 0.000000 1.839460 
# 
# From -- ./inp_files/252607.got.cif
#   From: 2010.06.25/outbox.cif.g09.slc.cpg/sg15_127_cif.got.tgz:252607.got - 2010.06.28 07:06:18.
