data_PCOD8145130
_publ_section_title
;
Structure prediction by ZEFSAII (Michael W. Deem and Ramdas Pophale) SiO2 
 PCOD8145130
Probable space group: C 2/C
;
_chemical_formula_sum "Si O2"
_cell_formula_units_Z 48
_cell_length_a 16.102359
_cell_length_b 9.776458
_cell_length_c 15.156533
_cell_angle_alpha 90.000000
_cell_angle_beta 81.424692
_cell_angle_gamma 90.000000
_cell_volume 2359.328842
_symmetry_space_group_name_H-M "C 2/C"
_symmetry_group_IT_number 15
_symmetry_cell_setting 'monoclinic'
loop_
_space_group_symop_operation_xyz
x,y,z
-x,y,1/2-z
-x,-y,-z
x,-y,1/2+z
1/2+x,1/2+y,z
1/2-x,1/2+y,1/2-z
1/2-x,1/2-y,-z
1/2+x,1/2-y,1/2+z
loop_
_atom_site_type_symbol
_atom_site_label
_atom_site_fract_x
_atom_site_fract_y
_atom_site_fract_z
Si Si1 0.540632 0.795853 0.119128
Si Si2 0.360335 0.411426 0.360627
Si Si3 0.500000 0.585274 0.250000
Si Si4 0.780158 0.819958 0.906679
Si Si5 0.500000 0.034474 0.250000
Si Si6 0.365732 0.755154 0.701230
Si Si7 0.495338 0.350887 0.045971
O O1 0.476233 0.686745 0.172630
O O2 0.634816 0.756453 0.134588
O O3 0.523210 0.946673 0.158865
O O4 0.526654 0.775160 0.016316
O O5 0.422482 0.494251 0.288016
O O6 0.296691 0.516748 0.418398
O O7 0.319413 0.312678 0.293949
O O8 0.413092 0.325806 0.425092
O O9 0.710210 0.812203 0.843471
O O10 0.750000 0.750000 0.000000
O O11 0.578133 0.123727 0.268521
O O12 0.423911 0.652132 0.633523
O O13 0.500000 0.500000 0.000000
#
# Coordination Sequence:
#
# PCOD8145130 Si02
#       7
#     8   8   4   8   4   8   8
#     4  10  22  37  63  91 124 164 205 259 316 366
#     4  11  20  37  64  91 121 161 216 252 306 374
#     4   9  15  34  58  90 113 155 214 252 292 367
#     4  11  23  40  61  94 127 161 201 262 324 366
#     4  11  25  44  60  90 129 169 218 246 318 377
#     4  12  23  40  61  91 125 167 204 259 311 378
#     4  12  18  37  68  93 118 155 216 262 300 366
#
# _framework density 20.344767999999998
#
# number of rings (size 3 to 8) (size 9 to 14) (size 15 to 20)
#    0.000    1.000    8.333    0.000    2.333    0.667 
#    0.000    0.000    0.000    2.000    0.000    0.000 
#    0.000    0.000    0.000    0.000    0.000    0.000 
#
# Total GULP energy -297315.335345 kJ/mol
# GULP energy per Si atom -12388.138973 kJ/mol
# Density = 2.029846 g / cm^3
# Si number density = 20.344768 Si / 1000 Ang^3
#
#
#
# Elastic Constant Matrix: (Units=GPa)
#
#
# Indices 1 2 3 4 5 6 
#
# 1 95.2289 40.1307 41.3025 0.0000 31.9459 0.0000
# 2 40.1307 94.4730 51.7216 0.0000 5.7520 0.0000
# 3 41.3025 51.7216 122.0241 0.0000 21.7853 0.0000
# 4 0.0000 0.0000 0.0000 36.4307 0.0000 1.0096
# 5 31.9459 5.7520 21.7853 0.0000 38.4738 0.0000
# 6 0.0000 0.0000 0.0000 1.0096 0.0000 29.9376
#
#
#
# Elastic Compliance Matrix: (Units=1/GPa)
#
#
# Indices 1 2 3 4 5 6 
#
# 1 0.018160 -0.006313 -0.001054 0.000000 -0.013538 0.000000
# 2 -0.006313 0.016045 -0.005753 0.000000 0.006101 0.000000
# 3 -0.001054 -0.005753 0.011882 0.000000 -0.004993 0.000000
# 4 0.000000 0.000000 0.000000 0.027475 0.000000 -0.000927
# 5 -0.013538 0.006101 -0.004993 0.000000 0.039148 0.000000
# 6 0.000000 0.000000 0.000000 -0.000927 0.000000 0.033434
#
#
# Mechanical properties :
#
#
# Convention : Reuss Voigt Hill
#
# Bulk Modulus (GPa) = 50.38640 64.22619 57.30630
# Shear Modulus (GPa) = 27.93302 32.87316 30.40309
#
# Velocity S-wave (km/s) = 3.70940 4.02407 3.86993
# Velocity P-wave (km/s) = 6.57010 7.29577 6.94242
#
# Compressibility (1/GPa) = 0.01984663
#
# Stress axis : x y z
#
# Youngs Moduli (GPa) = 55.06597 62.32484 84.16216
#
# Poissons Ratio (x) = 0.39344 0.08871
# Poissons Ratio (y) = 0.34762 0.48421
# Poissons Ratio (z) = 0.05804 0.35857
#
# Static dielectric constant tensor:
#      x y z
#    x 3.883470 0.000000 -0.065570 
#    y 0.000000 3.847610 0.000000 
#    z -0.065570 0.000000 4.224970 
# 
# 
# High freq. dielectric constant tensor:
#      x y z
#    x 1.770190 0.000000 0.010700 
#    y 0.000000 1.788130 0.000000 
#    z 0.010700 0.000000 1.811860 
# 
# From -- ./inp_files/159779.got.cif
#   From: 2010.06.25/outbox.cif.g09.slc.cpg/sg15_80_cif.got.tgz:159779.got - 2010.06.28 07:06:18.
