data_PCOD8145565
_publ_section_title
;
Structure prediction by ZEFSAII (Michael W. Deem and Ramdas Pophale) SiO2 
 PCOD8145565
Probable space group: C 2/C
;
_chemical_formula_sum "Si O2"
_cell_formula_units_Z 64
_cell_length_a 17.558653
_cell_length_b 11.452386
_cell_length_c 15.605103
_cell_angle_alpha 90.000000
_cell_angle_beta 90.885986
_cell_angle_gamma 90.000000
_cell_volume 3137.631148
_symmetry_space_group_name_H-M "C 2/C"
_symmetry_group_IT_number 15
_symmetry_cell_setting 'monoclinic'
loop_
_space_group_symop_operation_xyz
x,y,z
-x,y,1/2-z
-x,-y,-z
x,-y,1/2+z
1/2+x,1/2+y,z
1/2-x,1/2+y,1/2-z
1/2-x,1/2-y,-z
1/2+x,1/2-y,1/2+z
loop_
_atom_site_type_symbol
_atom_site_label
_atom_site_fract_x
_atom_site_fract_y
_atom_site_fract_z
Si Si1 0.213141 0.093867 0.830546
Si Si2 0.683908 0.534805 0.155264
Si Si3 0.386375 0.498970 0.525854
Si Si4 0.624079 0.973370 0.196260
Si Si5 0.498871 0.691909 0.480587
Si Si6 0.069272 0.769192 0.697247
Si Si7 0.162657 0.360307 0.845392
Si Si8 0.499496 0.912405 0.576389
O O1 0.303189 0.079540 0.854106
O O2 0.179208 0.223247 0.838853
O O3 0.195833 0.058188 0.731728
O O4 0.177251 0.012038 0.902968
O O5 0.639313 0.641723 0.199023
O O6 0.762084 0.580646 0.113121
O O7 0.640149 0.480224 0.073316
O O8 0.440851 0.611016 0.532354
O O9 0.431159 0.383037 0.554129
O O10 0.590795 0.856088 0.240848
O O11 0.655333 0.077628 0.254056
O O12 0.554891 0.035379 0.147331
O O13 0.456051 0.754492 0.401121
O O14 0.531879 0.788338 0.545736
O O15 0.000000 0.825065 0.750000
O O16 0.087410 0.390909 0.896570
O O17 0.500000 0.000000 0.500000
#
# Coordination Sequence:
#
# PCOD8145565 Si02
#       8
#     8   8   8   8   8   8   8   8
#     4  11  23  45  67  93 132 173 222 275 331 401
#     4  10  24  40  67  99 124 174 226 269 328 398
#     4  10  22  42  66  94 128 170 222 276 324 391
#     4  11  25  41  62  96 131 171 220 270 331 400
#     4  10  22  39  61  96 128 163 222 267 322 404
#     4  11  20  39  62  89 134 174 210 265 331 391
#     4  11  24  44  67  92 131 175 223 272 335 397
#     4  12  24  41  64  98 130 168 217 272 335 399
#
# _framework density 20.397552999999998
#
# number of rings (size 3 to 8) (size 9 to 14) (size 15 to 20)
#    0.000    1.250    3.750    1.875    3.500    0.500 
#    0.000    0.625    0.000    0.000    0.000    0.000 
#    0.000    0.000    0.000    0.000    0.000    0.000 
#
# Total GULP energy -396564.138201 kJ/mol
# GULP energy per Si atom -12392.629319 kJ/mol
# Density = 2.035113 g / cm^3
# Si number density = 20.397553 Si / 1000 Ang^3
#
#
#
# Elastic Constant Matrix: (Units=GPa)
#
#
# Indices 1 2 3 4 5 6 
#
# 1 131.8665 53.7983 25.3683 0.0000 -18.7244 0.0000
# 2 53.7983 87.8204 20.2376 0.0000 -10.5301 0.0000
# 3 25.3683 20.2376 49.1121 0.0000 -12.4478 0.0000
# 4 0.0000 0.0000 0.0000 25.7948 0.0000 0.2444
# 5 -18.7244 -10.5301 -12.4478 0.0000 33.0720 0.0000
# 6 0.0000 0.0000 0.0000 0.2444 0.0000 32.4383
#
#
#
# Elastic Compliance Matrix: (Units=1/GPa)
#
#
# Indices 1 2 3 4 5 6 
#
# 1 0.010850 -0.005684 -0.002392 0.000000 0.003433 0.000000
# 2 -0.005684 0.015715 -0.003413 0.000000 0.000501 0.000000
# 3 -0.002392 -0.003413 0.024746 0.000000 0.006873 0.000000
# 4 0.000000 0.000000 0.000000 0.038770 0.000000 -0.000292
# 5 0.003433 0.000501 0.006873 0.000000 0.034927 0.000000
# 6 0.000000 0.000000 0.000000 -0.000292 0.000000 0.030830
#
#
# Mechanical properties :
#
#
# Convention : Reuss Voigt Hill
#
# Bulk Modulus (GPa) = 35.29451 51.95639 43.62545
# Shear Modulus (GPa) = 26.55903 29.55401 28.05652
#
# Velocity S-wave (km/s) = 3.61233 3.81057 3.71278
# Velocity P-wave (km/s) = 5.89402 6.69983 6.30980
#
# Compressibility (1/GPa) = 0.02833302
#
# Stress axis : x y z
#
# Youngs Moduli (GPa) = 92.16676 63.63247 40.41135
#
# Poissons Ratio (x) = 0.36167 0.09667
# Poissons Ratio (y) = 0.52385 0.13792
# Poissons Ratio (z) = 0.22049 0.21717
#
# Static dielectric constant tensor:
#      x y z
#    x 3.178460 0.000000 -0.302860 
#    y 0.000000 3.771090 0.000000 
#    z -0.302860 0.000000 3.352890 
# 
# 
# High freq. dielectric constant tensor:
#      x y z
#    x 1.814540 0.000000 -0.004240 
#    y 0.000000 1.804680 0.000000 
#    z -0.004240 0.000000 1.782930 
# 
# From -- ./inp_files/161341.got.cif
#   From: 2010.06.25/outbox.cif.g09.slc.cpg/sg15_81_cif.got.tgz:161341.got - 2010.06.28 07:06:18.
