data_PCOD8145015
_publ_section_title
;
Structure prediction by ZEFSAII (Michael W. Deem and Ramdas Pophale) SiO2 
 PCOD8145015
Probable space group: C 2/C
;
_chemical_formula_sum "Si O2"
_cell_formula_units_Z 48
_cell_length_a 11.193488
_cell_length_b 27.832531
_cell_length_c 8.440555
_cell_angle_alpha 90.000000
_cell_angle_beta 118.932502
_cell_angle_gamma 90.000000
_cell_volume 2301.397344
_symmetry_space_group_name_H-M "C 2/C"
_symmetry_group_IT_number 15
_symmetry_cell_setting 'monoclinic'
loop_
_space_group_symop_operation_xyz
x,y,z
-x,y,1/2-z
-x,-y,-z
x,-y,1/2+z
1/2+x,1/2+y,z
1/2-x,1/2+y,1/2-z
1/2-x,1/2-y,-z
1/2+x,1/2-y,1/2+z
loop_
_atom_site_type_symbol
_atom_site_label
_atom_site_fract_x
_atom_site_fract_y
_atom_site_fract_z
Si Si1 0.220355 0.891812 0.599879
Si Si2 0.206239 0.799387 0.787100
Si Si3 0.584279 0.284226 0.035774
Si Si4 0.500000 0.973933 0.250000
Si Si5 0.398422 0.479641 0.809624
Si Si6 0.000000 0.152409 0.750000
Si Si7 0.664239 0.046450 0.568566
O O1 0.262566 0.847478 0.738337
O O2 0.207048 0.939709 0.696526
O O3 0.330161 0.904354 0.531848
O O4 0.078555 0.880736 0.423665
O O5 0.337998 0.765332 0.879276
O O6 0.077787 0.776272 0.607550
O O7 0.156025 0.811120 0.933475
O O8 0.600555 0.315016 0.206801
O O9 0.405346 0.941580 0.305691
O O10 0.587770 0.006065 0.421855
O O11 0.500000 0.454677 0.750000
O O12 0.315601 0.525234 0.689162
O O13 0.500000 0.500000 0.000000
#
# Coordination Sequence:
#
# PCOD8145015 Si02
#       7
#     8   8   8   4   8   4   8
#     4  11  22  36  57  94 118 157 211 255 297 366
#     4   9  20  39  65  87 122 159 202 249 309 383
#     4   9  19  39  61  89 118 165 191 247 326 373
#     4  10  22  40  63  72 120 180 210 247 306 368
#     4  12  22  36  59  90 124 160 202 257 311 361
#     4  10  22  36  61  90 126 150 192 261 312 370
#     4  11  21  41  59  86 118 171 212 253 310 360
#
# _framework density 20.856892999999999
#
# number of rings (size 3 to 8) (size 9 to 14) (size 15 to 20)
#    0.000    1.667    3.333    1.000    4.667    2.667 
#    0.000    2.500    0.000    0.000    0.000    0.000 
#    0.000    0.000    0.000    0.000    0.000    0.000 
#
# Total GULP energy -297425.808702 kJ/mol
# GULP energy per Si atom -12392.742029 kJ/mol
# Density = 2.080942 g / cm^3
# Si number density = 20.856893 Si / 1000 Ang^3
#
#
#
# Elastic Constant Matrix: (Units=GPa)
#
#
# Indices 1 2 3 4 5 6 
#
# 1 127.4332 50.8504 34.7505 0.0000 -33.0132 0.0000
# 2 50.8504 94.9678 33.2816 0.0000 -19.2384 0.0000
# 3 34.7505 33.2816 85.6061 0.0000 -14.2594 0.0000
# 4 0.0000 0.0000 0.0000 34.9715 0.0000 -3.6045
# 5 -33.0132 -19.2384 -14.2594 0.0000 43.5921 0.0000
# 6 0.0000 0.0000 0.0000 -3.6045 0.0000 -0.8293
#
#
#
# Elastic Compliance Matrix: (Units=1/GPa)
#
#
# Indices 1 2 3 4 5 6 
#
# 1 0.011763 -0.004296 -0.002048 0.000000 0.006343 0.000000
# 2 -0.004296 0.014476 -0.003555 0.000000 0.001972 0.000000
# 3 -0.002048 -0.003555 0.014146 0.000000 0.001507 0.000000
# 4 0.000000 0.000000 0.000000 0.019748 0.000000 -0.085836
# 5 0.006343 0.001972 0.001507 0.000000 0.029107 0.000000
# 6 0.000000 0.000000 0.000000 -0.085836 0.000000 -0.832796
#
#
# Mechanical properties :
#
#
# Convention : Reuss Voigt Hill
#
# Bulk Modulus (GPa) = 48.57788 60.64136 54.60962
# Shear Modulus (GPa) = -6.97452 28.15518 10.59033
#
# Velocity S-wave (km/s) = -1.83064 3.67811 2.25580
# Velocity P-wave (km/s) = 4.34434 6.86849 5.74671
#
# Compressibility (1/GPa) = 0.02058550
#
# Stress axis : x y z
#
# Youngs Moduli (GPa) = 85.01118 69.08171 70.69012
#
# Poissons Ratio (x) = 0.29676 0.14481
# Poissons Ratio (y) = 0.36519 0.25134
# Poissons Ratio (z) = 0.17414 0.24562
#
# Static dielectric constant tensor:
#      x y z
#    x 3.970890 0.000000 -0.237440 
#    y 0.000000 3.657170 0.000000 
#    z -0.237440 0.000000 3.823660 
# 
# 
# High freq. dielectric constant tensor:
#      x y z
#    x 1.821140 0.000000 -0.017350 
#    y 0.000000 1.781530 0.000000 
#    z -0.017350 0.000000 1.833980 
# 
# From -- ./inp_files/33848.got.cif
#   From: 2010.06.25/outbox.cif.g09.slc.cpg/sg15_17_cif.got.tgz:33848.got - 2010.06.28 07:06:18.
