data_PCOD8145930
_publ_section_title
;
Structure prediction by ZEFSAII (Michael W. Deem and Ramdas Pophale) SiO2 
 PCOD8145930
Probable space group: C 2/C
;
_chemical_formula_sum "Si O2"
_cell_formula_units_Z 60
_cell_length_a 6.041729
_cell_length_b 27.044231
_cell_length_c 16.778740
_cell_angle_alpha 90.000000
_cell_angle_beta 86.211875
_cell_angle_gamma 90.000000
_cell_volume 2735.554240
_symmetry_space_group_name_H-M "C 2/C"
_symmetry_group_IT_number 15
_symmetry_cell_setting 'monoclinic'
loop_
_space_group_symop_operation_xyz
x,y,z
-x,y,1/2-z
-x,-y,-z
x,-y,1/2+z
1/2+x,1/2+y,z
1/2-x,1/2+y,1/2-z
1/2-x,1/2-y,-z
1/2+x,1/2-y,1/2+z
loop_
_atom_site_type_symbol
_atom_site_label
_atom_site_fract_x
_atom_site_fract_y
_atom_site_fract_z
Si Si1 0.962534 0.574401 0.566864
Si Si2 0.618891 0.408504 0.825081
Si Si3 0.109281 0.862925 0.159397
Si Si4 0.748430 0.164831 0.545053
Si Si5 0.444961 0.780713 0.165083
Si Si6 0.216195 0.988775 0.944675
Si Si7 0.000000 0.344715 0.750000
Si Si8 0.352984 0.316525 0.869246
O O1 0.787128 0.592227 0.639853
O O2 0.862997 0.546935 0.494237
O O3 0.066029 0.623958 0.528318
O O4 0.153786 0.536854 0.593295
O O5 0.500000 0.427669 0.750000
O O6 0.646572 0.459031 0.869688
O O7 0.848477 0.380203 0.806702
O O8 0.447262 0.371607 0.871323
O O9 0.217579 0.807978 0.147343
O O10 0.000000 0.870215 0.250000
O O11 0.942292 0.863766 0.088665
O O12 0.652458 0.206462 0.604835
O O13 0.798149 0.194137 0.462569
O O14 0.500000 0.802186 0.250000
O O15 0.445984 0.720664 0.162798
O O16 0.000000 0.000000 0.000000
O O17 0.850840 0.312166 0.690531
#
# Coordination Sequence:
#
# PCOD8145930 Si02
#       8
#     8   8   8   8   8   8   4   8
#     4  10  23  39  67  96 124 172 224 267 329 403
#     4  10  22  40  63  92 129 166 210 267 331 395
#     4  11  23  43  66  92 136 180 214 273 334 384
#     4  11  23  42  66  94 132 176 215 281 327 394
#     4  11  23  41  63  98 131 172 224 267 325 403
#     4  11  22  43  67  95 129 168 216 279 334 392
#     4  10  22  42  66  90 132 172 200 278 332 382
#     4  11  23  40  66 100 128 169 225 265 333 398
#
# _framework density 21.933399999999999
#
# number of rings (size 3 to 8) (size 9 to 14) (size 15 to 20)
#    0.000    1.333    1.333    4.800    0.000    6.933 
#    1.200    6.667    0.000    0.000    0.000    0.000 
#    0.000    0.000    0.000    0.000    0.000    0.000 
#
# Total GULP energy -371738.416012 kJ/mol
# GULP energy per Si atom -12391.280534 kJ/mol
# Density = 2.188348 g / cm^3
# Si number density = 21.933400 Si / 1000 Ang^3
#
#
#
# Elastic Constant Matrix: (Units=GPa)
#
#
# Indices 1 2 3 4 5 6 
#
# 1 89.0457 28.7595 42.4909 0.0000 -8.5450 0.0000
# 2 28.7595 94.9363 40.2175 0.0000 -0.7527 0.0000
# 3 42.4909 40.2175 145.2476 0.0000 -9.1300 0.0000
# 4 0.0000 0.0000 0.0000 26.9470 0.0000 26.7483
# 5 -8.5450 -0.7527 -9.1300 0.0000 29.9034 0.0000
# 6 0.0000 0.0000 0.0000 26.7483 0.0000 -62.5667
#
#
#
# Elastic Compliance Matrix: (Units=1/GPa)
#
#
# Indices 1 2 3 4 5 6 
#
# 1 0.013919 -0.002886 -0.003087 0.000000 0.002962 0.000000
# 2 -0.002886 0.012547 -0.002714 0.000000 -0.001337 0.000000
# 3 -0.003087 -0.002714 0.008645 0.000000 0.001689 0.000000
# 4 0.000000 0.000000 0.000000 0.026054 0.000000 0.011138
# 5 0.002962 -0.001337 0.001689 0.000000 0.034770 0.000000
# 6 0.000000 0.000000 0.000000 0.011138 0.000000 -0.011221
#
#
# Mechanical properties :
#
#
# Convention : Reuss Voigt Hill
#
# Bulk Modulus (GPa) = 56.37332 61.35169 58.86251
# Shear Modulus (GPa) = 46.29671 13.37421 29.83546
#
# Velocity S-wave (km/s) = 4.59931 2.47202 3.69219
# Velocity P-wave (km/s) = 7.34593 6.01501 6.71354
#
# Compressibility (1/GPa) = 0.01773889
#
# Stress axis : x y z
#
# Youngs Moduli (GPa) = 71.84226 79.70292 115.66772
#
# Poissons Ratio (x) = 0.22998 0.35704
# Poissons Ratio (y) = 0.20730 0.31392
# Poissons Ratio (z) = 0.22176 0.21631
#
# Static dielectric constant tensor:
#      x y z
#    x 4.169300 0.000000 -0.038570 
#    y 0.000000 3.934350 0.000000 
#    z -0.038570 0.000000 4.520000 
# 
# 
# High freq. dielectric constant tensor:
#      x y z
#    x 1.866990 0.000000 -0.005030 
#    y 0.000000 1.864620 0.000000 
#    z -0.005030 0.000000 1.866220 
# 
# From -- ./inp_files/186523.got.cif
#   From: 2010.06.25/outbox.cif.g09.slc.cpg/sg15_94_cif.got.tgz:186523.got - 2010.06.28 07:06:18.
