data_PCOD8145133
_publ_section_title
;
Structure prediction by ZEFSAII (Michael W. Deem and Ramdas Pophale) SiO2 
 PCOD8145133
Probable space group: C 2/C
;
_chemical_formula_sum "Si O2"
_cell_formula_units_Z 56
_cell_length_a 14.441691
_cell_length_b 11.305537
_cell_length_c 18.181893
_cell_angle_alpha 90.000000
_cell_angle_beta 118.926129
_cell_angle_gamma 90.000000
_cell_volume 2598.229470
_symmetry_space_group_name_H-M "C 2/C"
_symmetry_group_IT_number 15
_symmetry_cell_setting 'monoclinic'
loop_
_space_group_symop_operation_xyz
x,y,z
-x,y,1/2-z
-x,-y,-z
x,-y,1/2+z
1/2+x,1/2+y,z
1/2-x,1/2+y,1/2-z
1/2-x,1/2-y,-z
1/2+x,1/2-y,1/2+z
loop_
_atom_site_type_symbol
_atom_site_label
_atom_site_fract_x
_atom_site_fract_y
_atom_site_fract_z
Si Si1 0.604723 0.467361 0.337472
Si Si2 0.288209 0.309985 0.229238
Si Si3 0.147275 0.831732 0.958563
Si Si4 0.375275 0.744140 0.550547
Si Si5 0.610780 0.094492 0.314732
Si Si6 0.177950 0.958110 0.119363
Si Si7 0.578823 0.292641 0.598165
O O1 0.500000 0.491961 0.250000
O O2 0.697081 0.419685 0.320279
O O3 0.652454 0.587940 0.388117
O O4 0.580550 0.374429 0.393620
O O5 0.362116 0.203092 0.229798
O O6 0.324864 0.350079 0.324118
O O7 0.164849 0.276228 0.180157
O O8 0.036162 0.760221 0.913031
O O9 0.250000 0.750000 0.000000
O O10 0.136266 0.912086 0.026210
O O11 0.250000 0.750000 0.500000
O O12 0.407734 0.859098 0.609487
O O13 0.419472 0.749596 0.485500
O O14 0.500000 0.034948 0.250000
O O15 0.701071 0.997216 0.345261
O O16 0.103666 0.066993 0.115434
#
# Coordination Sequence:
#
# PCOD8145133 Si02
#       7
#     8   8   8   8   8   8   8
#     4  11  22  40  68  96 129 165 216 263 319 379
#     4  10  22  39  65  98 124 163 211 267 309 384
#     4  12  28  43  61  93 131 177 210 264 324 380
#     4  11  17  38  68  98 124 155 218 268 311 374
#     4  10  22  37  63  95 126 161 206 267 318 363
#     4  11  23  42  66  92 129 166 217 255 321 381
#     4  11  23  41  68  93 125 169 213 266 315 377
#
# _framework density 21.553138000000001
#
# number of rings (size 3 to 8) (size 9 to 14) (size 15 to 20)
#    0.000    1.143    5.714    3.000    4.000    4.571 
#    0.000    0.714    0.000    0.000    0.000    0.000 
#    0.000    0.000    0.000    0.000    0.000    0.000 
#
# Total GULP energy -347211.106978 kJ/mol
# GULP energy per Si atom -12400.396678 kJ/mol
# Density = 2.150408 g / cm^3
# Si number density = 21.553138 Si / 1000 Ang^3
#
#
#
# Elastic Constant Matrix: (Units=GPa)
#
#
# Indices 1 2 3 4 5 6 
#
# 1 96.0704 17.7604 10.8809 0.0000 27.9817 0.0000
# 2 17.7604 53.4563 23.4439 0.0000 2.6338 0.0000
# 3 10.8809 23.4439 95.8251 0.0000 9.0903 0.0000
# 4 0.0000 0.0000 0.0000 32.7572 0.0000 7.5157
# 5 27.9817 2.6338 9.0903 0.0000 39.5607 0.0000
# 6 0.0000 0.0000 0.0000 7.5157 0.0000 21.4796
#
#
#
# Elastic Compliance Matrix: (Units=1/GPa)
#
#
# Indices 1 2 3 4 5 6 
#
# 1 0.013992 -0.004344 0.000394 0.000000 -0.009698 0.000000
# 2 -0.004344 0.022306 -0.005228 0.000000 0.002789 0.000000
# 3 0.000394 -0.005228 0.011923 0.000000 -0.002670 0.000000
# 4 0.000000 0.000000 0.000000 0.033192 0.000000 -0.011614
# 5 -0.009698 0.002789 -0.002670 0.000000 0.032565 0.000000
# 6 0.000000 0.000000 0.000000 -0.011614 0.000000 0.050620
#
#
# Mechanical properties :
#
#
# Convention : Reuss Voigt Hill
#
# Bulk Modulus (GPa) = 33.48436 38.83579 36.16007
# Shear Modulus (GPa) = 25.91888 31.64393 28.78140
#
# Velocity S-wave (km/s) = 3.47155 3.83584 3.65824
# Velocity P-wave (km/s) = 5.62480 6.13808 5.88703
#
# Compressibility (1/GPa) = 0.02986469
#
# Stress axis : x y z
#
# Youngs Moduli (GPa) = 71.46867 44.83179 83.86862
#
# Poissons Ratio (x) = 0.19473 -0.03304
# Poissons Ratio (y) = 0.31044 0.43850
# Poissons Ratio (z) = -0.02815 0.23440
#
# Static dielectric constant tensor:
#      x y z
#    x 3.953980 0.000000 0.094020 
#    y 0.000000 3.920250 0.000000 
#    z 0.094020 0.000000 3.927490 
# 
# 
# High freq. dielectric constant tensor:
#      x y z
#    x 1.841310 0.000000 0.010880 
#    y 0.000000 1.815810 0.000000 
#    z 0.010880 0.000000 1.864700 
# 
# From -- ./inp_files/204534.got.cif
#   From: 2010.06.25/outbox.cif.g09.slc.cpg/sg15_103_cif.got.tgz:204534.got - 2010.06.28 07:06:18.
