data_PCOD8145183
_publ_section_title
;
Structure prediction by ZEFSAII (Michael W. Deem and Ramdas Pophale) SiO2 
 PCOD8145183
Probable space group: C 2/C
;
_chemical_formula_sum "Si O2"
_cell_formula_units_Z 40
_cell_length_a 23.509370
_cell_length_b 9.449673
_cell_length_c 8.654530
_cell_angle_alpha 90.000000
_cell_angle_beta 81.633589
_cell_angle_gamma 90.000000
_cell_volume 1902.193276
_symmetry_space_group_name_H-M "C 2/C"
_symmetry_group_IT_number 15
_symmetry_cell_setting 'monoclinic'
loop_
_space_group_symop_operation_xyz
x,y,z
-x,y,1/2-z
-x,-y,-z
x,-y,1/2+z
1/2+x,1/2+y,z
1/2-x,1/2+y,1/2-z
1/2-x,1/2-y,-z
1/2+x,1/2-y,1/2+z
loop_
_atom_site_type_symbol
_atom_site_label
_atom_site_fract_x
_atom_site_fract_y
_atom_site_fract_z
Si Si1 0.063600 0.134327 0.285832
Si Si2 0.870059 0.924949 0.043822
Si Si3 0.625744 0.139159 0.916414
Si Si4 0.843345 0.645387 0.238983
Si Si5 0.721322 0.660012 0.377544
O O1 0.068015 0.284547 0.375825
O O2 0.000000 0.114455 0.250000
O O3 0.077272 0.009334 0.400323
O O4 0.110377 0.128507 0.130463
O O5 0.855344 0.794539 0.158197
O O6 0.813363 0.023164 0.046965
O O7 0.676884 0.231154 0.813714
O O8 0.624267 0.976877 0.867352
O O9 0.631592 0.150219 0.098256
O O10 0.774889 0.611447 0.250672
O O11 0.750000 0.750000 0.500000
#
# Coordination Sequence:
#
# PCOD8145183 Si02
#       5
#     8   8   8   8   8
#     4  11  23  42  62  85 115 155 202 253 296 339
#     4  11  22  38  63  91 118 155 200 242 291 355
#     4  10  22  38  57  85 120 156 197 241 292 356
#     4  11  21  38  59  89 123 156 191 240 296 357
#     4   9  19  36  58  88 123 156 189 234 292 357
#
# _framework density 21.028358999999998
#
# number of rings (size 3 to 8) (size 9 to 14) (size 15 to 20)
#    0.000    1.600    0.000    6.600    0.000    4.800 
#    0.000   15.000    0.000    0.000    0.000    0.000 
#    0.000    0.000    0.000    0.000    0.000    0.000 
#
# Total GULP energy -247920.425604 kJ/mol
# GULP energy per Si atom -12396.021280 kJ/mol
# Density = 2.098050 g / cm^3
# Si number density = 21.028359 Si / 1000 Ang^3
#
#
#
# Elastic Constant Matrix: (Units=GPa)
#
#
# Indices 1 2 3 4 5 6 
#
# 1 80.1587 45.6754 15.6920 0.0000 17.6254 0.0000
# 2 45.6754 157.8763 46.8819 0.0000 7.2821 0.0000
# 3 15.6920 46.8819 86.3495 0.0000 16.4101 0.0000
# 4 0.0000 0.0000 0.0000 39.4195 0.0000 5.8879
# 5 17.6254 7.2821 16.4101 0.0000 26.9793 0.0000
# 6 0.0000 0.0000 0.0000 5.8879 0.0000 15.5888
#
#
#
# Elastic Compliance Matrix: (Units=1/GPa)
#
#
# Indices 1 2 3 4 5 6 
#
# 1 0.017447 -0.005031 0.001661 0.000000 -0.011050 0.000000
# 2 -0.005031 0.009009 -0.004680 0.000000 0.003702 0.000000
# 3 0.001661 -0.004680 0.015588 0.000000 -0.009303 0.000000
# 4 0.000000 0.000000 0.000000 0.026885 0.000000 -0.010154
# 5 -0.011050 0.003702 -0.009303 0.000000 0.048944 0.000000
# 6 0.000000 0.000000 0.000000 -0.010154 0.000000 0.067984
#
#
# Mechanical properties :
#
#
# Convention : Reuss Voigt Hill
#
# Bulk Modulus (GPa) = 38.54673 60.09813 49.32243
# Shear Modulus (GPa) = 23.74118 30.80654 27.27386
#
# Velocity S-wave (km/s) = 3.36372 3.83168 3.60530
# Velocity P-wave (km/s) = 5.78418 6.94387 6.39039
#
# Compressibility (1/GPa) = 0.02594254
#
# Stress axis : x y z
#
# Youngs Moduli (GPa) = 57.31805 111.00373 64.15131
#
# Poissons Ratio (x) = 0.55846 -0.10656
# Poissons Ratio (y) = 0.28837 0.30025
# Poissons Ratio (z) = -0.09521 0.51954
#
# Static dielectric constant tensor:
#      x y z
#    x 4.198510 0.000000 0.069360 
#    y 0.000000 3.929560 0.000000 
#    z 0.069360 0.000000 3.777840 
# 
# 
# High freq. dielectric constant tensor:
#      x y z
#    x 1.813710 0.000000 0.017630 
#    y 0.000000 1.836480 0.000000 
#    z 0.017630 0.000000 1.817260 
# 
# From -- ./inp_files/59933.got.cif
#   From: 2010.06.25/outbox.cif.g09.slc.cpg/sg15_30_cif.got.tgz:59933.got - 2010.06.28 07:06:18.
