data_PCOD8145682
_publ_section_title
;
Structure prediction by ZEFSAII (Michael W. Deem and Ramdas Pophale) SiO2 
 PCOD8145682
Probable space group: C 2/C
;
_chemical_formula_sum "Si O2"
_cell_formula_units_Z 60
_cell_length_a 18.725413
_cell_length_b 24.948990
_cell_length_c 8.510822
_cell_angle_alpha 90.000000
_cell_angle_beta 136.864808
_cell_angle_gamma 90.000000
_cell_volume 2718.538661
_symmetry_space_group_name_H-M "C 2/C"
_symmetry_group_IT_number 15
_symmetry_cell_setting 'monoclinic'
loop_
_space_group_symop_operation_xyz
x,y,z
-x,y,1/2-z
-x,-y,-z
x,-y,1/2+z
1/2+x,1/2+y,z
1/2-x,1/2+y,1/2-z
1/2-x,1/2-y,-z
1/2+x,1/2-y,1/2+z
loop_
_atom_site_type_symbol
_atom_site_label
_atom_site_fract_x
_atom_site_fract_y
_atom_site_fract_z
Si Si1 0.929370 0.594724 0.008131
Si Si2 0.133484 0.035654 0.089437
Si Si3 0.586745 0.431653 0.177979
Si Si4 0.000000 0.759072 0.750000
Si Si5 0.748470 0.153060 0.608133
Si Si6 0.793691 0.197659 0.992658
Si Si7 0.817933 0.597104 0.529306
Si Si8 0.408969 0.834322 0.903147
O O1 0.827154 0.608243 0.942509
O O2 0.890063 0.568394 0.780649
O O3 0.000000 0.560912 0.250000
O O4 0.998780 0.646429 0.066050
O O5 0.242749 0.051728 0.342254
O O6 0.111553 0.972642 0.076795
O O7 0.142523 0.042991 0.918974
O O8 0.038540 0.072506 0.003594
O O9 0.636783 0.373359 0.230417
O O10 0.919014 0.798499 0.707144
O O11 0.941167 0.722181 0.528277
O O12 0.760890 0.199818 0.756202
O O13 0.699241 0.174827 0.366628
O O14 0.750000 0.250000 0.000000
O O15 0.750762 0.144878 0.007236
O O16 0.891027 0.621467 0.510604
#
# Coordination Sequence:
#
# PCOD8145682 Si02
#       8
#     8   8   8   4   8   8   8   8
#     4   9  19  34  60  90 114 160 210 250 309 380
#     4  10  23  39  66  94 131 165 212 261 329 393
#     4  10  22  42  62  99 128 167 210 264 327 394
#     4  12  22  38  60  86 122 162 212 262 318 370
#     4  10  22  39  65  90 124 164 215 259 316 388
#     4  11  24  40  57  91 126 167 214 261 314 381
#     4  11  20  39  63  90 123 167 208 264 319 384
#     4  11  19  39  65  86 118 168 210 258 318 375
#
# _framework density 22.070681
#
# number of rings (size 3 to 8) (size 9 to 14) (size 15 to 20)
#    0.000    1.600    4.000    0.800    5.600    0.533 
#    0.000    0.000    0.000    8.800    1.733    0.000 
#    0.000    0.000    0.000    0.000    0.000    0.000 
#
# Total GULP energy -371763.215372 kJ/mol
# GULP energy per Si atom -12392.107179 kJ/mol
# Density = 2.202045 g / cm^3
# Si number density = 22.070681 Si / 1000 Ang^3
#
#
#
# Elastic Constant Matrix: (Units=GPa)
#
#
# Indices 1 2 3 4 5 6 
#
# 1 79.1552 4.5568 18.8697 0.0000 -0.2188 0.0000
# 2 4.5568 24.7493 12.6806 0.0000 -3.5027 0.0000
# 3 18.8697 12.6806 142.8455 0.0000 -14.0545 0.0000
# 4 0.0000 0.0000 0.0000 29.9278 0.0000 5.0681
# 5 -0.2188 -3.5027 -14.0545 0.0000 43.4390 0.0000
# 6 0.0000 0.0000 0.0000 5.0681 0.0000 24.3123
#
#
#
# Elastic Compliance Matrix: (Units=1/GPa)
#
#
# Indices 1 2 3 4 5 6 
#
# 1 0.013119 -0.001658 -0.001645 0.000000 -0.000600 0.000000
# 2 -0.001658 0.042758 -0.003345 0.000000 0.002357 0.000000
# 3 -0.001645 -0.003345 0.007734 0.000000 0.002224 0.000000
# 4 0.000000 0.000000 0.000000 0.034636 0.000000 -0.007220
# 5 -0.000600 0.002357 0.002224 0.000000 0.023927 0.000000
# 6 0.000000 0.000000 0.000000 -0.007220 0.000000 0.042637
#
#
# Mechanical properties :
#
#
# Convention : Reuss Voigt Hill
#
# Bulk Modulus (GPa) = 19.87432 35.44045 27.65739
# Shear Modulus (GPa) = 25.65711 33.57869 29.61790
#
# Velocity S-wave (km/s) = 3.41324 3.90477 3.66725
# Velocity P-wave (km/s) = 4.95560 6.03508 5.52178
#
# Compressibility (1/GPa) = 0.05031618
#
# Stress axis : x y z
#
# Youngs Moduli (GPa) = 76.22363 23.38755 129.30562
#
# Poissons Ratio (x) = 0.03877 0.21270
# Poissons Ratio (y) = 0.12635 0.43250
# Poissons Ratio (z) = 0.12538 0.07823
#
# Static dielectric constant tensor:
#      x y z
#    x 4.140980 0.000000 -0.074470 
#    y 0.000000 4.143990 0.000000 
#    z -0.074470 0.000000 4.538200 
# 
# 
# High freq. dielectric constant tensor:
#      x y z
#    x 1.881660 0.000000 -0.001010 
#    y 0.000000 1.811100 0.000000 
#    z -0.001010 0.000000 1.890900 
# 
# From -- ./inp_files/58778.got.cif
#   From: 2010.06.25/outbox.cif.g09.slc.cpg/sg15_30_cif.got.tgz:58778.got - 2010.06.28 07:06:18.
