data_PCOD8145562
_publ_section_title
;
Structure prediction by ZEFSAII (Michael W. Deem and Ramdas Pophale) SiO2 
 PCOD8145562
Probable space group: C 2/C
;
_chemical_formula_sum "Si O2"
_cell_formula_units_Z 40
_cell_length_a 15.533141
_cell_length_b 24.942073
_cell_length_c 9.010269
_cell_angle_alpha 90.000000
_cell_angle_beta 35.000376
_cell_angle_gamma 90.000000
_cell_volume 2002.280690
_symmetry_space_group_name_H-M "C 2/C"
_symmetry_group_IT_number 15
_symmetry_cell_setting 'monoclinic'
loop_
_space_group_symop_operation_xyz
x,y,z
-x,y,1/2-z
-x,-y,-z
x,-y,1/2+z
1/2+x,1/2+y,z
1/2-x,1/2+y,1/2-z
1/2-x,1/2-y,-z
1/2+x,1/2-y,1/2+z
loop_
_atom_site_type_symbol
_atom_site_label
_atom_site_fract_x
_atom_site_fract_y
_atom_site_fract_z
Si Si1 0.549753 0.225255 0.019065
Si Si2 0.604698 0.144789 0.455807
Si Si3 0.539291 0.945315 0.525224
Si Si4 0.399057 0.662678 0.185581
Si Si5 0.790138 0.135518 0.664179
O O1 0.500000 0.247119 0.250000
O O2 0.417371 0.199903 0.104788
O O3 0.609219 0.274304 0.837645
O O4 0.672020 0.179803 0.884117
O O5 0.568957 0.097384 0.395331
O O6 0.778458 0.134789 0.248904
O O7 0.500000 0.144263 0.750000
O O8 0.500000 0.953559 0.750000
O O9 0.712240 0.923534 0.268704
O O10 0.500000 0.000000 0.500000
O O11 0.344710 0.653878 0.427849
O O12 0.565254 0.636762 0.929635
#
# Coordination Sequence:
#
# PCOD8145562 Si02
#       5
#     8   8   8   8   8
#     4  11  23  37  57  92 135 179 214 246 302 371
#     4  11  21  38  64  90 123 169 216 247 306 376
#     4  11  24  44  71  91 117 157 209 261 317 380
#     4  11  22  36  64  90 135 166 207 261 310 359
#     4  10  22  39  61  94 128 163 214 260 309 367
#
# _framework density 19.977219000000002
#
# number of rings (size 3 to 8) (size 9 to 14) (size 15 to 20)
#    0.000    1.200    4.000    4.800    2.800    4.800 
#    0.000    1.000    0.000    0.000    0.000    0.000 
#    0.000    0.000    0.000    0.000    0.000    0.000 
#
# Total GULP energy -247875.052713 kJ/mol
# GULP energy per Si atom -12393.752636 kJ/mol
# Density = 1.993175 g / cm^3
# Si number density = 19.977219 Si / 1000 Ang^3
#
#
#
# Elastic Constant Matrix: (Units=GPa)
#
#
# Indices 1 2 3 4 5 6 
#
# 1 162.3104 47.9088 61.3867 0.0000 -25.3172 0.0000
# 2 47.9088 110.7554 43.2077 0.0000 0.8640 0.0000
# 3 61.3867 43.2077 91.5882 0.0000 -3.6228 0.0000
# 4 0.0000 0.0000 0.0000 22.4877 0.0000 6.9667
# 5 -25.3172 0.8640 -3.6228 0.0000 59.9154 0.0000
# 6 0.0000 0.0000 0.0000 6.9667 0.0000 30.2994
#
#
#
# Elastic Compliance Matrix: (Units=1/GPa)
#
#
# Indices 1 2 3 4 5 6 
#
# 1 0.009259 -0.002045 -0.005098 0.000000 0.003634 0.000000
# 2 -0.002045 0.011531 -0.004120 0.000000 -0.001279 0.000000
# 3 -0.005098 -0.004120 0.016235 0.000000 -0.001113 0.000000
# 4 0.000000 0.000000 0.000000 0.047879 0.000000 -0.011009
# 5 0.003634 -0.001279 -0.001113 0.000000 0.018177 0.000000
# 6 0.000000 0.000000 0.000000 -0.011009 0.000000 0.035535
#
#
# Mechanical properties :
#
#
# Convention : Reuss Voigt Hill
#
# Bulk Modulus (GPa) = 68.96506 74.40671 71.68588
# Shear Modulus (GPa) = 30.12525 36.68387 33.40456
#
# Velocity S-wave (km/s) = 3.88748 4.28984 4.09361
# Velocity P-wave (km/s) = 7.39911 7.86534 7.63579
#
# Compressibility (1/GPa) = 0.01450010
#
# Stress axis : x y z
#
# Youngs Moduli (GPa) = 107.99853 86.72563 61.59703
#
# Poissons Ratio (x) = 0.17735 0.31400
# Poissons Ratio (y) = 0.22085 0.25376
# Poissons Ratio (z) = 0.55053 0.35728
#
# Static dielectric constant tensor:
#      x y z
#    x 2.028520 0.000000 0.616910 
#    y 0.000000 3.406070 0.000000 
#    z 0.616910 0.000000 3.351270 
# 
# 
# High freq. dielectric constant tensor:
#      x y z
#    x 1.803640 0.000000 -0.000950 
#    y 0.000000 1.755060 0.000000 
#    z -0.000950 0.000000 1.772660 
# 
# From -- ./inp_files/41954.got.cif
#   From: 2010.06.25/outbox.cif.g09.slc.cpg/sg15_21_cif.got.tgz:41954.got - 2010.06.28 07:06:18.
