data_PCOD8145191
_publ_section_title
;
Structure prediction by ZEFSAII (Michael W. Deem and Ramdas Pophale) SiO2 
 PCOD8145191
Probable space group: C 2/C
;
_chemical_formula_sum "Si O2"
_cell_formula_units_Z 60
_cell_length_a 13.601813
_cell_length_b 25.844057
_cell_length_c 20.604056
_cell_angle_alpha 90.000000
_cell_angle_beta 155.481746
_cell_angle_gamma 90.000000
_cell_volume 3005.665538
_symmetry_space_group_name_H-M "C 2/C"
_symmetry_group_IT_number 15
_symmetry_cell_setting 'monoclinic'
loop_
_space_group_symop_operation_xyz
x,y,z
-x,y,1/2-z
-x,-y,-z
x,-y,1/2+z
1/2+x,1/2+y,z
1/2-x,1/2+y,1/2-z
1/2-x,1/2-y,-z
1/2+x,1/2-y,1/2+z
loop_
_atom_site_type_symbol
_atom_site_label
_atom_site_fract_x
_atom_site_fract_y
_atom_site_fract_z
Si Si1 0.570654 0.937479 0.977617
Si Si2 0.000000 0.861061 0.250000
Si Si3 0.058369 0.624679 0.214427
Si Si4 0.527187 0.690859 0.091026
Si Si5 0.233070 0.719957 0.801283
Si Si6 0.614200 0.127231 0.886983
Si Si7 0.225964 0.447542 0.571335
Si Si8 0.123421 0.802719 0.438798
O O1 0.410236 0.921375 0.819111
O O2 0.414167 0.934440 0.947744
O O3 0.772834 0.896013 0.107200
O O4 0.688111 0.992406 0.032865
O O5 0.053382 0.821483 0.223559
O O6 0.277076 0.665012 0.339095
O O7 0.000000 0.600411 0.250000
O O8 0.819576 0.654450 0.058831
O O9 0.647708 0.726026 0.219080
O O10 0.330180 0.725598 0.933708
O O11 0.386307 0.644069 0.040239
O O12 0.470051 0.699774 0.910573
O O13 0.030458 0.676925 0.674562
O O14 0.500000 0.106504 0.750000
O O15 0.618140 0.083655 0.945202
O O16 0.500000 0.435097 0.750000
O O17 0.250000 0.750000 0.500000
#
# Coordination Sequence:
#
# PCOD8145191 Si02
#       8
#     8   4   8   8   8   8   8   8
#     4  10  23  41  65  94 120 161 202 260 319 371
#     4  10  22  38  58  84 126 154 208 252 306 364
#     4  11  22  39  58  90 128 160 200 252 310 369
#     4  11  23  39  61  89 124 167 208 254 304 370
#     4  11  23  38  59  86 127 162 208 253 302 366
#     4  10  24  43  62  91 124 163 209 259 315 367
#     4  11  22  43  70  91 122 156 211 263 310 380
#     4  11  22  33  57  84 117 165 201 247 301 362
#
# _framework density 19.962301
#
# number of rings (size 3 to 8) (size 9 to 14) (size 15 to 20)
#    0.000    1.333    3.333    2.000    2.800    2.667 
#    0.000    0.000    0.000    4.800    0.000    0.000 
#    0.000    0.000    0.000    0.000    0.000    0.000 
#
# Total GULP energy -371738.743020 kJ/mol
# GULP energy per Si atom -12391.291434 kJ/mol
# Density = 1.991687 g / cm^3
# Si number density = 19.962301 Si / 1000 Ang^3
#
#
#
# Elastic Constant Matrix: (Units=GPa)
#
#
# Indices 1 2 3 4 5 6 
#
# 1 96.2938 45.5838 36.6884 0.0284 -10.6856 0.0495
# 2 45.5838 82.6327 43.1778 0.0209 -19.1549 -0.0237
# 3 36.6884 43.1778 92.3467 0.0910 -10.4538 -0.1669
# 4 0.0284 0.0209 0.0910 32.3202 0.0066 -0.1646
# 5 -10.6856 -19.1549 -10.4538 0.0066 38.7828 0.0329
# 6 0.0495 -0.0237 -0.1669 -0.1646 0.0329 22.4438
#
#
#
# Elastic Compliance Matrix: (Units=1/GPa)
#
#
# Indices 1 2 3 4 5 6 
#
# 1 0.014540 -0.006616 -0.002682 -0.000001 0.000016 -0.000059
# 2 -0.006616 0.020545 -0.006225 0.000009 0.006646 -0.000020
# 3 -0.002682 -0.006225 0.014826 -0.000035 0.000183 0.000109
# 4 -0.000001 0.000009 -0.000035 0.030942 -0.000011 0.000227
# 5 0.000016 0.006646 0.000183 -0.000011 0.029121 -0.000034
# 6 -0.000059 -0.000020 0.000109 0.000227 -0.000034 0.044558
#
#
# Mechanical properties :
#
#
# Convention : Reuss Voigt Hill
#
# Bulk Modulus (GPa) = 53.00799 58.01922 55.51360
# Shear Modulus (GPa) = 26.05982 28.43092 27.24537
#
# Velocity S-wave (km/s) = 3.61702 3.77799 3.69838
# Velocity P-wave (km/s) = 6.63743 6.93963 6.79021
#
# Compressibility (1/GPa) = 0.01886508
#
# Stress axis : x y z
#
# Youngs Moduli (GPa) = 68.77400 48.67352 67.45056
#
# Poissons Ratio (x) = 0.32204 0.18087
# Poissons Ratio (y) = 0.45503 0.41989
# Poissons Ratio (z) = 0.18442 0.30300
#
# Static dielectric constant tensor:
#      x y z
#    x 4.076980 -0.000150 -0.204910 
#    y -0.000150 3.490350 -0.000240 
#    z -0.204910 -0.000240 3.748280 
# 
# 
# High freq. dielectric constant tensor:
#      x y z
#    x 1.796010 -0.000010 0.001220 
#    y -0.000010 1.762120 -0.000020 
#    z 0.001220 -0.000020 1.790210 
# 
# From -- ./inp_files/201271.got.cif
#   From: 2010.06.25/outbox.cif.g09.slc.cpg/sg15_101_cif.got.tgz:201271.got - 2010.06.28 07:06:18.
