data_PCOD8145617
_publ_section_title
;
Structure prediction by ZEFSAII (Michael W. Deem and Ramdas Pophale) SiO2 
 PCOD8145617
Probable space group: C 2/C
;
_chemical_formula_sum "Si O2"
_cell_formula_units_Z 64
_cell_length_a 17.862391
_cell_length_b 14.624364
_cell_length_c 15.375015
_cell_angle_alpha 90.000000
_cell_angle_beta 50.805890
_cell_angle_gamma 90.000000
_cell_volume 3112.713362
_symmetry_space_group_name_H-M "C 2/C"
_symmetry_group_IT_number 15
_symmetry_cell_setting 'monoclinic'
loop_
_space_group_symop_operation_xyz
x,y,z
-x,y,1/2-z
-x,-y,-z
x,-y,1/2+z
1/2+x,1/2+y,z
1/2-x,1/2+y,1/2-z
1/2-x,1/2-y,-z
1/2+x,1/2-y,1/2+z
loop_
_atom_site_type_symbol
_atom_site_label
_atom_site_fract_x
_atom_site_fract_y
_atom_site_fract_z
Si Si1 0.146177 0.148636 0.035858
Si Si2 0.010587 0.286408 0.383297
Si Si3 0.197499 0.330668 0.729835
Si Si4 0.273815 0.184467 0.558701
Si Si5 0.209003 0.775758 0.669885
Si Si6 0.735722 0.532231 0.467003
Si Si7 0.486265 0.869856 0.932775
Si Si8 0.065022 0.536300 0.628452
O O1 0.169758 0.162470 0.120288
O O2 0.040282 0.187604 0.089378
O O3 0.220231 0.198609 0.917677
O O4 0.147328 0.038846 0.017110
O O5 0.123020 0.275985 0.282644
O O6 0.992901 0.338137 0.485960
O O7 0.958228 0.356105 0.356523
O O8 0.227092 0.226503 0.680474
O O9 0.235285 0.341328 0.801495
O O10 0.250575 0.404145 0.628165
O O11 0.082042 0.343434 0.807470
O O12 0.250000 0.250000 0.500000
O O13 0.224423 0.088814 0.565819
O O14 0.390201 0.182175 0.472264
O O15 0.826198 0.466403 0.418218
O O16 0.460635 0.978418 0.940574
O O17 0.000000 0.488387 0.750000
#
# Coordination Sequence:
#
# PCOD8145617 Si02
#       8
#     8   8   8   8   8   8   8   8
#     4  11  23  42  61  90 131 172 209 260 318 389
#     4  12  23  40  65  91 128 169 210 258 325 387
#     4  11  21  42  64  94 127 167 212 271 323 377
#     4   9  21  40  67  89 123 166 209 266 317 384
#     4  11  23  40  64  89 128 169 212 255 317 390
#     4  10  22  39  63  91 126 163 213 260 321 378
#     4  11  22  37  61  99 126 154 213 268 323 378
#     4  11  20  36  59  96 123 154 201 269 323 375
#
# _framework density 20.560839999999999
#
# number of rings (size 3 to 8) (size 9 to 14) (size 15 to 20)
#    0.000    1.250    3.750    3.750    0.000    0.000 
#    2.250    0.625   11.000    0.000    0.000    0.000 
#    0.000    0.000    0.000    0.000    0.000    0.000 
#
# Total GULP energy -396525.263213 kJ/mol
# GULP energy per Si atom -12391.414475 kJ/mol
# Density = 2.051404 g / cm^3
# Si number density = 20.560840 Si / 1000 Ang^3
#
#
#
# Elastic Constant Matrix: (Units=GPa)
#
#
# Indices 1 2 3 4 5 6 
#
# 1 82.5202 37.5289 21.2460 0.0000 4.4561 0.0000
# 2 37.5289 99.2548 30.0257 0.0000 -1.5141 0.0000
# 3 21.2460 30.0257 78.5240 0.0000 0.9525 0.0000
# 4 0.0000 0.0000 0.0000 23.2482 0.0000 -5.8452
# 5 4.4561 -1.5141 0.9525 0.0000 35.4808 0.0000
# 6 0.0000 0.0000 0.0000 -5.8452 0.0000 27.0809
#
#
#
# Elastic Compliance Matrix: (Units=1/GPa)
#
#
# Indices 1 2 3 4 5 6 
#
# 1 0.015091 -0.005100 -0.002108 0.000000 -0.002056 0.000000
# 2 -0.005100 0.013129 -0.003656 0.000000 0.001299 0.000000
# 3 -0.002108 -0.003656 0.014707 0.000000 -0.000286 0.000000
# 4 0.000000 0.000000 0.000000 0.045482 0.000000 0.009817
# 5 -0.002056 0.001299 -0.000286 0.000000 0.028506 0.000000
# 6 0.000000 0.000000 0.000000 0.009817 0.000000 0.039045
#
#
# Mechanical properties :
#
#
# Convention : Reuss Voigt Hill
#
# Bulk Modulus (GPa) = 47.17201 48.65558 47.91379
# Shear Modulus (GPa) = 27.06278 28.59520 27.82899
#
# Velocity S-wave (km/s) = 3.63192 3.73334 3.68298
# Velocity P-wave (km/s) = 6.37026 6.50379 6.43737
#
# Compressibility (1/GPa) = 0.02119901
#
# Stress axis : x y z
#
# Youngs Moduli (GPa) = 66.26296 76.16617 67.99527
#
# Poissons Ratio (x) = 0.38843 0.14335
# Poissons Ratio (y) = 0.33792 0.24861
# Poissons Ratio (z) = 0.13970 0.27848
#
# Static dielectric constant tensor:
#      x y z
#    x 3.624310 0.000000 -0.062820 
#    y 0.000000 -94.430850 0.000000 
#    z -0.062820 0.000000 3.279950 
# 
# 
# High freq. dielectric constant tensor:
#      x y z
#    x 1.803450 0.000000 0.009040 
#    y 0.000000 1.793020 0.000000 
#    z 0.009040 0.000000 1.804180 
# 
# From -- ./inp_files/162546.got.cif
#   From: 2010.06.25/outbox.cif.g09.slc.cpg/sg15_82_cif.got.tgz:162546.got - 2010.06.28 07:06:18.
