data_PCOD8145314
_publ_section_title
;
Structure prediction by ZEFSAII (Michael W. Deem and Ramdas Pophale) SiO2 
 PCOD8145314
Probable space group: C 2/C
;
_chemical_formula_sum "Si O2"
_cell_formula_units_Z 48
_cell_length_a 12.360086
_cell_length_b 20.864069
_cell_length_c 9.420132
_cell_angle_alpha 90.000000
_cell_angle_beta 69.153197
_cell_angle_gamma 90.000000
_cell_volume 2270.247452
_symmetry_space_group_name_H-M "C 2/C"
_symmetry_group_IT_number 15
_symmetry_cell_setting 'monoclinic'
loop_
_space_group_symop_operation_xyz
x,y,z
-x,y,1/2-z
-x,-y,-z
x,-y,1/2+z
1/2+x,1/2+y,z
1/2-x,1/2+y,1/2-z
1/2-x,1/2-y,-z
1/2+x,1/2-y,1/2+z
loop_
_atom_site_type_symbol
_atom_site_label
_atom_site_fract_x
_atom_site_fract_y
_atom_site_fract_z
Si Si1 0.615093 0.461750 0.986042
Si Si2 0.845324 0.382701 0.214101
Si Si3 0.771189 0.518119 0.159708
Si Si4 0.095957 0.637358 0.499206
Si Si5 0.624300 0.799448 0.711859
Si Si6 0.829065 0.164208 0.916993
O O1 0.681455 0.449537 0.809188
O O2 0.500000 0.500000 0.000000
O O3 0.699076 0.500016 0.052937
O O4 0.583996 0.392435 0.072195
O O5 0.836719 0.459222 0.204718
O O6 0.846319 0.357179 0.373867
O O7 0.730627 0.352504 0.203135
O O8 0.957420 0.357697 0.077344
O O9 0.871468 0.568495 0.080173
O O10 0.144118 0.694474 0.373645
O O11 0.500000 0.835598 0.750000
O O12 0.731537 0.832318 0.584492
O O13 0.604807 0.729658 0.648444
#
# Coordination Sequence:
#
# PCOD8145314 Si02
#       6
#     8   8   8   8   8   8
#     4  11  23  40  65  92 131 171 212 264 325 393
#     4  10  22  38  62  95 126 163 210 263 330 390
#     4  11  21  39  59  95 130 165 208 264 328 389
#     4  11  21  38  63  92 129 163 209 266 323 390
#     4  11  22  41  67  90 120 171 220 267 317 373
#     4  10  23  41  65  93 126 165 221 262 315 392
#
# _framework density 21.143070000000002
#
# number of rings (size 3 to 8) (size 9 to 14) (size 15 to 20)
#    0.000    1.333    5.000    1.000    0.000    3.333 
#    3.000    0.000    0.000    0.000    0.000    0.000 
#    0.000    0.000    0.000    0.000    0.000    0.000 
#
# Total GULP energy -297435.613153 kJ/mol
# GULP energy per Si atom -12393.150548 kJ/mol
# Density = 2.109495 g / cm^3
# Si number density = 21.143070 Si / 1000 Ang^3
#
#
#
# Elastic Constant Matrix: (Units=GPa)
#
#
# Indices 1 2 3 4 5 6 
#
# 1 80.2559 23.1338 31.2968 0.0000 8.2832 0.0000
# 2 23.1338 82.8276 29.0776 0.0000 6.2189 0.0000
# 3 31.2968 29.0776 132.2990 0.0000 6.4572 0.0000
# 4 0.0000 0.0000 0.0000 26.4557 0.0000 8.2958
# 5 8.2832 6.2189 6.4572 0.0000 23.7736 0.0000
# 6 0.0000 0.0000 0.0000 8.2958 0.0000 20.7902
#
#
#
# Elastic Compliance Matrix: (Units=1/GPa)
#
#
# Indices 1 2 3 4 5 6 
#
# 1 0.014711 -0.002900 -0.002665 0.000000 -0.003643 0.000000
# 2 -0.002900 0.013825 -0.002255 0.000000 -0.001993 0.000000
# 3 -0.002665 -0.002255 0.008726 0.000000 -0.000852 0.000000
# 4 0.000000 0.000000 0.000000 0.043205 0.000000 -0.017240
# 5 -0.003643 -0.001993 -0.000852 0.000000 0.044086 0.000000
# 6 0.000000 0.000000 0.000000 -0.017240 0.000000 0.054979
#
#
# Mechanical properties :
#
#
# Convention : Reuss Voigt Hill
#
# Bulk Modulus (GPa) = 46.24857 51.37767 48.81312
# Shear Modulus (GPa) = 24.70615 28.32885 26.51750
#
# Velocity S-wave (km/s) = 3.42207 3.66439 3.54530
# Velocity P-wave (km/s) = 6.12664 6.50049 6.31633
#
# Compressibility (1/GPa) = 0.02162229
#
# Stress axis : x y z
#
# Youngs Moduli (GPa) = 67.97514 72.33505 114.59618
#
# Poissons Ratio (x) = 0.20975 0.30539
# Poissons Ratio (y) = 0.19711 0.25844
# Poissons Ratio (z) = 0.18115 0.16313
#
# Static dielectric constant tensor:
#      x y z
#    x 3.634810 0.000000 0.038570 
#    y 0.000000 3.731190 0.000000 
#    z 0.038570 0.000000 4.107150 
# 
# 
# High freq. dielectric constant tensor:
#      x y z
#    x 1.818530 0.000000 0.000000 
#    y 0.000000 1.811950 0.000000 
#    z 0.000000 0.000000 1.852660 
# 
# From -- ./inp_files/32511.got.cif
#   From: 2010.06.25/outbox.cif.g09.slc.cpg/sg15_17_cif.got.tgz:32511.got - 2010.06.28 07:06:18.
