data_PCOD8145964
_publ_section_title
;
Structure prediction by ZEFSAII (Michael W. Deem and Ramdas Pophale) SiO2 
 PCOD8145964
Probable space group: C 2/C
;
_chemical_formula_sum "Si O2"
_cell_formula_units_Z 64
_cell_length_a 15.389463
_cell_length_b 9.208497
_cell_length_c 22.529436
_cell_angle_alpha 90.000000
_cell_angle_beta 86.985870
_cell_angle_gamma 90.000000
_cell_volume 3188.315691
_symmetry_space_group_name_H-M "C 2/C"
_symmetry_group_IT_number 15
_symmetry_cell_setting 'monoclinic'
loop_
_space_group_symop_operation_xyz
x,y,z
-x,y,1/2-z
-x,-y,-z
x,-y,1/2+z
1/2+x,1/2+y,z
1/2-x,1/2+y,1/2-z
1/2-x,1/2-y,-z
1/2+x,1/2-y,1/2+z
loop_
_atom_site_type_symbol
_atom_site_label
_atom_site_fract_x
_atom_site_fract_y
_atom_site_fract_z
Si Si1 0.460456 0.785010 0.812128
Si Si2 0.053203 0.982280 0.438764
Si Si3 0.305384 0.023195 0.302536
Si Si4 0.729035 0.948711 0.447552
Si Si5 0.718799 0.698086 0.203687
Si Si6 0.728145 0.374088 0.924581
Si Si7 0.379705 0.185933 0.110268
Si Si8 0.390731 0.494704 0.369369
O O1 0.500000 0.718362 0.750000
O O2 0.404365 0.924591 0.796933
O O3 0.533592 0.843072 0.854836
O O4 0.393397 0.668527 0.842665
O O5 0.099616 0.824821 0.431749
O O6 0.126389 0.102519 0.436316
O O7 0.000000 0.000000 0.500000
O O8 0.989520 0.021105 0.386532
O O9 0.243825 0.117074 0.262720
O O10 0.267807 0.031723 0.370282
O O11 0.310424 0.859474 0.278771
O O12 0.732042 0.796996 0.412200
O O13 0.719862 0.923262 0.518123
O O14 0.647716 0.048950 0.429957
O O15 0.823100 0.015601 0.426605
O O16 0.800328 0.714152 0.157109
O O17 0.637450 0.610957 0.178958
#
# Coordination Sequence:
#
# PCOD8145964 Si02
#       8
#     8   8   8   8   8   8   8   8
#     4  11  22  40  64  90 127 166 205 259 318 377
#     4  11  22  40  64  96 129 165 209 262 315 377
#     4  12  24  41  64  95 126 168 214 258 319 378
#     4  10  22  41  64  94 126 167 208 259 318 379
#     4  11  24  40  65  94 124 168 212 263 316 380
#     4  11  23  40  65  92 128 167 211 259 316 383
#     4  10  23  40  65  93 125 168 211 259 323 376
#     4  10  22  40  64  91 126 164 208 259 317 374
#
# _framework density 20.073294000000001
#
# number of rings (size 3 to 8) (size 9 to 14) (size 15 to 20)
#    0.000    1.250    5.000    0.750    1.750    2.500 
#    0.000    1.875    0.000    0.000    0.000    0.000 
#    0.000    0.000    0.000    0.000    0.000    0.000 
#
# Total GULP energy -396771.628453 kJ/mol
# GULP energy per Si atom -12399.113389 kJ/mol
# Density = 2.002761 g / cm^3
# Si number density = 20.073294 Si / 1000 Ang^3
#
#
#
# Elastic Constant Matrix: (Units=GPa)
#
#
# Indices 1 2 3 4 5 6 
#
# 1 89.8742 46.1172 29.6167 0.0000 14.3869 0.0000
# 2 46.1172 114.2858 41.0487 0.0000 24.4828 0.0000
# 3 29.6167 41.0487 96.8304 0.0000 5.7893 0.0000
# 4 0.0000 0.0000 0.0000 30.9695 0.0000 5.8554
# 5 14.3869 24.4828 5.7893 0.0000 34.3245 0.0000
# 6 0.0000 0.0000 0.0000 5.8554 0.0000 39.4840
#
#
#
# Elastic Compliance Matrix: (Units=1/GPa)
#
#
# Indices 1 2 3 4 5 6 
#
# 1 0.014635 -0.004497 -0.002419 0.000000 -0.002518 0.000000
# 2 -0.004497 0.013488 -0.003919 0.000000 -0.007075 0.000000
# 3 -0.002419 -0.003919 0.012628 0.000000 0.001680 0.000000
# 4 0.000000 0.000000 0.000000 0.033221 0.000000 -0.004927
# 5 -0.002518 -0.007075 0.001680 0.000000 0.034952 0.000000
# 6 0.000000 0.000000 0.000000 -0.004927 0.000000 0.026057
#
#
# Mechanical properties :
#
#
# Convention : Reuss Voigt Hill
#
# Bulk Modulus (GPa) = 52.41182 59.39506 55.90344
# Shear Modulus (GPa) = 30.67242 33.23612 31.95427
#
# Velocity S-wave (km/s) = 3.91323 4.07349 3.99417
# Velocity P-wave (km/s) = 6.82530 7.19568 7.01294
#
# Compressibility (1/GPa) = 0.01907966
#
# Stress axis : x y z
#
# Youngs Moduli (GPa) = 68.33141 74.14009 79.18672
#
# Poissons Ratio (x) = 0.33341 0.19157
# Poissons Ratio (y) = 0.30729 0.31037
# Poissons Ratio (z) = 0.16531 0.29059
#
# Static dielectric constant tensor:
#      x y z
#    x 4.016080 0.000000 -0.093160 
#    y 0.000000 3.709030 0.000000 
#    z -0.093160 0.000000 3.872630 
# 
# 
# High freq. dielectric constant tensor:
#      x y z
#    x 1.788420 0.000000 0.006920 
#    y 0.000000 1.777130 0.000000 
#    z 0.006920 0.000000 1.788900 
# 
# From -- ./inp_files/273167.got.cif
#   From: 2010.06.25/outbox.cif.g09.slc.cpg/sg15_137_cif.got.tgz:273167.got - 2010.06.28 07:06:18.
