data_PCOD8145040
_publ_section_title
;
Structure prediction by ZEFSAII (Michael W. Deem and Ramdas Pophale) SiO2 
 PCOD8145040
Probable space group: C 2/C
;
_chemical_formula_sum "Si O2"
_cell_formula_units_Z 48
_cell_length_a 17.452488
_cell_length_b 13.019782
_cell_length_c 10.310673
_cell_angle_alpha 90.000000
_cell_angle_beta 73.070621
_cell_angle_gamma 90.000000
_cell_volume 2241.339713
_symmetry_space_group_name_H-M "C 2/C"
_symmetry_group_IT_number 15
_symmetry_cell_setting 'monoclinic'
loop_
_space_group_symop_operation_xyz
x,y,z
-x,y,1/2-z
-x,-y,-z
x,-y,1/2+z
1/2+x,1/2+y,z
1/2-x,1/2+y,1/2-z
1/2-x,1/2-y,-z
1/2+x,1/2-y,1/2+z
loop_
_atom_site_type_symbol
_atom_site_label
_atom_site_fract_x
_atom_site_fract_y
_atom_site_fract_z
Si Si1 0.093384 0.298373 0.718947
Si Si2 0.423725 0.926258 0.541860
Si Si3 0.346033 0.418084 0.302590
Si Si4 0.415995 0.445223 0.547537
Si Si5 0.835897 0.385751 0.066117
Si Si6 0.967553 0.268358 0.128666
O O1 0.117529 0.390449 0.803362
O O2 0.104544 0.182512 0.765055
O O3 0.145026 0.310263 0.562769
O O4 0.000000 0.317542 0.750000
O O5 0.450392 0.819388 0.464573
O O6 0.500000 0.000000 0.500000
O O7 0.354618 0.996465 0.511610
O O8 0.370166 0.458134 0.433592
O O9 0.362004 0.507692 0.189910
O O10 0.254756 0.380126 0.344393
O O11 0.500000 0.500000 0.500000
O O12 0.434950 0.326247 0.561629
O O13 0.894103 0.351224 0.158575
O O14 0.000000 0.229518 0.250000
#
# Coordination Sequence:
#
# PCOD8145040 Si02
#       6
#     8   8   8   8   8   8
#     4  12  21  43  70  96 132 183 233 276 346 421
#     4  10  22  36  65 100 129 174 223 278 339 411
#     4  12  27  43  73 101 143 183 232 298 351 411
#     4  12  25  47  69  99 133 188 241 280 342 420
#     4  11  26  41  67 104 137 178 227 293 356 413
#     4  11  23  40  67  99 137 175 227 287 343 421
#
# _framework density 21.415763999999999
#
# number of rings (size 3 to 8) (size 9 to 14) (size 15 to 20)
#    0.000    0.667    5.000    4.000    7.000    0.000 
#    0.000    0.000    0.000    6.000    0.000    0.000 
#    0.000    0.000    0.000    0.000    0.000    0.000 
#
# Total GULP energy -297337.601177 kJ/mol
# GULP energy per Si atom -12389.066716 kJ/mol
# Density = 2.136702 g / cm^3
# Si number density = 21.415764 Si / 1000 Ang^3
#
#
#
# Elastic Constant Matrix: (Units=GPa)
#
#
# Indices 1 2 3 4 5 6 
#
# 1 86.2675 12.0768 29.0075 0.0000 0.3281 0.0000
# 2 12.0768 114.1149 32.4044 0.0000 2.7848 0.0000
# 3 29.0075 32.4044 95.0015 0.0000 2.2722 0.0000
# 4 0.0000 0.0000 0.0000 32.0360 0.0000 13.4285
# 5 0.3281 2.7848 2.2722 0.0000 32.4082 0.0000
# 6 0.0000 0.0000 0.0000 13.4285 0.0000 13.5462
#
#
#
# Elastic Compliance Matrix: (Units=1/GPa)
#
#
# Indices 1 2 3 4 5 6 
#
# 1 0.012927 -0.000277 -0.003856 0.000000 0.000163 0.000000
# 2 -0.000277 0.009721 -0.003217 0.000000 -0.000607 0.000000
# 3 -0.003856 -0.003217 0.012815 0.000000 -0.000583 0.000000
# 4 0.000000 0.000000 0.000000 0.053407 0.000000 -0.052943
# 5 0.000163 -0.000607 -0.000583 0.000000 0.030948 0.000000
# 6 0.000000 0.000000 0.000000 -0.052943 0.000000 0.126304
#
#
# Mechanical properties :
#
#
# Convention : Reuss Voigt Hill
#
# Bulk Modulus (GPa) = 48.16446 49.15124 48.65785
# Shear Modulus (GPa) = 18.67471 30.39109 24.53290
#
# Velocity S-wave (km/s) = 2.95618 3.77118 3.38827
# Velocity P-wave (km/s) = 5.84731 6.47790 6.17066
#
# Compressibility (1/GPa) = 0.02076220
#
# Stress axis : x y z
#
# Youngs Moduli (GPa) = 77.35908 102.87432 78.03501
#
# Poissons Ratio (x) = 0.02849 0.30094
# Poissons Ratio (y) = 0.02142 0.25100
# Poissons Ratio (z) = 0.29833 0.33090
#
# Static dielectric constant tensor:
#      x y z
#    x 3.893060 0.000000 0.006410 
#    y 0.000000 4.423580 0.000000 
#    z 0.006410 0.000000 4.596600 
# 
# 
# High freq. dielectric constant tensor:
#      x y z
#    x 1.823070 0.000000 -0.005290 
#    y 0.000000 1.860390 0.000000 
#    z -0.005290 0.000000 1.832210 
# 
# From -- ./inp_files/104165.got.cif
#   From: 2010.06.25/outbox.cif.g09.slc.cpg/sg15_53_cif.got.tgz:104165.got - 2010.06.28 07:06:18.
