data_PCOD8145031
_publ_section_title
;
Structure prediction by ZEFSAII (Michael W. Deem and Ramdas Pophale) SiO2 
 PCOD8145031
Probable space group: C 2/C
;
_chemical_formula_sum "Si O2"
_cell_formula_units_Z 60
_cell_length_a 20.819149
_cell_length_b 18.915542
_cell_length_c 11.264712
_cell_angle_alpha 90.000000
_cell_angle_beta 140.468970
_cell_angle_gamma 90.000000
_cell_volume 2823.563431
_symmetry_space_group_name_H-M "C 2/C"
_symmetry_group_IT_number 15
_symmetry_cell_setting 'monoclinic'
loop_
_space_group_symop_operation_xyz
x,y,z
-x,y,1/2-z
-x,-y,-z
x,-y,1/2+z
1/2+x,1/2+y,z
1/2-x,1/2+y,1/2-z
1/2-x,1/2-y,-z
1/2+x,1/2-y,1/2+z
loop_
_atom_site_type_symbol
_atom_site_label
_atom_site_fract_x
_atom_site_fract_y
_atom_site_fract_z
Si Si1 0.390983 0.882368 0.651194
Si Si2 0.600597 0.408064 0.740504
Si Si3 0.150186 0.240140 0.283600
Si Si4 0.655129 0.865670 0.650725
Si Si5 0.380609 0.391744 0.459289
Si Si6 0.737861 0.779170 0.179307
Si Si7 0.500000 0.196567 0.750000
Si Si8 0.757740 0.499337 0.348916
O O1 0.500000 0.872393 0.750000
O O2 0.404244 0.882007 0.812130
O O3 0.318811 0.815809 0.512279
O O4 0.345069 0.958284 0.545557
O O5 0.641932 0.340806 0.725790
O O6 0.482581 0.420783 0.541264
O O7 0.669875 0.475893 0.814715
O O8 0.605740 0.383091 0.882653
O O9 0.250000 0.250000 0.500000
O O10 0.161506 0.288894 0.182781
O O11 0.052353 0.256884 0.222760
O O12 0.735766 0.803726 0.796238
O O13 0.581652 0.850017 0.435550
O O14 0.708224 0.936898 0.684827
O O15 0.346494 0.316270 0.356944
O O16 0.289538 0.445108 0.310501
#
# Coordination Sequence:
#
# PCOD8145031 Si02
#       8
#     8   8   8   8   8   8   4   8
#     4  11  27  47  66  94 136 183 222 271 340 412
#     4  11  19  37  61  92 129 164 217 271 330 394
#     4  12  20  37  63  99 133 161 216 279 332 383
#     4  12  24  45  68  98 134 169 229 276 335 403
#     4  10  22  36  63  92 128 172 215 274 335 393
#     4  11  22  43  69  97 132 177 219 280 335 395
#     4  12  24  38  68 106 130 172 224 284 336 398
#     4  11  24  42  63  92 131 176 222 275 333 399
#
# _framework density 21.249744
#
# number of rings (size 3 to 8) (size 9 to 14) (size 15 to 20)
#    0.000    0.800    4.000    4.000    0.933    0.533 
#    0.000    0.000    2.933    0.000    0.000    0.000 
#    0.000    0.000    0.000    0.000    0.000    0.000 
#
# Total GULP energy -371900.868345 kJ/mol
# GULP energy per Si atom -12396.695612 kJ/mol
# Density = 2.120138 g / cm^3
# Si number density = 21.249744 Si / 1000 Ang^3
#
#
#
# Elastic Constant Matrix: (Units=GPa)
#
#
# Indices 1 2 3 4 5 6 
#
# 1 97.3077 20.0701 22.8549 0.0000 2.7581 0.0000
# 2 20.0701 104.2234 21.9023 0.0000 1.4671 0.0000
# 3 22.8549 21.9023 73.0731 0.0000 -0.0717 0.0000
# 4 0.0000 0.0000 0.0000 15.1251 0.0000 -2.0312
# 5 2.7581 1.4671 -0.0717 0.0000 34.2319 0.0000
# 6 0.0000 0.0000 0.0000 -2.0312 0.0000 29.3652
#
#
#
# Elastic Compliance Matrix: (Units=1/GPa)
#
#
# Indices 1 2 3 4 5 6 
#
# 1 0.011341 -0.001522 -0.003092 0.000000 -0.000855 0.000000
# 2 -0.001522 0.010451 -0.002657 0.000000 -0.000331 0.000000
# 3 -0.003092 -0.002657 0.015449 0.000000 0.000395 0.000000
# 4 0.000000 0.000000 0.000000 0.066735 0.000000 0.004616
# 5 -0.000855 -0.000331 0.000395 0.000000 0.029296 0.000000
# 6 0.000000 0.000000 0.000000 0.004616 0.000000 0.034373
#
#
# Mechanical properties :
#
#
# Convention : Reuss Voigt Hill
#
# Bulk Modulus (GPa) = 44.05413 44.91764 44.48588
# Shear Modulus (GPa) = 26.35010 29.72958 28.03984
#
# Velocity S-wave (km/s) = 3.52521 3.74445 3.63649
# Velocity P-wave (km/s) = 6.11115 6.31494 6.21388
#
# Compressibility (1/GPa) = 0.02269935
#
# Stress axis : x y z
#
# Youngs Moduli (GPa) = 88.17552 95.68605 64.73084
#
# Poissons Ratio (x) = 0.14565 0.20013
# Poissons Ratio (y) = 0.13422 0.17197
# Poissons Ratio (z) = 0.27261 0.25421
#
# Static dielectric constant tensor:
#      x y z
#    x 4.116560 0.000000 0.142540 
#    y 0.000000 3.969210 0.000000 
#    z 0.142540 0.000000 3.823890 
# 
# 
# High freq. dielectric constant tensor:
#      x y z
#    x 1.838410 0.000000 0.008830 
#    y 0.000000 1.837400 0.000000 
#    z 0.008830 0.000000 1.827180 
# 
# From -- ./inp_files/113824.got.cif
#   From: 2010.06.25/outbox.cif.g09.slc.cpg/sg15_57_cif.got.tgz:113824.got - 2010.06.28 07:06:18.
