data_PCOD8145732
_publ_section_title
;
Structure prediction by ZEFSAII (Michael W. Deem and Ramdas Pophale) SiO2 
 PCOD8145732
Probable space group: C 2/C
;
_chemical_formula_sum "Si O2"
_cell_formula_units_Z 44
_cell_length_a 30.469382
_cell_length_b 8.785797
_cell_length_c 24.295270
_cell_angle_alpha 90.000000
_cell_angle_beta 17.763842
_cell_angle_gamma 90.000000
_cell_volume 1984.269902
_symmetry_space_group_name_H-M "C 2/C"
_symmetry_group_IT_number 15
_symmetry_cell_setting 'monoclinic'
loop_
_space_group_symop_operation_xyz
x,y,z
-x,y,1/2-z
-x,-y,-z
x,-y,1/2+z
1/2+x,1/2+y,z
1/2-x,1/2+y,1/2-z
1/2-x,1/2-y,-z
1/2+x,1/2-y,1/2+z
loop_
_atom_site_type_symbol
_atom_site_label
_atom_site_fract_x
_atom_site_fract_y
_atom_site_fract_z
Si Si1 0.190912 0.488678 0.069273
Si Si2 0.308719 0.916242 0.210762
Si Si3 0.822408 0.972712 0.523917
Si Si4 0.948529 0.298254 0.506619
Si Si5 0.000000 0.259828 0.750000
Si Si6 0.452820 0.702398 0.227057
O O1 0.084612 0.345589 0.190145
O O2 0.134149 0.636808 0.106590
O O3 0.204922 0.535557 0.116440
O O4 0.341719 0.438241 0.862912
O O5 0.180565 0.825582 0.333103
O O6 0.250776 0.030065 0.328618
O O7 0.379012 0.033213 0.083318
O O8 0.433753 0.801105 0.084088
O O9 0.942402 0.841113 0.370215
O O10 0.896314 0.139357 0.430775
O O11 0.039888 0.257814 0.344175
#
# Coordination Sequence:
#
# PCOD8145732 Si02
#       6
#     8   8   8   8   4   8
#     4  11  23  38  63  95 124 168 208 265 309 391
#     4  10  23  43  67  93 129 170 214 270 316 381
#     4  11  22  43  60  92 133 165 206 269 313 388
#     4  10  22  43  67  93 126 167 216 265 319 375
#     4  12  26  36  62  96 132 164 206 256 348 362
#     4  10  22  39  67  85 124 168 216 252 310 382
#
# _framework density 22.174403000000002
#
# number of rings (size 3 to 8) (size 9 to 14) (size 15 to 20)
#    0.000    1.455    3.636    0.545    5.091    2.182 
#    0.000    0.000    0.000    0.000    0.000    0.000 
#    0.000    0.000    0.000    0.000    0.000    0.000 
#
# Total GULP energy -272648.945865 kJ/mol
# GULP energy per Si atom -12393.133903 kJ/mol
# Density = 2.212393 g / cm^3
# Si number density = 22.174403 Si / 1000 Ang^3
#
#
#
# Elastic Constant Matrix: (Units=GPa)
#
#
# Indices 1 2 3 4 5 6 
#
# 1 63.5992 35.6633 16.7290 -0.0010 -6.1677 0.0006
# 2 35.6633 92.2081 28.2038 -0.0039 -6.8219 -0.0004
# 3 16.7290 28.2038 70.9524 -0.0016 -15.1819 0.0000
# 4 -0.0010 -0.0039 -0.0016 43.8105 0.0011 -10.0656
# 5 -6.1677 -6.8219 -15.1819 0.0011 14.9290 -0.0010
# 6 0.0006 -0.0004 0.0000 -10.0656 -0.0010 37.9527
#
#
#
# Elastic Compliance Matrix: (Units=1/GPa)
#
#
# Indices 1 2 3 4 5 6 
#
# 1 0.020489 -0.007300 -0.001063 0.000000 0.004048 0.000000
# 2 -0.007300 0.014955 -0.004354 0.000001 -0.000610 0.000001
# 3 -0.001063 -0.004354 0.019882 0.000000 0.017790 0.000000
# 4 0.000000 0.000001 0.000000 0.024307 -0.000001 0.006446
# 5 0.004048 -0.000610 0.017790 -0.000001 0.086469 0.000002
# 6 0.000000 0.000001 0.000000 0.006446 0.000002 0.028058
#
#
# Mechanical properties :
#
#
# Convention : Reuss Voigt Hill
#
# Bulk Modulus (GPa) = 33.45352 43.10576 38.27964
# Shear Modulus (GPa) = 21.78103 29.08267 25.43185
#
# Velocity S-wave (km/s) = 3.13750 3.62545 3.39027
# Velocity P-wave (km/s) = 5.31456 6.08332 5.71189
#
# Compressibility (1/GPa) = 0.02989222
#
# Stress axis : x y z
#
# Youngs Moduli (GPa) = 48.80648 66.86699 50.29712
#
# Poissons Ratio (x) = 0.48812 0.05346
# Poissons Ratio (y) = 0.35628 0.21899
# Poissons Ratio (z) = 0.05188 0.29114
#
# Static dielectric constant tensor:
#      x y z
#    x 3.736840 0.000000 -0.060630 
#    y 0.000000 4.028390 0.000010 
#    z -0.060630 0.000010 4.262910 
# 
# 
# High freq. dielectric constant tensor:
#      x y z
#    x 1.847950 0.000000 -0.012740 
#    y 0.000000 1.871330 0.000000 
#    z -0.012740 0.000000 1.887240 
# 
# From -- ./inp_files/284378.got.cif
#   From: 2010.06.25/outbox.cif.g09.slc.cpg/sg15_143_cif.got.tgz:284378.got - 2010.06.28 07:06:18.
