data_PCOD8145797
_publ_section_title
;
Structure prediction by ZEFSAII (Michael W. Deem and Ramdas Pophale) SiO2 
 PCOD8145797
Probable space group: C 2/C
;
_chemical_formula_sum "Si O2"
_cell_formula_units_Z 32
_cell_length_a 14.296576
_cell_length_b 4.864382
_cell_length_c 20.398791
_cell_angle_alpha 90.000000
_cell_angle_beta 97.425972
_cell_angle_gamma 90.000000
_cell_volume 1406.715293
_symmetry_space_group_name_H-M "C 2/C"
_symmetry_group_IT_number 15
_symmetry_cell_setting 'monoclinic'
loop_
_space_group_symop_operation_xyz
x,y,z
-x,y,1/2-z
-x,-y,-z
x,-y,1/2+z
1/2+x,1/2+y,z
1/2-x,1/2+y,1/2-z
1/2-x,1/2-y,-z
1/2+x,1/2-y,1/2+z
loop_
_atom_site_type_symbol
_atom_site_label
_atom_site_fract_x
_atom_site_fract_y
_atom_site_fract_z
Si Si1 0.085512 0.279822 0.456198
Si Si2 0.687084 0.276610 0.413219
Si Si3 0.758326 0.951652 0.794354
Si Si4 0.615628 0.571838 0.078898
O O1 0.114380 0.595324 0.449528
O O2 0.095484 0.197939 0.533441
O O3 0.154822 0.091978 0.417659
O O4 0.976901 0.259188 0.424683
O O5 0.680174 0.181617 0.336261
O O6 0.796191 0.237986 0.446916
O O7 0.719348 0.234480 0.761133
O O8 0.853755 0.016971 0.844709
#
# Coordination Sequence:
#
# PCOD8145797 Si02
#       4
#     8   8   8   8
#     4  11  21  41  60 100 107 158 196 243 312 336
#     4  10  23  37  65  85 125 151 197 243 297 353
#     4  10  22  40  59  83 120 162 193 238 292 342
#     4   9  24  37  67  84 130 144 198 254 285 356
#
# _framework density 22.748031000000001
#
# number of rings (size 3 to 8) (size 9 to 14) (size 15 to 20)
#    1.500    0.500    0.000    3.000    0.000   10.000 
#    0.000    7.500    0.000    0.000    0.000    0.000 
#    0.000    0.000    0.000    0.000    0.000    0.000 
#
# Total GULP energy -198357.087028 kJ/mol
# GULP energy per Si atom -12397.317939 kJ/mol
# Density = 2.269626 g / cm^3
# Si number density = 22.748031 Si / 1000 Ang^3
#
#
#
# Elastic Constant Matrix: (Units=GPa)
#
#
# Indices 1 2 3 4 5 6 
#
# 1 113.9188 0.6762 31.4475 0.0000 7.9907 0.0000
# 2 0.6762 52.6729 13.1522 0.0000 0.7102 0.0000
# 3 31.4475 13.1522 114.9540 0.0000 30.8504 0.0000
# 4 0.0000 0.0000 0.0000 22.7529 0.0000 -7.8670
# 5 7.9907 0.7102 30.8504 0.0000 29.6900 0.0000
# 6 0.0000 0.0000 0.0000 -7.8670 0.0000 25.7112
#
#
#
# Elastic Compliance Matrix: (Units=1/GPa)
#
#
# Indices 1 2 3 4 5 6 
#
# 1 0.009512 0.000558 -0.002739 0.000000 0.000273 0.000000
# 2 0.000558 0.019719 -0.003109 0.000000 0.002608 0.000000
# 3 -0.002739 -0.003109 0.013293 0.000000 -0.013001 0.000000
# 4 0.000000 0.000000 0.000000 0.049150 0.000000 0.015039
# 5 0.000273 0.002608 -0.013001 0.000000 0.047055 0.000000
# 6 0.000000 0.000000 0.000000 0.015039 0.000000 0.043495
#
#
# Mechanical properties :
#
#
# Convention : Reuss Voigt Hill
#
# Bulk Modulus (GPa) = 31.30431 41.34418 36.32424
# Shear Modulus (GPa) = 24.57577 31.38214 27.97895
#
# Velocity S-wave (km/s) = 3.29043 3.71826 3.51087
# Velocity P-wave (km/s) = 5.31292 6.05378 5.69541
#
# Compressibility (1/GPa) = 0.03194449
#
# Stress axis : x y z
#
# Youngs Moduli (GPa) = 105.13147 50.71241 75.22545
#
# Poissons Ratio (x) = -0.02831 0.20606
# Poissons Ratio (y) = -0.05868 0.23386
# Poissons Ratio (z) = 0.28798 0.15766
#
# Static dielectric constant tensor:
#      x y z
#    x 3.906630 0.000000 0.015360 
#    y 0.000000 3.709640 0.000000 
#    z 0.015360 0.000000 4.086140 
# 
# 
# High freq. dielectric constant tensor:
#      x y z
#    x 1.882520 0.000000 -0.000820 
#    y 0.000000 1.894190 0.000000 
#    z -0.000820 0.000000 1.898180 
# 
# From -- ./inp_files/170211.got.cif
#   From: 2010.06.25/outbox.cif.g09.slc.cpg/sg15_86_cif.got.tgz:170211.got - 2010.06.28 07:06:18.
