data_PCOD8145461
_publ_section_title
;
Structure prediction by ZEFSAII (Michael W. Deem and Ramdas Pophale) SiO2 
 PCOD8145461
Probable space group: C 2/C
;
_chemical_formula_sum "Si O2"
_cell_formula_units_Z 44
_cell_length_a 5.127709
_cell_length_b 18.265012
_cell_length_c 21.891973
_cell_angle_alpha 90.000000
_cell_angle_beta 83.329655
_cell_angle_gamma 90.000000
_cell_volume 2036.472078
_symmetry_space_group_name_H-M "C 2/C"
_symmetry_group_IT_number 15
_symmetry_cell_setting 'monoclinic'
loop_
_space_group_symop_operation_xyz
x,y,z
-x,y,1/2-z
-x,-y,-z
x,-y,1/2+z
1/2+x,1/2+y,z
1/2-x,1/2+y,1/2-z
1/2-x,1/2-y,-z
1/2+x,1/2-y,1/2+z
loop_
_atom_site_type_symbol
_atom_site_label
_atom_site_fract_x
_atom_site_fract_y
_atom_site_fract_z
Si Si1 0.396282 0.429318 0.651328
Si Si2 0.305689 0.131404 0.867035
Si Si3 0.661476 0.435419 0.184400
Si Si4 0.500000 0.122442 0.250000
Si Si5 0.229266 0.513238 0.540864
Si Si6 0.358333 0.711544 0.318082
O O1 0.646856 0.482095 0.657283
O O2 0.225413 0.457167 0.598548
O O3 0.489827 0.345689 0.642282
O O4 0.223069 0.431930 0.718486
O O5 0.537399 0.092246 0.820495
O O6 0.333849 0.218508 0.862328
O O7 0.008500 0.115665 0.855453
O O8 0.318691 0.096962 0.934809
O O9 0.500000 0.426666 0.250000
O O10 0.585564 0.174426 0.304496
O O11 0.500000 0.500000 0.500000
O O12 0.000000 0.500000 0.500000
O O13 0.500000 0.730965 0.250000
#
# Coordination Sequence:
#
# PCOD8145461 Si02
#       6
#     8   8   8   4   8   8
#     4  10  24  39  68  94 134 174 227 270 344 405
#     4  11  25  40  65  94 134 173 222 272 336 388
#     4  11  22  36  61  98 131 171 212 267 333 407
#     4  10  22  38  70 100 144 176 212 272 356 432
#     4  11  25  47  69  93 129 181 237 288 323 379
#     4  10  22  40  62 101 139 175 208 270 349 421
#
# _framework density 21.605993000000002
#
# number of rings (size 3 to 8) (size 9 to 14) (size 15 to 20)
#    0.000    1.455    0.000    5.455   19.091    0.000 
#    0.000    1.818    0.000    0.000    0.000    0.000 
#    0.000    0.000    0.000    0.000    0.000    0.000 
#
# Total GULP energy -272546.073882 kJ/mol
# GULP energy per Si atom -12388.457904 kJ/mol
# Density = 2.155682 g / cm^3
# Si number density = 21.605993 Si / 1000 Ang^3
#
#
#
# Elastic Constant Matrix: (Units=GPa)
#
#
# Indices 1 2 3 4 5 6 
#
# 1 88.7163 30.9248 25.6873 0.0000 -0.9766 0.0000
# 2 30.9248 159.5802 43.6706 0.0000 4.1916 0.0000
# 3 25.6873 43.6706 78.5296 0.0000 13.7337 0.0000
# 4 0.0000 0.0000 0.0000 35.5916 0.0000 3.3230
# 5 -0.9766 4.1916 13.7337 0.0000 40.4867 0.0000
# 6 0.0000 0.0000 0.0000 3.3230 0.0000 14.4633
#
#
#
# Elastic Compliance Matrix: (Units=1/GPa)
#
#
# Indices 1 2 3 4 5 6 
#
# 1 0.012887 -0.001541 -0.003657 0.000000 0.001711 0.000000
# 2 -0.001541 0.007593 -0.003800 0.000000 0.000466 0.000000
# 3 -0.003657 -0.003800 0.016998 0.000000 -0.005461 0.000000
# 4 0.000000 0.000000 0.000000 0.028712 0.000000 -0.006597
# 5 0.001711 0.000466 -0.005461 0.000000 0.026545 0.000000
# 6 0.000000 0.000000 0.000000 -0.006597 0.000000 0.070656
#
#
# Mechanical properties :
#
#
# Convention : Reuss Voigt Hill
#
# Bulk Modulus (GPa) = 51.33128 58.59905 54.96516
# Shear Modulus (GPa) = 26.61242 33.21122 29.91182
#
# Velocity S-wave (km/s) = 3.51339 3.92488 3.72482
# Velocity P-wave (km/s) = 6.34571 6.90797 6.63280
#
# Compressibility (1/GPa) = 0.01948130
#
# Stress axis : x y z
#
# Youngs Moduli (GPa) = 77.59741 131.70542 58.82900
#
# Poissons Ratio (x) = 0.20301 0.21516
# Poissons Ratio (y) = 0.11961 0.22352
# Poissons Ratio (z) = 0.28381 0.50042
#
# Static dielectric constant tensor:
#      x y z
#    x 4.464100 0.000000 0.376590 
#    y 0.000000 3.937950 0.000000 
#    z 0.376590 0.000000 4.108180 
# 
# 
# High freq. dielectric constant tensor:
#      x y z
#    x 1.865240 0.000000 0.005420 
#    y 0.000000 1.843110 0.000000 
#    z 0.005420 0.000000 1.816620 
# 
# From -- ./inp_files/226918.got.cif
#   From: 2010.06.25/outbox.cif.g09.slc.cpg/sg15_114_cif.got.tgz:226918.got - 2010.06.28 07:06:18.
