data_PCOD8145573
_publ_section_title
;
Structure prediction by ZEFSAII (Michael W. Deem and Ramdas Pophale) SiO2 
 PCOD8145573
Probable space group: C 2/C
;
_chemical_formula_sum "Si O2"
_cell_formula_units_Z 44
_cell_length_a 20.105346
_cell_length_b 12.130809
_cell_length_c 9.050454
_cell_angle_alpha 90.000000
_cell_angle_beta 69.725964
_cell_angle_gamma 90.000000
_cell_volume 2070.598251
_symmetry_space_group_name_H-M "C 2/C"
_symmetry_group_IT_number 15
_symmetry_cell_setting 'monoclinic'
loop_
_space_group_symop_operation_xyz
x,y,z
-x,y,1/2-z
-x,-y,-z
x,-y,1/2+z
1/2+x,1/2+y,z
1/2-x,1/2+y,1/2-z
1/2-x,1/2-y,-z
1/2+x,1/2-y,1/2+z
loop_
_atom_site_type_symbol
_atom_site_label
_atom_site_fract_x
_atom_site_fract_y
_atom_site_fract_z
Si Si1 0.100503 0.559494 0.923923
Si Si2 0.500000 0.003099 0.250000
Si Si3 0.559335 0.371781 0.501406
Si Si4 0.304645 0.238116 0.761845
Si Si5 0.659177 0.179307 0.437274
Si Si6 0.589849 0.573915 0.305466
O O1 0.051633 0.571430 0.813584
O O2 0.160694 0.653662 0.882013
O O3 0.141423 0.442918 0.896413
O O4 0.049802 0.576715 0.105361
O O5 0.587235 0.247711 0.468588
O O6 0.597113 0.446924 0.348583
O O7 0.474227 0.368658 0.552785
O O8 0.577435 0.428664 0.641742
O O9 0.221756 0.261681 0.794649
O O10 0.339617 0.357813 0.716761
O O11 0.316357 0.180791 0.911732
#
# Coordination Sequence:
#
# PCOD8145573 Si02
#       6
#     8   4   8   8   8   8
#     4  11  22  42  62  98 121 166 208 260 315 370
#     4  10  24  38  68  90 130 154 208 272 308 372
#     4   9  19  36  57  82 111 153 197 238 288 351
#     4  10  22  39  62  87 125 166 200 248 313 378
#     4  10  22  39  62  87 125 166 200 248 313 378
#     4   9  19  36  57  82 111 153 197 238 288 351
#
# _framework density 21.249898999999999
#
# number of rings (size 3 to 8) (size 9 to 14) (size 15 to 20)
#    0.000    2.182    1.818    0.000    7.636    0.000 
#    3.273    0.909    0.000    0.000    0.000    0.000 
#    0.000    0.000    0.000    0.000    0.000    0.000 
#
# Total GULP energy -272739.834471 kJ/mol
# GULP energy per Si atom -12397.265203 kJ/mol
# Density = 2.120153 g / cm^3
# Si number density = 21.249899 Si / 1000 Ang^3
#
#
#
# Elastic Constant Matrix: (Units=GPa)
#
#
# Indices 1 2 3 4 5 6 
#
# 1 76.1806 21.6692 23.9411 0.0000 -16.9528 0.0000
# 2 21.6692 54.1284 17.0950 0.0000 -4.5845 0.0000
# 3 23.9411 17.0950 83.5764 0.0000 -17.9344 0.0000
# 4 0.0000 0.0000 0.0000 30.8270 0.0000 -8.5145
# 5 -16.9528 -4.5845 -17.9344 0.0000 26.3335 0.0000
# 6 0.0000 0.0000 0.0000 -8.5145 0.0000 23.2410
#
#
#
# Elastic Compliance Matrix: (Units=1/GPa)
#
#
# Indices 1 2 3 4 5 6 
#
# 1 0.017281 -0.005564 -0.001912 0.000000 0.008854 0.000000
# 2 -0.005564 0.021557 -0.003254 0.000000 -0.002045 0.000000
# 3 -0.001912 -0.003254 0.014982 0.000000 0.008406 0.000000
# 4 0.000000 0.000000 0.000000 0.036091 0.000000 0.013222
# 5 0.008854 -0.002045 0.008406 0.000000 0.049043 0.000000
# 6 0.000000 0.000000 0.000000 0.013222 0.000000 0.047872
#
#
# Mechanical properties :
#
#
# Convention : Reuss Voigt Hill
#
# Bulk Modulus (GPa) = 30.90385 37.69953 34.30169
# Shear Modulus (GPa) = 22.82348 26.15897 24.49122
#
# Velocity S-wave (km/s) = 3.28083 3.51239 3.39858
# Velocity P-wave (km/s) = 5.37833 5.85053 5.61939
#
# Compressibility (1/GPa) = 0.03235843
#
# Stress axis : x y z
#
# Youngs Moduli (GPa) = 57.86835 46.38946 66.74529
#
# Poissons Ratio (x) = 0.25812 0.12763
# Poissons Ratio (y) = 0.32199 0.21721
# Poissons Ratio (z) = 0.11065 0.15097
#
# Static dielectric constant tensor:
#      x y z
#    x 3.958670 0.000000 -0.309120 
#    y 0.000000 3.540130 0.000000 
#    z -0.309120 0.000000 3.933530 
# 
# 
# High freq. dielectric constant tensor:
#      x y z
#    x 1.825390 0.000000 -0.023940 
#    y 0.000000 1.819270 0.000000 
#    z -0.023940 0.000000 1.826170 
# 
# From -- ./inp_files/54335.got.cif
#   From: 2010.06.25/outbox.cif.g09.slc.cpg/sg15_28_cif.got.tgz:54335.got - 2010.06.28 07:06:18.
