data_PCOD8145629
_publ_section_title
;
Structure prediction by ZEFSAII (Michael W. Deem and Ramdas Pophale) SiO2 
 PCOD8145629
Probable space group: C 2/C
;
_chemical_formula_sum "Si O2"
_cell_formula_units_Z 48
_cell_length_a 20.366496
_cell_length_b 15.847722
_cell_length_c 10.180703
_cell_angle_alpha 90.000000
_cell_angle_beta 139.781125
_cell_angle_gamma 90.000000
_cell_volume 2121.768269
_symmetry_space_group_name_H-M "C 2/C"
_symmetry_group_IT_number 15
_symmetry_cell_setting 'monoclinic'
loop_
_space_group_symop_operation_xyz
x,y,z
-x,y,1/2-z
-x,-y,-z
x,-y,1/2+z
1/2+x,1/2+y,z
1/2-x,1/2+y,1/2-z
1/2-x,1/2-y,-z
1/2+x,1/2-y,1/2+z
loop_
_atom_site_type_symbol
_atom_site_label
_atom_site_fract_x
_atom_site_fract_y
_atom_site_fract_z
Si Si1 0.137447 0.637036 0.992760
Si Si2 0.000000 0.219253 0.250000
Si Si3 0.285002 0.423117 0.069251
Si Si4 0.973886 0.825120 0.421295
Si Si5 0.336186 0.566832 0.356038
Si Si6 0.500000 0.006743 0.250000
Si Si7 0.934618 0.638326 0.326898
O O1 0.258410 0.640866 0.191078
O O2 0.078148 0.629991 0.039004
O O3 0.098364 0.722325 0.864904
O O4 0.099565 0.550224 0.866571
O O5 0.017598 0.164030 0.406924
O O6 0.360108 0.345129 0.203680
O O7 0.318737 0.489636 0.231509
O O8 0.306013 0.463169 0.956687
O O9 0.172197 0.383446 0.910897
O O10 0.985184 0.730544 0.380977
O O11 0.052434 0.891628 0.477359
O O12 0.516102 0.069506 0.399339
#
# Coordination Sequence:
#
# PCOD8145629 Si02
#       7
#     8   4   8   8   8   4   8
#     4   9  20  41  61  95 125 161 209 279 307 386
#     4   9  22  42  64  89 132 166 208 265 326 374
#     4  11  24  44  66  95 129 170 216 272 314 389
#     4  11  24  41  63  94 133 172 209 267 321 390
#     4  11  24  42  68  93 130 168 220 261 325 384
#     4  11  18  36  66  87 122 164 220 257 326 384
#     4  10  22  39  63  94 125 168 215 268 324 371
#
# _framework density 22.622640000000001
#
# number of rings (size 3 to 8) (size 9 to 14) (size 15 to 20)
#    0.000    1.667    1.667    2.000    4.667    0.667 
#    0.000    0.000    0.000    0.000    0.000    0.000 
#    0.000    0.000    0.000    0.000    0.000    0.000 
#
# Total GULP energy -297375.151475 kJ/mol
# GULP energy per Si atom -12390.631311 kJ/mol
# Density = 2.257115 g / cm^3
# Si number density = 22.622640 Si / 1000 Ang^3
#
#
#
# Elastic Constant Matrix: (Units=GPa)
#
#
# Indices 1 2 3 4 5 6 
#
# 1 62.5889 15.6114 12.4556 0.0000 -9.5460 0.0000
# 2 15.6114 58.8632 11.5444 0.0000 -10.1789 0.0000
# 3 12.4556 11.5444 86.6727 0.0000 -1.7242 0.0000
# 4 0.0000 0.0000 0.0000 41.5979 0.0000 -9.6416
# 5 -9.5460 -10.1789 -1.7242 0.0000 33.8251 0.0000
# 6 0.0000 0.0000 0.0000 -9.6416 0.0000 21.3308
#
#
#
# Elastic Compliance Matrix: (Units=1/GPa)
#
#
# Indices 1 2 3 4 5 6 
#
# 1 0.017880 -0.003686 -0.002002 0.000000 0.003835 0.000000
# 2 -0.003686 0.019144 -0.001928 0.000000 0.004622 0.000000
# 3 -0.002002 -0.001928 0.012072 0.000000 -0.000530 0.000000
# 4 0.000000 0.000000 0.000000 0.026853 0.000000 0.012138
# 5 0.003835 0.004622 -0.000530 0.000000 0.032010 0.000000
# 6 0.000000 0.000000 0.000000 0.012138 0.000000 0.052367
#
#
# Mechanical properties :
#
#
# Convention : Reuss Voigt Hill
#
# Bulk Modulus (GPa) = 29.53157 31.92752 30.72954
# Shear Modulus (GPa) = 26.76003 30.58498 28.67250
#
# Velocity S-wave (km/s) = 3.44304 3.68089 3.56395
# Velocity P-wave (km/s) = 5.37479 5.67530 5.52709
#
# Compressibility (1/GPa) = 0.03386207
#
# Stress axis : x y z
#
# Youngs Moduli (GPa) = 55.92824 52.23665 82.83859
#
# Poissons Ratio (x) = 0.19256 0.16586
# Poissons Ratio (y) = 0.20617 0.15972
# Poissons Ratio (z) = 0.11198 0.10072
#
# Static dielectric constant tensor:
#      x y z
#    x 3.916390 0.000000 -0.049460 
#    y 0.000000 4.045730 0.000000 
#    z -0.049460 0.000000 4.296010 
# 
# 
# High freq. dielectric constant tensor:
#      x y z
#    x 1.877900 0.000000 -0.007320 
#    y 0.000000 1.884940 0.000000 
#    z -0.007320 0.000000 1.902790 
# 
# From -- ./inp_files/113008.got.cif
#   From: 2010.06.25/outbox.cif.g09.slc.cpg/sg15_57_cif.got.tgz:113008.got - 2010.06.28 07:06:18.
