data_PCOD8145819
_publ_section_title
;
Structure prediction by ZEFSAII (Michael W. Deem and Ramdas Pophale) SiO2 
 PCOD8145819
Probable space group: C 2/C
;
_chemical_formula_sum "Si O2"
_cell_formula_units_Z 48
_cell_length_a 12.027963
_cell_length_b 15.160633
_cell_length_c 21.512526
_cell_angle_alpha 90.000000
_cell_angle_beta 138.314732
_cell_angle_gamma 90.000000
_cell_volume 2608.840453
_symmetry_space_group_name_H-M "C 2/C"
_symmetry_group_IT_number 15
_symmetry_cell_setting 'monoclinic'
loop_
_space_group_symop_operation_xyz
x,y,z
-x,y,1/2-z
-x,-y,-z
x,-y,1/2+z
1/2+x,1/2+y,z
1/2-x,1/2+y,1/2-z
1/2-x,1/2-y,-z
1/2+x,1/2-y,1/2+z
loop_
_atom_site_type_symbol
_atom_site_label
_atom_site_fract_x
_atom_site_fract_y
_atom_site_fract_z
Si Si1 0.139223 0.869996 0.922508
Si Si2 0.500000 0.738694 0.750000
Si Si3 0.972054 0.962106 0.054885
Si Si4 0.316210 0.401023 0.248335
Si Si5 0.500000 0.455483 0.750000
Si Si6 0.492437 0.205393 0.925843
Si Si7 0.203253 0.785488 0.547514
O O1 0.086056 0.885528 0.830445
O O2 0.010150 0.800388 0.899546
O O3 0.131130 0.965310 0.950890
O O4 0.328096 0.838443 0.000505
O O5 0.561223 0.678561 0.718489
O O6 0.357070 0.798348 0.659790
O O7 0.140110 0.931288 0.162615
O O8 0.856549 0.880735 0.993878
O O9 0.000000 0.000000 0.000000
O O10 0.354006 0.484194 0.219317
O O11 0.128553 0.363166 0.161623
O O12 0.429146 0.222972 0.970358
O O13 0.250000 0.750000 0.500000
#
# Coordination Sequence:
#
# PCOD8145819 Si02
#       7
#     8   4   8   8   4   8   8
#     4  10  22  41  57  86 123 154 197 243 301 361
#     4   9  18  36  58  85 114 150 204 239 288 356
#     4  11  21  40  60  86 122 154 193 251 307 341
#     4   9  19  37  60  82 113 156 199 242 292 354
#     4   9  20  38  60  81 114 158 196 247 292 348
#     4  10  22  40  60  87 119 159 199 242 297 367
#     4  11  21  39  63  88 117 160 200 249 298 355
#
# _framework density 18.398979000000001
#
# number of rings (size 3 to 8) (size 9 to 14) (size 15 to 20)
#    0.000    2.000    3.333    0.000    2.333    2.000 
#    3.000    0.000    0.000    0.000    0.000    0.000 
#    0.000    0.000    0.000    0.000    0.000    0.000 
#
# Total GULP energy -297351.356950 kJ/mol
# GULP energy per Si atom -12389.639873 kJ/mol
# Density = 1.835710 g / cm^3
# Si number density = 18.398979 Si / 1000 Ang^3
#
#
#
# Elastic Constant Matrix: (Units=GPa)
#
#
# Indices 1 2 3 4 5 6 
#
# 1 98.9548 42.2651 69.4986 0.0000 -9.9248 0.0000
# 2 42.2651 107.5802 68.7926 0.0000 -5.9267 0.0000
# 3 69.4986 68.7926 127.1305 0.0000 -14.9248 0.0000
# 4 0.0000 0.0000 0.0000 37.9935 0.0000 -1.9343
# 5 -9.9248 -5.9267 -14.9248 0.0000 36.7251 0.0000
# 6 0.0000 0.0000 0.0000 -1.9343 0.0000 22.0788
#
#
#
# Elastic Compliance Matrix: (Units=1/GPa)
#
#
# Indices 1 2 3 4 5 6 
#
# 1 0.016515 -0.001121 -0.008316 0.000000 0.000903 0.000000
# 2 -0.001121 0.014316 -0.007244 0.000000 -0.000936 0.000000
# 3 -0.008316 -0.007244 0.016729 0.000000 0.003382 0.000000
# 4 0.000000 0.000000 0.000000 0.026438 0.000000 0.002316
# 5 0.000903 -0.000936 0.003382 0.000000 0.028697 0.000000
# 6 0.000000 0.000000 0.000000 0.002316 0.000000 0.045495
#
#
# Mechanical properties :
#
#
# Convention : Reuss Voigt Hill
#
# Bulk Modulus (GPa) = 70.42794 77.19757 73.81276
# Shear Modulus (GPa) = 26.84047 29.56675 28.20361
#
# Velocity S-wave (km/s) = 3.82357 4.01306 3.91946
# Velocity P-wave (km/s) = 7.60619 7.97004 7.79024
#
# Compressibility (1/GPa) = 0.01419891
#
# Stress axis : x y z
#
# Youngs Moduli (GPa) = 60.54918 69.84986 59.77672
#
# Poissons Ratio (x) = 0.07831 0.49710
# Poissons Ratio (y) = 0.06788 0.43302
# Poissons Ratio (z) = 0.50352 0.50599
#
# Static dielectric constant tensor:
#      x y z
#    x 3.340110 0.000000 -0.054770 
#    y 0.000000 2.883330 0.000000 
#    z -0.054770 0.000000 3.382610 
# 
# 
# High freq. dielectric constant tensor:
#      x y z
#    x 1.708570 0.000000 -0.012890 
#    y 0.000000 1.721240 0.000000 
#    z -0.012890 0.000000 1.717010 
# 
# From -- ./inp_files/143475.got.cif
#   From: 2010.06.25/outbox.cif.g09.slc.cpg/sg15_72_cif.got.tgz:143475.got - 2010.06.28 07:06:18.
