data_PCOD8145261
_publ_section_title
;
Structure prediction by ZEFSAII (Michael W. Deem and Ramdas Pophale) SiO2 
 PCOD8145261
Probable space group: C 2/C
;
_chemical_formula_sum "Si O2"
_cell_formula_units_Z 48
_cell_length_a 16.766261
_cell_length_b 22.862699
_cell_length_c 10.664512
_cell_angle_alpha 90.000000
_cell_angle_beta 141.830903
_cell_angle_gamma 90.000000
_cell_volume 2526.284475
_symmetry_space_group_name_H-M "C 2/C"
_symmetry_group_IT_number 15
_symmetry_cell_setting 'monoclinic'
loop_
_space_group_symop_operation_xyz
x,y,z
-x,y,1/2-z
-x,-y,-z
x,-y,1/2+z
1/2+x,1/2+y,z
1/2-x,1/2+y,1/2-z
1/2-x,1/2-y,-z
1/2+x,1/2-y,1/2+z
loop_
_atom_site_type_symbol
_atom_site_label
_atom_site_fract_x
_atom_site_fract_y
_atom_site_fract_z
Si Si1 0.687349 0.403421 0.042964
Si Si2 0.394631 0.153444 0.957528
Si Si3 0.125762 0.036048 0.991658
Si Si4 0.181531 0.634081 0.362248
Si Si5 0.115726 0.213659 0.991494
Si Si6 0.069445 0.884197 0.638141
O O1 0.821494 0.374734 0.249866
O O2 0.688855 0.472586 0.068554
O O3 0.671619 0.387966 0.877455
O O4 0.573007 0.375800 0.983397
O O5 0.544217 0.137502 0.122937
O O6 0.339134 0.125797 0.015866
O O7 0.371884 0.222660 0.934347
O O8 0.236168 0.079475 0.081306
O O9 0.082061 0.055083 0.076968
O O10 0.000000 0.038600 0.750000
O O11 0.254777 0.694898 0.422224
O O12 0.000000 0.209988 0.750000
O O13 0.095781 0.170563 0.082858
#
# Coordination Sequence:
#
# PCOD8145261 Si02
#       6
#     8   8   8   8   8   8
#     4  11  23  37  61  90 123 156 199 245 303 355
#     4  11  23  37  61  90 123 156 199 245 303 355
#     4  11  21  39  65  87 119 156 204 251 291 349
#     4  10  22  38  60  94 116 157 202 250 297 347
#     4  11  21  39  65  87 119 156 204 251 291 349
#     4  10  22  38  60  94 116 157 202 250 297 347
#
# _framework density 19.000236000000001
#
# number of rings (size 3 to 8) (size 9 to 14) (size 15 to 20)
#    0.000    1.333    3.333    5.000    4.667    1.333 
#    0.000    3.333    0.000    0.000    0.000    0.000 
#    0.000    0.000    0.000    0.000    0.000    0.000 
#
# Total GULP energy -297646.835874 kJ/mol
# GULP energy per Si atom -12401.951495 kJ/mol
# Density = 1.895699 g / cm^3
# Si number density = 19.000236 Si / 1000 Ang^3
#
#
#
# Elastic Constant Matrix: (Units=GPa)
#
#
# Indices 1 2 3 4 5 6 
#
# 1 71.5702 36.2751 53.0997 0.0000 -6.0004 0.0000
# 2 36.2751 89.8506 88.0605 0.0000 -0.7753 0.0000
# 3 53.0997 88.0605 178.3414 0.0000 -0.4994 0.0000
# 4 0.0000 0.0000 0.0000 31.4891 0.0000 -2.9119
# 5 -6.0004 -0.7753 -0.4994 0.0000 41.6222 0.0000
# 6 0.0000 0.0000 0.0000 -2.9119 0.0000 5.9407
#
#
#
# Elastic Compliance Matrix: (Units=1/GPa)
#
#
# Indices 1 2 3 4 5 6 
#
# 1 0.018944 -0.004078 -0.003619 0.000000 0.002612 0.000000
# 2 -0.004078 0.022448 -0.009871 0.000000 -0.000288 0.000000
# 3 -0.003619 -0.009871 0.011557 0.000000 -0.000567 0.000000
# 4 0.000000 0.000000 0.000000 0.033265 0.000000 0.016305
# 5 0.002612 -0.000288 -0.000567 0.000000 0.024390 0.000000
# 6 0.000000 0.000000 0.000000 0.016305 0.000000 0.176323
#
#
# Mechanical properties :
#
#
# Convention : Reuss Voigt Hill
#
# Bulk Modulus (GPa) = 56.14224 77.18142 66.66183
# Shear Modulus (GPa) = 15.24393 26.63219 20.93806
#
# Velocity S-wave (km/s) = 2.83557 3.74796 3.32322
# Velocity P-wave (km/s) = 6.35082 7.70967 7.06300
#
# Compressibility (1/GPa) = 0.01781190
#
# Stress axis : x y z
#
# Youngs Moduli (GPa) = 52.78850 44.54836 86.52755
#
# Poissons Ratio (x) = 0.18169 0.31316
# Poissons Ratio (y) = 0.21529 0.85407
# Poissons Ratio (z) = 0.19105 0.43971
#
# Static dielectric constant tensor:
#      x y z
#    x 3.569120 0.000000 0.004170 
#    y 0.000000 3.594860 0.000000 
#    z 0.004170 0.000000 3.519150 
# 
# 
# High freq. dielectric constant tensor:
#      x y z
#    x 1.742840 0.000000 0.000320 
#    y 0.000000 1.744130 0.000000 
#    z 0.000320 0.000000 1.739240 
# 
# From -- ./inp_files/108147.got.cif
#   From: 2010.06.25/outbox.cif.g09.slc.cpg/sg15_55_cif.got.tgz:108147.got - 2010.06.28 07:06:18.
