data_PCOD8145000
_publ_section_title
;
Structure prediction by ZEFSAII (Michael W. Deem and Ramdas Pophale) SiO2 
 PCOD8145000
Probable space group: C 2/C
;
_chemical_formula_sum "Si O2"
_cell_formula_units_Z 48
_cell_length_a 5.017663
_cell_length_b 20.822836
_cell_length_c 22.722679
_cell_angle_alpha 90.000000
_cell_angle_beta 78.929136
_cell_angle_gamma 90.000000
_cell_volume 2329.929198
_symmetry_space_group_name_H-M "C 2/C"
_symmetry_group_IT_number 15
_symmetry_cell_setting 'monoclinic'
loop_
_space_group_symop_operation_xyz
x,y,z
-x,y,1/2-z
-x,-y,-z
x,-y,1/2+z
1/2+x,1/2+y,z
1/2-x,1/2+y,1/2-z
1/2-x,1/2-y,-z
1/2+x,1/2-y,1/2+z
loop_
_atom_site_type_symbol
_atom_site_label
_atom_site_fract_x
_atom_site_fract_y
_atom_site_fract_z
Si Si1 0.509638 0.374043 0.111764
Si Si2 0.952526 0.749735 0.320538
Si Si3 0.089613 0.188334 0.490917
Si Si4 0.453179 0.087377 0.056427
Si Si5 0.603951 0.312124 0.619901
Si Si6 0.437634 0.944717 0.425470
O O1 0.576274 0.325693 0.162802
O O2 0.238437 0.418215 0.122873
O O3 0.756962 0.421895 0.094857
O O4 0.446377 0.333204 0.056273
O O5 0.220256 0.729572 0.343683
O O6 0.000000 0.742805 0.250000
O O7 0.707060 0.701975 0.348136
O O8 0.250000 0.250000 0.500000
O O9 0.292141 0.135369 0.454816
O O10 0.868677 0.208279 0.450299
O O11 0.216511 0.114209 0.111176
O O12 0.565033 0.021368 0.078323
O O13 0.330833 0.077330 0.995207
#
# Coordination Sequence:
#
# PCOD8145000 Si02
#       6
#     8   8   8   8   8   8
#     4  11  22  38  61  89 126 162 208 249 312 374
#     4  12  27  43  63  90 120 164 217 269 318 359
#     4  11  21  35  62  98 131 159 199 247 325 379
#     4  10  22  36  59  95 138 159 202 237 317 385
#     4  12  22  40  65  91 127 165 200 263 317 383
#     4  10  23  35  60  93 130 169 192 249 303 385
#
# _framework density 20.601483999999999
#
# number of rings (size 3 to 8) (size 9 to 14) (size 15 to 20)
#    0.000    1.000    5.000    1.500    4.667    3.333 
#    0.000    0.000    0.000    4.000    0.000    0.000 
#    0.000    0.000    0.000    0.000    0.000    0.000 
#
# Total GULP energy -297318.661601 kJ/mol
# GULP energy per Si atom -12388.277567 kJ/mol
# Density = 2.055459 g / cm^3
# Si number density = 20.601484 Si / 1000 Ang^3
#
#
#
# Elastic Constant Matrix: (Units=GPa)
#
#
# Indices 1 2 3 4 5 6 
#
# 1 86.7916 21.0066 17.3526 0.0000 17.6416 0.0000
# 2 21.0066 112.1010 27.5818 0.0000 9.6194 0.0000
# 3 17.3526 27.5818 76.1775 0.0000 7.7614 0.0000
# 4 0.0000 0.0000 0.0000 16.5001 0.0000 2.8937
# 5 17.6416 9.6194 7.7614 0.0000 19.2986 0.0000
# 6 0.0000 0.0000 0.0000 2.8937 0.0000 29.5947
#
#
#
# Elastic Compliance Matrix: (Units=1/GPa)
#
#
# Indices 1 2 3 4 5 6 
#
# 1 0.014613 -0.001303 -0.001629 0.000000 -0.012054 0.000000
# 2 -0.001303 0.010155 -0.003113 0.000000 -0.002619 0.000000
# 3 -0.001629 -0.003113 0.014927 0.000000 -0.002963 0.000000
# 4 0.000000 0.000000 0.000000 0.061663 0.000000 -0.006029
# 5 -0.012054 -0.002619 -0.002963 0.000000 0.065333 0.000000
# 6 0.000000 0.000000 0.000000 -0.006029 0.000000 0.034379
#
#
# Mechanical properties :
#
#
# Convention : Reuss Voigt Hill
#
# Bulk Modulus (GPa) = 36.22516 45.21692 40.72104
# Shear Modulus (GPa) = 22.48568 27.02061 24.75315
#
# Velocity S-wave (km/s) = 3.30731 3.62551 3.47006
# Velocity P-wave (km/s) = 5.67506 6.28664 5.98866
#
# Compressibility (1/GPa) = 0.02760513
#
# Stress axis : x y z
#
# Youngs Moduli (GPa) = 68.43210 98.46914 66.99109
#
# Poissons Ratio (x) = 0.12833 0.10911
# Poissons Ratio (y) = 0.08919 0.20857
# Poissons Ratio (z) = 0.11146 0.30657
#
# Static dielectric constant tensor:
#      x y z
#    x 0.831000 0.000000 0.978170 
#    y 0.000000 3.808700 0.000000 
#    z 0.978170 0.000000 3.296810 
# 
# 
# High freq. dielectric constant tensor:
#      x y z
#    x 1.824210 0.000000 0.014300 
#    y 0.000000 1.813780 0.000000 
#    z 0.014300 0.000000 1.754610 
# 
# From -- ./inp_files/260675.got.cif
#   From: 2010.06.25/outbox.cif.g09.slc.cpg/sg15_131_cif.got.tgz:260675.got - 2010.06.28 07:06:18.
