data_PCOD8145606
_publ_section_title
;
Structure prediction by ZEFSAII (Michael W. Deem and Ramdas Pophale) SiO2 
 PCOD8145606
Probable space group: C 2/C
;
_chemical_formula_sum "Si O2"
_cell_formula_units_Z 52
_cell_length_a 18.092397
_cell_length_b 18.144776
_cell_length_c 9.325106
_cell_angle_alpha 90.000000
_cell_angle_beta 126.999975
_cell_angle_gamma 90.000000
_cell_volume 2444.838953
_symmetry_space_group_name_H-M "C 2/C"
_symmetry_group_IT_number 15
_symmetry_cell_setting 'monoclinic'
loop_
_space_group_symop_operation_xyz
x,y,z
-x,y,1/2-z
-x,-y,-z
x,-y,1/2+z
1/2+x,1/2+y,z
1/2-x,1/2+y,1/2-z
1/2-x,1/2-y,-z
1/2+x,1/2-y,1/2+z
loop_
_atom_site_type_symbol
_atom_site_label
_atom_site_fract_x
_atom_site_fract_y
_atom_site_fract_z
Si Si1 0.192745 0.429861 0.741480
Si Si2 0.895789 0.274155 0.873749
Si Si3 0.500000 0.556852 0.250000
Si Si4 0.832591 0.124080 0.889216
Si Si5 0.500000 0.162171 0.750000
Si Si6 0.163599 0.565380 0.872770
Si Si7 0.134918 0.930724 0.370652
Si Si8 0.500000 0.303006 0.250000
O O1 0.160099 0.346971 0.742433
O O2 0.132629 0.489538 0.759223
O O3 0.187386 0.446200 0.567280
O O4 0.295143 0.449233 0.919480
O O5 0.973210 0.250067 0.849430
O O6 0.824527 0.209583 0.832373
O O7 0.949219 0.286241 0.081384
O O8 0.437769 0.606992 0.069732
O O9 0.571038 0.500765 0.256244
O O10 0.752995 0.105467 0.909028
O O11 0.812751 0.081430 0.718132
O O12 0.572935 0.113986 0.746386
O O13 0.085614 0.857855 0.376162
#
# Coordination Sequence:
#
# PCOD8145606 Si02
#       8
#     8   8   4   8   4   8   8   4
#     4  11  24  42  64  95 130 171 228 270 331 388
#     4  10  24  42  64  95 132 177 218 274 330 394
#     4  11  21  36  68  99 135 170 216 270 324 398
#     4  11  23  40  66 100 134 173 217 268 339 392
#     4  10  25  45  63  93 130 172 232 272 329 385
#     4  11  25  42  67  94 128 174 223 279 322 393
#     4  10  22  39  62  98 134 168 220 270 328 394
#     4   9  22  39  61  96 131 174 218 266 331 391
#
# _framework density 21.269293999999999
#
# number of rings (size 3 to 8) (size 9 to 14) (size 15 to 20)
#    0.000    1.538    1.538    1.846    0.000   16.615 
#    0.000    0.000    0.000    0.000    0.000    0.000 
#    0.000    0.000    0.000    0.000    0.000    0.000 
#
# Total GULP energy -322177.994587 kJ/mol
# GULP energy per Si atom -12391.461330 kJ/mol
# Density = 2.122088 g / cm^3
# Si number density = 21.269294 Si / 1000 Ang^3
#
#
#
# Elastic Constant Matrix: (Units=GPa)
#
#
# Indices 1 2 3 4 5 6 
#
# 1 98.1730 40.1115 10.4937 0.0000 -15.9380 0.0000
# 2 40.1115 115.0509 0.2565 0.0000 -22.0443 0.0000
# 3 10.4937 0.2565 39.1373 0.0000 -15.6215 0.0000
# 4 0.0000 0.0000 0.0000 34.5006 0.0000 -6.4966
# 5 -15.9380 -22.0443 -15.6215 0.0000 33.0265 0.0000
# 6 0.0000 0.0000 0.0000 -6.4966 0.0000 29.1697
#
#
#
# Elastic Compliance Matrix: (Units=1/GPa)
#
#
# Indices 1 2 3 4 5 6 
#
# 1 0.012396 -0.003884 -0.002398 0.000000 0.002255 0.000000
# 2 -0.003884 0.011518 0.004051 0.000000 0.007730 0.000000
# 3 -0.002398 0.004051 0.033019 0.000000 0.017165 0.000000
# 4 0.000000 0.000000 0.000000 0.030254 0.000000 0.006738
# 5 0.002255 0.007730 0.017165 0.000000 0.044645 0.000000
# 6 0.000000 0.000000 0.000000 0.006738 0.000000 0.035783
#
#
# Mechanical properties :
#
#
# Convention : Reuss Voigt Hill
#
# Bulk Modulus (GPa) = 19.05833 39.34274 29.20054
# Shear Modulus (GPa) = 26.37600 32.77266 29.57433
#
# Velocity S-wave (km/s) = 3.52532 3.92962 3.73295
# Velocity P-wave (km/s) = 5.05475 6.25514 5.68671
#
# Compressibility (1/GPa) = 0.05247049
#
# Stress axis : x y z
#
# Youngs Moduli (GPa) = 80.67443 86.82049 30.28583
#
# Poissons Ratio (x) = 0.33722 0.07263
# Poissons Ratio (y) = 0.31335 -0.12270
# Poissons Ratio (z) = 0.19346 -0.35173
#
# Static dielectric constant tensor:
#      x y z
#    x 3.847450 0.000000 -0.033600 
#    y 0.000000 4.220430 0.000000 
#    z -0.033600 0.000000 3.778530 
# 
# 
# High freq. dielectric constant tensor:
#      x y z
#    x 1.828350 0.000000 -0.006790 
#    y 0.000000 1.853910 0.000000 
#    z -0.006790 0.000000 1.830300 
# 
# From -- ./inp_files/49259.got.cif
#   From: 2010.06.25/outbox.cif.g09.slc.cpg/sg15_25_cif.got.tgz:49259.got - 2010.06.28 07:06:18.
