data_PCOD8145644
_publ_section_title
;
Structure prediction by ZEFSAII (Michael W. Deem and Ramdas Pophale) SiO2 
 PCOD8145644
Probable space group: C 2/C
;
_chemical_formula_sum "Si O2"
_cell_formula_units_Z 40
_cell_length_a 5.493999
_cell_length_b 18.482469
_cell_length_c 17.412829
_cell_angle_alpha 90.000000
_cell_angle_beta 86.042216
_cell_angle_gamma 90.000000
_cell_volume 1763.928369
_symmetry_space_group_name_H-M "C 2/C"
_symmetry_group_IT_number 15
_symmetry_cell_setting 'monoclinic'
loop_
_space_group_symop_operation_xyz
x,y,z
-x,y,1/2-z
-x,-y,-z
x,-y,1/2+z
1/2+x,1/2+y,z
1/2-x,1/2+y,1/2-z
1/2-x,1/2-y,-z
1/2+x,1/2-y,1/2+z
loop_
_atom_site_type_symbol
_atom_site_label
_atom_site_fract_x
_atom_site_fract_y
_atom_site_fract_z
Si Si1 0.764083 0.896824 0.887715
Si Si2 0.723911 0.175342 0.099748
Si Si3 0.562583 0.034168 0.836844
Si Si4 0.329603 0.556443 0.546398
Si Si5 0.284689 0.339479 0.418521
O O1 0.526371 0.856153 0.856832
O O2 0.024757 0.856840 0.868896
O O3 0.780693 0.976526 0.846901
O O4 0.694477 0.902748 0.979479
O O5 0.712105 0.260462 0.118455
O O6 0.717114 0.162527 0.009206
O O7 0.500000 0.040644 0.750000
O O8 0.334679 0.006805 0.893763
O O9 0.598772 0.113973 0.871295
O O10 0.500000 0.500000 0.500000
O O11 0.459299 0.618138 0.594870
#
# Coordination Sequence:
#
# PCOD8145644 Si02
#       5
#     8   8   8   8   8
#     4  11  22  42  66  99 128 177 226 282 333 400
#     4  10  23  39  71  97 132 169 232 284 330 401
#     4  12  25  41  65 100 139 180 226 284 354 417
#     4  11  21  40  70  97 132 170 233 288 332 398
#     4  10  22  39  64 102 128 172 221 284 338 401
#
# _framework density 22.676658
#
# number of rings (size 3 to 8) (size 9 to 14) (size 15 to 20)
#    0.000    1.200    4.000    3.000    2.800    3.200 
#    0.000    2.000    0.000    0.000    0.000    0.000 
#    0.000    0.000    0.000    0.000    0.000    0.000 
#
# Total GULP energy -247809.197857 kJ/mol
# GULP energy per Si atom -12390.459893 kJ/mol
# Density = 2.262505 g / cm^3
# Si number density = 22.676658 Si / 1000 Ang^3
#
#
#
# Elastic Constant Matrix: (Units=GPa)
#
#
# Indices 1 2 3 4 5 6 
#
# 1 146.1276 70.6788 30.2342 0.0000 4.7845 0.0000
# 2 70.6788 163.3305 23.9396 0.0000 8.5304 0.0000
# 3 30.2342 23.9396 68.7162 0.0000 18.8252 0.0000
# 4 0.0000 0.0000 0.0000 14.4595 0.0000 9.1605
# 5 4.7845 8.5304 18.8252 0.0000 18.3662 0.0000
# 6 0.0000 0.0000 0.0000 9.1605 0.0000 34.9927
#
#
#
# Elastic Compliance Matrix: (Units=1/GPa)
#
#
# Indices 1 2 3 4 5 6 
#
# 1 0.009250 -0.003628 -0.003626 0.000000 0.002991 0.000000
# 2 -0.003628 0.007887 -0.000566 0.000000 -0.002138 0.000000
# 3 -0.003626 -0.000566 0.022267 0.000000 -0.021616 0.000000
# 4 0.000000 0.000000 0.000000 0.082909 0.000000 -0.021704
# 5 0.002991 -0.002138 -0.021616 0.000000 0.076818 0.000000
# 6 0.000000 0.000000 0.000000 -0.021704 0.000000 0.034259
#
#
# Mechanical properties :
#
#
# Convention : Reuss Voigt Hill
#
# Bulk Modulus (GPa) = 42.07746 69.76439 55.92093
# Shear Modulus (GPa) = 19.45905 30.45179 24.95542
#
# Velocity S-wave (km/s) = 2.93253 3.66849 3.32096
# Velocity P-wave (km/s) = 5.48288 6.98394 6.27843
#
# Compressibility (1/GPa) = 0.02376569
#
# Stress axis : x y z
#
# Youngs Moduli (GPa) = 108.10604 126.79109 44.90999
#
# Poissons Ratio (x) = 0.45996 0.16283
# Poissons Ratio (y) = 0.39218 0.02541
# Poissons Ratio (z) = 0.39195 0.07174
#
# Static dielectric constant tensor:
#      x y z
#    x 4.278380 0.000000 0.109290 
#    y 0.000000 4.485070 0.000000 
#    z 0.109290 0.000000 3.654140 
# 
# 
# High freq. dielectric constant tensor:
#      x y z
#    x 1.906130 0.000000 0.011280 
#    y 0.000000 1.905220 0.000000 
#    z 0.011280 0.000000 1.838470 
# 
# From -- ./inp_files/184246.got.cif
#   From: 2010.06.25/outbox.cif.g09.slc.cpg/sg15_93_cif.got.tgz:184246.got - 2010.06.28 07:06:18.
