data_PCOD8145141
_publ_section_title
;
Structure prediction by ZEFSAII (Michael W. Deem and Ramdas Pophale) SiO2 
 PCOD8145141
Probable space group: C 2/C
;
_chemical_formula_sum "Si O2"
_cell_formula_units_Z 44
_cell_length_a 26.371446
_cell_length_b 9.987715
_cell_length_c 9.092179
_cell_angle_alpha 90.000000
_cell_angle_beta 128.076821
_cell_angle_gamma 90.000000
_cell_volume 1885.144477
_symmetry_space_group_name_H-M "C 2/C"
_symmetry_group_IT_number 15
_symmetry_cell_setting 'monoclinic'
loop_
_space_group_symop_operation_xyz
x,y,z
-x,y,1/2-z
-x,-y,-z
x,-y,1/2+z
1/2+x,1/2+y,z
1/2-x,1/2+y,1/2-z
1/2-x,1/2-y,-z
1/2+x,1/2-y,1/2+z
loop_
_atom_site_type_symbol
_atom_site_label
_atom_site_fract_x
_atom_site_fract_y
_atom_site_fract_z
Si Si1 0.077337 0.446633 0.138811
Si Si2 0.374670 0.715594 0.096697
Si Si3 0.000000 0.339294 0.250000
Si Si4 0.375716 0.850466 0.567947
Si Si5 0.227075 0.888328 0.280814
Si Si6 0.159887 0.930446 0.455469
O O1 0.126291 0.324605 0.274374
O O2 0.076597 0.431188 0.960054
O O3 0.109865 0.585304 0.247311
O O4 0.009105 0.423765 0.109774
O O5 0.310981 0.727033 0.880393
O O6 0.380127 0.562291 0.168381
O O7 0.437855 0.747144 0.110450
O O8 0.389350 0.691116 0.595487
O O9 0.302272 0.872790 0.389471
O O10 0.203127 0.032462 0.175327
O O11 0.208910 0.877174 0.419102
#
# Coordination Sequence:
#
# PCOD8145141 Si02
#       6
#     8   8   4   8   8   8
#     4  10  24  41  63  90 127 172 203 263 311 371
#     4   8  21  40  65  80 126 163 207 260 306 361
#     4   8  20  46  62  86 126 172 212 256 312 368
#     4  12  24  37  64  98 127 164 215 251 328 374
#     4  10  22  37  64  91 135 157 205 264 316 374
#     4  10  22  38  62  94 123 165 212 250 319 373
#
# _framework density 23.340385999999999
#
# number of rings (size 3 to 8) (size 9 to 14) (size 15 to 20)
#    2.182    0.000    0.000    2.727    5.091    1.455 
#    0.000    4.545    0.000    0.000    0.000    0.000 
#    0.000    0.000    0.000    0.000    0.000    0.000 
#
# Total GULP energy -272574.405645 kJ/mol
# GULP energy per Si atom -12389.745711 kJ/mol
# Density = 2.328726 g / cm^3
# Si number density = 23.340386 Si / 1000 Ang^3
#
#
#
# Elastic Constant Matrix: (Units=GPa)
#
#
# Indices 1 2 3 4 5 6 
#
# 1 87.0797 -0.6285 6.3479 0.0000 -17.1520 0.0000
# 2 -0.6285 99.4063 -5.0393 0.0000 -5.9943 0.0000
# 3 6.3479 -5.0393 45.6235 0.0000 -15.6046 0.0000
# 4 0.0000 0.0000 0.0000 17.4548 0.0000 -9.1139
# 5 -17.1520 -5.9943 -15.6046 0.0000 31.9178 0.0000
# 6 0.0000 0.0000 0.0000 -9.1139 0.0000 31.0241
#
#
#
# Elastic Compliance Matrix: (Units=1/GPa)
#
#
# Indices 1 2 3 4 5 6 
#
# 1 0.012893 0.000571 0.000811 0.000000 0.007432 0.000000
# 2 0.000571 0.010376 0.002207 0.000000 0.003335 0.000000
# 3 0.000811 0.002207 0.026826 0.000000 0.013966 0.000000
# 4 0.000000 0.000000 0.000000 0.067671 0.000000 0.019880
# 5 0.007432 0.003335 0.013966 0.000000 0.042778 0.000000
# 6 0.000000 0.000000 0.000000 0.019880 0.000000 0.038073
#
#
# Mechanical properties :
#
#
# Convention : Reuss Voigt Hill
#
# Bulk Modulus (GPa) = 17.46010 25.94109 21.70059
# Shear Modulus (GPa) = 23.74958 31.50797 27.62878
#
# Velocity S-wave (km/s) = 3.19334 3.67813 3.44427
# Velocity P-wave (km/s) = 4.59276 5.40153 5.01348
#
# Compressibility (1/GPa) = 0.05727345
#
# Stress axis : x y z
#
# Youngs Moduli (GPa) = 77.56385 96.37348 37.27704
#
# Poissons Ratio (x) = -0.05501 -0.03024
# Poissons Ratio (y) = -0.04427 -0.08228
# Poissons Ratio (z) = -0.06292 -0.21272
#
# Static dielectric constant tensor:
#      x y z
#    x 3.959070 0.000000 -0.053430 
#    y 0.000000 4.273720 0.000000 
#    z -0.053430 0.000000 3.891140 
# 
# 
# High freq. dielectric constant tensor:
#      x y z
#    x 1.913290 0.000000 -0.007400 
#    y 0.000000 1.930460 0.000000 
#    z -0.007400 0.000000 1.916120 
# 
# From -- ./inp_files/60712.got.cif
#   From: 2010.06.25/outbox.cif.g09.slc.cpg/sg15_31_cif.got.tgz:60712.got - 2010.06.28 07:06:18.
