data_PCOD8145996
_publ_section_title
;
Structure prediction by ZEFSAII (Michael W. Deem and Ramdas Pophale) SiO2 
 PCOD8145996
Probable space group: C 2/C
;
_chemical_formula_sum "Si O2"
_cell_formula_units_Z 40
_cell_length_a 11.874448
_cell_length_b 7.128460
_cell_length_c 24.583784
_cell_angle_alpha 90.000000
_cell_angle_beta 67.431091
_cell_angle_gamma 90.000000
_cell_volume 1921.571300
_symmetry_space_group_name_H-M "C 2/C"
_symmetry_group_IT_number 15
_symmetry_cell_setting 'monoclinic'
loop_
_space_group_symop_operation_xyz
x,y,z
-x,y,1/2-z
-x,-y,-z
x,-y,1/2+z
1/2+x,1/2+y,z
1/2-x,1/2+y,1/2-z
1/2-x,1/2-y,-z
1/2+x,1/2-y,1/2+z
loop_
_atom_site_type_symbol
_atom_site_label
_atom_site_fract_x
_atom_site_fract_y
_atom_site_fract_z
Si Si1 0.004177 0.967548 0.581129
Si Si2 0.694947 0.640481 0.130903
Si Si3 0.253399 0.499105 0.675972
Si Si4 0.559499 0.803695 0.975159
Si Si5 0.140759 0.874762 0.231177
O O1 0.076271 0.944351 0.623795
O O2 0.064299 0.824420 0.527684
O O3 0.861852 0.918573 0.617578
O O4 0.012324 0.183898 0.558016
O O5 0.672664 0.850328 0.157682
O O6 0.805723 0.643514 0.068505
O O7 0.722552 0.506422 0.177086
O O8 0.160259 0.339757 0.710659
O O9 0.317003 0.599739 0.715103
O O10 0.500000 0.000000 0.000000
O O11 0.000000 0.929295 0.250000
#
# Coordination Sequence:
#
# PCOD8145996 Si02
#       5
#     8   8   8   8   8
#     4  10  22  41  63  91 131 163 211 268 312 377
#     4  11  23  41  65  93 128 170 212 262 320 378
#     4  11  24  41  62  91 128 167 213 265 318 378
#     4  10  22  40  64  95 128 166 212 260 317 380
#     4  12  24  40  63  91 125 169 214 263 321 380
#
# _framework density 20.816299000000001
#
# number of rings (size 3 to 8) (size 9 to 14) (size 15 to 20)
#    0.000    1.200    4.000    1.800    0.000    4.800 
#    0.000    0.000    0.000    0.000    0.000    0.000 
#    0.000    0.000    0.000    0.000    0.000    0.000 
#
# Total GULP energy -248027.222571 kJ/mol
# GULP energy per Si atom -12401.361129 kJ/mol
# Density = 2.076892 g / cm^3
# Si number density = 20.816299 Si / 1000 Ang^3
#
#
#
# Elastic Constant Matrix: (Units=GPa)
#
#
# Indices 1 2 3 4 5 6 
#
# 1 63.6589 31.7708 21.7980 0.0000 8.0408 0.0000
# 2 31.7708 118.3380 35.6836 0.0000 -11.9928 0.0000
# 3 21.7980 35.6836 96.0033 0.0000 -3.8172 0.0000
# 4 0.0000 0.0000 0.0000 48.9968 0.0000 -1.4972
# 5 8.0408 -11.9928 -3.8172 0.0000 23.9867 0.0000
# 6 0.0000 0.0000 0.0000 -1.4972 0.0000 27.0460
#
#
#
# Elastic Compliance Matrix: (Units=1/GPa)
#
#
# Indices 1 2 3 4 5 6 
#
# 1 0.020929 -0.005758 -0.003024 0.000000 -0.010376 0.000000
# 2 -0.005758 0.011546 -0.002695 0.000000 0.007274 0.000000
# 3 -0.003024 -0.002695 0.012168 0.000000 0.001603 0.000000
# 4 0.000000 0.000000 0.000000 0.020444 0.000000 0.001132
# 5 -0.010376 0.007274 0.001603 0.000000 0.049060 0.000000
# 6 0.000000 0.000000 0.000000 0.001132 0.000000 0.037037
#
#
# Mechanical properties :
#
#
# Convention : Reuss Voigt Hill
#
# Bulk Modulus (GPa) = 46.10791 50.72277 48.41534
# Shear Modulus (GPa) = 27.56813 32.58908 30.07861
#
# Velocity S-wave (km/s) = 3.64311 3.96100 3.80538
# Velocity P-wave (km/s) = 6.31620 6.73343 6.52815
#
# Compressibility (1/GPa) = 0.02168825
#
# Stress axis : x y z
#
# Youngs Moduli (GPa) = 47.78104 86.60853 82.18034
#
# Poissons Ratio (x) = 0.49874 0.24853
# Poissons Ratio (y) = 0.27515 0.22147
# Poissons Ratio (z) = 0.14450 0.23340
#
# Static dielectric constant tensor:
#      x y z
#    x 3.441780 0.000000 -0.044980 
#    y 0.000000 3.812670 0.000000 
#    z -0.044980 0.000000 4.079700 
# 
# 
# High freq. dielectric constant tensor:
#      x y z
#    x 1.791100 0.000000 -0.004320 
#    y 0.000000 1.821150 0.000000 
#    z -0.004320 0.000000 1.841400 
# 
# From -- ./inp_files/271822.got.cif
#   From: 2010.06.25/outbox.cif.g09.slc.cpg/sg15_136_cif.got.tgz:271822.got - 2010.06.28 07:06:18.
