data_PCOD8145612
_publ_section_title
;
Structure prediction by ZEFSAII (Michael W. Deem and Ramdas Pophale) SiO2 
 PCOD8145612
Probable space group: C 2/C
;
_chemical_formula_sum "Si O2"
_cell_formula_units_Z 48
_cell_length_a 13.613967
_cell_length_b 15.467063
_cell_length_c 12.944690
_cell_angle_alpha 90.000000
_cell_angle_beta 58.274343
_cell_angle_gamma 90.000000
_cell_volume 2318.447057
_symmetry_space_group_name_H-M "C 2/C"
_symmetry_group_IT_number 15
_symmetry_cell_setting 'monoclinic'
loop_
_space_group_symop_operation_xyz
x,y,z
-x,y,1/2-z
-x,-y,-z
x,-y,1/2+z
1/2+x,1/2+y,z
1/2-x,1/2+y,1/2-z
1/2-x,1/2-y,-z
1/2+x,1/2-y,1/2+z
loop_
_atom_site_type_symbol
_atom_site_label
_atom_site_fract_x
_atom_site_fract_y
_atom_site_fract_z
Si Si1 0.129906 0.755889 0.700450
Si Si2 0.403331 0.392439 0.511088
Si Si3 0.576628 0.202265 0.951795
Si Si4 0.721577 0.047735 0.951795
Si Si5 0.419644 0.494111 0.700450
Si Si6 0.335581 0.857561 0.511089
O O1 0.139996 0.713335 0.807176
O O2 0.215852 0.837618 0.638195
O O3 0.169889 0.680854 0.600544
O O4 0.000000 0.788034 0.750000
O O5 0.407731 0.289786 0.491313
O O6 0.293241 0.433243 0.515633
O O7 0.395952 0.412382 0.638195
O O8 0.520433 0.430854 0.399456
O O9 0.632991 0.125000 0.984017
O O10 0.441126 0.183243 0.015633
O O11 0.802828 0.036665 0.807176
O O12 0.649043 0.960214 0.008687
O O13 0.500000 0.461966 0.750000
#
# Coordination Sequence:
#
# PCOD8145612 Si02
#       6
#     8   8   8   8   8   8
#     4   9  21  39  64  91 119 158 217 262 312 360
#     4  10  22  39  63  90 125 167 209 269 308 368
#     4  11  23  38  61  89 130 165 210 250 323 384
#     4  11  23  38  61  89 130 165 210 250 323 384
#     4   9  21  39  64  91 119 158 217 262 312 360
#     4  10  22  39  63  90 125 167 209 269 308 368
#
# _framework density 20.703513000000001
#
# number of rings (size 3 to 8) (size 9 to 14) (size 15 to 20)
#    0.000    2.000    0.000    2.000    4.667   14.667 
#    0.000    0.000    0.000    0.000    0.000    0.000 
#    0.000    0.000    0.000    0.000    0.000    0.000 
#
# Total GULP energy -297730.107355 kJ/mol
# GULP energy per Si atom -12405.421140 kJ/mol
# Density = 2.065639 g / cm^3
# Si number density = 20.703513 Si / 1000 Ang^3
#
#
#
# Elastic Constant Matrix: (Units=GPa)
#
#
# Indices 1 2 3 4 5 6 
#
# 1 75.2447 40.1944 36.3961 0.0000 0.0000 0.0000
# 2 40.1944 153.4431 27.7936 0.0000 -0.0002 0.0000
# 3 36.3961 27.7936 78.3420 0.0000 0.0001 0.0000
# 4 0.0000 0.0000 0.0000 19.7434 0.0000 0.0001
# 5 0.0000 -0.0002 0.0001 0.0000 31.3457 0.0000
# 6 0.0000 0.0000 0.0000 0.0001 0.0000 40.7856
#
#
#
# Elastic Compliance Matrix: (Units=1/GPa)
#
#
# Indices 1 2 3 4 5 6 
#
# 1 0.018814 -0.003575 -0.007472 0.000000 0.000000 0.000000
# 2 -0.003575 0.007644 -0.001051 0.000000 0.000000 0.000000
# 3 -0.007472 -0.001051 0.016609 0.000000 0.000000 0.000000
# 4 0.000000 0.000000 0.000000 0.050650 0.000000 0.000000
# 5 0.000000 0.000000 0.000000 0.000000 0.031902 0.000000
# 6 0.000000 0.000000 0.000000 0.000000 0.000000 0.024518
#
#
# Mechanical properties :
#
#
# Convention : Reuss Voigt Hill
#
# Bulk Modulus (GPa) = 52.99319 57.31089 55.15204
# Shear Modulus (GPa) = 27.68186 31.88468 29.78327
#
# Velocity S-wave (km/s) = 3.66055 3.92862 3.79695
# Velocity P-wave (km/s) = 6.59682 6.95130 6.77638
#
# Compressibility (1/GPa) = 0.01887035
#
# Stress axis : x y z
#
# Youngs Moduli (GPa) = 53.15197 130.82363 60.20864
#
# Poissons Ratio (x) = 0.46767 0.44990
# Poissons Ratio (y) = 0.19001 0.06328
# Poissons Ratio (z) = 0.39717 0.13750
#
# Static dielectric constant tensor:
#      x y z
#    x 3.632010 0.000000 0.000010 
#    y 0.000000 3.702360 0.000000 
#    z 0.000010 0.000000 3.756240 
# 
# 
# High freq. dielectric constant tensor:
#      x y z
#    x 1.803780 0.000000 0.000000 
#    y 0.000000 1.820120 0.000000 
#    z 0.000000 0.000000 1.808920 
# 
# From -- ./inp_files/153278.got.cif
#   From: 2010.06.25/outbox.cif.g09.slc.cpg/sg15_77_cif.got.tgz:153278.got - 2010.06.28 07:06:18.
