data_PCOD8145219
_publ_section_title
;
Structure prediction by ZEFSAII (Michael W. Deem and Ramdas Pophale) SiO2 
 PCOD8145219
Probable space group: C 2/C
;
_chemical_formula_sum "Si O2"
_cell_formula_units_Z 64
_cell_length_a 18.822110
_cell_length_b 17.059338
_cell_length_c 15.019551
_cell_angle_alpha 90.000000
_cell_angle_beta 139.333543
_cell_angle_gamma 90.000000
_cell_volume 3142.713554
_symmetry_space_group_name_H-M "C 2/C"
_symmetry_group_IT_number 15
_symmetry_cell_setting 'monoclinic'
loop_
_space_group_symop_operation_xyz
x,y,z
-x,y,1/2-z
-x,-y,-z
x,-y,1/2+z
1/2+x,1/2+y,z
1/2-x,1/2+y,1/2-z
1/2-x,1/2-y,-z
1/2+x,1/2-y,1/2+z
loop_
_atom_site_type_symbol
_atom_site_label
_atom_site_fract_x
_atom_site_fract_y
_atom_site_fract_z
Si Si1 0.637275 0.059117 0.293738
Si Si2 0.740668 0.786814 0.361276
Si Si3 0.597424 0.995027 0.442806
Si Si4 0.893460 0.678293 0.604395
Si Si5 0.123916 0.141935 0.655482
Si Si6 0.718729 0.230196 0.370057
Si Si7 0.771781 0.014518 0.257908
Si Si8 0.121250 0.177747 0.125787
O O1 0.658157 0.031558 0.414710
O O2 0.516078 0.038182 0.146169
O O3 0.643270 0.153335 0.294141
O O4 0.726969 0.016133 0.316873
O O5 0.844534 0.731041 0.479550
O O6 0.700880 0.832073 0.410920
O O7 0.783936 0.848356 0.331851
O O8 0.639551 0.738858 0.223227
O O9 0.570413 0.904393 0.400784
O O10 0.670992 0.005249 0.598559
O O11 0.000000 0.718250 0.750000
O O12 0.153436 0.194956 0.769064
O O13 0.005255 0.164751 0.509874
O O14 0.133584 0.048273 0.677576
O O15 0.750000 0.250000 0.500000
O O16 0.826794 0.211760 0.415568
O O17 0.822797 0.098614 0.286096
#
# Coordination Sequence:
#
# PCOD8145219 Si02
#       8
#     8   8   8   8   8   8   8   8
#     4  10  22  38  61  92 122 156 200 255 309 369
#     4  10  22  38  59  88 124 155 192 248 296 372
#     4  11  21  37  62  91 120 158 198 254 310 366
#     4  11  20  36  62  89 124 155 193 242 306 358
#     4  11  23  38  62  85 115 163 202 242 303 361
#     4  10  23  42  61  88 124 156 204 258 307 363
#     4  11  22  40  60  85 121 161 205 254 300 364
#     4  10  22  41  60  86 120 158 201 250 300 364
#
# _framework density 20.364567999999998
#
# number of rings (size 3 to 8) (size 9 to 14) (size 15 to 20)
#    0.000    1.500    2.500    3.000    0.000    4.500 
#    0.000    0.000    0.000    1.500    0.000    0.000 
#    0.000    0.000    0.000    0.000    0.000    0.000 
#
# Total GULP energy -396778.500594 kJ/mol
# GULP energy per Si atom -12399.328144 kJ/mol
# Density = 2.031822 g / cm^3
# Si number density = 20.364568 Si / 1000 Ang^3
#
#
#
# Elastic Constant Matrix: (Units=GPa)
#
#
# Indices 1 2 3 4 5 6 
#
# 1 45.8353 16.2259 14.5928 0.0000 -1.2477 0.0000
# 2 16.2259 80.6595 18.9228 0.0000 2.8468 0.0000
# 3 14.5928 18.9228 102.5119 0.0000 6.7365 0.0000
# 4 0.0000 0.0000 0.0000 26.9672 0.0000 2.9875
# 5 -1.2477 2.8468 6.7365 0.0000 33.3891 0.0000
# 6 0.0000 0.0000 0.0000 2.9875 0.0000 24.3241
#
#
#
# Elastic Compliance Matrix: (Units=1/GPa)
#
#
# Indices 1 2 3 4 5 6 
#
# 1 0.024274 -0.004295 -0.002783 0.000000 0.001835 0.000000
# 2 -0.004295 0.013732 -0.001861 0.000000 -0.000956 0.000000
# 3 -0.002783 -0.001861 0.010632 0.000000 -0.002090 0.000000
# 4 0.000000 0.000000 0.000000 0.037594 0.000000 -0.004617
# 5 0.001835 -0.000956 -0.002090 0.000000 0.030522 0.000000
# 6 0.000000 0.000000 0.000000 -0.004617 0.000000 0.041679
#
#
# Mechanical properties :
#
#
# Convention : Reuss Voigt Hill
#
# Bulk Modulus (GPa) = 32.50936 36.49887 34.50411
# Shear Modulus (GPa) = 26.80068 28.88709 27.84388
#
# Velocity S-wave (km/s) = 3.63167 3.77038 3.70167
# Velocity P-wave (km/s) = 5.79514 6.07585 5.93716
#
# Compressibility (1/GPa) = 0.03076037
#
# Stress axis : x y z
#
# Youngs Moduli (GPa) = 41.19683 72.82250 94.05582
#
# Poissons Ratio (x) = 0.31276 0.26178
# Poissons Ratio (y) = 0.17693 0.17500
# Poissons Ratio (z) = 0.11466 0.13549
#
# Static dielectric constant tensor:
#      x y z
#    x 3.615360 0.000000 -0.106530 
#    y 0.000000 3.787870 0.000000 
#    z -0.106530 0.000000 3.698100 
# 
# 
# High freq. dielectric constant tensor:
#      x y z
#    x 1.792870 0.000000 -0.006060 
#    y 0.000000 1.802570 0.000000 
#    z -0.006060 0.000000 1.796400 
# 
# From -- ./inp_files/163268.got.cif
#   From: 2010.06.25/outbox.cif.g09.slc.cpg/sg15_82_cif.got.tgz:163268.got - 2010.06.28 07:06:18.
