data_PCOD8145047
_publ_section_title
;
Structure prediction by ZEFSAII (Michael W. Deem and Ramdas Pophale) SiO2 
 PCOD8145047
Probable space group: C 2/C
;
_chemical_formula_sum "Si O2"
_cell_formula_units_Z 36
_cell_length_a 7.509706
_cell_length_b 14.115627
_cell_length_c 23.555505
_cell_angle_alpha 90.000000
_cell_angle_beta 142.444234
_cell_angle_gamma 90.000000
_cell_volume 1521.994116
_symmetry_space_group_name_H-M "C 2/C"
_symmetry_group_IT_number 15
_symmetry_cell_setting 'monoclinic'
loop_
_space_group_symop_operation_xyz
x,y,z
-x,y,1/2-z
-x,-y,-z
x,-y,1/2+z
1/2+x,1/2+y,z
1/2-x,1/2+y,1/2-z
1/2-x,1/2-y,-z
1/2+x,1/2-y,1/2+z
loop_
_atom_site_type_symbol
_atom_site_label
_atom_site_fract_x
_atom_site_fract_y
_atom_site_fract_z
Si Si1 0.316856 0.035732 0.541614
Si Si2 0.738988 0.615978 0.936221
Si Si3 0.000000 0.358304 0.750000
Si Si4 0.548703 0.706186 0.053023
Si Si5 0.792892 0.010399 0.749247
O O1 0.492062 0.079834 0.533663
O O2 0.017862 0.095416 0.478913
O O3 0.236962 0.929791 0.498857
O O4 0.490097 0.043806 0.644536
O O5 0.805835 0.728975 0.959988
O O6 0.438690 0.591101 0.826070
O O7 0.202622 0.288426 0.836634
O O8 0.225515 0.419951 0.770280
O O9 0.250000 0.750000 0.000000
O O10 0.000000 0.977796 0.750000
#
# Coordination Sequence:
#
# PCOD8145047 Si02
#       5
#     8   8   4   8   8
#     4   9  18  37  63  91 130 180 222 279 357 412
#     4   9  18  37  62  95 130 175 229 280 348 423
#     4  12  24  42  68 102 130 182 238 286 354 432
#     4  10  22  36  66  97 136 176 233 292 344 425
#     4  10  22  40  69  93 134 185 226 289 359 419
#
# _framework density 23.653179000000002
#
# number of rings (size 3 to 8) (size 9 to 14) (size 15 to 20)
#    0.000    2.222    2.222    0.000   10.889    0.889 
#    0.000    1.111    2.444    0.000    0.000    0.000 
#    0.000    0.000    0.000    0.000    0.000    0.000 
#
# Total GULP energy -222992.322659 kJ/mol
# GULP energy per Si atom -12388.462370 kJ/mol
# Density = 2.359934 g / cm^3
# Si number density = 23.653179 Si / 1000 Ang^3
#
#
#
# Elastic Constant Matrix: (Units=GPa)
#
#
# Indices 1 2 3 4 5 6 
#
# 1 68.3782 23.9684 28.4187 0.0000 1.4486 0.0000
# 2 23.9684 148.4219 59.3500 -0.0001 2.9379 -0.0001
# 3 28.4187 59.3500 159.7434 -0.0006 12.1297 -0.0007
# 4 0.0000 -0.0001 -0.0006 41.6273 -0.0005 15.5585
# 5 1.4486 2.9379 12.1297 -0.0005 19.2099 -0.0006
# 6 0.0000 -0.0001 -0.0007 15.5585 -0.0006 28.0024
#
#
#
# Elastic Compliance Matrix: (Units=1/GPa)
#
#
# Indices 1 2 3 4 5 6 
#
# 1 0.016159 -0.001709 -0.002276 0.000000 0.000480 0.000000
# 2 -0.001709 0.008102 -0.002754 0.000000 0.000629 0.000000
# 3 -0.002276 -0.002754 0.008028 0.000000 -0.004476 0.000000
# 4 0.000000 0.000000 0.000000 0.030319 0.000000 -0.016846
# 5 0.000480 0.000629 -0.004476 0.000000 0.054751 0.000001
# 6 0.000000 0.000000 0.000000 -0.016846 0.000001 0.045071
#
#
# Mechanical properties :
#
#
# Convention : Reuss Voigt Hill
#
# Bulk Modulus (GPa) = 53.15903 66.66862 59.91382
# Shear Modulus (GPa) = 27.44551 35.42168 31.43359
#
# Velocity S-wave (km/s) = 3.41006 3.87401 3.64941
# Velocity P-wave (km/s) = 6.16667 6.94678 6.56831
#
# Compressibility (1/GPa) = 0.01881148
#
# Stress axis : x y z
#
# Youngs Moduli (GPa) = 61.88336 123.42148 124.56210
#
# Poissons Ratio (x) = 0.21090 0.28355
# Poissons Ratio (y) = 0.10575 0.34305
# Poissons Ratio (z) = 0.14087 0.33991
#
# Static dielectric constant tensor:
#      x y z
#    x 4.311230 0.000000 0.510590 
#    y 0.000000 5.105950 -0.000020 
#    z 0.510590 -0.000020 5.604280 
# 
# 
# High freq. dielectric constant tensor:
#      x y z
#    x 1.933770 0.000000 0.005600 
#    y 0.000000 1.930210 0.000000 
#    z 0.005600 0.000000 1.945930 
# 
# From -- ./inp_files/132670.got.cif
#   From: 2010.06.25/outbox.cif.g09.slc.cpg/sg15_67_cif.got.tgz:132670.got - 2010.06.28 07:06:18.
