data_PCOD8145036
_publ_section_title
;
Structure prediction by ZEFSAII (Michael W. Deem and Ramdas Pophale) SiO2 
 PCOD8145036
Probable space group: C 2/C
;
_chemical_formula_sum "Si O2"
_cell_formula_units_Z 52
_cell_length_a 26.177512
_cell_length_b 8.794187
_cell_length_c 13.799692
_cell_angle_alpha 90.000000
_cell_angle_beta 132.076797
_cell_angle_gamma 90.000000
_cell_volume 2357.990618
_symmetry_space_group_name_H-M "C 2/C"
_symmetry_group_IT_number 15
_symmetry_cell_setting 'monoclinic'
loop_
_space_group_symop_operation_xyz
x,y,z
-x,y,1/2-z
-x,-y,-z
x,-y,1/2+z
1/2+x,1/2+y,z
1/2-x,1/2+y,1/2-z
1/2-x,1/2-y,-z
1/2+x,1/2-y,1/2+z
loop_
_atom_site_type_symbol
_atom_site_label
_atom_site_fract_x
_atom_site_fract_y
_atom_site_fract_z
Si Si1 0.314793 0.630306 0.787688
Si Si2 0.572981 0.544755 0.979061
Si Si3 0.514327 0.274064 0.583792
Si Si4 0.912317 0.653647 0.314918
Si Si5 0.763199 0.354545 0.876840
Si Si6 0.000000 0.749896 0.250000
Si Si7 0.648300 0.146152 0.824663
O O1 0.369448 0.688360 0.775663
O O2 0.255404 0.532143 0.661151
O O3 0.287461 0.779300 0.807652
O O4 0.348981 0.513449 0.908837
O O5 0.526372 0.396379 0.905619
O O6 0.562297 0.647780 0.871335
O O7 0.553194 0.643440 0.046284
O O8 0.462761 0.144828 0.473505
O O9 0.569834 0.203243 0.726942
O O10 0.856751 0.517464 0.235972
O O11 0.960921 0.652030 0.281560
O O12 0.697953 0.258006 0.829293
O O13 0.825568 0.361140 0.032256
#
# Coordination Sequence:
#
# PCOD8145036 Si02
#       7
#     8   8   8   8   8   4   8
#     4  11  23  45  62  95 129 175 211 261 321 386
#     4   9  19  35  65  91 123 164 209 261 320 377
#     4   9  18  39  65  92 123 163 204 268 328 368
#     4  10  23  43  67  93 132 165 211 271 332 366
#     4  11  26  40  69  93 129 177 218 252 322 371
#     4  10  22  36  64 102 120 172 208 260 336 378
#     4  11  23  43  63  97 130 165 219 270 299 394
#
# _framework density 22.052675000000001
#
# number of rings (size 3 to 8) (size 9 to 14) (size 15 to 20)
#    0.000    1.846    1.538    2.308    2.154    3.077 
#   11.077    0.000    0.000    0.000    0.000    0.000 
#    0.000    0.000    0.000    0.000    0.000    0.000 
#
# Total GULP energy -322258.841597 kJ/mol
# GULP energy per Si atom -12394.570831 kJ/mol
# Density = 2.200248 g / cm^3
# Si number density = 22.052675 Si / 1000 Ang^3
#
#
#
# Elastic Constant Matrix: (Units=GPa)
#
#
# Indices 1 2 3 4 5 6 
#
# 1 60.2873 15.5407 29.1213 0.0000 2.3464 0.0000
# 2 15.5407 98.7766 53.9420 0.0000 6.6362 0.0000
# 3 29.1213 53.9420 136.3983 0.0000 8.4065 0.0000
# 4 0.0000 0.0000 0.0000 41.6366 0.0000 9.4533
# 5 2.3464 6.6362 8.4065 0.0000 12.1494 0.0000
# 6 0.0000 0.0000 0.0000 9.4533 0.0000 26.9741
#
#
#
# Elastic Compliance Matrix: (Units=1/GPa)
#
#
# Indices 1 2 3 4 5 6 
#
# 1 0.018571 -0.000939 -0.003556 0.000000 -0.000613 0.000000
# 2 -0.000939 0.013119 -0.004760 0.000000 -0.003691 0.000000
# 3 -0.003556 -0.004760 0.010206 0.000000 -0.003775 0.000000
# 4 0.000000 0.000000 0.000000 0.026094 0.000000 -0.009145
# 5 -0.000613 -0.003691 -0.003775 0.000000 0.087055 0.000000
# 6 0.000000 0.000000 0.000000 -0.009145 0.000000 0.040278
#
#
# Mechanical properties :
#
#
# Convention : Reuss Voigt Hill
#
# Bulk Modulus (GPa) = 42.76084 54.74111 48.75098
# Shear Modulus (GPa) = 22.56041 29.27589 25.91815
#
# Velocity S-wave (km/s) = 3.20194 3.64750 3.43196
# Velocity P-wave (km/s) = 5.75346 6.52808 6.15297
#
# Compressibility (1/GPa) = 0.02338588
#
# Stress axis : x y z
#
# Youngs Moduli (GPa) = 53.84827 76.22444 97.98233
#
# Poissons Ratio (x) = 0.07155 0.34841
# Poissons Ratio (y) = 0.05055 0.46644
# Poissons Ratio (z) = 0.19148 0.36286
#
# Static dielectric constant tensor:
#      x y z
#    x 3.618600 0.000000 0.173620 
#    y 0.000000 3.959760 0.000000 
#    z 0.173620 0.000000 4.127990 
# 
# 
# High freq. dielectric constant tensor:
#      x y z
#    x 1.843070 0.000000 0.010390 
#    y 0.000000 1.868820 0.000000 
#    z 0.010390 0.000000 1.873650 
# 
# From -- ./inp_files/171360.got.cif
#   From: 2010.06.25/outbox.cif.g09.slc.cpg/sg15_86_cif.got.tgz:171360.got - 2010.06.28 07:06:18.
