data_PCOD8145412
_publ_section_title
;
Structure prediction by ZEFSAII (Michael W. Deem and Ramdas Pophale) SiO2 
 PCOD8145412
Probable space group: C 2/C
;
_chemical_formula_sum "Si O2"
_cell_formula_units_Z 40
_cell_length_a 20.389766
_cell_length_b 11.608322
_cell_length_c 11.685529
_cell_angle_alpha 90.000000
_cell_angle_beta 41.209109
_cell_angle_gamma 90.000000
_cell_volume 1822.173124
_symmetry_space_group_name_H-M "C 2/C"
_symmetry_group_IT_number 15
_symmetry_cell_setting 'monoclinic'
loop_
_space_group_symop_operation_xyz
x,y,z
-x,y,1/2-z
-x,-y,-z
x,-y,1/2+z
1/2+x,1/2+y,z
1/2-x,1/2+y,1/2-z
1/2-x,1/2-y,-z
1/2+x,1/2-y,1/2+z
loop_
_atom_site_type_symbol
_atom_site_label
_atom_site_fract_x
_atom_site_fract_y
_atom_site_fract_z
Si Si1 0.161158 0.842435 0.097330
Si Si2 0.137824 0.307496 0.049670
Si Si3 0.952074 0.823866 0.487535
Si Si4 0.480470 0.883683 0.091390
Si Si5 0.340627 0.404964 0.832029
O O1 0.068048 0.822445 0.302985
O O2 0.198503 0.972044 0.072869
O O3 0.250000 0.750000 0.000000
O O4 0.122309 0.841503 0.019496
O O5 0.092245 0.396246 0.203975
O O6 0.121966 0.174461 0.110852
O O7 0.083956 0.326520 0.999217
O O8 0.252669 0.336874 0.882906
O O9 0.927259 0.698292 0.569930
O O10 0.927763 0.916056 0.621433
O O11 0.500000 0.000000 0.000000
#
# Coordination Sequence:
#
# PCOD8145412 Si02
#       5
#     8   8   8   8   8
#     4  11  26  42  67  99 134 167 222 283 326 390
#     4   9  22  40  64  96 126 180 223 262 327 405
#     4  10  25  44  62  99 128 178 216 262 346 389
#     4  10  22  38  66  94 135 169 221 281 326 387
#     4  10  22  44  66  92 134 177 221 259 328 414
#
# _framework density 21.951810999999999
#
# number of rings (size 3 to 8) (size 9 to 14) (size 15 to 20)
#    0.000    2.000    0.000    0.600    8.400    9.600 
#    3.600    0.000    0.000    0.000    0.000    0.000 
#    0.000    0.000    0.000    0.000    0.000    0.000 
#
# Total GULP energy -247873.717245 kJ/mol
# GULP energy per Si atom -12393.685862 kJ/mol
# Density = 2.190185 g / cm^3
# Si number density = 21.951811 Si / 1000 Ang^3
#
#
#
# Elastic Constant Matrix: (Units=GPa)
#
#
# Indices 1 2 3 4 5 6 
#
# 1 109.0703 59.6717 42.4425 0.0000 -1.3790 0.0000
# 2 59.6717 147.6959 49.6794 0.0000 10.0341 0.0000
# 3 42.4425 49.6794 91.1945 0.0000 -2.1135 0.0000
# 4 0.0000 0.0000 0.0000 39.1414 0.0000 -1.6755
# 5 -1.3790 10.0341 -2.1135 0.0000 35.1103 0.0000
# 6 0.0000 0.0000 0.0000 -1.6755 0.0000 28.2921
#
#
#
# Elastic Compliance Matrix: (Units=1/GPa)
#
#
# Indices 1 2 3 4 5 6 
#
# 1 0.012850 -0.004026 -0.003754 0.000000 0.001429 0.000000
# 2 -0.004026 0.009804 -0.003541 0.000000 -0.003173 0.000000
# 3 -0.003754 -0.003541 0.014682 0.000000 0.001748 0.000000
# 4 0.000000 0.000000 0.000000 0.025613 0.000000 0.001517
# 5 0.001429 -0.003173 0.001748 0.000000 0.029550 0.000000
# 6 0.000000 0.000000 0.000000 0.001517 0.000000 0.035435
#
#
# Mechanical properties :
#
#
# Convention : Reuss Voigt Hill
#
# Bulk Modulus (GPa) = 68.05294 72.39423 70.22359
# Shear Modulus (GPa) = 32.15982 33.58655 32.87319
#
# Velocity S-wave (km/s) = 3.83171 3.91578 3.87397
# Velocity P-wave (km/s) = 7.11648 7.31401 7.21592
#
# Compressibility (1/GPa) = 0.01469444
#
# Stress axis : x y z
#
# Youngs Moduli (GPa) = 77.82175 102.00247 68.11042
#
# Poissons Ratio (x) = 0.41065 0.25569
# Poissons Ratio (y) = 0.31330 0.24115
# Poissons Ratio (z) = 0.29215 0.36114
#
# Static dielectric constant tensor:
#      x y z
#    x 4.008030 0.000000 -0.085290 
#    y 0.000000 3.841990 0.000000 
#    z -0.085290 0.000000 4.092460 
# 
# 
# High freq. dielectric constant tensor:
#      x y z
#    x 1.863110 0.000000 -0.000890 
#    y 0.000000 1.852790 0.000000 
#    z -0.000890 0.000000 1.873640 
# 
# From -- ./inp_files/103580.got.cif
#   From: 2010.06.25/outbox.cif.g09.slc.cpg/sg15_52_cif.got.tgz:103580.got - 2010.06.28 07:06:18.
