data_PCOD8145498
_publ_section_title
;
Structure prediction by ZEFSAII (Michael W. Deem and Ramdas Pophale) SiO2 
 PCOD8145498
Probable space group: C 2/C
;
_chemical_formula_sum "Si O2"
_cell_formula_units_Z 64
_cell_length_a 25.610401
_cell_length_b 8.164275
_cell_length_c 14.969258
_cell_angle_alpha 90.000000
_cell_angle_beta 75.714645
_cell_angle_gamma 90.000000
_cell_volume 3033.146485
_symmetry_space_group_name_H-M "C 2/C"
_symmetry_group_IT_number 15
_symmetry_cell_setting 'monoclinic'
loop_
_space_group_symop_operation_xyz
x,y,z
-x,y,1/2-z
-x,-y,-z
x,-y,1/2+z
1/2+x,1/2+y,z
1/2-x,1/2+y,1/2-z
1/2-x,1/2-y,-z
1/2+x,1/2-y,1/2+z
loop_
_atom_site_type_symbol
_atom_site_label
_atom_site_fract_x
_atom_site_fract_y
_atom_site_fract_z
Si Si1 0.453950 0.867338 0.998061
Si Si2 0.857653 0.374293 0.792763
Si Si3 0.547957 0.683560 0.670428
Si Si4 0.858073 0.575010 0.961227
Si Si5 0.686352 0.477914 0.202592
Si Si6 0.869027 0.058354 0.440359
Si Si7 0.806664 0.523500 0.649733
Si Si8 0.132352 0.842812 0.883649
O O1 0.477771 0.752471 0.910382
O O2 0.402375 0.952672 0.979053
O O3 0.427216 0.749217 0.087321
O O4 0.500000 0.000000 0.000000
O O5 0.919199 0.323478 0.788738
O O6 0.837458 0.507730 0.874504
O O7 0.820338 0.215463 0.808007
O O8 0.852488 0.458079 0.698438
O O9 0.500000 0.616647 0.750000
O O10 0.583997 0.526829 0.635522
O O11 0.884638 0.753673 0.947917
O O12 0.809949 0.573170 0.054060
O O13 0.682294 0.556196 0.104893
O O14 0.746806 0.505884 0.213960
O O15 0.641239 0.553973 0.288722
O O16 0.859659 0.966885 0.537313
O O17 0.818684 0.714794 0.629828
#
# Coordination Sequence:
#
# PCOD8145498 Si02
#       8
#     8   8   8   8   8   8   8   8
#     4   9  20  40  62  89 121 159 204 248 309 371
#     4  10  22  39  59  87 127 157 206 260 302 374
#     4   9  20  38  61  88 120 163 201 250 313 359
#     4  10  22  40  60  87 122 164 199 254 307 363
#     4  11  22  38  61  90 120 164 206 254 310 358
#     4  10  22  42  57  85 131 155 204 256 298 371
#     4  11  22  36  63  89 119 163 209 250 307 364
#     4  10  22  39  60  89 126 161 202 258 307 363
#
# _framework density 21.100200999999998
#
# number of rings (size 3 to 8) (size 9 to 14) (size 15 to 20)
#    0.000    2.000    0.000    4.500    3.500    3.500 
#    4.500    1.875    0.000    0.000    0.000    0.000 
#    0.000    0.000    0.000    0.000    0.000    0.000 
#
# Total GULP energy -396550.945270 kJ/mol
# GULP energy per Si atom -12392.217040 kJ/mol
# Density = 2.105218 g / cm^3
# Si number density = 21.100201 Si / 1000 Ang^3
#
#
#
# Elastic Constant Matrix: (Units=GPa)
#
#
# Indices 1 2 3 4 5 6 
#
# 1 61.3041 8.5227 27.9375 0.0000 -9.3603 0.0000
# 2 8.5227 109.1924 41.0064 0.0000 -4.0111 0.0000
# 3 27.9375 41.0064 112.5148 0.0000 -4.7569 0.0000
# 4 0.0000 0.0000 0.0000 36.0366 0.0000 4.2242
# 5 -9.3603 -4.0111 -4.7569 0.0000 30.1830 0.0000
# 6 0.0000 0.0000 0.0000 4.2242 0.0000 19.8285
#
#
#
# Elastic Compliance Matrix: (Units=1/GPa)
#
#
# Indices 1 2 3 4 5 6 
#
# 1 0.019201 0.000465 -0.004714 0.000000 0.005273 0.000000
# 2 0.000465 0.010641 -0.003954 0.000000 0.000935 0.000000
# 3 -0.004714 -0.003954 0.011492 0.000000 -0.000176 0.000000
# 4 0.000000 0.000000 0.000000 0.028460 0.000000 -0.006063
# 5 0.005273 0.000935 -0.000176 0.000000 0.034863 0.000000
# 6 0.000000 0.000000 0.000000 -0.006063 0.000000 0.051724
#
#
# Mechanical properties :
#
#
# Convention : Reuss Voigt Hill
#
# Bulk Modulus (GPa) = 40.11557 48.66049 44.38803
# Shear Modulus (GPa) = 27.60948 30.91260 29.26104
#
# Velocity S-wave (km/s) = 3.62124 3.83173 3.72797
# Velocity P-wave (km/s) = 6.04464 6.53360 6.29387
#
# Compressibility (1/GPa) = 0.02492798
#
# Stress axis : x y z
#
# Youngs Moduli (GPa) = 52.08055 93.97476 87.01729
#
# Poissons Ratio (x) = -0.04374 0.41023
# Poissons Ratio (y) = -0.02424 0.34409
# Poissons Ratio (z) = 0.24552 0.37160
#
# Static dielectric constant tensor:
#      x y z
#    x 3.544830 0.000000 0.112500 
#    y 0.000000 3.990170 0.000000 
#    z 0.112500 0.000000 4.143390 
# 
# 
# High freq. dielectric constant tensor:
#      x y z
#    x 1.799260 0.000000 0.004000 
#    y 0.000000 1.834870 0.000000 
#    z 0.004000 0.000000 1.835960 
# 
# From -- ./inp_files/176564.got.cif
#   From: 2010.06.25/outbox.cif.g09.slc.cpg/sg15_89_cif.got.tgz:176564.got - 2010.06.28 07:06:18.
