data_PCOD8145557
_publ_section_title
;
Structure prediction by ZEFSAII (Michael W. Deem and Ramdas Pophale) SiO2 
 PCOD8145557
Probable space group: C 2/C
;
_chemical_formula_sum "Si O2"
_cell_formula_units_Z 56
_cell_length_a 19.372972
_cell_length_b 9.387977
_cell_length_c 20.040994
_cell_angle_alpha 90.000000
_cell_angle_beta 48.515200
_cell_angle_gamma 90.000000
_cell_volume 2730.521331
_symmetry_space_group_name_H-M "C 2/C"
_symmetry_group_IT_number 15
_symmetry_cell_setting 'monoclinic'
loop_
_space_group_symop_operation_xyz
x,y,z
-x,y,1/2-z
-x,-y,-z
x,-y,1/2+z
1/2+x,1/2+y,z
1/2-x,1/2+y,1/2-z
1/2-x,1/2-y,-z
1/2+x,1/2-y,1/2+z
loop_
_atom_site_type_symbol
_atom_site_label
_atom_site_fract_x
_atom_site_fract_y
_atom_site_fract_z
Si Si1 0.821679 0.618424 0.957797
Si Si2 0.486162 0.780110 0.182558
Si Si3 0.016150 0.991856 0.887595
Si Si4 0.858165 0.090537 0.073873
Si Si5 0.763118 0.663554 0.560094
Si Si6 0.082059 0.783976 0.249260
Si Si7 0.163408 0.517058 0.700903
O O1 0.923372 0.669371 0.915899
O O2 0.827981 0.542031 0.883081
O O3 0.750000 0.750000 0.000000
O O4 0.795560 0.497896 0.028015
O O5 0.500000 0.820652 0.250000
O O6 0.479266 0.611285 0.179026
O O7 0.389389 0.857567 0.224620
O O8 0.058812 0.140436 0.834931
O O9 0.072352 0.907782 0.908718
O O10 0.910850 0.012651 0.979048
O O11 0.831956 0.248954 0.064971
O O12 0.768727 0.003391 0.157015
O O13 0.750000 0.750000 0.500000
O O14 0.667929 0.641989 0.659108
O O15 0.102340 0.621445 0.254308
O O16 0.000000 0.794789 0.250000
#
# Coordination Sequence:
#
# PCOD8145557 Si02
#       7
#     8   8   8   8   8   8   8
#     4  11  22  37  63  97 130 159 204 267 329 384
#     4  10  23  38  61  92 126 159 204 264 325 374
#     4  11  24  40  64  88 125 170 215 267 310 394
#     4  10  23  43  63  87 126 168 217 259 322 380
#     4  11  22  39  67  94 124 164 209 267 321 390
#     4  11  22  35  65  94 121 162 216 262 320 376
#     4  10  22  39  61  93 126 165 201 270 321 383
#
# _framework density 20.508904999999999
#
# number of rings (size 3 to 8) (size 9 to 14) (size 15 to 20)
#    0.000    1.429    2.857    3.429    8.000    2.286 
#    0.000    0.714    3.143    0.000    0.000    0.000 
#    0.000    0.000    0.000    0.000    0.000    0.000 
#
# Total GULP energy -347049.530320 kJ/mol
# GULP energy per Si atom -12394.626083 kJ/mol
# Density = 2.046223 g / cm^3
# Si number density = 20.508905 Si / 1000 Ang^3
#
#
#
# Elastic Constant Matrix: (Units=GPa)
#
#
# Indices 1 2 3 4 5 6 
#
# 1 73.1157 33.5177 34.9697 0.0000 -27.5249 0.0000
# 2 33.5177 126.6597 58.5185 -0.0001 -25.4911 0.0001
# 3 34.9697 58.5185 104.6661 0.0000 -30.4724 0.0000
# 4 0.0000 -0.0001 0.0000 39.0821 0.0000 0.4733
# 5 -27.5249 -25.4911 -30.4724 0.0000 33.8093 0.0000
# 6 0.0000 0.0001 0.0000 0.4733 0.0000 10.9482
#
#
#
# Elastic Compliance Matrix: (Units=1/GPa)
#
#
# Indices 1 2 3 4 5 6 
#
# 1 0.020554 -0.001825 -0.001865 0.000000 0.013677 0.000000
# 2 -0.001825 0.011142 -0.004889 0.000000 0.002508 0.000000
# 3 -0.001865 -0.004889 0.015450 0.000000 0.008720 0.000000
# 4 0.000000 0.000000 0.000000 0.025601 0.000000 -0.001107
# 5 0.013677 0.002508 0.008720 0.000000 0.050462 0.000000
# 6 0.000000 0.000000 0.000000 -0.001107 0.000000 0.091387
#
#
# Mechanical properties :
#
#
# Convention : Reuss Voigt Hill
#
# Bulk Modulus (GPa) = 33.34819 62.05036 47.69927
# Shear Modulus (GPa) = 20.68248 28.59697 24.63972
#
# Velocity S-wave (km/s) = 3.17908 3.73818 3.46990
# Velocity P-wave (km/s) = 5.45628 6.99664 6.27391
#
# Compressibility (1/GPa) = 0.02998664
#
# Stress axis : x y z
#
# Youngs Moduli (GPa) = 48.65154 89.75164 64.72595
#
# Poissons Ratio (x) = 0.16379 0.12073
# Poissons Ratio (y) = 0.08879 0.31648
# Poissons Ratio (z) = 0.09074 0.43884
#
# Static dielectric constant tensor:
#      x y z
#    x 3.826930 0.000000 -0.621830 
#    y 0.000000 3.770950 0.000000 
#    z -0.621830 0.000000 4.158150 
# 
# 
# High freq. dielectric constant tensor:
#      x y z
#    x 1.781670 0.000000 -0.030070 
#    y 0.000000 1.806510 0.000000 
#    z -0.030070 0.000000 1.809940 
# 
# From -- ./inp_files/251821.got.cif
#   From: 2010.06.25/outbox.cif.g09.slc.cpg/sg15_126_cif.got.tgz:251821.got - 2010.06.28 07:06:18.
