data_PCOD8145254
_publ_section_title
;
Structure prediction by ZEFSAII (Michael W. Deem and Ramdas Pophale) SiO2 
 PCOD8145254
Probable space group: C 2/C
;
_chemical_formula_sum "Si O2"
_cell_formula_units_Z 60
_cell_length_a 8.398238
_cell_length_b 27.625035
_cell_length_c 20.547889
_cell_angle_alpha 90.000000
_cell_angle_beta 40.475958
_cell_angle_gamma 90.000000
_cell_volume 3094.490697
_symmetry_space_group_name_H-M "C 2/C"
_symmetry_group_IT_number 15
_symmetry_cell_setting 'monoclinic'
loop_
_space_group_symop_operation_xyz
x,y,z
-x,y,1/2-z
-x,-y,-z
x,-y,1/2+z
1/2+x,1/2+y,z
1/2-x,1/2+y,1/2-z
1/2-x,1/2-y,-z
1/2+x,1/2-y,1/2+z
loop_
_atom_site_type_symbol
_atom_site_label
_atom_site_fract_x
_atom_site_fract_y
_atom_site_fract_z
Si Si1 0.303000 0.716234 0.394192
Si Si2 0.547492 0.545245 0.529685
Si Si3 0.498067 0.806721 0.106911
Si Si4 0.350844 0.480688 0.230610
Si Si5 0.938508 0.402842 0.339987
Si Si6 0.550490 0.925433 0.811274
Si Si7 0.316544 0.183579 0.209917
Si Si8 0.500000 0.748600 0.750000
O O1 0.331524 0.773752 0.399185
O O2 0.101305 0.692470 0.502414
O O3 0.561620 0.690011 0.328258
O O4 0.209562 0.708422 0.351251
O O5 0.500000 0.500000 0.500000
O O6 0.518400 0.531592 0.615349
O O7 0.349907 0.585251 0.568958
O O8 0.818435 0.563778 0.429355
O O9 0.495109 0.861858 0.129652
O O10 0.225505 0.786814 0.189119
O O11 0.500000 0.468707 0.250000
O O12 0.269807 0.536829 0.256623
O O13 0.099399 0.450226 0.306051
O O14 0.000000 0.382278 0.250000
O O15 0.500000 0.926412 0.750000
O O16 0.631567 0.872874 0.809764
O O17 0.528020 0.214656 0.180011
#
# Coordination Sequence:
#
# PCOD8145254 Si02
#       8
#     8   8   8   8   8   8   8   4
#     4   9  22  41  60  89 126 157 213 250 312 369
#     4  11  22  44  65  88 125 169 212 252 305 386
#     4  10  22  39  65  90 122 168 201 258 311 369
#     4  11  25  42  62  96 128 156 212 267 313 374
#     4  10  23  42  64  88 122 170 206 246 312 382
#     4  12  23  40  68  92 125 173 207 256 322 372
#     4  10  22  40  61  91 125 161 205 262 304 373
#     4  10  22  38  60  90 126 158 206 256 308 364
#
# _framework density 19.389298
#
# number of rings (size 3 to 8) (size 9 to 14) (size 15 to 20)
#    0.000    1.600    3.333    0.400    8.400    3.200 
#    2.400    0.000    0.000    0.000    0.000    0.000 
#    0.000    0.000    0.000    0.000    0.000    0.000 
#
# Total GULP energy -371966.530883 kJ/mol
# GULP energy per Si atom -12398.884363 kJ/mol
# Density = 1.934517 g / cm^3
# Si number density = 19.389298 Si / 1000 Ang^3
#
#
#
# Elastic Constant Matrix: (Units=GPa)
#
#
# Indices 1 2 3 4 5 6 
#
# 1 97.1896 24.6301 30.9338 -0.0002 15.9728 0.0001
# 2 24.6301 96.0725 32.9678 -0.0003 3.9474 0.0000
# 3 30.9338 32.9678 106.9818 0.0012 6.1002 -0.0002
# 4 -0.0002 -0.0003 0.0012 17.9011 -0.0001 3.5758
# 5 15.9728 3.9474 6.1002 -0.0001 22.3949 -0.0001
# 6 0.0001 0.0000 -0.0002 3.5758 -0.0001 25.7673
#
#
#
# Elastic Compliance Matrix: (Units=1/GPa)
#
#
# Indices 1 2 3 4 5 6 
#
# 1 0.013008 -0.002089 -0.002651 0.000000 -0.008187 0.000000
# 2 -0.002089 0.012001 -0.003107 0.000000 0.000221 0.000000
# 3 -0.002651 -0.003107 0.011105 -0.000001 -0.000587 0.000000
# 4 0.000000 0.000000 -0.000001 0.057455 0.000000 -0.007973
# 5 -0.008187 0.000221 -0.000587 0.000000 0.050614 0.000000
# 6 0.000000 0.000000 0.000000 -0.007973 0.000000 0.039915
#
#
# Mechanical properties :
#
#
# Convention : Reuss Voigt Hill
#
# Bulk Modulus (GPa) = 48.96921 53.03414 51.00168
# Shear Modulus (GPa) = 24.20159 27.32679 25.76419
#
# Velocity S-wave (km/s) = 3.53681 3.75824 3.64920
# Velocity P-wave (km/s) = 6.47992 6.80030 6.64204
#
# Compressibility (1/GPa) = 0.02042099
#
# Stress axis : x y z
#
# Youngs Moduli (GPa) = 76.87726 83.32345 90.05166
#
# Poissons Ratio (x) = 0.17405 0.23870
# Poissons Ratio (y) = 0.16058 0.27979
# Poissons Ratio (z) = 0.20378 0.25889
#
# Static dielectric constant tensor:
#      x y z
#    x 3.505340 0.000000 -0.005800 
#    y 0.000000 3.637010 0.000000 
#    z -0.005800 0.000000 4.074180 
# 
# 
# High freq. dielectric constant tensor:
#      x y z
#    x 1.753640 0.000000 0.003360 
#    y 0.000000 1.760940 0.000000 
#    z 0.003360 0.000000 1.760390 
# 
# From -- ./inp_files/234776.got.cif
#   From: 2010.06.25/outbox.cif.g09.slc.cpg/sg15_118_cif.got.tgz:234776.got - 2010.06.28 07:06:18.
