data_PCOD8145582
_publ_section_title
;
Structure prediction by ZEFSAII (Michael W. Deem and Ramdas Pophale) SiO2 
 PCOD8145582
Probable space group: C 2/C
;
_chemical_formula_sum "Si O2"
_cell_formula_units_Z 64
_cell_length_a 11.490433
_cell_length_b 18.121344
_cell_length_c 14.537370
_cell_angle_alpha 90.000000
_cell_angle_beta 85.008992
_cell_angle_gamma 90.000000
_cell_volume 3015.524264
_symmetry_space_group_name_H-M "C 2/C"
_symmetry_group_IT_number 15
_symmetry_cell_setting 'monoclinic'
loop_
_space_group_symop_operation_xyz
x,y,z
-x,y,1/2-z
-x,-y,-z
x,-y,1/2+z
1/2+x,1/2+y,z
1/2-x,1/2+y,1/2-z
1/2-x,1/2-y,-z
1/2+x,1/2-y,1/2+z
loop_
_atom_site_type_symbol
_atom_site_label
_atom_site_fract_x
_atom_site_fract_y
_atom_site_fract_z
Si Si1 0.185178 0.622604 0.336640
Si Si2 0.924033 0.198652 0.343132
Si Si3 0.474712 0.077593 0.461348
Si Si4 0.432893 0.266749 0.168924
Si Si5 0.122575 0.504911 0.201035
Si Si6 0.590393 0.704719 0.495026
Si Si7 0.792304 0.662220 0.590264
Si Si8 0.706488 0.846195 0.191695
O O1 0.313453 0.645189 0.359063
O O2 0.126746 0.691931 0.287169
O O3 0.194369 0.548195 0.275264
O O4 0.101381 0.612754 0.431069
O O5 0.888940 0.286040 0.337871
O O6 0.000000 0.176545 0.250000
O O7 0.996271 0.175310 0.428810
O O8 0.395281 0.066377 0.376204
O O9 0.404235 0.120554 0.543544
O O10 0.500000 0.000000 0.500000
O O11 0.500000 0.303232 0.250000
O O12 0.519989 0.249556 0.078256
O O13 0.332280 0.323145 0.142428
O O14 0.181946 0.429727 0.159274
O O15 0.000000 0.477969 0.250000
O O16 0.669807 0.643445 0.544501
O O17 0.681942 0.751790 0.428790
O O18 0.784587 0.649262 0.698671
#
# Coordination Sequence:
#
# PCOD8145582 Si02
#       8
#     8   8   8   8   8   8   8   8
#     4  10  23  39  62  90 124 163 211 255 324 378
#     4  11  24  40  65  96 131 166 212 272 326 380
#     4  11  23  38  64  91 126 163 215 271 318 380
#     4  11  21  40  64  92 127 164 213 266 316 385
#     4  10  22  39  62  90 123 167 209 261 317 380
#     4  11  24  38  65  95 129 164 214 265 325 386
#     4  11  22  39  64  94 126 168 217 266 321 388
#     4  11  23  40  66  92 132 169 215 264 330 380
#
# _framework density 21.223506
#
# number of rings (size 3 to 8) (size 9 to 14) (size 15 to 20)
#    0.000    1.250    3.750    3.000    3.500    3.000 
#    0.000    0.625    0.000    2.250    0.000    0.000 
#    0.000    0.000    0.000    0.000    0.000    0.000 
#
# Total GULP energy -396566.636614 kJ/mol
# GULP energy per Si atom -12392.707394 kJ/mol
# Density = 2.117520 g / cm^3
# Si number density = 21.223506 Si / 1000 Ang^3
#
#
#
# Elastic Constant Matrix: (Units=GPa)
#
#
# Indices 1 2 3 4 5 6 
#
# 1 121.1573 29.7129 30.5738 0.0000 8.3106 0.0000
# 2 29.7129 71.6349 -6.7288 0.0000 -1.9987 0.0000
# 3 30.5738 -6.7288 75.9049 0.0000 4.5315 0.0000
# 4 0.0000 0.0000 0.0000 20.9914 0.0000 -0.5854
# 5 8.3106 -1.9987 4.5315 0.0000 33.9802 0.0000
# 6 0.0000 0.0000 0.0000 -0.5854 0.0000 23.3589
#
#
#
# Elastic Compliance Matrix: (Units=1/GPa)
#
#
# Indices 1 2 3 4 5 6 
#
# 1 0.010811 -0.004986 -0.004658 0.000000 -0.002316 0.000000
# 2 -0.004986 0.016392 0.003358 0.000000 0.001736 0.000000
# 3 -0.004658 0.003358 0.015391 0.000000 -0.000716 0.000000
# 4 0.000000 0.000000 0.000000 0.047672 0.000000 0.001195
# 5 -0.002316 0.001736 -0.000716 0.000000 0.030193 0.000000
# 6 0.000000 0.000000 0.000000 0.001195 0.000000 0.042840
#
#
# Mechanical properties :
#
#
# Convention : Reuss Voigt Hill
#
# Bulk Modulus (GPa) = 33.31075 41.75699 37.53387
# Shear Modulus (GPa) = 26.89919 30.00872 28.45395
#
# Velocity S-wave (km/s) = 3.56395 3.76432 3.66550
# Velocity P-wave (km/s) = 5.71533 6.21378 5.96976
#
# Compressibility (1/GPa) = 0.03002034
#
# Stress axis : x y z
#
# Youngs Moduli (GPa) = 92.49830 61.00610 64.97252
#
# Poissons Ratio (x) = 0.30420 0.30266
# Poissons Ratio (y) = 0.46123 -0.21817
# Poissons Ratio (z) = 0.43089 -0.20486
#
# Static dielectric constant tensor:
#      x y z
#    x 4.102410 0.000000 -0.029430 
#    y 0.000000 2.881720 0.000000 
#    z -0.029430 0.000000 3.442500 
# 
# 
# High freq. dielectric constant tensor:
#      x y z
#    x 1.837800 0.000000 0.002110 
#    y 0.000000 1.801170 0.000000 
#    z 0.002110 0.000000 1.835450 
# 
# From -- ./inp_files/146093.got.cif
#   From: 2010.06.25/outbox.cif.g09.slc.cpg/sg15_74_cif.got.tgz:146093.got - 2010.06.28 07:06:18.
