data_PCOD8145143
_publ_section_title
;
Structure prediction by ZEFSAII (Michael W. Deem and Ramdas Pophale) SiO2 
 PCOD8145143
Probable space group: C 2/C
;
_chemical_formula_sum "Si O2"
_cell_formula_units_Z 64
_cell_length_a 11.299015
_cell_length_b 17.602257
_cell_length_c 16.779237
_cell_angle_alpha 90.000000
_cell_angle_beta 75.619322
_cell_angle_gamma 90.000000
_cell_volume 3232.627353
_symmetry_space_group_name_H-M "C 2/C"
_symmetry_group_IT_number 15
_symmetry_cell_setting 'monoclinic'
loop_
_space_group_symop_operation_xyz
x,y,z
-x,y,1/2-z
-x,-y,-z
x,-y,1/2+z
1/2+x,1/2+y,z
1/2-x,1/2+y,1/2-z
1/2-x,1/2-y,-z
1/2+x,1/2-y,1/2+z
loop_
_atom_site_type_symbol
_atom_site_label
_atom_site_fract_x
_atom_site_fract_y
_atom_site_fract_z
Si Si1 0.799836 0.299178 0.117706
Si Si2 0.028021 0.696293 0.477246
Si Si3 0.920607 0.864507 0.077099
Si Si4 0.696669 0.594050 0.749424
Si Si5 0.378585 0.002642 0.313776
Si Si6 0.404145 0.174865 0.332193
Si Si7 0.798779 0.566826 0.982426
Si Si8 0.162137 0.069692 0.583041
O O1 0.797598 0.344172 0.202452
O O2 0.718821 0.223942 0.140965
O O3 0.739513 0.352586 0.059303
O O4 0.938041 0.286293 0.066700
O O5 0.964711 0.666103 0.408361
O O6 0.082749 0.778099 0.450112
O O7 0.130472 0.633895 0.483323
O O8 0.895801 0.863440 0.175953
O O9 0.818812 0.902893 0.042057
O O10 0.044540 0.915014 0.046289
O O11 0.760813 0.527256 0.787142
O O12 0.626047 0.561011 0.683227
O O13 0.500000 0.974590 0.250000
O O14 0.387819 0.971617 0.402656
O O15 0.361765 0.092358 0.312118
O O16 0.500000 0.207767 0.250000
O O17 0.747318 0.502108 0.049408
#
# Coordination Sequence:
#
# PCOD8145143 Si02
#       8
#     8   8   8   8   8   8   8   8
#     4  10  22  37  64  93 118 164 200 260 315 376
#     4  12  23  39  64  91 132 157 211 262 323 377
#     4  11  22  42  65  87 125 170 216 252 310 388
#     4   9  21  40  61  87 119 164 206 253 315 375
#     4  10  22  38  59  91 128 161 204 256 322 374
#     4  11  23  36  62  93 125 161 213 267 311 375
#     4  11  25  39  62  93 126 169 208 262 319 376
#     4  10  22  39  65  88 122 160 212 255 312 371
#
# _framework density 19.798137000000001
#
# number of rings (size 3 to 8) (size 9 to 14) (size 15 to 20)
#    0.750    0.750    1.250    3.750    5.250    1.000 
#    0.000    0.000    0.000    0.000    0.000    0.000 
#    0.000    0.000    0.000    0.000    0.000    0.000 
#
# Total GULP energy -396498.116651 kJ/mol
# GULP energy per Si atom -12390.566145 kJ/mol
# Density = 1.975308 g / cm^3
# Si number density = 19.798137 Si / 1000 Ang^3
#
#
#
# Elastic Constant Matrix: (Units=GPa)
#
#
# Indices 1 2 3 4 5 6 
#
# 1 66.5125 39.4956 21.8948 0.0000 -10.4742 0.0000
# 2 39.4956 106.0173 39.1248 0.0000 -13.9068 0.0000
# 3 21.8948 39.1248 85.7797 0.0000 -12.2656 0.0000
# 4 0.0000 0.0000 0.0000 34.5894 0.0000 -3.7439
# 5 -10.4742 -13.9068 -12.2656 0.0000 31.4099 0.0000
# 6 0.0000 0.0000 0.0000 -3.7439 0.0000 28.0341
#
#
#
# Elastic Compliance Matrix: (Units=1/GPa)
#
#
# Indices 1 2 3 4 5 6 
#
# 1 0.019870 -0.006354 -0.001725 0.000000 0.003139 0.000000
# 2 -0.006354 0.013681 -0.004295 0.000000 0.002261 0.000000
# 3 -0.001725 -0.004295 0.014513 0.000000 0.003191 0.000000
# 4 0.000000 0.000000 0.000000 0.029335 0.000000 0.003918
# 5 0.003139 0.002261 0.003191 0.000000 0.035131 0.000000
# 6 0.000000 0.000000 0.000000 0.003918 0.000000 0.036194
#
#
# Mechanical properties :
#
#
# Convention : Reuss Voigt Hill
#
# Bulk Modulus (GPa) = 42.88721 51.03779 46.96250
# Shear Modulus (GPa) = 27.58716 29.32629 28.45673
#
# Velocity S-wave (km/s) = 3.73691 3.85290 3.79534
# Velocity P-wave (km/s) = 6.35048 6.75486 6.55579
#
# Compressibility (1/GPa) = 0.02331697
#
# Stress axis : x y z
#
# Youngs Moduli (GPa) = 50.32722 73.09302 68.90301
#
# Poissons Ratio (x) = 0.46444 0.11884
# Poissons Ratio (y) = 0.31978 0.29593
# Poissons Ratio (z) = 0.08680 0.31393
#
# Static dielectric constant tensor:
#      x y z
#    x 3.386360 0.000000 -0.168840 
#    y 0.000000 3.613520 0.000000 
#    z -0.168840 0.000000 3.843630 
# 
# 
# High freq. dielectric constant tensor:
#      x y z
#    x 1.758730 0.000000 -0.010350 
#    y 0.000000 1.776610 0.000000 
#    z -0.010350 0.000000 1.779680 
# 
# From -- ./inp_files/199149.got.cif
#   From: 2010.06.25/outbox.cif.g09.slc.cpg/sg15_100_cif.got.tgz:199149.got - 2010.06.28 07:06:18.
