data_PCOD8145739
_publ_section_title
;
Structure prediction by ZEFSAII (Michael W. Deem and Ramdas Pophale) SiO2 
 PCOD8145739
Probable space group: C 2/C
;
_chemical_formula_sum "Si O2"
_cell_formula_units_Z 64
_cell_length_a 8.401049
_cell_length_b 31.674720
_cell_length_c 17.817834
_cell_angle_alpha 90.000000
_cell_angle_beta 36.401727
_cell_angle_gamma 90.000000
_cell_volume 2813.716453
_symmetry_space_group_name_H-M "C 2/C"
_symmetry_group_IT_number 15
_symmetry_cell_setting 'monoclinic'
loop_
_space_group_symop_operation_xyz
x,y,z
-x,y,1/2-z
-x,-y,-z
x,-y,1/2+z
1/2+x,1/2+y,z
1/2-x,1/2+y,1/2-z
1/2-x,1/2-y,-z
1/2+x,1/2-y,1/2+z
loop_
_atom_site_type_symbol
_atom_site_label
_atom_site_fract_x
_atom_site_fract_y
_atom_site_fract_z
Si Si1 0.251291 0.682241 0.003417
Si Si2 0.657563 0.693961 0.266202
Si Si3 0.499741 0.054368 0.959327
Si Si4 0.263667 0.022947 0.185600
Si Si5 0.181812 0.287373 0.250474
Si Si6 0.694522 0.143291 0.869853
Si Si7 0.311003 0.372450 0.617916
Si Si8 0.977666 0.965076 0.574156
O O1 0.372940 0.648697 0.014997
O O2 0.979684 0.701391 0.140541
O O3 0.497608 0.714153 0.891527
O O4 0.134323 0.660699 0.974137
O O5 0.500000 0.680975 0.250000
O O6 0.574246 0.741800 0.320592
O O7 0.578183 0.658635 0.357878
O O8 0.740818 0.026837 0.833441
O O9 0.511453 0.102331 0.927076
O O10 0.243554 0.030264 0.022074
O O11 0.498127 0.048889 0.051541
O O12 0.000000 0.044488 0.250000
O O13 0.274117 0.027744 0.272357
O O14 0.123069 0.321254 0.336884
O O15 0.000000 0.301656 0.250000
O O16 0.000000 0.128397 0.750000
O O17 0.461462 0.416953 0.552493
O O18 0.000000 0.380989 0.750000
O O19 0.000000 0.000000 0.500000
#
# Coordination Sequence:
#
# PCOD8145739 Si02
#       8
#     8   8   8   8   8   8   8   8
#     4  10  23  40  65  95 131 177 218 274 336 399
#     4  10  23  42  68  98 129 179 226 276 332 399
#     4  10  22  39  67  91 123 172 217 268 334 400
#     4   9  21  41  62  89 122 159 214 270 323 401
#     4  10  23  42  65  96 137 173 225 278 331 402
#     4  10  23  41  64  97 131 176 220 275 332 404
#     4  10  25  42  64  93 133 167 216 276 330 398
#     4  11  26  40  63  96 125 170 216 278 340 397
#
# _framework density 22.745718
#
# number of rings (size 3 to 8) (size 9 to 14) (size 15 to 20)
#    0.000    2.000    0.000    0.750    8.750   10.000 
#    0.000    2.500    0.000    0.000    0.000    0.000 
#    0.000    0.000    0.000    0.000    0.000    0.000 
#
# Total GULP energy -396443.465190 kJ/mol
# GULP energy per Si atom -12388.858287 kJ/mol
# Density = 2.269395 g / cm^3
# Si number density = 22.745718 Si / 1000 Ang^3
#
#
#
# Elastic Constant Matrix: (Units=GPa)
#
#
# Indices 1 2 3 4 5 6 
#
# 1 112.9062 62.9843 32.3151 0.0000 28.5673 0.0000
# 2 62.9843 171.2137 47.5309 0.0000 30.8069 0.0000
# 3 32.3151 47.5309 70.8595 0.0000 30.6430 0.0000
# 4 0.0000 0.0000 0.0000 22.8290 0.0000 -4.1626
# 5 28.5673 30.8069 30.6430 0.0000 41.1531 0.0000
# 6 0.0000 0.0000 0.0000 -4.1626 0.0000 18.0369
#
#
#
# Elastic Compliance Matrix: (Units=1/GPa)
#
#
# Indices 1 2 3 4 5 6 
#
# 1 0.012345 -0.003273 -0.001162 0.000000 -0.005254 0.000000
# 2 -0.003273 0.008245 -0.003468 0.000000 -0.001317 0.000000
# 3 -0.001162 -0.003468 0.022857 0.000000 -0.013617 0.000000
# 4 0.000000 0.000000 0.000000 0.045728 0.000000 0.010553
# 5 -0.005254 -0.001317 -0.013617 0.000000 0.039072 0.000000
# 6 0.000000 0.000000 0.000000 0.010553 0.000000 0.057877
#
#
# Mechanical properties :
#
#
# Convention : Reuss Voigt Hill
#
# Bulk Modulus (GPa) = 36.17951 71.18222 53.68087
# Shear Modulus (GPa) = 23.68055 30.54709 27.11382
#
# Velocity S-wave (km/s) = 3.23011 3.66865 3.45634
# Velocity P-wave (km/s) = 5.46370 7.02197 6.29127
#
# Compressibility (1/GPa) = 0.02763995
#
# Stress axis : x y z
#
# Youngs Moduli (GPa) = 81.00545 121.29223 43.75004
#
# Poissons Ratio (x) = 0.39703 0.05085
# Poissons Ratio (y) = 0.26516 0.15171
# Poissons Ratio (z) = 0.09414 0.42061
#
# Static dielectric constant tensor:
#      x y z
#    x 4.094380 0.000000 0.028970 
#    y 0.000000 3.896350 0.000000 
#    z 0.028970 0.000000 4.303190 
# 
# 
# High freq. dielectric constant tensor:
#      x y z
#    x 1.897130 0.000000 0.001220 
#    y 0.000000 1.896910 0.000000 
#    z 0.001220 0.000000 1.893260 
# 
# From -- ./inp_files/194235.got.cif
#   From: 2010.06.25/outbox.cif.g09.slc.cpg/sg15_98_cif.got.tgz:194235.got - 2010.06.28 07:06:18.
