data_PCOD8145801
_publ_section_title
;
Structure prediction by ZEFSAII (Michael W. Deem and Ramdas Pophale) SiO2 
 PCOD8145801
Probable space group: C 2/C
;
_chemical_formula_sum "Si O2"
_cell_formula_units_Z 56
_cell_length_a 20.091141
_cell_length_b 25.292257
_cell_length_c 8.823143
_cell_angle_alpha 90.000000
_cell_angle_beta 142.379799
_cell_angle_gamma 90.000000
_cell_volume 2736.827583
_symmetry_space_group_name_H-M "C 2/C"
_symmetry_group_IT_number 15
_symmetry_cell_setting 'monoclinic'
loop_
_space_group_symop_operation_xyz
x,y,z
-x,y,1/2-z
-x,-y,-z
x,-y,1/2+z
1/2+x,1/2+y,z
1/2-x,1/2+y,1/2-z
1/2-x,1/2-y,-z
1/2+x,1/2-y,1/2+z
loop_
_atom_site_type_symbol
_atom_site_label
_atom_site_fract_x
_atom_site_fract_y
_atom_site_fract_z
Si Si1 0.371505 0.309844 0.505816
Si Si2 0.608698 0.062282 0.355310
Si Si3 0.625252 0.571734 0.975001
Si Si4 0.371789 0.808393 0.003931
Si Si5 0.740828 0.388841 0.967733
Si Si6 0.744088 0.347408 0.490811
Si Si7 0.193584 0.505403 0.770467
O O1 0.343425 0.250584 0.511628
O O2 0.317689 0.354496 0.510661
O O3 0.500000 0.319718 0.750000
O O4 0.325411 0.311861 0.250577
O O5 0.500000 0.077625 0.250000
O O6 0.681025 0.114535 0.476480
O O7 0.666141 0.013505 0.545383
O O8 0.602011 0.034776 0.176514
O O9 0.500000 0.556647 0.750000
O O10 0.654344 0.583939 0.200863
O O11 0.652453 0.622883 0.923704
O O12 0.688307 0.522183 0.013919
O O13 0.321795 0.851686 0.022897
O O14 0.325294 0.815022 0.748514
O O15 0.500000 0.817789 0.250000
O O16 0.809988 0.435858 0.166918
#
# Coordination Sequence:
#
# PCOD8145801 Si02
#       7
#     8   8   8   8   8   8   8
#     4  11  22  40  64  90 118 154 200 249 302 351
#     4  11  23  39  59  89 120 158 196 241 296 355
#     4  10  22  40  59  86 121 160 196 238 296 354
#     4  10  24  41  62  88 118 159 199 246 303 352
#     4  11  22  39  60  85 120 154 196 247 290 354
#     4  10  22  40  62  91 121 153 200 247 293 358
#     4  11  22  39  57  87 120 152 200 240 289 354
#
# _framework density 20.461646999999999
#
# number of rings (size 3 to 8) (size 9 to 14) (size 15 to 20)
#    0.000    1.429    2.857    2.143    2.000    1.714 
#    0.000    0.000    0.000    6.857    0.000    0.000 
#    0.000    0.000    0.000    0.000    0.000    0.000 
#
# Total GULP energy -347032.958956 kJ/mol
# GULP energy per Si atom -12394.034248 kJ/mol
# Density = 2.041507 g / cm^3
# Si number density = 20.461647 Si / 1000 Ang^3
#
#
#
# Elastic Constant Matrix: (Units=GPa)
#
#
# Indices 1 2 3 4 5 6 
#
# 1 81.5194 21.7163 30.9708 0.0000 2.6586 0.0000
# 2 21.7163 82.9251 25.7913 0.0000 -2.4167 0.0000
# 3 30.9708 25.7913 99.7082 0.0000 2.1952 0.0000
# 4 0.0000 0.0000 0.0000 102.6531 0.0000 -36.4270
# 5 2.6586 -2.4167 2.1952 0.0000 31.3499 0.0000
# 6 0.0000 0.0000 0.0000 -36.4270 0.0000 32.3541
#
#
#
# Elastic Compliance Matrix: (Units=1/GPa)
#
#
# Indices 1 2 3 4 5 6 
#
# 1 0.014444 -0.002642 -0.003778 0.000000 -0.001164 0.000000
# 2 -0.002642 0.013646 -0.002742 0.000000 0.001468 0.000000
# 3 -0.003778 -0.002742 0.011928 0.000000 -0.000726 0.000000
# 4 0.000000 0.000000 0.000000 0.016223 0.000000 0.018265
# 5 -0.001164 0.001468 -0.000726 0.000000 0.032161 0.000000
# 6 0.000000 0.000000 0.000000 0.018265 0.000000 0.051473
#
#
# Mechanical properties :
#
#
# Convention : Reuss Voigt Hill
#
# Bulk Modulus (GPa) = 46.09063 46.78996 46.44029
# Shear Modulus (GPa) = 30.22459 45.64972 37.93716
#
# Velocity S-wave (km/s) = 3.84752 4.72846 4.31055
# Velocity P-wave (km/s) = 6.50478 7.26140 6.89348
#
# Compressibility (1/GPa) = 0.02169638
#
# Stress axis : x y z
#
# Youngs Moduli (GPa) = 69.23367 73.27972 83.83774
#
# Poissons Ratio (x) = 0.19357 0.31670
# Poissons Ratio (y) = 0.18289 0.22986
# Poissons Ratio (z) = 0.26153 0.20091
#
# Static dielectric constant tensor:
#      x y z
#    x 3.715860 0.000000 -0.272960 
#    y 0.000000 3.731850 0.000000 
#    z -0.272960 0.000000 3.785610 
# 
# 
# High freq. dielectric constant tensor:
#      x y z
#    x 1.804480 0.000000 -0.011620 
#    y 0.000000 1.807870 0.000000 
#    z -0.011620 0.000000 1.798980 
# 
# From -- ./inp_files/52374.got.cif
#   From: 2010.06.25/outbox.cif.g09.slc.cpg/sg15_27_cif.got.tgz:52374.got - 2010.06.28 07:06:18.
