data_PCOD8145359
_publ_section_title
;
Structure prediction by ZEFSAII (Michael W. Deem and Ramdas Pophale) SiO2 
 PCOD8145359
Probable space group: C 2/C
;
_chemical_formula_sum "Si O2"
_cell_formula_units_Z 28
_cell_length_a 14.118547
_cell_length_b 14.931179
_cell_length_c 9.010990
_cell_angle_alpha 90.000000
_cell_angle_beta 139.008284
_cell_angle_gamma 90.000000
_cell_volume 1246.026522
_symmetry_space_group_name_H-M "C 2/C"
_symmetry_group_IT_number 15
_symmetry_cell_setting 'monoclinic'
loop_
_space_group_symop_operation_xyz
x,y,z
-x,y,1/2-z
-x,-y,-z
x,-y,1/2+z
1/2+x,1/2+y,z
1/2-x,1/2+y,1/2-z
1/2-x,1/2-y,-z
1/2+x,1/2-y,1/2+z
loop_
_atom_site_type_symbol
_atom_site_label
_atom_site_fract_x
_atom_site_fract_y
_atom_site_fract_z
Si Si1 0.000000 0.498079 0.750000
Si Si2 0.195910 0.451435 0.733121
Si Si3 0.300617 0.649671 0.893535
Si Si4 0.891277 0.185669 0.331038
O O1 0.112266 0.436854 0.789946
O O2 0.916060 0.563093 0.535812
O O3 0.258927 0.551079 0.793005
O O4 0.325192 0.380311 0.877529
O O5 0.164155 0.714127 0.704660
O O6 0.340532 0.647844 0.113081
O O7 0.435380 0.685017 0.954865
#
# Coordination Sequence:
#
# PCOD8145359 Si02
#       4
#     4   8   8   8
#     4  10  24  34  70  90 124 156 214 240 326 346
#     4  11  21  42  62  92 124 166 196 264 296 374
#     4  10  22  38  64  93 122 160 208 252 303 367
#     4  10  22  38  64  93 122 160 208 252 303 367
#
# _framework density 22.471430999999999
#
# number of rings (size 3 to 8) (size 9 to 14) (size 15 to 20)
#    0.000    1.714    2.857    0.857    8.000    0.000 
#    0.000    1.429    0.000    0.000    0.000    0.000 
#    0.000    0.000    0.000    0.000    0.000    0.000 
#
# Total GULP energy -173628.876267 kJ/mol
# GULP energy per Si atom -12402.062590 kJ/mol
# Density = 2.242028 g / cm^3
# Si number density = 22.471431 Si / 1000 Ang^3
#
#
#
# Elastic Constant Matrix: (Units=GPa)
#
#
# Indices 1 2 3 4 5 6 
#
# 1 185.5064 31.9155 23.0465 0.0000 23.8517 0.0000
# 2 31.9155 101.5694 9.9082 0.0000 15.2934 0.0000
# 3 23.0465 9.9082 45.5578 0.0000 7.2883 0.0000
# 4 0.0000 0.0000 0.0000 13.4780 0.0000 0.7804
# 5 23.8517 15.2934 7.2883 0.0000 38.2513 0.0000
# 6 0.0000 0.0000 0.0000 0.7804 0.0000 36.9478
#
#
#
# Elastic Compliance Matrix: (Units=1/GPa)
#
#
# Indices 1 2 3 4 5 6 
#
# 1 0.006294 -0.001298 -0.002431 0.000000 -0.002943 0.000000
# 2 -0.001298 0.010867 -0.001177 0.000000 -0.003311 0.000000
# 3 -0.002431 -0.001177 0.023845 0.000000 -0.002557 0.000000
# 4 0.000000 0.000000 0.000000 0.074286 0.000000 -0.001569
# 5 -0.002943 -0.003311 -0.002557 0.000000 0.029789 0.000000
# 6 0.000000 0.000000 0.000000 -0.001569 0.000000 0.027098
#
#
# Mechanical properties :
#
#
# Convention : Reuss Voigt Hill
#
# Bulk Modulus (GPa) = 32.05726 51.37488 41.71607
# Shear Modulus (GPa) = 25.98902 35.58630 30.78766
#
# Velocity S-wave (km/s) = 3.40448 3.98379 3.70548
# Velocity P-wave (km/s) = 5.45442 6.63873 6.07550
#
# Compressibility (1/GPa) = 0.03119419
#
# Stress axis : x y z
#
# Youngs Moduli (GPa) = 158.87391 92.02489 41.93745
#
# Poissons Ratio (x) = 0.11941 0.10196
# Poissons Ratio (y) = 0.20615 0.04937
# Poissons Ratio (z) = 0.38624 0.10833
#
# Static dielectric constant tensor:
#      x y z
#    x 4.516550 0.000000 0.242140 
#    y 0.000000 3.618630 0.000000 
#    z 0.242140 0.000000 3.786340 
# 
# 
# High freq. dielectric constant tensor:
#      x y z
#    x 1.909250 0.000000 0.019640 
#    y 0.000000 1.866180 0.000000 
#    z 0.019640 0.000000 1.855860 
# 
# From -- ./inp_files/27485.got.cif
#   From: 2010.06.25/outbox.cif.g09.slc.cpg/sg15_14_cif.got.tgz:27485.got - 2010.06.28 07:06:18.
