data_PCOD8145987
_publ_section_title
;
Structure prediction by ZEFSAII (Michael W. Deem and Ramdas Pophale) SiO2 
 PCOD8145987
Probable space group: C 2/C
;
_chemical_formula_sum "Si O2"
_cell_formula_units_Z 52
_cell_length_a 9.329303
_cell_length_b 26.249517
_cell_length_c 11.420537
_cell_angle_alpha 90.000000
_cell_angle_beta 91.864276
_cell_angle_gamma 90.000000
_cell_volume 2795.291505
_symmetry_space_group_name_H-M "C 2/C"
_symmetry_group_IT_number 15
_symmetry_cell_setting 'monoclinic'
loop_
_space_group_symop_operation_xyz
x,y,z
-x,y,1/2-z
-x,-y,-z
x,-y,1/2+z
1/2+x,1/2+y,z
1/2-x,1/2+y,1/2-z
1/2-x,1/2-y,-z
1/2+x,1/2-y,1/2+z
loop_
_atom_site_type_symbol
_atom_site_label
_atom_site_fract_x
_atom_site_fract_y
_atom_site_fract_z
Si Si1 0.167484 0.857723 0.244199
Si Si2 0.180881 0.679795 0.980551
Si Si3 0.056677 0.219713 0.385588
Si Si4 0.288943 0.308307 0.010714
Si Si5 0.569711 0.888965 0.955706
Si Si6 0.863799 0.441117 0.311178
Si Si7 0.500000 0.960915 0.750000
O O1 0.216904 0.831182 0.126716
O O2 0.226275 0.824887 0.354574
O O3 0.222739 0.916188 0.250054
O O4 0.000000 0.859653 0.250000
O O5 0.066566 0.723249 0.939423
O O6 0.283265 0.695959 0.092836
O O7 0.089719 0.630988 0.018110
O O8 0.000000 0.220637 0.250000
O O9 0.947149 0.185474 0.459470
O O10 0.177381 0.342250 0.933516
O O11 0.250000 0.250000 0.000000
O O12 0.571021 0.924476 0.844547
O O13 0.631746 0.926844 0.053876
O O14 0.872175 0.502581 0.297177
O O15 0.000000 0.414994 0.250000
#
# Coordination Sequence:
#
# PCOD8145987 Si02
#       7
#     8   8   8   8   8   8   4
#     4  11  21  38  63  87 115 159 214 250 298 372
#     4  11  22  39  58  87 116 169 203 244 298 363
#     4  11  24  38  55  82 133 166 196 245 301 355
#     4  11  22  38  57  90 126 161 200 250 294 360
#     4  11  22  37  66  90 118 157 208 247 311 366
#     4   9  20  37  65  85 113 151 198 258 307 355
#     4  10  22  40  64  94 116 150 204 268 310 364
#
# _framework density 18.602710999999999
#
# number of rings (size 3 to 8) (size 9 to 14) (size 15 to 20)
#    0.462    0.923    4.615    1.385    4.308    0.000 
#    1.385    0.000    3.385    2.769    0.000    0.000 
#    0.000    0.000    0.000    0.000    0.000    0.000 
#
# Total GULP energy -322277.765544 kJ/mol
# GULP energy per Si atom -12395.298675 kJ/mol
# Density = 1.856037 g / cm^3
# Si number density = 18.602711 Si / 1000 Ang^3
#
#
#
# Elastic Constant Matrix: (Units=GPa)
#
#
# Indices 1 2 3 4 5 6 
#
# 1 92.0601 46.7778 32.7659 0.0000 0.9826 0.0000
# 2 46.7778 127.5937 46.3679 0.0000 7.7090 0.0000
# 3 32.7659 46.3679 92.0147 0.0000 15.9755 0.0000
# 4 0.0000 0.0000 0.0000 29.4228 0.0000 -3.7781
# 5 0.9826 7.7090 15.9755 0.0000 27.5252 0.0000
# 6 0.0000 0.0000 0.0000 -3.7781 0.0000 26.2439
#
#
#
# Elastic Compliance Matrix: (Units=1/GPa)
#
#
# Indices 1 2 3 4 5 6 
#
# 1 0.014135 -0.004096 -0.003426 0.000000 0.002631 0.000000
# 2 -0.004096 0.010782 -0.003865 0.000000 -0.000630 0.000000
# 3 -0.003426 -0.003865 0.015376 0.000000 -0.007719 0.000000
# 4 0.000000 0.000000 0.000000 0.034627 0.000000 0.004985
# 5 0.002631 -0.000630 -0.007719 0.000000 0.040893 0.000000
# 6 0.000000 0.000000 0.000000 0.004985 0.000000 0.038822
#
#
# Mechanical properties :
#
#
# Convention : Reuss Voigt Hill
#
# Bulk Modulus (GPa) = 57.08440 62.61020 59.84730
# Shear Modulus (GPa) = 27.28530 29.02216 28.15373
#
# Velocity S-wave (km/s) = 3.83396 3.95410 3.89449
# Velocity P-wave (km/s) = 7.09589 7.38756 7.24319
#
# Compressibility (1/GPa) = 0.01751792
#
# Stress axis : x y z
#
# Youngs Moduli (GPa) = 70.74577 92.74961 65.03729
#
# Poissons Ratio (x) = 0.37991 0.22283
# Poissons Ratio (y) = 0.28978 0.25138
# Poissons Ratio (z) = 0.24239 0.35849
#
# Static dielectric constant tensor:
#      x y z
#    x 3.581070 0.000000 0.025930 
#    y 0.000000 3.339420 0.000000 
#    z 0.025930 0.000000 3.572350 
# 
# 
# High freq. dielectric constant tensor:
#      x y z
#    x 1.720050 0.000000 0.005150 
#    y 0.000000 1.711320 0.000000 
#    z 0.005150 0.000000 1.723150 
# 
# From -- ./inp_files/80734.got.cif
#   From: 2010.06.25/outbox.cif.g09.slc.cpg/sg15_41_cif.got.tgz:80734.got - 2010.06.28 07:06:18.
