data_PCOD8145962
_publ_section_title
;
Structure prediction by ZEFSAII (Michael W. Deem and Ramdas Pophale) SiO2 
 PCOD8145962
Probable space group: C 2/C
;
_chemical_formula_sum "Si O2"
_cell_formula_units_Z 32
_cell_length_a 26.609353
_cell_length_b 4.980494
_cell_length_c 13.464119
_cell_angle_alpha 90.000000
_cell_angle_beta 133.548427
_cell_angle_gamma 90.000000
_cell_volume 1293.296948
_symmetry_space_group_name_H-M "C 2/C"
_symmetry_group_IT_number 15
_symmetry_cell_setting 'monoclinic'
loop_
_space_group_symop_operation_xyz
x,y,z
-x,y,1/2-z
-x,-y,-z
x,-y,1/2+z
1/2+x,1/2+y,z
1/2-x,1/2+y,1/2-z
1/2-x,1/2-y,-z
1/2+x,1/2-y,1/2+z
loop_
_atom_site_type_symbol
_atom_site_label
_atom_site_fract_x
_atom_site_fract_y
_atom_site_fract_z
Si Si1 0.906050 0.117700 0.032725
Si Si2 0.234436 0.858394 0.670688
Si Si3 0.059346 0.923203 0.702172
Si Si4 0.874418 0.572447 0.299135
O O1 0.922952 0.212779 0.167512
O O2 0.977517 0.011303 0.080361
O O3 0.880659 0.353091 0.925007
O O4 0.846348 0.892578 0.966677
O O5 0.250245 0.546744 0.712443
O O6 0.291201 0.955986 0.664792
O O7 0.086045 0.709967 0.657373
O O8 0.095979 0.207032 0.735450
#
# Coordination Sequence:
#
# PCOD8145962 Si02
#       4
#     8   8   8   8
#     4  10  24  43  64  93 131 160 207 262 306 368
#     4  10  22  40  64  90 124 168 205 253 312 362
#     4  11  25  40  66  96 122 167 208 252 315 368
#     4  11  23  42  64  92 127 165 208 253 309 371
#
# _framework density 24.742964000000001
#
# number of rings (size 3 to 8) (size 9 to 14) (size 15 to 20)
#    0.000    1.500    0.000    4.500    0.000   16.000 
#    0.000    0.000    0.000    0.000    0.000    0.000 
#    0.000    0.000    0.000    0.000    0.000    0.000 
#
# Total GULP energy -198240.409948 kJ/mol
# GULP energy per Si atom -12390.025622 kJ/mol
# Density = 2.468665 g / cm^3
# Si number density = 24.742964 Si / 1000 Ang^3
#
#
#
# Elastic Constant Matrix: (Units=GPa)
#
#
# Indices 1 2 3 4 5 6 
#
# 1 161.5976 34.7531 55.9526 -0.0006 68.1521 0.0002
# 2 34.7531 78.1222 8.0901 -0.0018 15.0942 0.0042
# 3 55.9526 8.0901 81.7421 -0.0003 28.8452 0.0003
# 4 -0.0006 -0.0018 -0.0003 18.6748 0.0010 10.8706
# 5 68.1521 15.0942 28.8452 0.0010 42.9524 0.0002
# 6 0.0002 0.0042 0.0003 10.8706 0.0002 31.1811
#
#
#
# Elastic Compliance Matrix: (Units=1/GPa)
#
#
# Indices 1 2 3 4 5 6 
#
# 1 0.019963 -0.003056 -0.003360 0.000002 -0.028344 0.000000
# 2 -0.003056 0.014213 0.000965 0.000003 -0.000794 -0.000003
# 3 -0.003360 0.000965 0.016613 0.000001 -0.006165 -0.000001
# 4 0.000002 0.000003 0.000001 0.067182 -0.000006 -0.023421
# 5 -0.028344 -0.000794 -0.006165 -0.000006 0.072674 0.000002
# 6 0.000000 -0.000003 -0.000001 -0.023421 0.000002 0.040236
#
#
# Mechanical properties :
#
#
# Convention : Reuss Voigt Hill
#
# Bulk Modulus (GPa) = 25.07001 57.67264 41.37132
# Shear Modulus (GPa) = 19.60176 33.40606 26.50391
#
# Velocity S-wave (km/s) = 2.81769 3.67839 3.27642
# Velocity P-wave (km/s) = 4.55412 6.43429 5.57405
#
# Compressibility (1/GPa) = 0.03988829
#
# Stress axis : x y z
#
# Youngs Moduli (GPa) = 50.09336 70.35594 60.19225
#
# Poissons Ratio (x) = 0.21502 0.20224
# Poissons Ratio (y) = 0.15309 -0.05811
# Poissons Ratio (z) = 0.16831 -0.06792
#
# Static dielectric constant tensor:
#      x y z
#    x 4.943960 0.000000 0.545650 
#    y 0.000000 3.954610 0.000000 
#    z 0.545650 0.000000 4.639930 
# 
# 
# High freq. dielectric constant tensor:
#      x y z
#    x 2.011560 0.000000 0.034480 
#    y 0.000000 1.964510 0.000000 
#    z 0.034480 0.000000 1.969750 
# 
# From -- ./inp_files/164785.got.cif
#   From: 2010.06.25/outbox.cif.g09.slc.cpg/sg15_83_cif.got.tgz:164785.got - 2010.06.28 07:06:18.
