data_PCOD8145326
_publ_section_title
;
Structure prediction by ZEFSAII (Michael W. Deem and Ramdas Pophale) SiO2 
 PCOD8145326
Probable space group: C 2/C
;
_chemical_formula_sum "Si O2"
_cell_formula_units_Z 60
_cell_length_a 23.806954
_cell_length_b 8.417830
_cell_length_c 22.148728
_cell_angle_alpha 90.000000
_cell_angle_beta 141.336726
_cell_angle_gamma 90.000000
_cell_volume 2773.024277
_symmetry_space_group_name_H-M "C 2/C"
_symmetry_group_IT_number 15
_symmetry_cell_setting 'monoclinic'
loop_
_space_group_symop_operation_xyz
x,y,z
-x,y,1/2-z
-x,-y,-z
x,-y,1/2+z
1/2+x,1/2+y,z
1/2-x,1/2+y,1/2-z
1/2-x,1/2-y,-z
1/2+x,1/2-y,1/2+z
loop_
_atom_site_type_symbol
_atom_site_label
_atom_site_fract_x
_atom_site_fract_y
_atom_site_fract_z
Si Si1 0.574284 0.656690 0.415593
Si Si2 0.750062 0.386017 0.116158
Si Si3 0.000000 0.638042 0.750000
Si Si4 0.383571 0.672303 0.297244
Si Si5 0.137796 0.614148 0.359695
Si Si6 0.204950 0.166022 0.149715
Si Si7 0.086916 0.784363 0.438367
Si Si8 0.614784 0.311054 0.231105
O O1 0.667869 0.721850 0.522383
O O2 0.560012 0.747930 0.341470
O O3 0.490541 0.704213 0.388333
O O4 0.583741 0.467389 0.413409
O O5 0.834980 0.279896 0.205916
O O6 0.769441 0.523842 0.080912
O O7 0.710791 0.476984 0.142283
O O8 0.067588 0.515663 0.774660
O O9 0.345702 0.704619 0.331335
O O10 0.368690 0.495027 0.263273
O O11 0.125342 0.664011 0.419021
O O12 0.127057 0.774850 0.312536
O O13 0.307719 0.224060 0.242001
O O14 0.149112 0.248202 0.048577
O O15 0.983727 0.746077 0.371000
#
# Coordination Sequence:
#
# PCOD8145326 Si02
#       8
#     8   8   4   8   8   8   8   8
#     4  10  25  39  64  95 128 169 209 257 322 376
#     4  10  23  43  63  95 128 171 208 264 317 369
#     4  12  22  40  64  94 130 162 198 262 322 378
#     4  11  22  42  64  93 129 167 217 261 312 373
#     4  11  22  41  66  93 131 162 207 261 318 377
#     4  10  23  40  64  93 127 169 215 262 310 376
#     4  10  22  41  64  96 128 169 210 256 317 380
#     4  10  22  38  63  93 122 171 210 261 314 372
#
# _framework density 21.637025999999999
#
# number of rings (size 3 to 8) (size 9 to 14) (size 15 to 20)
#    0.000    1.600    2.667    0.800    3.733   12.267 
#    0.000    0.000    0.000    4.800    0.000    0.000 
#    0.000    0.000    0.000    0.000    0.000    0.000 
#
# Total GULP energy -371684.410888 kJ/mol
# GULP energy per Si atom -12389.480363 kJ/mol
# Density = 2.158778 g / cm^3
# Si number density = 21.637026 Si / 1000 Ang^3
#
#
#
# Elastic Constant Matrix: (Units=GPa)
#
#
# Indices 1 2 3 4 5 6 
#
# 1 120.4775 37.0955 58.8054 0.0000 1.4678 0.0000
# 2 37.0955 63.3782 47.7652 -0.0001 -9.9533 -0.0002
# 3 58.8054 47.7652 122.4522 0.0000 15.4314 0.0000
# 4 0.0000 -0.0001 0.0000 20.6504 0.0000 2.6891
# 5 1.4678 -9.9533 15.4314 0.0000 34.2347 0.0000
# 6 0.0000 -0.0002 0.0000 2.6891 0.0000 21.4508
#
#
#
# Elastic Compliance Matrix: (Units=1/GPa)
#
#
# Indices 1 2 3 4 5 6 
#
# 1 0.011399 -0.003470 -0.004168 0.000000 0.000381 0.000000
# 2 -0.003470 0.028197 -0.011010 0.000000 0.013309 0.000000
# 3 -0.004168 -0.011010 0.015738 0.000000 -0.010116 0.000000
# 4 0.000000 0.000000 0.000000 0.049229 0.000000 -0.006171
# 5 0.000381 0.013309 -0.010116 0.000000 0.037623 0.000000
# 6 0.000000 0.000000 0.000000 -0.006171 0.000000 0.047392
#
#
# Mechanical properties :
#
#
# Convention : Reuss Voigt Hill
#
# Bulk Modulus (GPa) = 55.44219 65.96000 60.70110
# Shear Modulus (GPa) = 21.46971 26.10997 23.78984
#
# Velocity S-wave (km/s) = 3.15344 3.47757 3.31946
# Velocity P-wave (km/s) = 6.24006 6.83195 6.54270
#
# Compressibility (1/GPa) = 0.01803681
#
# Stress axis : x y z
#
# Youngs Moduli (GPa) = 87.72846 35.46475 63.54217
#
# Poissons Ratio (x) = 0.12307 0.26487
# Poissons Ratio (y) = 0.30445 0.69957
# Poissons Ratio (z) = 0.36569 0.39045
#
# Static dielectric constant tensor:
#      x y z
#    x 4.276020 0.000000 0.589690 
#    y 0.000000 3.846490 0.000000 
#    z 0.589690 0.000000 4.050550 
# 
# 
# High freq. dielectric constant tensor:
#      x y z
#    x 1.857840 0.000000 0.029430 
#    y 0.000000 1.840430 0.000000 
#    z 0.029430 0.000000 1.843240 
# 
# From -- ./inp_files/255212.got.cif
#   From: 2010.06.25/outbox.cif.g09.slc.cpg/sg15_128_cif.got.tgz:255212.got - 2010.06.28 07:06:18.
