data_PCOD8145544
_publ_section_title
;
Structure prediction by ZEFSAII (Michael W. Deem and Ramdas Pophale) SiO2 
 PCOD8145544
Probable space group: C 2/C
;
_chemical_formula_sum "Si O2"
_cell_formula_units_Z 32
_cell_length_a 13.243577
_cell_length_b 7.460418
_cell_length_c 17.716397
_cell_angle_alpha 90.000000
_cell_angle_beta 91.429717
_cell_angle_gamma 90.000000
_cell_volume 1749.881508
_symmetry_space_group_name_H-M "C 2/C"
_symmetry_group_IT_number 15
_symmetry_cell_setting 'monoclinic'
loop_
_space_group_symop_operation_xyz
x,y,z
-x,y,1/2-z
-x,-y,-z
x,-y,1/2+z
1/2+x,1/2+y,z
1/2-x,1/2+y,1/2-z
1/2-x,1/2-y,-z
1/2+x,1/2-y,1/2+z
loop_
_atom_site_type_symbol
_atom_site_label
_atom_site_fract_x
_atom_site_fract_y
_atom_site_fract_z
Si Si1 0.184247 0.478371 0.178458
Si Si2 0.487981 0.093481 0.419963
Si Si3 0.303291 0.885149 0.655997
Si Si4 0.701884 0.292796 0.078711
O O1 0.249187 0.301584 0.168605
O O2 0.169523 0.517268 0.266028
O O3 0.243105 0.644908 0.139734
O O4 0.073257 0.458776 0.137587
O O5 0.500000 0.000000 0.500000
O O6 0.594648 0.150110 0.388043
O O7 0.420310 0.274052 0.428884
O O8 0.229180 0.008238 0.605173
O O9 0.750000 0.250000 0.000000
#
# Coordination Sequence:
#
# PCOD8145544 Si02
#       4
#     8   8   8   8
#     4  10  23  38  65  91 116 167 199 252 302 358
#     4  10  22  39  61  89 124 160 199 251 303 367
#     4  12  20  44  62  88 128 154 209 251 300 361
#     4  10  22  40  62  92 123 157 201 250 306 358
#
# _framework density 18.286951999999999
#
# number of rings (size 3 to 8) (size 9 to 14) (size 15 to 20)
#    1.500    0.000    5.000    0.750    0.000    4.000 
#    4.500    2.500    0.000    0.000    0.000    0.000 
#    0.000    0.000    0.000    0.000    0.000    0.000 
#
# Total GULP energy -198275.374513 kJ/mol
# GULP energy per Si atom -12392.210907 kJ/mol
# Density = 1.824533 g / cm^3
# Si number density = 18.286952 Si / 1000 Ang^3
#
#
#
# Elastic Constant Matrix: (Units=GPa)
#
#
# Indices 1 2 3 4 5 6 
#
# 1 116.0452 39.4588 18.3924 0.0000 -9.8862 0.0000
# 2 39.4588 73.6226 1.4625 0.0000 -12.4101 0.0000
# 3 18.3924 1.4625 73.3375 0.0000 -13.8714 0.0000
# 4 0.0000 0.0000 0.0000 28.2116 0.0000 4.3534
# 5 -9.8862 -12.4101 -13.8714 0.0000 33.5729 0.0000
# 6 0.0000 0.0000 0.0000 4.3534 0.0000 33.3460
#
#
#
# Elastic Compliance Matrix: (Units=1/GPa)
#
#
# Indices 1 2 3 4 5 6 
#
# 1 0.011029 -0.005861 -0.002652 0.000000 -0.000014 0.000000
# 2 -0.005861 0.017642 0.002197 0.000000 0.005703 0.000000
# 3 -0.002652 0.002197 0.015472 0.000000 0.006424 0.000000
# 4 0.000000 0.000000 0.000000 0.036175 0.000000 -0.004723
# 5 -0.000014 0.005703 0.006424 0.000000 0.034544 0.000000
# 6 0.000000 0.000000 0.000000 -0.004723 0.000000 0.030605
#
#
# Mechanical properties :
#
#
# Convention : Reuss Voigt Hill
#
# Bulk Modulus (GPa) = 31.73536 42.40362 37.06949
# Shear Modulus (GPa) = 29.65546 32.60553 31.13050
#
# Velocity S-wave (km/s) = 4.03137 4.22713 4.13041
# Velocity P-wave (km/s) = 6.24988 6.86026 6.56217
#
# Compressibility (1/GPa) = 0.03151059
#
# Stress axis : x y z
#
# Youngs Moduli (GPa) = 90.66720 56.68374 64.63345
#
# Poissons Ratio (x) = 0.33223 0.17140
# Poissons Ratio (y) = 0.53140 -0.14198
# Poissons Ratio (z) = 0.24044 -0.12452
#
# Static dielectric constant tensor:
#      x y z
#    x 3.014840 0.000000 0.069970 
#    y 0.000000 3.035360 0.000000 
#    z 0.069970 0.000000 3.573610 
# 
# 
# High freq. dielectric constant tensor:
#      x y z
#    x 1.701670 0.000000 -0.003380 
#    y 0.000000 1.690860 0.000000 
#    z -0.003380 0.000000 1.732840 
# 
# From -- ./inp_files/149839.got.cif
#   From: 2010.06.25/outbox.cif.g09.slc.cpg/sg15_75_cif.got.tgz:149839.got - 2010.06.28 07:06:18.
