data_PCOD8145570
_publ_section_title
;
Structure prediction by ZEFSAII (Michael W. Deem and Ramdas Pophale) SiO2 
 PCOD8145570
Probable space group: C 2/C
;
_chemical_formula_sum "Si O2"
_cell_formula_units_Z 48
_cell_length_a 8.454900
_cell_length_b 17.725803
_cell_length_c 15.154828
_cell_angle_alpha 90.000000
_cell_angle_beta 92.191871
_cell_angle_gamma 90.000000
_cell_volume 2269.590677
_symmetry_space_group_name_H-M "C 2/C"
_symmetry_group_IT_number 15
_symmetry_cell_setting 'monoclinic'
loop_
_space_group_symop_operation_xyz
x,y,z
-x,y,1/2-z
-x,-y,-z
x,-y,1/2+z
1/2+x,1/2+y,z
1/2-x,1/2+y,1/2-z
1/2-x,1/2-y,-z
1/2+x,1/2-y,1/2+z
loop_
_atom_site_type_symbol
_atom_site_label
_atom_site_fract_x
_atom_site_fract_y
_atom_site_fract_z
Si Si1 0.169229 0.548389 0.412662
Si Si2 0.696160 0.986319 0.601478
Si Si3 0.601956 0.343756 0.841064
Si Si4 0.802276 0.789582 0.912353
Si Si5 0.179154 0.227408 0.738733
Si Si6 0.321337 0.556459 0.768979
O O1 0.236128 0.526083 0.509907
O O2 0.203862 0.634862 0.392250
O O3 0.257781 0.496361 0.344614
O O4 0.981960 0.542445 0.402212
O O5 0.820114 0.919661 0.621557
O O6 0.714091 0.047211 0.679590
O O7 0.500000 0.359405 0.750000
O O8 0.488394 0.310796 0.915504
O O9 0.740287 0.283282 0.829063
O O10 0.770141 0.730426 0.833638
O O11 0.750000 0.750000 0.000000
O O12 0.189057 0.143054 0.699996
O O13 0.000000 0.253438 0.750000
O O14 0.500000 0.533250 0.750000
#
# Coordination Sequence:
#
# PCOD8145570 Si02
#       6
#     8   8   8   8   8   8
#     4  11  25  40  62  92 121 160 204 248 303 361
#     4  11  23  41  63  89 123 160 202 253 303 358
#     4  10  22  39  62  87 119 162 202 247 303 361
#     4  11  23  40  62  89 121 157 200 250 301 355
#     4  10  22  40  62  88 120 159 200 245 301 362
#     4  11  23  40  64  92 123 160 201 249 303 358
#
# _framework density 21.149189
#
# number of rings (size 3 to 8) (size 9 to 14) (size 15 to 20)
#    0.000    1.333    0.000    6.000    0.000   12.000 
#    0.000    2.500    0.000    0.000    0.000    0.000 
#    0.000    0.000    0.000    0.000    0.000    0.000 
#
# Total GULP energy -297688.567010 kJ/mol
# GULP energy per Si atom -12403.690292 kJ/mol
# Density = 2.110105 g / cm^3
# Si number density = 21.149189 Si / 1000 Ang^3
#
#
#
# Elastic Constant Matrix: (Units=GPa)
#
#
# Indices 1 2 3 4 5 6 
#
# 1 99.3429 35.2157 16.0272 0.0000 -10.5091 0.0000
# 2 35.2157 97.2465 22.4445 0.0000 -6.1837 0.0000
# 3 16.0272 22.4445 88.5728 0.0000 -8.3984 0.0000
# 4 0.0000 0.0000 0.0000 50.1706 0.0000 1.5742
# 5 -10.5091 -6.1837 -8.3984 0.0000 31.9290 0.0000
# 6 0.0000 0.0000 0.0000 1.5742 0.0000 30.4968
#
#
#
# Elastic Compliance Matrix: (Units=1/GPa)
#
#
# Indices 1 2 3 4 5 6 
#
# 1 0.011909 -0.003922 -0.000883 0.000000 0.002928 0.000000
# 2 -0.003922 0.012277 -0.002357 0.000000 0.000467 0.000000
# 3 -0.000883 -0.002357 0.012283 0.000000 0.002484 0.000000
# 4 0.000000 0.000000 0.000000 0.019964 0.000000 -0.001031
# 5 0.002928 0.000467 0.002484 0.000000 0.033027 0.000000
# 6 0.000000 0.000000 0.000000 -0.001031 0.000000 0.032844
#
#
# Mechanical properties :
#
#
# Convention : Reuss Voigt Hill
#
# Bulk Modulus (GPa) = 45.16077 48.05967 46.61022
# Shear Modulus (GPa) = 34.71975 36.61760 35.66867
#
# Velocity S-wave (km/s) = 4.05613 4.16552 4.11119
# Velocity P-wave (km/s) = 6.58302 6.77561 6.68000
#
# Compressibility (1/GPa) = 0.02214311
#
# Stress axis : x y z
#
# Youngs Moduli (GPa) = 83.97138 81.45128 81.41492
#
# Poissons Ratio (x) = 0.31949 0.07192
# Poissons Ratio (y) = 0.32938 0.19190
# Poissons Ratio (z) = 0.07417 0.19199
#
# Static dielectric constant tensor:
#      x y z
#    x 3.940430 0.000000 -0.090950 
#    y 0.000000 3.837580 0.000000 
#    z -0.090950 0.000000 3.851590 
# 
# 
# High freq. dielectric constant tensor:
#      x y z
#    x 1.844640 0.000000 -0.007870 
#    y 0.000000 1.840510 0.000000 
#    z -0.007870 0.000000 1.822350 
# 
# From -- ./inp_files/134813.got.cif
#   From: 2010.06.25/outbox.cif.g09.slc.cpg/sg15_68_cif.got.tgz:134813.got - 2010.06.28 07:06:18.
