data_PCOD8145123
_publ_section_title
;
Structure prediction by ZEFSAII (Michael W. Deem and Ramdas Pophale) SiO2 
 PCOD8145123
Probable space group: C 2/C
;
_chemical_formula_sum "Si O2"
_cell_formula_units_Z 60
_cell_length_a 17.530861
_cell_length_b 12.852291
_cell_length_c 20.447072
_cell_angle_alpha 90.000000
_cell_angle_beta 38.831998
_cell_angle_gamma 90.000000
_cell_volume 2888.746566
_symmetry_space_group_name_H-M "C 2/C"
_symmetry_group_IT_number 15
_symmetry_cell_setting 'monoclinic'
loop_
_space_group_symop_operation_xyz
x,y,z
-x,y,1/2-z
-x,-y,-z
x,-y,1/2+z
1/2+x,1/2+y,z
1/2-x,1/2+y,1/2-z
1/2-x,1/2-y,-z
1/2+x,1/2-y,1/2+z
loop_
_atom_site_type_symbol
_atom_site_label
_atom_site_fract_x
_atom_site_fract_y
_atom_site_fract_z
Si Si1 0.805952 0.472578 0.976755
Si Si2 0.672448 0.530182 0.808903
Si Si3 0.961967 0.046862 0.849640
Si Si4 0.781717 0.642211 0.324294
Si Si5 0.618458 0.747619 0.537656
Si Si6 0.136556 0.534760 0.417734
Si Si7 0.500000 0.954996 0.750000
Si Si8 0.873853 0.257616 0.641300
O O1 0.818374 0.345794 0.969346
O O2 0.903172 0.519774 0.859396
O O3 0.669741 0.503546 0.046311
O O4 0.825121 0.519399 0.034271
O O5 0.556011 0.502377 0.840770
O O6 0.696851 0.448359 0.850306
O O7 0.787275 0.536075 0.683492
O O8 0.650963 0.638638 0.862302
O O9 0.949018 0.172163 0.865061
O O10 0.000000 0.020058 0.750000
O O11 0.719852 0.683998 0.430423
O O12 0.798092 0.730375 0.259077
O O13 0.919228 0.608171 0.251435
O O14 0.516416 0.784729 0.554750
O O15 0.167229 0.656590 0.383878
O O16 0.000000 0.500000 0.500000
#
# Coordination Sequence:
#
# PCOD8145123 Si02
#       8
#     8   8   8   8   8   8   4   8
#     4  12  22  36  60  89 128 156 202 252 312 377
#     4  10  23  41  60  89 129 158 210 255 308 376
#     4  11  23  35  58  87 123 164 196 250 316 373
#     4  11  23  39  60  88 124 165 205 253 315 369
#     4  11  22  35  58  92 127 159 195 255 315 384
#     4  11  20  39  63  90 122 165 210 255 308 372
#     4  12  24  40  58  92 126 164 206 254 316 376
#     4  10  22  37  62  90 120 165 205 252 312 372
#
# _framework density 20.770254000000001
#
# number of rings (size 3 to 8) (size 9 to 14) (size 15 to 20)
#    0.000    1.067    5.333    2.000    2.800    2.133 
#    0.000    0.000    0.000    4.000    0.000    0.000 
#    0.000    0.000    0.000    0.000    0.000    0.000 
#
# Total GULP energy -371817.682251 kJ/mol
# GULP energy per Si atom -12393.922742 kJ/mol
# Density = 2.072298 g / cm^3
# Si number density = 20.770254 Si / 1000 Ang^3
#
#
#
# Elastic Constant Matrix: (Units=GPa)
#
#
# Indices 1 2 3 4 5 6 
#
# 1 113.7767 38.7966 29.3114 0.0000 -13.9693 0.0000
# 2 38.7966 56.8735 20.8312 0.0000 -5.0270 0.0000
# 3 29.3114 20.8312 119.6079 0.0000 -10.3224 0.0000
# 4 0.0000 0.0000 0.0000 17.5488 0.0000 -1.4734
# 5 -13.9693 -5.0270 -10.3224 0.0000 41.0545 0.0000
# 6 0.0000 0.0000 0.0000 -1.4734 0.0000 14.4685
#
#
#
# Elastic Compliance Matrix: (Units=1/GPa)
#
#
# Indices 1 2 3 4 5 6 
#
# 1 0.012039 -0.007446 -0.001409 0.000000 0.002830 0.000000
# 2 -0.007446 0.023478 -0.002284 0.000000 -0.000233 0.000000
# 3 -0.001409 -0.002284 0.009239 0.000000 0.001564 0.000000
# 4 0.000000 0.000000 0.000000 0.057475 0.000000 0.005853
# 5 0.002830 -0.000233 0.001564 0.000000 0.025686 0.000000
# 6 0.000000 0.000000 0.000000 0.005853 0.000000 0.069712
#
#
# Mechanical properties :
#
#
# Convention : Reuss Voigt Hill
#
# Bulk Modulus (GPa) = 44.49055 52.01516 48.25286
# Shear Modulus (GPa) = 21.98770 28.03562 25.01166
#
# Velocity S-wave (km/s) = 3.25717 3.67794 3.47393
# Velocity P-wave (km/s) = 5.96761 6.56763 6.27480
#
# Compressibility (1/GPa) = 0.02247668
#
# Stress axis : x y z
#
# Youngs Moduli (GPa) = 83.06573 42.59256 108.23919
#
# Poissons Ratio (x) = 0.31714 0.15253
# Poissons Ratio (y) = 0.61850 0.24726
# Poissons Ratio (z) = 0.11705 0.09730
#
# Static dielectric constant tensor:
#      x y z
#    x 4.388840 0.000000 -0.543920 
#    y 0.000000 3.429210 0.000000 
#    z -0.543920 0.000000 4.246560 
# 
# 
# High freq. dielectric constant tensor:
#      x y z
#    x 1.822660 0.000000 -0.010170 
#    y 0.000000 1.762000 0.000000 
#    z -0.010170 0.000000 1.833500 
# 
# From -- ./inp_files/248738.got.cif
#   From: 2010.06.25/outbox.cif.g09.slc.cpg/sg15_125_cif.got.tgz:248738.got - 2010.06.28 07:06:18.
