data_PCOD8145218
_publ_section_title
;
Structure prediction by ZEFSAII (Michael W. Deem and Ramdas Pophale) SiO2 
 PCOD8145218
Probable space group: C 2/C
;
_chemical_formula_sum "Si O2"
_cell_formula_units_Z 64
_cell_length_a 29.626306
_cell_length_b 20.423823
_cell_length_c 14.535669
_cell_angle_alpha 90.000000
_cell_angle_beta 158.328513
_cell_angle_gamma 90.000000
_cell_volume 3247.958337
_symmetry_space_group_name_H-M "C 2/C"
_symmetry_group_IT_number 15
_symmetry_cell_setting 'monoclinic'
loop_
_space_group_symop_operation_xyz
x,y,z
-x,y,1/2-z
-x,-y,-z
x,-y,1/2+z
1/2+x,1/2+y,z
1/2-x,1/2+y,1/2-z
1/2-x,1/2-y,-z
1/2+x,1/2-y,1/2+z
loop_
_atom_site_type_symbol
_atom_site_label
_atom_site_fract_x
_atom_site_fract_y
_atom_site_fract_z
Si Si1 0.123209 0.513336 0.370341
Si Si2 0.252146 0.923278 0.035628
Si Si3 0.413745 0.845211 0.671567
Si Si4 0.579068 0.678031 0.255718
Si Si5 0.828726 0.207905 0.874531
Si Si6 0.597442 0.150365 0.011564
Si Si7 0.556214 0.192645 0.608721
Si Si8 0.347962 0.986660 0.869405
O O1 0.220199 0.468181 0.500318
O O2 0.124232 0.589643 0.342538
O O3 0.164103 0.516568 0.553069
O O4 0.987434 0.485874 0.095777
O O5 0.338214 0.860109 0.205893
O O6 0.262319 0.970179 0.143013
O O7 0.115608 0.891187 0.775785
O O8 0.500000 0.866069 0.750000
O O9 0.296907 0.808264 0.412023
O O10 0.484846 0.797589 0.876837
O O11 0.663384 0.681308 0.506995
O O12 0.608822 0.737454 0.241971
O O13 0.437475 0.679323 0.017004
O O14 0.833461 0.286188 0.894798
O O15 0.691624 0.089909 0.203811
O O16 0.500000 0.127189 0.750000
O O17 0.536649 0.166017 0.992468
#
# Coordination Sequence:
#
# PCOD8145218 Si02
#       8
#     8   8   8   8   8   8   8   8
#     4  11  20  33  56  88 122 151 190 247 305 348
#     4  12  21  35  58  92 124 151 197 250 300 352
#     4  12  23  39  59  89 120 156 200 252 303 350
#     4  10  22  38  59  88 118 164 201 239 295 360
#     4  10  22  41  61  83 122 162 202 240 296 367
#     4  11  18  35  58  86 116 156 196 244 299 344
#     4  11  20  34  59  88 119 150 199 248 293 348
#     4  11  19  33  55  84 124 153 189 244 302 350
#
# _framework density 19.704687
#
# number of rings (size 3 to 8) (size 9 to 14) (size 15 to 20)
#    0.000    1.000    7.500    3.000    0.000    2.000 
#    0.000    0.625    0.000    0.000    3.250    0.000 
#    0.000    0.000    0.000    0.000    0.000    0.000 
#
# Total GULP energy -396723.006298 kJ/mol
# GULP energy per Si atom -12397.593947 kJ/mol
# Density = 1.965984 g / cm^3
# Si number density = 19.704687 Si / 1000 Ang^3
#
#
#
# Elastic Constant Matrix: (Units=GPa)
#
#
# Indices 1 2 3 4 5 6 
#
# 1 84.2430 37.0599 27.1768 0.0000 -10.3942 0.0000
# 2 37.0599 116.3802 33.8084 0.0000 4.9856 0.0000
# 3 27.1768 33.8084 61.5796 0.0000 -7.4701 0.0000
# 4 0.0000 0.0000 0.0000 29.3041 0.0000 -1.7408
# 5 -10.3942 4.9856 -7.4701 0.0000 19.5381 0.0000
# 6 0.0000 0.0000 0.0000 -1.7408 0.0000 31.1662
#
#
#
# Elastic Compliance Matrix: (Units=1/GPa)
#
#
# Indices 1 2 3 4 5 6 
#
# 1 0.015993 -0.004384 -0.003653 0.000000 0.008230 0.000000
# 2 -0.004384 0.011910 -0.005511 0.000000 -0.007479 0.000000
# 3 -0.003653 -0.005511 0.021824 0.000000 0.007807 0.000000
# 4 0.000000 0.000000 0.000000 0.034238 0.000000 0.001912
# 5 0.008230 -0.007479 0.007807 0.000000 0.060454 0.000000
# 6 0.000000 0.000000 0.000000 0.001912 0.000000 0.032193
#
#
# Mechanical properties :
#
#
# Convention : Reuss Voigt Hill
#
# Bulk Modulus (GPa) = 44.18758 50.92144 47.55451
# Shear Modulus (GPa) = 23.66840 26.94552 25.30696
#
# Velocity S-wave (km/s) = 3.46953 3.70194 3.58762
# Velocity P-wave (km/s) = 6.20675 6.64612 6.43019
#
# Compressibility (1/GPa) = 0.02263079
#
# Stress axis : x y z
#
# Youngs Moduli (GPa) = 62.52739 83.96293 45.82110
#
# Poissons Ratio (x) = 0.36812 0.16737
# Poissons Ratio (y) = 0.27414 0.25253
# Poissons Ratio (z) = 0.22839 0.46273
#
# Static dielectric constant tensor:
#      x y z
#    x 3.598290 0.000000 -0.280240 
#    y 0.000000 3.827840 0.000000 
#    z -0.280240 0.000000 2.686610 
# 
# 
# High freq. dielectric constant tensor:
#      x y z
#    x 1.776350 0.000000 -0.012580 
#    y 0.000000 1.778480 0.000000 
#    z -0.012580 0.000000 1.719130 
# 
# From -- ./inp_files/183165.got.cif
#   From: 2010.06.25/outbox.cif.g09.slc.cpg/sg15_92_cif.got.tgz:183165.got - 2010.06.28 07:06:18.
