data_PCOD8145332
_publ_section_title
;
Structure prediction by ZEFSAII (Michael W. Deem and Ramdas Pophale) SiO2 
 PCOD8145332
Probable space group: C 2/C
;
_chemical_formula_sum "Si O2"
_cell_formula_units_Z 48
_cell_length_a 9.020079
_cell_length_b 28.202265
_cell_length_c 9.245293
_cell_angle_alpha 90.000000
_cell_angle_beta 89.432292
_cell_angle_gamma 90.000000
_cell_volume 2351.763743
_symmetry_space_group_name_H-M "C 2/C"
_symmetry_group_IT_number 15
_symmetry_cell_setting 'monoclinic'
loop_
_space_group_symop_operation_xyz
x,y,z
-x,y,1/2-z
-x,-y,-z
x,-y,1/2+z
1/2+x,1/2+y,z
1/2-x,1/2+y,1/2-z
1/2-x,1/2-y,-z
1/2+x,1/2-y,1/2+z
loop_
_atom_site_type_symbol
_atom_site_label
_atom_site_fract_x
_atom_site_fract_y
_atom_site_fract_z
Si Si1 0.661450 0.137839 0.264025
Si Si2 0.658874 0.540750 0.673270
Si Si3 0.656857 0.548215 0.326057
Si Si4 0.324795 0.644447 0.779157
Si Si5 0.168743 0.298783 0.506751
Si Si6 0.329009 0.200011 0.966548
O O1 0.500000 0.113715 0.250000
O O2 0.772357 0.098646 0.205835
O O3 0.655976 0.186100 0.172316
O O4 0.705055 0.157421 0.420813
O O5 0.500000 0.538561 0.750000
O O6 0.647416 0.538304 0.498615
O O7 0.744721 0.495179 0.742413
O O8 0.731919 0.589931 0.727182
O O9 0.500000 0.551795 0.250000
O O10 0.500000 0.648398 0.750000
O O11 0.237434 0.680218 0.679205
O O12 0.276544 0.661799 0.937122
O O13 0.250000 0.250000 0.500000
O O14 0.004545 0.293219 0.441360
O O15 0.250000 0.250000 0.000000
#
# Coordination Sequence:
#
# PCOD8145332 Si02
#       6
#     8   8   8   8   8   8
#     4  10  24  42  60  89 128 162 203 258 316 373
#     4  10  22  38  63  97 127 159 208 263 312 369
#     4  11  22  39  67  93 124 164 211 259 314 372
#     4  11  23  39  62  93 128 162 211 258 311 374
#     4  11  22  42  64  89 127 163 209 265 313 376
#     4  11  24  40  64  93 124 169 212 257 318 373
#
# _framework density 20.410214
#
# number of rings (size 3 to 8) (size 9 to 14) (size 15 to 20)
#    0.000    1.333    1.667    4.500    7.000    2.667 
#    0.000    2.500    0.000    0.000    0.000    0.000 
#    0.000    0.000    0.000    0.000    0.000    0.000 
#
# Total GULP energy -297358.090029 kJ/mol
# GULP energy per Si atom -12389.920418 kJ/mol
# Density = 2.036376 g / cm^3
# Si number density = 20.410214 Si / 1000 Ang^3
#
#
#
# Elastic Constant Matrix: (Units=GPa)
#
#
# Indices 1 2 3 4 5 6 
#
# 1 84.9542 50.1363 23.5875 0.0000 -5.8317 0.0000
# 2 50.1363 152.3565 38.2263 0.0000 1.2884 0.0000
# 3 23.5875 38.2263 99.6169 0.0000 -4.8933 0.0000
# 4 0.0000 0.0000 0.0000 2.9035 0.0000 -4.5989
# 5 -5.8317 1.2884 -4.8933 0.0000 26.9804 0.0000
# 6 0.0000 0.0000 0.0000 -4.5989 0.0000 27.8815
#
#
#
# Elastic Compliance Matrix: (Units=1/GPa)
#
#
# Indices 1 2 3 4 5 6 
#
# 1 0.015168 -0.004600 -0.001670 0.000000 0.003195 0.000000
# 2 -0.004600 0.008677 -0.002331 0.000000 -0.001831 0.000000
# 3 -0.001670 -0.002331 0.011418 0.000000 0.001821 0.000000
# 4 0.000000 0.000000 0.000000 0.466212 0.000000 0.076898
# 5 0.003195 -0.001831 0.001821 0.000000 0.038172 0.000000
# 6 0.000000 0.000000 0.000000 0.076898 0.000000 0.048550
#
#
# Mechanical properties :
#
#
# Convention : Reuss Voigt Hill
#
# Bulk Modulus (GPa) = 55.35979 62.31419 58.83699
# Shear Modulus (GPa) = 8.17770 26.55160 17.36465
#
# Velocity S-wave (km/s) = 2.00384 3.61071 2.91998
# Velocity P-wave (km/s) = 5.70406 6.92677 6.34494
#
# Compressibility (1/GPa) = 0.01806365
#
# Stress axis : x y z
#
# Youngs Moduli (GPa) = 65.92626 115.24177 87.58412
#
# Poissons Ratio (x) = 0.53007 0.14623
# Poissons Ratio (y) = 0.30324 0.20413
# Poissons Ratio (z) = 0.11007 0.26859
#
# Static dielectric constant tensor:
#      x y z
#    x 0.000000 0.000000 0.000000 
#    y 0.000000 0.000000 0.000000 
#    z 0.000000 0.000000 0.000000 
# 
# 
# High freq. dielectric constant tensor:
#      x y z
#    x 1.776010 0.000000 -0.009520 
#    y 0.000000 1.821590 0.000000 
#    z -0.009520 0.000000 1.812480 
# 
# From -- ./inp_files/26106.got.cif
#   From: 2010.06.25/outbox.cif.g09.slc.cpg/sg15_14_cif.got.tgz:26106.got - 2010.06.28 07:06:18.
