data_PCOD8145638
_publ_section_title
;
Structure prediction by ZEFSAII (Michael W. Deem and Ramdas Pophale) SiO2 
 PCOD8145638
Probable space group: C 2/C
;
_chemical_formula_sum "Si O2"
_cell_formula_units_Z 64
_cell_length_a 11.851991
_cell_length_b 14.934385
_cell_length_c 18.007621
_cell_angle_alpha 90.000000
_cell_angle_beta 91.916996
_cell_angle_gamma 90.000000
_cell_volume 3185.604609
_symmetry_space_group_name_H-M "C 2/C"
_symmetry_group_IT_number 15
_symmetry_cell_setting 'monoclinic'
loop_
_space_group_symop_operation_xyz
x,y,z
-x,y,1/2-z
-x,-y,-z
x,-y,1/2+z
1/2+x,1/2+y,z
1/2-x,1/2+y,1/2-z
1/2-x,1/2-y,-z
1/2+x,1/2-y,1/2+z
loop_
_atom_site_type_symbol
_atom_site_label
_atom_site_fract_x
_atom_site_fract_y
_atom_site_fract_z
Si Si1 0.955491 0.037617 0.575329
Si Si2 0.706149 0.451050 0.815283
Si Si3 0.716706 0.686857 0.933500
Si Si4 0.869955 0.495404 0.076437
Si Si5 0.882055 0.544728 0.910919
Si Si6 0.661454 0.784099 0.697605
Si Si7 0.826790 0.922444 0.326736
Si Si8 0.928131 0.320459 0.650297
O O1 0.867018 0.109144 0.542172
O O2 0.054167 0.077821 0.628490
O O3 0.889595 0.965487 0.624733
O O4 0.000000 0.000000 0.500000
O O5 0.828430 0.487479 0.843220
O O6 0.723992 0.343001 0.810351
O O7 0.672280 0.503190 0.738718
O O8 0.831934 0.644506 0.904841
O O9 0.651696 0.736629 0.867662
O O10 0.750000 0.750000 0.000000
O O11 0.769464 0.445086 0.115738
O O12 0.883503 0.597548 0.101235
O O13 0.985109 0.443762 0.098636
O O14 0.850183 0.495391 0.987737
O O15 0.692282 0.678579 0.705086
O O16 0.560447 0.798467 0.634113
O O17 0.598604 0.832042 0.764404
#
# Coordination Sequence:
#
# PCOD8145638 Si02
#       8
#     8   8   8   8   8   8   8   8
#     4  11  25  44  63  94 133 173 210 264 334 395
#     4  11  23  42  67  93 129 168 217 271 319 389
#     4  11  21  39  65  92 120 168 218 261 308 390
#     4  11  22  41  66  93 133 167 212 269 328 377
#     4  10  22  39  63  97 129 166 213 267 322 382
#     4  11  23  40  65  96 125 167 222 267 325 385
#     4  12  24  43  67  95 132 174 215 270 331 389
#     4  11  21  40  65  93 125 168 218 266 311 395
#
# _framework density 20.090378000000001
#
# number of rings (size 3 to 8) (size 9 to 14) (size 15 to 20)
#    0.000    1.000    5.000    3.375    1.750    0.500 
#    2.250    1.250    2.750    0.000    0.000    0.000 
#    0.000    0.000    0.000    0.000    0.000    0.000 
#
# Total GULP energy -396545.527132 kJ/mol
# GULP energy per Si atom -12392.047723 kJ/mol
# Density = 2.004465 g / cm^3
# Si number density = 20.090378 Si / 1000 Ang^3
#
#
#
# Elastic Constant Matrix: (Units=GPa)
#
#
# Indices 1 2 3 4 5 6 
#
# 1 104.2022 33.1697 16.7130 0.0000 -11.6603 0.0000
# 2 33.1697 106.2747 8.4759 0.0000 -6.8150 0.0000
# 3 16.7130 8.4759 64.7794 0.0000 -6.3217 0.0000
# 4 0.0000 0.0000 0.0000 26.8802 0.0000 7.0609
# 5 -11.6603 -6.8150 -6.3217 0.0000 34.8751 0.0000
# 6 0.0000 0.0000 0.0000 7.0609 0.0000 32.1392
#
#
#
# Elastic Compliance Matrix: (Units=1/GPa)
#
#
# Indices 1 2 3 4 5 6 
#
# 1 0.011268 -0.003163 -0.002225 0.000000 0.002746 0.000000
# 2 -0.003163 0.010492 -0.000468 0.000000 0.000908 0.000000
# 3 -0.002225 -0.000468 0.016279 0.000000 0.002115 0.000000
# 4 0.000000 0.000000 0.000000 0.039481 0.000000 -0.008674
# 5 0.002746 0.000908 0.002115 0.000000 0.030153 0.000000
# 6 0.000000 0.000000 0.000000 -0.008674 0.000000 0.033020
#
#
# Mechanical properties :
#
#
# Convention : Reuss Voigt Hill
#
# Bulk Modulus (GPa) = 37.98561 43.55261 40.76911
# Shear Modulus (GPa) = 31.02101 33.23873 32.12987
#
# Velocity S-wave (km/s) = 3.93373 4.07192 4.00342
# Velocity P-wave (km/s) = 6.29132 6.62063 6.45808
#
# Compressibility (1/GPa) = 0.02632576
#
# Stress axis : x y z
#
# Youngs Moduli (GPa) = 88.74818 95.30679 61.42960
#
# Poissons Ratio (x) = 0.30148 0.13670
# Poissons Ratio (y) = 0.28074 0.02876
# Poissons Ratio (z) = 0.19749 0.04462
#
# Static dielectric constant tensor:
#      x y z
#    x 4.184040 0.000000 0.276340 
#    y 0.000000 4.845590 0.000000 
#    z 0.276340 0.000000 3.701880 
# 
# 
# High freq. dielectric constant tensor:
#      x y z
#    x 1.793980 0.000000 0.017910 
#    y 0.000000 1.777590 0.000000 
#    z 0.017910 0.000000 1.783530 
# 
# From -- ./inp_files/198322.got.cif
#   From: 2010.06.25/outbox.cif.g09.slc.cpg/sg15_100_cif.got.tgz:198322.got - 2010.06.28 07:06:18.
