data_PCOD8145378
_publ_section_title
;
Structure prediction by ZEFSAII (Michael W. Deem and Ramdas Pophale) SiO2 
 PCOD8145378
Probable space group: C 2/C
;
_chemical_formula_sum "Si O2"
_cell_formula_units_Z 56
_cell_length_a 25.211129
_cell_length_b 10.495951
_cell_length_c 10.128683
_cell_angle_alpha 90.000000
_cell_angle_beta 71.594261
_cell_angle_gamma 90.000000
_cell_volume 2543.091946
_symmetry_space_group_name_H-M "C 2/C"
_symmetry_group_IT_number 15
_symmetry_cell_setting 'monoclinic'
loop_
_space_group_symop_operation_xyz
x,y,z
-x,y,1/2-z
-x,-y,-z
x,-y,1/2+z
1/2+x,1/2+y,z
1/2-x,1/2+y,1/2-z
1/2-x,1/2-y,-z
1/2+x,1/2-y,1/2+z
loop_
_atom_site_type_symbol
_atom_site_label
_atom_site_fract_x
_atom_site_fract_y
_atom_site_fract_z
Si Si1 0.474248 0.703050 0.141748
Si Si2 0.458407 0.194016 0.156879
Si Si3 0.094107 0.569013 0.799382
Si Si4 0.344077 0.699994 0.847866
Si Si5 0.772698 0.019067 0.303502
Si Si6 0.137590 0.188860 0.376277
Si Si7 0.701106 0.027455 0.106893
O O1 0.500000 0.630413 0.250000
O O2 0.453006 0.837548 0.222066
O O3 0.420017 0.624004 0.133227
O O4 0.514363 0.728719 0.985451
O O5 0.500000 0.179549 0.250000
O O6 0.404322 0.271646 0.241574
O O7 0.437521 0.055821 0.119696
O O8 0.127491 0.655708 0.884343
O O9 0.138468 0.530377 0.651942
O O10 0.314097 0.600982 0.775653
O O11 0.303239 0.820404 0.898725
O O12 0.351312 0.637319 0.986147
O O13 0.809798 0.146822 0.254627
O O14 0.729674 0.991819 0.221454
O O15 0.737102 0.035447 0.463689
#
# Coordination Sequence:
#
# PCOD8145378 Si02
#       7
#     8   8   8   8   8   8   8
#     4  10  22  38  64  98 136 161 210 280 329 376
#     4  11  20  39  72  97 127 182 215 268 341 392
#     4   9  22  38  64 101 133 158 224 262 334 396
#     4  11  24  45  68  96 133 174 231 260 330 412
#     4  12  25  43  68  93 132 178 222 270 328 383
#     4  10  23  44  64  93 139 170 213 276 323 401
#     4  11  25  41  71  95 130 178 216 275 330 390
#
# _framework density 22.020437999999999
#
# number of rings (size 3 to 8) (size 9 to 14) (size 15 to 20)
#    0.857    0.571    2.857    2.143    2.000    6.286 
#    0.000    1.429    0.000    0.000    0.000    0.000 
#    0.000    0.000    0.000    0.000    0.000    0.000 
#
# Total GULP energy -346934.612113 kJ/mol
# GULP energy per Si atom -12390.521861 kJ/mol
# Density = 2.197032 g / cm^3
# Si number density = 22.020438 Si / 1000 Ang^3
#
#
#
# Elastic Constant Matrix: (Units=GPa)
#
#
# Indices 1 2 3 4 5 6 
#
# 1 96.1533 13.0919 24.0686 0.0000 3.0909 0.0000
# 2 13.0919 24.6827 10.5694 0.0000 2.7468 0.0000
# 3 24.0686 10.5694 -18.7815 0.0000 21.6559 0.0000
# 4 0.0000 0.0000 0.0000 21.4870 0.0000 -5.4942
# 5 3.0909 2.7468 21.6559 0.0000 41.8521 0.0000
# 6 0.0000 0.0000 0.0000 -5.4942 0.0000 17.1269
#
#
#
# Elastic Compliance Matrix: (Units=1/GPa)
#
#
# Indices 1 2 3 4 5 6 
#
# 1 0.010154 -0.007346 0.005368 0.000000 -0.003045 0.000000
# 2 -0.007346 0.041953 0.007294 0.000000 -0.005985 0.000000
# 3 0.005368 0.007294 -0.027100 0.000000 0.013148 0.000000
# 4 0.000000 0.000000 0.000000 0.050698 0.000000 0.016264
# 5 -0.003045 -0.005985 0.013148 0.000000 0.017708 0.000000
# 6 0.000000 0.000000 0.000000 0.016264 0.000000 0.063605
#
#
# Mechanical properties :
#
#
# Convention : Reuss Voigt Hill
#
# Bulk Modulus (GPa) = 28.05815 21.94605 25.00210
# Shear Modulus (GPa) = 31.59240 19.71482 25.65361
#
# Velocity S-wave (km/s) = 3.79183 2.99540 3.41690
# Velocity P-wave (km/s) = 5.65157 4.68520 5.19092
#
# Compressibility (1/GPa) = 0.03564027
#
# Stress axis : x y z
#
# Youngs Moduli (GPa) = 98.47872 23.83622 -36.90001
#
# Poissons Ratio (x) = 0.17509 0.19807
# Poissons Ratio (y) = 0.72339 0.26917
# Poissons Ratio (z) = -0.52861 -0.17387
#
# Static dielectric constant tensor:
#      x y z
#    x 4.301830 0.000000 -0.201880 
#    y 0.000000 3.638120 0.000000 
#    z -0.201880 0.000000 3.957700 
# 
# 
# High freq. dielectric constant tensor:
#      x y z
#    x 1.893670 0.000000 -0.011660 
#    y 0.000000 1.835170 0.000000 
#    z -0.011660 0.000000 1.857440 
# 
# From -- ./inp_files/65439.got.cif
#   From: 2010.06.25/outbox.cif.g09.slc.cpg/sg15_33_cif.got.tgz:65439.got - 2010.06.28 07:06:18.
