data_PCOD8145005
_publ_section_title
;
Structure prediction by ZEFSAII (Michael W. Deem and Ramdas Pophale) SiO2 
 PCOD8145005
Probable space group: C 2/C
;
_chemical_formula_sum "Si O2"
_cell_formula_units_Z 48
_cell_length_a 17.542177
_cell_length_b 23.317662
_cell_length_c 10.531790
_cell_angle_alpha 90.000000
_cell_angle_beta 29.143857
_cell_angle_gamma 90.000000
_cell_volume 2097.989303
_symmetry_space_group_name_H-M "C 2/C"
_symmetry_group_IT_number 15
_symmetry_cell_setting 'monoclinic'
loop_
_space_group_symop_operation_xyz
x,y,z
-x,y,1/2-z
-x,-y,-z
x,-y,1/2+z
1/2+x,1/2+y,z
1/2-x,1/2+y,1/2-z
1/2-x,1/2-y,-z
1/2+x,1/2-y,1/2+z
loop_
_atom_site_type_symbol
_atom_site_label
_atom_site_fract_x
_atom_site_fract_y
_atom_site_fract_z
Si Si1 0.829161 0.632887 0.531603
Si Si2 0.880251 0.941808 0.315092
Si Si3 0.322796 0.288187 0.054909
Si Si4 0.658710 0.447834 0.745147
Si Si5 0.402473 0.014903 0.519958
Si Si6 0.830855 0.333222 0.461046
O O1 0.754763 0.605900 0.509074
O O2 0.715896 0.681575 0.754543
O O3 0.848472 0.581075 0.604688
O O4 0.000000 0.659072 0.250000
O O5 0.000000 0.923638 0.250000
O O6 0.812763 0.007836 0.416694
O O7 0.975397 0.943258 0.043231
O O8 0.187330 0.307838 0.153974
O O9 0.500000 0.302697 0.750000
O O10 0.303023 0.219421 0.100267
O O11 0.753670 0.471658 0.730966
O O12 0.706585 0.383472 0.647340
O O13 0.500000 0.003941 0.250000
O O14 0.500000 0.000000 0.500000
O O15 0.000000 0.359460 0.250000
#
# Coordination Sequence:
#
# PCOD8145005 Si02
#       6
#     8   8   8   8   8   8
#     4  10  23  41  63  95 133 176 218 276 333 402
#     4  10  23  40  60  92 130 172 218 268 332 410
#     4  10  22  42  66  93 132 166 221 279 330 391
#     4  10  22  36  60  89 126 168 217 267 331 387
#     4  10  23  37  59  97 133 171 216 272 333 403
#     4  10  22  38  64  97 122 166 221 276 327 389
#
# _framework density 22.879048000000001
#
# number of rings (size 3 to 8) (size 9 to 14) (size 15 to 20)
#    0.000    2.000    0.000    1.500   11.667    4.000 
#    0.000    0.833    0.000   11.000    0.000    0.000 
#    0.000    0.000    0.000    0.000    0.000    0.000 
#
# Total GULP energy -297429.548365 kJ/mol
# GULP energy per Si atom -12392.897849 kJ/mol
# Density = 2.282697 g / cm^3
# Si number density = 22.879048 Si / 1000 Ang^3
#
#
#
# Elastic Constant Matrix: (Units=GPa)
#
#
# Indices 1 2 3 4 5 6 
#
# 1 123.7102 20.5735 10.3737 -0.0062 -25.2984 -0.0016
# 2 20.5735 123.5995 40.4422 0.0036 4.8678 -0.0050
# 3 10.3737 40.4422 90.6588 -0.0342 -15.3187 0.0031
# 4 -0.0062 0.0036 -0.0342 21.5203 0.0072 -4.0445
# 5 -25.2984 4.8678 -15.3187 0.0072 30.2325 0.0087
# 6 -0.0016 -0.0050 0.0031 -4.0445 0.0087 22.9596
#
#
#
# Elastic Compliance Matrix: (Units=1/GPa)
#
#
# Indices 1 2 3 4 5 6 
#
# 1 0.010439 -0.002689 0.001700 0.000002 0.010029 -0.000004
# 2 -0.002689 0.010632 -0.005583 -0.000008 -0.006791 0.000004
# 3 0.001700 -0.005583 0.015003 0.000021 0.009923 -0.000003
# 4 0.000002 -0.000008 0.000021 0.048059 0.000000 0.008466
# 5 0.010029 -0.006791 0.009923 0.000000 0.047591 -0.000020
# 6 -0.000004 0.000004 -0.000003 0.008466 -0.000020 0.045046
#
#
# Mechanical properties :
#
#
# Convention : Reuss Voigt Hill
#
# Bulk Modulus (GPa) = 43.60971 53.41636 48.51303
# Shear Modulus (GPa) = 25.30906 32.71443 29.01174
#
# Velocity S-wave (km/s) = 3.32958 3.78549 3.56483
# Velocity P-wave (km/s) = 5.82099 6.51955 6.18014
#
# Compressibility (1/GPa) = 0.02293067
#
# Stress axis : x y z
#
# Youngs Moduli (GPa) = 95.79424 94.05268 66.65310
#
# Poissons Ratio (x) = 0.25288 -0.11329
# Poissons Ratio (y) = 0.25757 0.37211
# Poissons Ratio (z) = -0.16281 0.52507
#
# Static dielectric constant tensor:
#      x y z
#    x 3.958930 -0.000030 -0.303810 
#    y -0.000030 4.164110 0.000060 
#    z -0.303810 0.000060 4.214640 
# 
# 
# High freq. dielectric constant tensor:
#      x y z
#    x 1.892410 0.000000 -0.035410 
#    y 0.000000 1.893970 0.000000 
#    z -0.035410 0.000000 1.900120 
# 
# From -- ./inp_files/108052.got.cif
#   From: 2010.06.25/outbox.cif.g09.slc.cpg/sg15_55_cif.got.tgz:108052.got - 2010.06.28 07:06:18.
