data_PCOD8145524
_publ_section_title
;
Structure prediction by ZEFSAII (Michael W. Deem and Ramdas Pophale) SiO2 
 PCOD8145524
Probable space group: C 2/C
;
_chemical_formula_sum "Si O2"
_cell_formula_units_Z 40
_cell_length_a 24.121636
_cell_length_b 8.294073
_cell_length_c 10.898487
_cell_angle_alpha 90.000000
_cell_angle_beta 57.529954
_cell_angle_gamma 90.000000
_cell_volume 1839.562624
_symmetry_space_group_name_H-M "C 2/C"
_symmetry_group_IT_number 15
_symmetry_cell_setting 'monoclinic'
loop_
_space_group_symop_operation_xyz
x,y,z
-x,y,1/2-z
-x,-y,-z
x,-y,1/2+z
1/2+x,1/2+y,z
1/2-x,1/2+y,1/2-z
1/2-x,1/2-y,-z
1/2+x,1/2-y,1/2+z
loop_
_atom_site_type_symbol
_atom_site_label
_atom_site_fract_x
_atom_site_fract_y
_atom_site_fract_z
Si Si1 0.446061 0.021355 0.213914
Si Si2 0.120206 0.335116 0.393785
Si Si3 0.680442 0.926271 0.993921
Si Si4 0.175905 0.113129 0.121388
Si Si5 0.569252 0.644242 0.688554
O O1 0.500000 0.960765 0.250000
O O2 0.449767 0.214297 0.191150
O O3 0.446844 0.914450 0.087274
O O4 0.371738 0.990030 0.346382
O O5 0.164885 0.488084 0.383009
O O6 0.163475 0.224051 0.254725
O O7 0.097093 0.226593 0.533490
O O8 0.754059 0.974704 0.948469
O O9 0.675491 0.729070 0.000642
O O10 0.120491 0.978835 0.182801
O O11 0.500000 0.550626 0.750000
#
# Coordination Sequence:
#
# PCOD8145524 Si02
#       5
#     8   8   8   8   8
#     4   9  20  39  61  86 118 155 198 241 289 356
#     4  10  22  39  61  84 118 164 195 234 302 353
#     4   9  21  39  59  85 117 155 198 237 289 355
#     4  10  22  39  60  90 122 151 197 251 288 340
#     4  10  23  39  59  90 119 150 198 248 292 344
#
# _framework density 21.744299999999999
#
# number of rings (size 3 to 8) (size 9 to 14) (size 15 to 20)
#    0.000    2.400    0.000    0.000    0.000   22.400 
#    0.000    0.000    0.000    0.000    0.000    0.000 
#    0.000    0.000    0.000    0.000    0.000    0.000 
#
# Total GULP energy -247773.048838 kJ/mol
# GULP energy per Si atom -12388.652442 kJ/mol
# Density = 2.169481 g / cm^3
# Si number density = 21.744300 Si / 1000 Ang^3
#
#
#
# Elastic Constant Matrix: (Units=GPa)
#
#
# Indices 1 2 3 4 5 6 
#
# 1 146.2599 63.3049 24.3092 0.0000 -9.6814 0.0000
# 2 63.3049 81.3299 31.2010 0.0000 9.3846 0.0000
# 3 24.3092 31.2010 37.9326 0.0000 6.5260 0.0000
# 4 0.0000 0.0000 0.0000 35.1407 0.0000 3.1923
# 5 -9.6814 9.3846 6.5260 0.0000 41.0025 0.0000
# 6 0.0000 0.0000 0.0000 3.1923 0.0000 45.9834
#
#
#
# Elastic Compliance Matrix: (Units=1/GPa)
#
#
# Indices 1 2 3 4 5 6 
#
# 1 0.011149 -0.009019 -0.000549 0.000000 0.004784 0.000000
# 2 -0.009019 0.025392 -0.014127 0.000000 -0.005693 0.000000
# 3 -0.000549 -0.014127 0.038864 0.000000 -0.003082 0.000000
# 4 0.000000 0.000000 0.000000 0.028638 0.000000 -0.001988
# 5 0.004784 -0.005693 -0.003082 0.000000 0.027312 0.000000
# 6 0.000000 0.000000 0.000000 -0.001988 0.000000 0.021885
#
#
# Mechanical properties :
#
#
# Convention : Reuss Voigt Hill
#
# Bulk Modulus (GPa) = 35.69466 55.90585 45.80025
# Shear Modulus (GPa) = 23.81304 34.20582 29.00943
#
# Velocity S-wave (km/s) = 3.31288 3.97053 3.65652
# Velocity P-wave (km/s) = 5.57538 6.84007 6.23985
#
# Compressibility (1/GPa) = 0.02801539
#
# Stress axis : x y z
#
# Youngs Moduli (GPa) = 89.69503 39.38187 25.73049
#
# Poissons Ratio (x) = 0.35520 0.01413
# Poissons Ratio (y) = 0.80899 0.36349
# Poissons Ratio (z) = 0.04925 0.55633
#
# Static dielectric constant tensor:
#      x y z
#    x 4.269520 0.000000 0.028390 
#    y 0.000000 4.081610 0.000000 
#    z 0.028390 0.000000 4.078210 
# 
# 
# High freq. dielectric constant tensor:
#      x y z
#    x 1.860490 0.000000 -0.020420 
#    y 0.000000 1.845600 0.000000 
#    z -0.020420 0.000000 1.852680 
# 
# From -- ./inp_files/102838.got.cif
#   From: 2010.06.25/outbox.cif.g09.slc.cpg/sg15_52_cif.got.tgz:102838.got - 2010.06.28 07:06:18.
