data_PCOD8145210
_publ_section_title
;
Structure prediction by ZEFSAII (Michael W. Deem and Ramdas Pophale) SiO2 
 PCOD8145210
Probable space group: C 2/C
;
_chemical_formula_sum "Si O2"
_cell_formula_units_Z 64
_cell_length_a 18.335155
_cell_length_b 16.904653
_cell_length_c 22.311955
_cell_angle_alpha 90.000000
_cell_angle_beta 150.510636
_cell_angle_gamma 90.000000
_cell_volume 3404.276054
_symmetry_space_group_name_H-M "C 2/C"
_symmetry_group_IT_number 15
_symmetry_cell_setting 'monoclinic'
loop_
_space_group_symop_operation_xyz
x,y,z
-x,y,1/2-z
-x,-y,-z
x,-y,1/2+z
1/2+x,1/2+y,z
1/2-x,1/2+y,1/2-z
1/2-x,1/2-y,-z
1/2+x,1/2-y,1/2+z
loop_
_atom_site_type_symbol
_atom_site_label
_atom_site_fract_x
_atom_site_fract_y
_atom_site_fract_z
Si Si1 0.940322 0.451226 0.012173
Si Si2 0.866401 0.976720 0.009909
Si Si3 0.044539 0.852745 0.069861
Si Si4 0.675609 0.796415 0.618570
Si Si5 0.661143 0.531154 0.383536
Si Si6 0.885249 0.100951 0.340749
Si Si7 0.665562 0.718406 0.382289
Si Si8 0.708863 0.977817 0.279819
O O1 0.040533 0.454301 0.144330
O O2 0.939334 0.361758 0.987083
O O3 0.780559 0.487005 0.916797
O O4 0.000000 0.500000 0.000000
O O5 0.938864 0.889708 0.046734
O O6 0.794083 0.982426 0.023994
O O7 0.995114 0.042403 0.102312
O O8 0.738990 0.998785 0.870505
O O9 0.100432 0.761349 0.115154
O O10 0.187523 0.906571 0.166191
O O11 0.953893 0.850564 0.943962
O O12 0.825738 0.837258 0.750151
O O13 0.734625 0.750934 0.602021
O O14 0.500000 0.498836 0.250000
O O15 0.660796 0.625008 0.390828
O O16 0.744193 0.052635 0.263429
O O17 0.500000 0.751112 0.250000
O O18 0.750000 0.750000 0.500000
#
# Coordination Sequence:
#
# PCOD8145210 Si02
#       8
#     8   8   8   8   8   8   8   8
#     4  11  22  37  55  87 116 145 188 241 295 336
#     4   9  18  38  59  77 111 151 204 233 275 352
#     4   9  21  32  56  84 106 151 192 238 282 339
#     4  11  22  33  56  80 118 148 188 239 294 350
#     4  10  22  38  59  80 108 158 192 227 290 352
#     4   9  17  35  54  76 110 151 191 232 283 340
#     4  10  23  36  50  76 115 157 186 230 289 355
#     4   9  19  34  56  79 109 150 191 243 281 331
#
# _framework density 18.799885
#
# number of rings (size 3 to 8) (size 9 to 14) (size 15 to 20)
#    0.000    2.250    1.250    3.750    8.750    1.500 
#    0.000    0.000    0.000    0.750    0.000    0.000 
#    0.000    0.000    0.000    0.000    0.000    0.000 
#
# Total GULP energy -396476.531604 kJ/mol
# GULP energy per Si atom -12389.891613 kJ/mol
# Density = 1.875710 g / cm^3
# Si number density = 18.799885 Si / 1000 Ang^3
#
#
#
# Elastic Constant Matrix: (Units=GPa)
#
#
# Indices 1 2 3 4 5 6 
#
# 1 99.9066 39.2177 33.1603 0.0002 -3.7138 -0.0006
# 2 39.2177 69.6546 31.1068 -0.0066 0.6805 -0.0023
# 3 33.1603 31.1068 124.7060 -0.0124 -0.2047 -0.0041
# 4 0.0002 -0.0066 -0.0124 21.0052 -0.0023 -4.9849
# 5 -3.7138 0.6805 -0.2047 -0.0023 25.3630 -0.0001
# 6 -0.0006 -0.0023 -0.0041 -4.9849 -0.0001 28.4756
#
#
#
# Elastic Compliance Matrix: (Units=1/GPa)
#
#
# Indices 1 2 3 4 5 6 
#
# 1 0.013337 -0.006693 -0.001873 -0.000003 0.002117 -0.000001
# 2 -0.006693 0.019521 -0.003092 0.000005 -0.001529 0.000002
# 3 -0.001873 -0.003092 0.009288 0.000005 -0.000116 0.000002
# 4 -0.000003 0.000005 0.000005 0.049671 0.000004 0.008695
# 5 0.002117 -0.001529 -0.000116 0.000004 0.039778 0.000001
# 6 -0.000001 0.000002 0.000002 0.008695 0.000001 0.036640
#
#
# Mechanical properties :
#
#
# Convention : Reuss Voigt Hill
#
# Bulk Modulus (GPa) = 53.11029 55.69297 54.40163
# Shear Modulus (GPa) = 25.27441 27.68759 26.48100
#
# Velocity S-wave (km/s) = 3.67057 3.84181 3.75717
# Velocity P-wave (km/s) = 6.80263 7.02622 6.91533
#
# Compressibility (1/GPa) = 0.01882874
#
# Stress axis : x y z
#
# Youngs Moduli (GPa) = 74.97762 51.22712 107.66468
#
# Poissons Ratio (x) = 0.34288 0.20170
# Poissons Ratio (y) = 0.50185 0.33290
# Poissons Ratio (z) = 0.14046 0.15839
#
# Static dielectric constant tensor:
#      x y z
#    x 3.469800 -0.000010 0.078130 
#    y -0.000010 3.333490 -0.000010 
#    z 0.078130 -0.000010 3.807010 
# 
# 
# High freq. dielectric constant tensor:
#      x y z
#    x 1.708720 0.000000 -0.009340 
#    y 0.000000 1.699930 0.000000 
#    z -0.009340 0.000000 1.746690 
# 
# From -- ./inp_files/249667.got.cif
#   From: 2010.06.25/outbox.cif.g09.slc.cpg/sg15_125_cif.got.tgz:249667.got - 2010.06.28 07:06:18.
