data_PCOD8145155
_publ_section_title
;
Structure prediction by ZEFSAII (Michael W. Deem and Ramdas Pophale) SiO2 
 PCOD8145155
Probable space group: C 2/C
;
_chemical_formula_sum "Si O2"
_cell_formula_units_Z 64
_cell_length_a 16.458615
_cell_length_b 12.259563
_cell_length_c 19.745478
_cell_angle_alpha 90.000000
_cell_angle_beta 45.365552
_cell_angle_gamma 90.000000
_cell_volume 2835.137736
_symmetry_space_group_name_H-M "C 2/C"
_symmetry_group_IT_number 15
_symmetry_cell_setting 'monoclinic'
loop_
_space_group_symop_operation_xyz
x,y,z
-x,y,1/2-z
-x,-y,-z
x,-y,1/2+z
1/2+x,1/2+y,z
1/2-x,1/2+y,1/2-z
1/2-x,1/2-y,-z
1/2+x,1/2-y,1/2+z
loop_
_atom_site_type_symbol
_atom_site_label
_atom_site_fract_x
_atom_site_fract_y
_atom_site_fract_z
Si Si1 0.273469 0.205420 0.880588
Si Si2 0.659439 0.109640 0.519333
Si Si3 0.817811 0.143482 0.767092
Si Si4 0.600234 0.253630 0.031657
Si Si5 0.060899 0.106939 0.941119
Si Si6 0.934935 0.367118 0.716887
Si Si7 0.603768 0.899006 0.310607
Si Si8 0.299104 0.397762 0.419372
O O1 0.334821 0.172048 0.913198
O O2 0.162546 0.130798 0.933245
O O3 0.362521 0.193411 0.765803
O O4 0.225602 0.328610 0.919321
O O5 0.524156 0.105432 0.584899
O O6 0.719647 0.993427 0.494138
O O7 0.892808 0.096217 0.662307
O O8 0.840130 0.272612 0.765686
O O9 0.684874 0.119754 0.827873
O O10 0.854844 0.075843 0.813315
O O11 0.534442 0.296972 0.003595
O O12 0.531030 0.153742 0.104431
O O13 0.610314 0.357478 0.078017
O O14 0.724315 0.208988 0.941137
O O15 0.000000 0.000000 0.000000
O O16 0.875303 0.483520 0.737575
O O17 0.000000 0.368387 0.750000
#
# Coordination Sequence:
#
# PCOD8145155 Si02
#       8
#     8   8   8   8   8   8   8   8
#     4  10  24  44  63  96 130 174 237 275 330 421
#     4  11  23  43  69  92 133 179 224 282 339 409
#     4  10  25  39  62 102 140 164 224 291 333 403
#     4  10  22  37  67 101 132 173 223 284 341 407
#     4  10  22  43  63  90 135 180 217 271 340 410
#     4  11  20  42  71  96 132 182 229 280 337 410
#     4  11  24  43  71  98 132 185 231 277 347 415
#     4  11  22  39  63 103 133 168 220 286 344 394
#
# _framework density 22.573858999999999
#
# number of rings (size 3 to 8) (size 9 to 14) (size 15 to 20)
#    0.000    1.500    2.500    1.875    1.750    5.500 
#    2.250    0.000    5.500    0.000    0.000    0.000 
#    0.000    0.000    0.000    0.000    0.000    0.000 
#
# Total GULP energy -396617.971261 kJ/mol
# GULP energy per Si atom -12394.311602 kJ/mol
# Density = 2.252248 g / cm^3
# Si number density = 22.573859 Si / 1000 Ang^3
#
#
#
# Elastic Constant Matrix: (Units=GPa)
#
#
# Indices 1 2 3 4 5 6 
#
# 1 90.1616 27.6360 0.7834 0.0000 -9.8488 0.0000
# 2 27.6360 86.0613 28.0351 0.0000 -3.9499 0.0000
# 3 0.7834 28.0351 50.4056 0.0000 -2.5795 0.0000
# 4 0.0000 0.0000 0.0000 35.8266 0.0000 -7.8561
# 5 -9.8488 -3.9499 -2.5795 0.0000 30.4095 0.0000
# 6 0.0000 0.0000 0.0000 -7.8561 0.0000 33.7094
#
#
#
# Elastic Compliance Matrix: (Units=1/GPa)
#
#
# Indices 1 2 3 4 5 6 
#
# 1 0.012976 -0.004873 0.002703 0.000000 0.003799 0.000000
# 2 -0.004873 0.016063 -0.008871 0.000000 -0.000244 0.000000
# 3 0.002703 -0.008871 0.024825 0.000000 0.001829 0.000000
# 4 0.000000 0.000000 0.000000 0.029415 0.000000 0.006855
# 5 0.003799 -0.000244 0.001829 0.000000 0.034238 0.000000
# 6 0.000000 0.000000 0.000000 0.006855 0.000000 0.031263
#
#
# Mechanical properties :
#
#
# Convention : Reuss Voigt Hill
#
# Bulk Modulus (GPa) = 31.46415 37.72637 34.59526
# Shear Modulus (GPa) = 27.55478 31.33402 29.44440
#
# Velocity S-wave (km/s) = 3.49757 3.72972 3.61551
# Velocity P-wave (km/s) = 5.50266 5.94108 5.72607
#
# Compressibility (1/GPa) = 0.03178220
#
# Stress axis : x y z
#
# Youngs Moduli (GPa) = 77.06286 62.25466 40.28269
#
# Poissons Ratio (x) = 0.30338 -0.10889
# Poissons Ratio (y) = 0.37554 0.35734
# Poissons Ratio (z) = -0.20831 0.55225
#
# Static dielectric constant tensor:
#      x y z
#    x 4.304650 0.000000 0.028220 
#    y 0.000000 3.977500 0.000000 
#    z 0.028220 0.000000 3.966780 
# 
# 
# High freq. dielectric constant tensor:
#      x y z
#    x 1.902170 0.000000 -0.002890 
#    y 0.000000 1.871950 0.000000 
#    z -0.002890 0.000000 1.888860 
# 
# From -- ./inp_files/248600.got.cif
#   From: 2010.06.25/outbox.cif.g09.slc.cpg/sg15_125_cif.got.tgz:248600.got - 2010.06.28 07:06:18.
