data_PCOD8145611
_publ_section_title
;
Structure prediction by ZEFSAII (Michael W. Deem and Ramdas Pophale) SiO2 
 PCOD8145611
Probable space group: C 2/C
;
_chemical_formula_sum "Si O2"
_cell_formula_units_Z 48
_cell_length_a 5.086267
_cell_length_b 25.398742
_cell_length_c 17.893929
_cell_angle_alpha 90.000000
_cell_angle_beta 115.974190
_cell_angle_gamma 90.000000
_cell_volume 2078.129567
_symmetry_space_group_name_H-M "C 2/C"
_symmetry_group_IT_number 15
_symmetry_cell_setting 'monoclinic'
loop_
_space_group_symop_operation_xyz
x,y,z
-x,y,1/2-z
-x,-y,-z
x,-y,1/2+z
1/2+x,1/2+y,z
1/2-x,1/2+y,1/2-z
1/2-x,1/2-y,-z
1/2+x,1/2-y,1/2+z
loop_
_atom_site_type_symbol
_atom_site_label
_atom_site_fract_x
_atom_site_fract_y
_atom_site_fract_z
Si Si1 0.749719 0.715381 0.426611
Si Si2 0.174478 0.861167 0.694349
Si Si3 0.802558 0.028797 0.536101
Si Si4 0.667513 0.179409 0.846590
Si Si5 0.813031 0.353871 0.447929
Si Si6 0.824832 0.978019 0.801525
O O1 0.750000 0.750000 0.500000
O O2 0.485462 0.673442 0.388937
O O3 0.697867 0.756885 0.353510
O O4 0.057838 0.683319 0.469243
O O5 0.500000 0.839189 0.750000
O O6 0.196571 0.920392 0.661994
O O7 0.000000 0.857868 0.750000
O O8 0.715139 0.089385 0.516386
O O9 0.500000 0.000000 0.500000
O O10 0.000000 0.000000 0.500000
O O11 0.987741 0.022364 0.634314
O O12 0.500000 0.163728 0.750000
O O13 0.523556 0.150652 0.901028
O O14 0.997576 0.161180 0.879778
O O15 0.500000 0.001308 0.750000
O O16 0.000000 0.965277 0.750000
#
# Coordination Sequence:
#
# PCOD8145611 Si02
#       6
#     8   8   8   8   8   8
#     4  10  23  41  64  93 130 170 215 268 326 388
#     4  10  22  39  63  90 120 159 206 259 314 373
#     4  12  25  43  68  97 130 170 215 266 324 391
#     4  11  24  43  65  94 129 173 222 270 327 395
#     4  11  25  43  65  95 132 173 216 272 330 391
#     4  10  22  41  64  93 125 163 210 263 322 384
#
# _framework density 23.097695999999999
#
# number of rings (size 3 to 8) (size 9 to 14) (size 15 to 20)
#    0.000    1.333    0.000    4.500    0.000   14.000 
#    0.000    0.000    0.000    0.000    0.000    0.000 
#    0.000    0.000    0.000    0.000    0.000    0.000 
#
# Total GULP energy -297394.358018 kJ/mol
# GULP energy per Si atom -12391.431584 kJ/mol
# Density = 2.304512 g / cm^3
# Si number density = 23.097696 Si / 1000 Ang^3
#
#
#
# Elastic Constant Matrix: (Units=GPa)
#
#
# Indices 1 2 3 4 5 6 
#
# 1 131.2170 35.4627 40.8336 0.0000 30.1765 0.0000
# 2 35.4627 130.1051 31.2967 0.0000 12.7981 0.0000
# 3 40.8336 31.2967 103.9178 0.0000 35.8624 0.0000
# 4 0.0000 0.0000 0.0000 36.6316 0.0000 13.7287
# 5 30.1765 12.7981 35.8624 0.0000 48.6062 0.0000
# 6 0.0000 0.0000 0.0000 13.7287 0.0000 32.7952
#
#
#
# Elastic Compliance Matrix: (Units=1/GPa)
#
#
# Indices 1 2 3 4 5 6 
#
# 1 0.009623 -0.001778 -0.001805 0.000000 -0.004174 0.000000
# 2 -0.001778 0.008623 -0.002006 0.000000 0.000314 0.000000
# 3 -0.001805 -0.002006 0.013909 0.000000 -0.008613 0.000000
# 4 0.000000 0.000000 0.000000 0.032379 0.000000 -0.013554
# 5 -0.004174 0.000314 -0.008613 0.000000 0.029437 0.000000
# 6 0.000000 0.000000 0.000000 -0.013554 0.000000 0.036166
#
#
# Mechanical properties :
#
#
# Convention : Reuss Voigt Hill
#
# Bulk Modulus (GPa) = 47.67558 64.49175 56.08366
# Shear Modulus (GPa) = 33.71341 40.78306 37.24823
#
# Velocity S-wave (km/s) = 3.82462 4.20655 4.02012
# Velocity P-wave (km/s) = 6.33950 7.18160 6.77365
#
# Compressibility (1/GPa) = 0.02097510
#
# Stress axis : x y z
#
# Youngs Moduli (GPa) = 103.91447 115.97526 71.89523
#
# Poissons Ratio (x) = 0.20622 0.12979
# Poissons Ratio (y) = 0.18477 0.14426
# Poissons Ratio (z) = 0.18760 0.23270
#
# Static dielectric constant tensor:
#      x y z
#    x 4.026450 0.000000 0.284650 
#    y 0.000000 4.403830 0.000000 
#    z 0.284650 0.000000 4.277710 
# 
# 
# High freq. dielectric constant tensor:
#      x y z
#    x 1.913240 0.000000 0.021100 
#    y 0.000000 1.919890 0.000000 
#    z 0.021100 0.000000 1.918960 
# 
# From -- ./inp_files/228256.got.cif
#   From: 2010.06.25/outbox.cif.g09.slc.cpg/sg15_115_cif.got.tgz:228256.got - 2010.06.28 07:06:18.
