data_PCOD8145867
_publ_section_title
;
Structure prediction by ZEFSAII (Michael W. Deem and Ramdas Pophale) SiO2 
 PCOD8145867
Probable space group: C 2/C
;
_chemical_formula_sum "Si O2"
_cell_formula_units_Z 40
_cell_length_a 15.896159
_cell_length_b 7.673557
_cell_length_c 16.938271
_cell_angle_alpha 90.000000
_cell_angle_beta 68.530900
_cell_angle_gamma 90.000000
_cell_volume 1922.773326
_symmetry_space_group_name_H-M "C 2/C"
_symmetry_group_IT_number 15
_symmetry_cell_setting 'monoclinic'
loop_
_space_group_symop_operation_xyz
x,y,z
-x,y,1/2-z
-x,-y,-z
x,-y,1/2+z
1/2+x,1/2+y,z
1/2-x,1/2+y,1/2-z
1/2-x,1/2-y,-z
1/2+x,1/2-y,1/2+z
loop_
_atom_site_type_symbol
_atom_site_label
_atom_site_fract_x
_atom_site_fract_y
_atom_site_fract_z
Si Si1 0.873682 0.666618 0.233996
Si Si2 0.406519 0.458484 0.490200
Si Si3 0.272702 0.421316 0.168279
Si Si4 0.162547 0.260859 0.081548
Si Si5 0.933791 0.380804 0.886511
O O1 0.785114 0.547922 0.256402
O O2 0.849870 0.844976 0.197878
O O3 0.895070 0.696862 0.318293
O O4 0.958968 0.586599 0.158446
O O5 0.500000 0.500000 0.500000
O O6 0.322176 0.479173 0.578997
O O7 0.396579 0.588498 0.417477
O O8 0.408079 0.258311 0.462181
O O9 0.199202 0.280400 0.158888
O O10 0.106663 0.433001 0.076457
O O11 0.250000 0.250000 0.000000
#
# Coordination Sequence:
#
# PCOD8145867 Si02
#       5
#     8   8   8   8   8
#     4  10  22  40  61  92 127 166 208 259 325 371
#     4  11  22  41  66  95 122 164 219 255 312 376
#     4  10  22  41  60  93 126 161 210 260 318 377
#     4   9  22  40  61  91 122 157 208 256 310 374
#     4  10  22  43  64  88 129 169 209 263 312 377
#
# _framework density 20.803284999999999
#
# number of rings (size 3 to 8) (size 9 to 14) (size 15 to 20)
#    0.000    2.000    2.000    0.000    2.800    9.600 
#    3.600    2.000    0.000    0.000    0.000    0.000 
#    0.000    0.000    0.000    0.000    0.000    0.000 
#
# Total GULP energy -247876.105297 kJ/mol
# GULP energy per Si atom -12393.805265 kJ/mol
# Density = 2.075594 g / cm^3
# Si number density = 20.803285 Si / 1000 Ang^3
#
#
#
# Elastic Constant Matrix: (Units=GPa)
#
#
# Indices 1 2 3 4 5 6 
#
# 1 106.2582 35.2114 31.5663 0.0000 -24.6785 0.0000
# 2 35.2114 88.1414 42.6884 0.0001 -19.4771 0.0001
# 3 31.5663 42.6884 77.4424 0.0000 -21.8133 0.0000
# 4 0.0000 0.0001 0.0000 32.1084 0.0000 0.9533
# 5 -24.6785 -19.4771 -21.8133 0.0000 26.8065 0.0000
# 6 0.0000 0.0001 0.0000 0.9533 0.0000 46.5622
#
#
#
# Elastic Compliance Matrix: (Units=1/GPa)
#
#
# Indices 1 2 3 4 5 6 
#
# 1 0.012665 -0.002478 -0.001322 0.000000 0.008783 0.000000
# 2 -0.002478 0.016634 -0.007002 0.000000 0.004107 0.000000
# 3 -0.001322 -0.007002 0.020156 0.000000 0.010096 0.000000
# 4 0.000000 0.000000 0.000000 0.031163 0.000000 -0.000638
# 5 0.008783 0.004107 0.010096 0.000000 0.056589 0.000000
# 6 0.000000 0.000000 0.000000 -0.000638 0.000000 0.021490
#
#
# Mechanical properties :
#
#
# Convention : Reuss Voigt Hill
#
# Bulk Modulus (GPa) = 35.90854 54.53048 45.21951
# Shear Modulus (GPa) = 26.37328 31.92048 29.14688
#
# Velocity S-wave (km/s) = 3.56440 3.92139 3.74715
# Velocity P-wave (km/s) = 5.85136 6.83903 6.36439
#
# Compressibility (1/GPa) = 0.02784853
#
# Stress axis : x y z
#
# Youngs Moduli (GPa) = 78.95835 60.11678 49.61420
#
# Poissons Ratio (x) = 0.14898 0.06561
# Poissons Ratio (y) = 0.19568 0.34742
# Poissons Ratio (z) = 0.10442 0.42096
#
# Static dielectric constant tensor:
#      x y z
#    x 3.784730 0.000000 -0.063560 
#    y 0.000000 4.054310 0.000000 
#    z -0.063560 0.000000 3.725890 
# 
# 
# High freq. dielectric constant tensor:
#      x y z
#    x 1.837140 0.000000 -0.003280 
#    y 0.000000 1.798440 0.000000 
#    z -0.003280 0.000000 1.802850 
# 
# From -- ./inp_files/150565.got.cif
#   From: 2010.06.25/outbox.cif.g09.slc.cpg/sg15_76_cif.got.tgz:150565.got - 2010.06.28 07:06:18.
