data_PCOD8145346
_publ_section_title
;
Structure prediction by ZEFSAII (Michael W. Deem and Ramdas Pophale) SiO2 
 PCOD8145346
Probable space group: C 2/C
;
_chemical_formula_sum "Si O2"
_cell_formula_units_Z 60
_cell_length_a 16.629299
_cell_length_b 8.851524
_cell_length_c 19.837486
_cell_angle_alpha 90.000000
_cell_angle_beta 106.190579
_cell_angle_gamma 90.000000
_cell_volume 2804.164197
_symmetry_space_group_name_H-M "C 2/C"
_symmetry_group_IT_number 15
_symmetry_cell_setting 'monoclinic'
loop_
_space_group_symop_operation_xyz
x,y,z
-x,y,1/2-z
-x,-y,-z
x,-y,1/2+z
1/2+x,1/2+y,z
1/2-x,1/2+y,1/2-z
1/2-x,1/2-y,-z
1/2+x,1/2-y,1/2+z
loop_
_atom_site_type_symbol
_atom_site_label
_atom_site_fract_x
_atom_site_fract_y
_atom_site_fract_z
Si Si1 0.533109 0.269256 0.557275
Si Si2 0.327101 0.885600 0.197767
Si Si3 0.554405 0.494062 0.668334
Si Si4 0.345712 0.999511 0.912326
Si Si5 0.991482 0.707657 0.401123
Si Si6 0.385985 0.938435 0.069099
Si Si7 0.229840 0.071613 0.273605
Si Si8 0.000000 0.240696 0.250000
O O1 0.563347 0.430258 0.594321
O O2 0.524069 0.290652 0.475739
O O3 0.447649 0.201401 0.569126
O O4 0.608239 0.155594 0.590902
O O5 0.321883 0.902439 0.115213
O O6 0.269080 0.750505 0.211914
O O7 0.422345 0.852266 0.240643
O O8 0.295499 0.035891 0.228607
O O9 0.518746 0.664263 0.658873
O O10 0.638839 0.489685 0.731997
O O11 0.488896 0.373462 0.684465
O O12 0.401411 0.864592 0.894706
O O13 0.258481 0.005757 0.850978
O O14 0.332011 0.974480 0.989322
O O15 0.058708 0.582498 0.394683
#
# Coordination Sequence:
#
# PCOD8145346 Si02
#       8
#     8   8   8   8   8   8   8   4
#     4   9  17  35  64  86 120 158 200 255 307 352
#     4  11  23  43  60  91 118 169 204 249 311 365
#     4  11  20  37  57  89 125 158 198 253 307 361
#     4   9  18  37  59  90 123 161 201 245 308 371
#     4   9  19  33  59  95 116 152 209 261 296 348
#     4   9  19  38  64  88 116 158 214 252 289 361
#     4  11  24  37  61  88 131 163 195 245 325 367
#     4  10  22  38  64  84 122 158 208 252 302 356
#
# _framework density 21.396750000000001
#
# number of rings (size 3 to 8) (size 9 to 14) (size 15 to 20)
#    0.000    2.133    1.333    4.400    1.867    0.533 
#    7.200    0.000    2.933    2.400    0.000    0.000 
#    0.000    0.000    0.000    0.000    0.000    0.000 
#
# Total GULP energy -371817.163919 kJ/mol
# GULP energy per Si atom -12393.905464 kJ/mol
# Density = 2.134805 g / cm^3
# Si number density = 21.396750 Si / 1000 Ang^3
#
#
#
# Elastic Constant Matrix: (Units=GPa)
#
#
# Indices 1 2 3 4 5 6 
#
# 1 76.6124 27.4064 37.8904 0.0000 -9.3979 0.0000
# 2 27.4064 51.9456 19.7115 0.0000 -0.8048 0.0000
# 3 37.8904 19.7115 102.6351 0.0000 4.5747 0.0000
# 4 0.0000 0.0000 0.0000 32.6930 0.0000 -3.9727
# 5 -9.3979 -0.8048 4.5747 0.0000 40.3895 0.0000
# 6 0.0000 0.0000 0.0000 -3.9727 0.0000 22.8591
#
#
#
# Elastic Compliance Matrix: (Units=1/GPa)
#
#
# Indices 1 2 3 4 5 6 
#
# 1 0.019408 -0.007937 -0.005865 0.000000 0.005022 0.000000
# 2 -0.007937 0.024040 -0.001634 0.000000 -0.001183 0.000000
# 3 -0.005865 -0.001634 0.012347 0.000000 -0.002796 0.000000
# 4 0.000000 0.000000 0.000000 0.031247 0.000000 0.005431
# 5 0.005022 -0.001183 -0.002796 0.000000 0.026221 0.000000
# 6 0.000000 0.000000 0.000000 0.005431 0.000000 0.044690
#
#
# Mechanical properties :
#
#
# Convention : Reuss Voigt Hill
#
# Bulk Modulus (GPa) = 40.12175 44.57888 42.35031
# Shear Modulus (GPa) = 25.36362 28.93398 27.14880
#
# Velocity S-wave (km/s) = 3.44669 3.68130 3.56593
# Velocity P-wave (km/s) = 5.88486 6.24091 6.06550
#
# Compressibility (1/GPa) = 0.02492414
#
# Stress axis : x y z
#
# Youngs Moduli (GPa) = 51.52399 41.59721 80.99239
#
# Poissons Ratio (x) = 0.33014 0.47500
# Poissons Ratio (y) = 0.40893 0.13237
# Poissons Ratio (z) = 0.30217 0.06798
#
# Static dielectric constant tensor:
#      x y z
#    x 3.532530 0.000000 -0.049890 
#    y 0.000000 3.802470 0.000000 
#    z -0.049890 0.000000 4.095020 
# 
# 
# High freq. dielectric constant tensor:
#      x y z
#    x 1.801560 0.000000 0.002800 
#    y 0.000000 1.834340 0.000000 
#    z 0.002800 0.000000 1.853740 
# 
# From -- ./inp_files/247392.got.cif
#   From: 2010.06.25/outbox.cif.g09.slc.cpg/sg15_124_cif.got.tgz:247392.got - 2010.06.28 07:06:18.
