data_PCOD8145052
_publ_section_title
;
Structure prediction by ZEFSAII (Michael W. Deem and Ramdas Pophale) SiO2 
 PCOD8145052
Probable space group: C 2/C
;
_chemical_formula_sum "Si O2"
_cell_formula_units_Z 44
_cell_length_a 9.097941
_cell_length_b 20.796778
_cell_length_c 10.889132
_cell_angle_alpha 90.000000
_cell_angle_beta 102.330343
_cell_angle_gamma 90.000000
_cell_volume 2012.783415
_symmetry_space_group_name_H-M "C 2/C"
_symmetry_group_IT_number 15
_symmetry_cell_setting 'monoclinic'
loop_
_space_group_symop_operation_xyz
x,y,z
-x,y,1/2-z
-x,-y,-z
x,-y,1/2+z
1/2+x,1/2+y,z
1/2-x,1/2+y,1/2-z
1/2-x,1/2-y,-z
1/2+x,1/2-y,1/2+z
loop_
_atom_site_type_symbol
_atom_site_label
_atom_site_fract_x
_atom_site_fract_y
_atom_site_fract_z
Si Si1 0.984915 0.787847 0.489964
Si Si2 0.940431 0.345062 0.410322
Si Si3 0.595363 0.496731 0.642511
Si Si4 0.768651 0.373486 0.148891
Si Si5 0.738564 0.870305 0.878550
Si Si6 0.000000 0.714971 0.250000
O O1 0.981363 0.725447 0.575597
O O2 0.104438 0.837866 0.562312
O O3 0.826727 0.824415 0.452306
O O4 0.037508 0.762045 0.367820
O O5 0.809154 0.340914 0.286108
O O6 0.873583 0.370551 0.525211
O O7 0.077891 0.392096 0.396016
O O8 0.500000 0.484833 0.750000
O O9 0.500000 0.500000 0.500000
O O10 0.677086 0.564021 0.669285
O O11 0.723605 0.441981 0.658692
O O12 0.647795 0.830834 0.756775
#
# Coordination Sequence:
#
# PCOD8145052 Si02
#       6
#     8   8   8   8   8   4
#     4  11  20  40  67  97 135 173 221 273 336 410
#     4  10  23  40  65 102 133 171 219 276 349 391
#     4  12  27  47  71  99 133 182 233 279 331 405
#     4  11  23  41  67  96 136 178 220 277 334 404
#     4  11  23  43  66  97 134 176 225 276 332 401
#     4  10  22  36  68  98 132 170 218 284 344 388
#
# _framework density 21.860274
#
# number of rings (size 3 to 8) (size 9 to 14) (size 15 to 20)
#    0.000    1.091    1.818    6.000    1.273    5.091 
#    6.545    0.000    0.000    0.000    0.000    0.000 
#    0.000    0.000    0.000    0.000    0.000    0.000 
#
# Total GULP energy -272725.876885 kJ/mol
# GULP energy per Si atom -12396.630767 kJ/mol
# Density = 2.181052 g / cm^3
# Si number density = 21.860274 Si / 1000 Ang^3
#
#
#
# Elastic Constant Matrix: (Units=GPa)
#
#
# Indices 1 2 3 4 5 6 
#
# 1 111.3333 43.5955 33.3782 0.0000 3.8732 0.0000
# 2 43.5955 115.5874 33.1496 0.0000 9.7687 0.0000
# 3 33.3782 33.1496 95.0361 0.0000 12.2607 0.0000
# 4 0.0000 0.0000 0.0000 21.9790 0.0000 1.0843
# 5 3.8732 9.7687 12.2607 0.0000 47.9937 0.0000
# 6 0.0000 0.0000 0.0000 1.0843 0.0000 36.1641
#
#
#
# Elastic Compliance Matrix: (Units=1/GPa)
#
#
# Indices 1 2 3 4 5 6 
#
# 1 0.011149 -0.003452 -0.002778 0.000000 0.000512 0.000000
# 2 -0.003452 0.010742 -0.002367 0.000000 -0.001303 0.000000
# 3 -0.002778 -0.002367 0.012649 0.000000 -0.002526 0.000000
# 4 0.000000 0.000000 0.000000 0.045565 0.000000 -0.001366
# 5 0.000512 -0.001303 -0.002526 0.000000 0.021705 0.000000
# 6 0.000000 0.000000 0.000000 -0.001366 0.000000 0.027693
#
#
# Mechanical properties :
#
#
# Convention : Reuss Voigt Hill
#
# Bulk Modulus (GPa) = 57.64284 60.24480 58.94382
# Shear Modulus (GPa) = 32.79172 35.34959 34.07065
#
# Velocity S-wave (km/s) = 3.87726 4.02564 3.95215
# Velocity P-wave (km/s) = 6.81691 7.01617 6.91725
#
# Compressibility (1/GPa) = 0.01734821
#
# Stress axis : x y z
#
# Youngs Moduli (GPa) = 89.69810 93.09151 79.05629
#
# Poissons Ratio (x) = 0.32131 0.21960
# Poissons Ratio (y) = 0.30959 0.18709
# Poissons Ratio (z) = 0.24916 0.22031
#
# Static dielectric constant tensor:
#      x y z
#    x 3.982770 0.000000 0.290130 
#    y 0.000000 4.034550 0.000000 
#    z 0.290130 0.000000 4.248410 
# 
# 
# High freq. dielectric constant tensor:
#      x y z
#    x 1.864800 0.000000 0.016830 
#    y 0.000000 1.855570 0.000000 
#    z 0.016830 0.000000 1.866730 
# 
# From -- ./inp_files/78361.got.cif
#   From: 2010.06.25/outbox.cif.g09.slc.cpg/sg15_40_cif.got.tgz:78361.got - 2010.06.28 07:06:18.
