data_PCOD8145080
_publ_section_title
;
Structure prediction by ZEFSAII (Michael W. Deem and Ramdas Pophale) SiO2 
 PCOD8145080
Probable space group: C 2/C
;
_chemical_formula_sum "Si O2"
_cell_formula_units_Z 48
_cell_length_a 27.654153
_cell_length_b 11.278459
_cell_length_c 20.221292
_cell_angle_alpha 90.000000
_cell_angle_beta 23.206462
_cell_angle_gamma 90.000000
_cell_volume 2485.223642
_symmetry_space_group_name_H-M "C 2/C"
_symmetry_group_IT_number 15
_symmetry_cell_setting 'monoclinic'
loop_
_space_group_symop_operation_xyz
x,y,z
-x,y,1/2-z
-x,-y,-z
x,-y,1/2+z
1/2+x,1/2+y,z
1/2-x,1/2+y,1/2-z
1/2-x,1/2-y,-z
1/2+x,1/2-y,1/2+z
loop_
_atom_site_type_symbol
_atom_site_label
_atom_site_fract_x
_atom_site_fract_y
_atom_site_fract_z
Si Si1 0.429343 0.031966 0.242953
Si Si2 0.230426 0.854336 0.906166
Si Si3 0.346245 0.577322 0.138009
Si Si4 0.500000 0.230244 0.250000
Si Si5 0.597929 0.165921 0.494963
Si Si6 0.500000 0.145121 0.750000
Si Si7 0.092367 0.828526 0.383584
O O1 0.310091 0.054305 0.349012
O O2 0.483106 0.154188 0.204375
O O3 0.398064 0.942574 0.343565
O O4 0.534053 0.964219 0.067651
O O5 0.180897 0.927241 0.905781
O O6 0.311768 0.742314 0.781790
O O7 0.119395 0.811378 0.091344
O O8 0.243765 0.654598 0.304330
O O9 0.342081 0.445703 0.172065
O O10 0.476264 0.640433 0.984569
O O11 0.566884 0.220117 0.607708
O O12 0.544824 0.252161 0.505723
#
# Coordination Sequence:
#
# PCOD8145080 Si02
#       7
#     8   8   8   4   8   4   8
#     4   9  19  34  59  84 111 148 190 238 286 341
#     4  11  22  36  59  88 114 152 195 239 293 347
#     4  10  22  38  55  87 119 146 194 243 283 346
#     4  11  20  36  57  90 116 147 190 246 295 342
#     4   9  19  39  62  80 112 153 196 233 289 345
#     4   7  18  38  57  84 106 145 196 234 279 332
#     4  10  22  37  58  82 118 156 186 239 297 333
#
# _framework density 19.314157000000002
#
# number of rings (size 3 to 8) (size 9 to 14) (size 15 to 20)
#    1.000    1.333    0.000    2.500    0.000    6.667 
#    3.000    1.667    0.000    0.000    0.000    0.000 
#    0.000    0.000    0.000    0.000    0.000    0.000 
#
# Total GULP energy -297436.838345 kJ/mol
# GULP energy per Si atom -12393.201598 kJ/mol
# Density = 1.927020 g / cm^3
# Si number density = 19.314157 Si / 1000 Ang^3
#
#
#
# Elastic Constant Matrix: (Units=GPa)
#
#
# Indices 1 2 3 4 5 6 
#
# 1 117.5883 26.5085 36.4910 0.0000 -13.1038 0.0000
# 2 26.5085 35.3622 17.6603 -0.0001 -6.0583 0.0000
# 3 36.4910 17.6603 83.9303 -0.0001 -0.8829 0.0000
# 4 0.0000 -0.0001 -0.0001 20.6110 0.0000 12.4955
# 5 -13.1038 -6.0583 -0.8829 0.0000 35.8616 0.0000
# 6 0.0000 0.0000 0.0000 12.4955 0.0000 20.1546
#
#
#
# Elastic Compliance Matrix: (Units=1/GPa)
#
#
# Indices 1 2 3 4 5 6 
#
# 1 0.011355 -0.006197 -0.003601 0.000000 0.003013 0.000000
# 2 -0.006197 0.035972 -0.004836 0.000000 0.003693 0.000000
# 3 -0.003601 -0.004836 0.014479 0.000000 -0.001776 0.000000
# 4 0.000000 0.000000 0.000000 0.077736 0.000000 -0.048195
# 5 0.003013 0.003693 -0.001776 0.000000 0.029566 0.000000
# 6 0.000000 0.000000 0.000000 -0.048195 0.000000 0.079496
#
#
# Mechanical properties :
#
#
# Convention : Reuss Voigt Hill
#
# Bulk Modulus (GPa) = 30.73347 44.24449 37.48898
# Shear Modulus (GPa) = 17.31790 25.74018 21.52904
#
# Velocity S-wave (km/s) = 2.99765 3.65459 3.34230
# Velocity P-wave (km/s) = 5.28471 6.38479 5.86062
#
# Compressibility (1/GPa) = 0.03253782
#
# Stress axis : x y z
#
# Youngs Moduli (GPa) = 88.07004 27.79931 69.06475
#
# Poissons Ratio (x) = 0.17227 0.24871
# Poissons Ratio (y) = 0.54578 0.33399
# Poissons Ratio (z) = 0.31715 0.13443
#
# Static dielectric constant tensor:
#      x y z
#    x 3.615970 0.000000 0.000750 
#    y 0.000000 3.359100 0.000000 
#    z 0.000750 0.000000 3.314780 
# 
# 
# High freq. dielectric constant tensor:
#      x y z
#    x 1.762090 0.000000 -0.001580 
#    y 0.000000 1.733030 0.000000 
#    z -0.001580 0.000000 1.739730 
# 
# From -- ./inp_files/279867.got.cif
#   From: 2010.06.25/outbox.cif.g09.slc.cpg/sg15_140_cif.got.tgz:279867.got - 2010.06.28 07:06:18.
