data_PCOD8145025
_publ_section_title
;
Structure prediction by ZEFSAII (Michael W. Deem and Ramdas Pophale) SiO2 
 PCOD8145025
Probable space group: C 2/C
;
_chemical_formula_sum "Si O2"
_cell_formula_units_Z 32
_cell_length_a 5.035695
_cell_length_b 26.229324
_cell_length_c 10.572100
_cell_angle_alpha 90.000000
_cell_angle_beta 90.300193
_cell_angle_gamma 90.000000
_cell_volume 1396.374204
_symmetry_space_group_name_H-M "C 2/C"
_symmetry_group_IT_number 15
_symmetry_cell_setting 'monoclinic'
loop_
_space_group_symop_operation_xyz
x,y,z
-x,y,1/2-z
-x,-y,-z
x,-y,1/2+z
1/2+x,1/2+y,z
1/2-x,1/2+y,1/2-z
1/2-x,1/2-y,-z
1/2+x,1/2-y,1/2+z
loop_
_atom_site_type_symbol
_atom_site_label
_atom_site_fract_x
_atom_site_fract_y
_atom_site_fract_z
Si Si1 0.463694 0.390392 0.607699
Si Si2 0.500000 0.212445 0.750000
Si Si3 0.500000 0.783674 0.750000
Si Si4 0.964415 0.457466 0.605734
Si Si5 0.300884 0.810370 0.500877
O O1 0.500000 0.368653 0.750000
O O2 0.171003 0.411586 0.579279
O O3 0.531990 0.343822 0.511603
O O4 0.668650 0.436619 0.587395
O O5 0.249328 0.247961 0.723886
O O6 0.548027 0.175835 0.628702
O O7 0.475331 0.820957 0.627911
O O8 0.000000 0.478685 0.750000
O O9 0.000000 0.500000 0.500000
O O10 0.250000 0.750000 0.500000
#
# Coordination Sequence:
#
# PCOD8145025 Si02
#       5
#     8   4   4   8   8
#     4  10  23  39  67  99 126 171 222 260 316 402
#     4  10  22  40  54  90 125 178 223 266 320 362
#     4  10  22  36  62  84 121 180 229 262 314 370
#     4  10  22  44  72  97 126 160 211 272 341 395
#     4  10  23  39  65  90 137 177 222 267 315 377
#
# _framework density 22.916494
#
# number of rings (size 3 to 8) (size 9 to 14) (size 15 to 20)
#    0.000    2.000    0.000    1.500   12.250    4.000 
#    2.250    0.000    0.000    0.000    0.000    0.000 
#    0.000    0.000    0.000    0.000    0.000    0.000 
#
# Total GULP energy -198353.059557 kJ/mol
# GULP energy per Si atom -12397.066222 kJ/mol
# Density = 2.286433 g / cm^3
# Si number density = 22.916494 Si / 1000 Ang^3
#
#
#
# Elastic Constant Matrix: (Units=GPa)
#
#
# Indices 1 2 3 4 5 6 
#
# 1 86.9233 6.9128 30.6491 0.0000 -16.5534 0.0000
# 2 6.9128 84.4673 58.5159 0.0000 -14.1098 0.0000
# 3 30.6491 58.5159 206.0088 0.0000 -27.0097 0.0000
# 4 0.0000 0.0000 0.0000 40.7354 0.0000 -20.0624
# 5 -16.5534 -14.1098 -27.0097 0.0000 37.4621 0.0000
# 6 0.0000 0.0000 0.0000 -20.0624 0.0000 27.4967
#
#
#
# Elastic Compliance Matrix: (Units=1/GPa)
#
#
# Indices 1 2 3 4 5 6 
#
# 1 0.012908 0.000808 -0.001505 0.000000 0.004923 0.000000
# 2 0.000808 0.015060 -0.003984 0.000000 0.003157 0.000000
# 3 -0.001505 -0.003984 0.006544 0.000000 0.002553 0.000000
# 4 0.000000 0.000000 0.000000 0.038318 0.000000 0.027958
# 5 0.004923 0.003157 0.002553 0.000000 0.031899 0.000000
# 6 0.000000 0.000000 0.000000 0.027958 0.000000 0.056767
#
#
# Mechanical properties :
#
#
# Convention : Reuss Voigt Hill
#
# Bulk Modulus (GPa) = 39.75812 63.28388 51.52100
# Shear Modulus (GPa) = 27.89532 39.89361 33.89446
#
# Velocity S-wave (km/s) = 3.49271 4.17685 3.85000
# Velocity P-wave (km/s) = 5.80105 7.13697 6.50340
#
# Compressibility (1/GPa) = 0.02515210
#
# Stress axis : x y z
#
# Youngs Moduli (GPa) = 77.47011 66.40036 152.80244
#
# Poissons Ratio (x) = -0.05367 0.22989
# Poissons Ratio (y) = -0.06262 0.60878
# Poissons Ratio (z) = 0.11655 0.26455
#
# Static dielectric constant tensor:
#      x y z
#    x 4.158680 0.000000 -0.139450 
#    y 0.000000 3.741160 0.000000 
#    z -0.139450 0.000000 5.141810 
# 
# 
# High freq. dielectric constant tensor:
#      x y z
#    x 1.917370 0.000000 -0.018720 
#    y 0.000000 1.875770 0.000000 
#    z -0.018720 0.000000 1.913790 
# 
# From -- ./inp_files/72200.got.cif
#   From: 2010.06.25/outbox.cif.g09.slc.cpg/sg15_37_cif.got.tgz:72200.got - 2010.06.28 07:06:18.
