data_PCOD8145723
_publ_section_title
;
Structure prediction by ZEFSAII (Michael W. Deem and Ramdas Pophale) SiO2 
 PCOD8145723
Probable space group: C 2/C
;
_chemical_formula_sum "Si O2"
_cell_formula_units_Z 60
_cell_length_a 13.675523
_cell_length_b 22.389742
_cell_length_c 9.816012
_cell_angle_alpha 90.000000
_cell_angle_beta 74.018412
_cell_angle_gamma 90.000000
_cell_volume 2889.413817
_symmetry_space_group_name_H-M "C 2/C"
_symmetry_group_IT_number 15
_symmetry_cell_setting 'monoclinic'
loop_
_space_group_symop_operation_xyz
x,y,z
-x,y,1/2-z
-x,-y,-z
x,-y,1/2+z
1/2+x,1/2+y,z
1/2-x,1/2+y,1/2-z
1/2-x,1/2-y,-z
1/2+x,1/2-y,1/2+z
loop_
_atom_site_type_symbol
_atom_site_label
_atom_site_fract_x
_atom_site_fract_y
_atom_site_fract_z
Si Si1 0.477712 0.158469 0.413083
Si Si2 0.690366 0.062929 0.980447
Si Si3 0.500000 0.545240 0.250000
Si Si4 0.949542 0.747489 0.911737
Si Si5 0.386563 0.021972 0.773727
Si Si6 0.109590 0.069036 0.741892
Si Si7 0.850083 0.629683 0.972940
Si Si8 0.371171 0.375061 0.985373
O O1 0.500000 0.176974 0.250000
O O2 0.372709 0.123135 0.469711
O O3 0.471385 0.218478 0.508850
O O4 0.573593 0.117735 0.428773
O O5 0.688851 0.021143 0.114045
O O6 0.645918 0.024189 0.871379
O O7 0.808165 0.080083 0.908950
O O8 0.408787 0.502476 0.230686
O O9 0.462054 0.587119 0.385916
O O10 0.000000 0.765289 0.750000
O O11 0.861581 0.698377 0.917460
O O12 0.903503 0.806975 0.994110
O O13 0.500000 0.995366 0.750000
O O14 0.383773 0.088724 0.834278
O O15 0.157129 0.097274 0.858212
O O16 0.000000 0.099735 0.750000
O O17 0.732817 0.620015 0.062831
#
# Coordination Sequence:
#
# PCOD8145723 Si02
#       8
#     8   8   4   8   8   8   8   8
#     4  10  24  44  63 101 145 172 216 280 337 401
#     4  12  24  40  66  93 137 183 221 270 345 393
#     4  10  24  44  62  98 128 174 228 280 328 396
#     4  10  22  41  70 100 130 169 228 276 321 401
#     4  12  22  37  62 101 134 176 218 272 332 404
#     4  10  26  43  62  92 137 174 218 286 328 399
#     4  10  22  39  66  97 136 170 220 276 323 401
#     4  12  21  44  73  94 130 179 227 271 340 393
#
# _framework density 20.765457000000001
#
# number of rings (size 3 to 8) (size 9 to 14) (size 15 to 20)
#    1.200    0.000    3.333    3.600    1.867    0.533 
#    2.400    0.000    0.000    2.400    0.000    0.000 
#    0.000    0.000    0.000    0.000    0.000    0.000 
#
# Total GULP energy -371906.139595 kJ/mol
# GULP energy per Si atom -12396.871320 kJ/mol
# Density = 2.071819 g / cm^3
# Si number density = 20.765457 Si / 1000 Ang^3
#
#
#
# Elastic Constant Matrix: (Units=GPa)
#
#
# Indices 1 2 3 4 5 6 
#
# 1 100.9951 22.4361 23.0342 0.0000 -19.4240 0.0000
# 2 22.4361 95.8202 25.5674 0.0000 -15.8150 0.0000
# 3 23.0342 25.5674 101.0990 0.0000 -14.9551 0.0000
# 4 0.0000 0.0000 0.0000 13.6536 0.0000 0.4882
# 5 -19.4240 -15.8150 -14.9551 0.0000 33.9061 0.0000
# 6 0.0000 0.0000 0.0000 0.4882 0.0000 13.3412
#
#
#
# Elastic Compliance Matrix: (Units=1/GPa)
#
#
# Indices 1 2 3 4 5 6 
#
# 1 0.011581 -0.001438 -0.001490 0.000000 0.005307 0.000000
# 2 -0.001438 0.011973 -0.002135 0.000000 0.003819 0.000000
# 3 -0.001490 -0.002135 0.011230 0.000000 0.003104 0.000000
# 4 0.000000 0.000000 0.000000 0.073337 0.000000 -0.002684
# 5 0.005307 0.003819 0.003104 0.000000 0.035684 0.000000
# 6 0.000000 0.000000 0.000000 -0.002684 0.000000 0.075054
#
#
# Mechanical properties :
#
#
# Convention : Reuss Voigt Hill
#
# Bulk Modulus (GPa) = 40.55621 48.88776 44.72198
# Shear Modulus (GPa) = 21.07882 27.30528 24.19205
#
# Velocity S-wave (km/s) = 3.18951 3.63014 3.41693
# Velocity P-wave (km/s) = 5.75647 6.41596 6.09514
#
# Compressibility (1/GPa) = 0.02465714
#
# Stress axis : x y z
#
# Youngs Moduli (GPa) = 86.34514 83.52095 89.04808
#
# Poissons Ratio (x) = 0.12013 0.13268
# Poissons Ratio (y) = 0.12419 0.19015
# Poissons Ratio (z) = 0.12865 0.17834
#
# Static dielectric constant tensor:
#      x y z
#    x 3.668100 0.000000 -0.098680 
#    y 0.000000 3.560420 0.000000 
#    z -0.098680 0.000000 3.574740 
# 
# 
# High freq. dielectric constant tensor:
#      x y z
#    x 1.804410 0.000000 -0.011950 
#    y 0.000000 1.802580 0.000000 
#    z -0.011950 0.000000 1.808150 
# 
# From -- ./inp_files/42595.got.cif
#   From: 2010.06.25/outbox.cif.g09.slc.cpg/sg15_22_cif.got.tgz:42595.got - 2010.06.28 07:06:18.
