data_PCOD8145360
_publ_section_title
;
Structure prediction by ZEFSAII (Michael W. Deem and Ramdas Pophale) SiO2 
 PCOD8145360
Probable space group: C 2/C
;
_chemical_formula_sum "Si O2"
_cell_formula_units_Z 60
_cell_length_a 17.589789
_cell_length_b 9.317029
_cell_length_c 25.698063
_cell_angle_alpha 90.000000
_cell_angle_beta 46.174743
_cell_angle_gamma 90.000000
_cell_volume 3038.419563
_symmetry_space_group_name_H-M "C 2/C"
_symmetry_group_IT_number 15
_symmetry_cell_setting 'monoclinic'
loop_
_space_group_symop_operation_xyz
x,y,z
-x,y,1/2-z
-x,-y,-z
x,-y,1/2+z
1/2+x,1/2+y,z
1/2-x,1/2+y,1/2-z
1/2-x,1/2-y,-z
1/2+x,1/2-y,1/2+z
loop_
_atom_site_type_symbol
_atom_site_label
_atom_site_fract_x
_atom_site_fract_y
_atom_site_fract_z
Si Si1 0.000000 0.628070 0.750000
Si Si2 0.900794 0.281740 0.634125
Si Si3 0.678060 0.820143 0.991015
Si Si4 0.692807 0.340163 0.669585
Si Si5 0.000652 0.447453 0.137304
Si Si6 0.506062 0.334025 0.508967
Si Si7 0.851964 0.232887 0.165750
Si Si8 0.669110 0.547163 0.763769
O O1 0.106739 0.719537 0.700469
O O2 0.014364 0.526450 0.692538
O O3 0.780768 0.281355 0.669072
O O4 0.915996 0.152135 0.668755
O O5 0.925535 0.431451 0.649479
O O6 0.983135 0.257129 0.548814
O O7 0.751507 0.887920 0.910734
O O8 0.750000 0.750000 0.000000
O O9 0.609144 0.943491 0.052517
O O10 0.604516 0.697751 0.000324
O O11 0.634566 0.476124 0.724955
O O12 0.946091 0.289996 0.158496
O O13 0.500000 0.500000 0.500000
O O14 0.396595 0.286137 0.586499
O O15 0.768421 0.357850 0.202578
O O16 0.805707 0.082025 0.207686
#
# Coordination Sequence:
#
# PCOD8145360 Si02
#       8
#     4   8   8   8   8   8   8   8
#     4  12  22  40  66  92 126 176 212 258 336 392
#     4  11  23  40  64  98 129 165 220 271 315 384
#     4  10  22  40  63  93 125 166 211 263 316 384
#     4  11  23  37  63  96 124 166 219 260 321 386
#     4  11  22  40  65  92 130 168 217 267 322 383
#     4  10  22  38  64  93 123 168 213 259 321 380
#     4  11  21  35  60  93 126 165 208 266 320 375
#     4  12  20  36  60  93 131 159 211 270 317 370
#
# _framework density 19.747107
#
# number of rings (size 3 to 8) (size 9 to 14) (size 15 to 20)
#    0.000    1.067    6.667    0.000    1.867    1.600 
#    0.000    0.667    0.000    0.800    0.000    0.000 
#    0.000    0.000    0.000    0.000    0.000    0.000 
#
# Total GULP energy -371801.974815 kJ/mol
# GULP energy per Si atom -12393.399161 kJ/mol
# Density = 1.970216 g / cm^3
# Si number density = 19.747107 Si / 1000 Ang^3
#
#
#
# Elastic Constant Matrix: (Units=GPa)
#
#
# Indices 1 2 3 4 5 6 
#
# 1 78.3967 39.5812 47.6105 0.0000 13.0174 0.0002
# 2 39.5812 104.8336 51.3747 0.0000 8.1926 0.0006
# 3 47.6105 51.3747 154.9841 0.0000 20.9809 0.0000
# 4 0.0000 0.0000 0.0000 37.4370 0.0000 6.1784
# 5 13.0174 8.1926 20.9809 0.0000 32.7436 0.0000
# 6 0.0002 0.0006 0.0000 6.1784 0.0000 23.3921
#
#
#
# Elastic Compliance Matrix: (Units=1/GPa)
#
#
# Indices 1 2 3 4 5 6 
#
# 1 0.017851 -0.004786 -0.003393 0.000000 -0.003725 0.000000
# 2 -0.004786 0.012679 -0.002804 0.000000 0.000527 0.000000
# 3 -0.003393 -0.002804 0.008920 0.000000 -0.003665 0.000000
# 4 0.000000 0.000000 0.000000 0.027929 0.000000 -0.007377
# 5 -0.003725 0.000527 -0.003665 0.000000 0.034238 0.000000
# 6 0.000000 0.000000 0.000000 -0.007377 0.000000 0.044698
#
#
# Mechanical properties :
#
#
# Convention : Reuss Voigt Hill
#
# Bulk Modulus (GPa) = 57.19413 68.37191 62.78302
# Shear Modulus (GPa) = 28.71762 32.02440 30.37101
#
# Velocity S-wave (km/s) = 3.81763 4.03143 3.92599
# Velocity P-wave (km/s) = 6.96122 7.50792 7.23973
#
# Compressibility (1/GPa) = 0.01748431
#
# Stress axis : x y z
#
# Youngs Moduli (GPa) = 56.01870 78.87143 112.10450
#
# Poissons Ratio (x) = 0.37748 0.38037
# Poissons Ratio (y) = 0.26811 0.31433
# Poissons Ratio (z) = 0.19007 0.22115
#
# Static dielectric constant tensor:
#      x y z
#    x 3.365000 0.000000 0.184480 
#    y 0.000000 3.671450 0.000000 
#    z 0.184480 0.000000 4.332630 
# 
# 
# High freq. dielectric constant tensor:
#      x y z
#    x 1.733310 0.000000 0.011510 
#    y 0.000000 1.751640 0.000000 
#    z 0.011510 0.000000 1.810500 
# 
# From -- ./inp_files/298391.got.cif
#   From: 2010.06.25/outbox.cif.g09.slc.cpg/sg15_150_cif.got.tgz:298391.got - 2010.06.28 07:06:18.
