data_PCOD8145317
_publ_section_title
;
Structure prediction by ZEFSAII (Michael W. Deem and Ramdas Pophale) SiO2 
 PCOD8145317
Probable space group: C 2/C
;
_chemical_formula_sum "Si O2"
_cell_formula_units_Z 48
_cell_length_a 27.090379
_cell_length_b 5.078453
_cell_length_c 15.538000
_cell_angle_alpha 90.000000
_cell_angle_beta 86.007282
_cell_angle_gamma 90.000000
_cell_volume 2132.486456
_symmetry_space_group_name_H-M "C 2/C"
_symmetry_group_IT_number 15
_symmetry_cell_setting 'monoclinic'
loop_
_space_group_symop_operation_xyz
x,y,z
-x,y,1/2-z
-x,-y,-z
x,-y,1/2+z
1/2+x,1/2+y,z
1/2-x,1/2+y,1/2-z
1/2-x,1/2-y,-z
1/2+x,1/2-y,1/2+z
loop_
_atom_site_type_symbol
_atom_site_label
_atom_site_fract_x
_atom_site_fract_y
_atom_site_fract_z
Si Si1 0.143859 0.591515 0.153959
Si Si2 0.945487 0.061661 0.784103
Si Si3 0.281868 0.615574 0.754463
Si Si4 0.392139 0.088025 0.519318
Si Si5 0.365059 0.709847 0.195262
Si Si6 0.550926 0.401192 0.530399
O O1 0.154725 0.347810 0.215304
O O2 0.088574 0.693127 0.184202
O O3 0.187103 0.807452 0.163165
O O4 0.145184 0.504886 0.053510
O O5 0.919514 0.912013 0.706984
O O6 0.950684 0.868438 0.865909
O O7 0.000000 0.161683 0.750000
O O8 0.256098 0.878527 0.719582
O O9 0.323359 0.513158 0.680714
O O10 0.366817 0.084118 0.616263
O O11 0.407764 0.388719 0.501757
O O12 0.437273 0.880952 0.513857
O O13 0.500000 0.500000 0.500000
#
# Coordination Sequence:
#
# PCOD8145317 Si02
#       6
#     8   8   8   8   8   8
#     4  10  23  44  65  97 134 176 216 278 334 387
#     4  10  22  38  62  96 133 181 225 266 323 391
#     4  11  23  43  74  97 127 171 215 276 343 405
#     4  11  25  41  64  94 134 173 224 275 324 392
#     4  11  23  42  69  94 133 177 223 266 342 389
#     4  11  23  40  59  93 134 177 226 278 318 371
#
# _framework density 22.508938000000001
#
# number of rings (size 3 to 8) (size 9 to 14) (size 15 to 20)
#    0.000    1.333    3.333    1.500    7.000    0.667 
#    0.000    1.667    0.000    0.000    0.000    0.000 
#    0.000    0.000    0.000    0.000    0.000    0.000 
#
# Total GULP energy -297489.861087 kJ/mol
# GULP energy per Si atom -12395.410879 kJ/mol
# Density = 2.245771 g / cm^3
# Si number density = 22.508938 Si / 1000 Ang^3
#
#
#
# Elastic Constant Matrix: (Units=GPa)
#
#
# Indices 1 2 3 4 5 6 
#
# 1 132.9918 39.5773 33.0210 0.0000 18.4294 0.0000
# 2 39.5773 96.6067 24.8708 0.0000 10.7707 0.0000
# 3 33.0210 24.8708 105.6825 0.0000 22.3479 0.0000
# 4 0.0000 0.0000 0.0000 27.8536 0.0000 4.9574
# 5 18.4294 10.7707 22.3479 0.0000 14.6525 0.0000
# 6 0.0000 0.0000 0.0000 4.9574 0.0000 37.9535
#
#
#
# Elastic Compliance Matrix: (Units=1/GPa)
#
#
# Indices 1 2 3 4 5 6 
#
# 1 0.009795 -0.002843 -0.000337 0.000000 -0.009717 0.000000
# 2 -0.002843 0.012228 -0.001247 0.000000 -0.003511 0.000000
# 3 -0.000337 -0.001247 0.014137 0.000000 -0.020222 0.000000
# 4 0.000000 0.000000 0.000000 0.036757 0.000000 -0.004801
# 5 -0.009717 -0.003511 -0.020222 0.000000 0.113892 0.000000
# 6 0.000000 0.000000 0.000000 -0.004801 0.000000 0.026975
#
#
# Mechanical properties :
#
#
# Convention : Reuss Voigt Hill
#
# Bulk Modulus (GPa) = 36.62002 58.91324 47.76663
# Shear Modulus (GPa) = 21.57583 31.94605 26.76094
#
# Velocity S-wave (km/s) = 3.09940 3.77139 3.45179
# Velocity P-wave (km/s) = 5.39562 6.72270 6.09538
#
# Compressibility (1/GPa) = 0.02730747
#
# Stress axis : x y z
#
# Youngs Moduli (GPa) = 102.08844 81.77688 70.73566
#
# Poissons Ratio (x) = 0.23248 0.02383
# Poissons Ratio (y) = 0.29023 0.08821
# Poissons Ratio (z) = 0.03439 0.10198
#
# Static dielectric constant tensor:
#      x y z
#    x 4.129050 0.000000 0.349640 
#    y 0.000000 4.157620 0.000000 
#    z 0.349640 0.000000 4.101720 
# 
# 
# High freq. dielectric constant tensor:
#      x y z
#    x 1.879250 0.000000 0.022710 
#    y 0.000000 1.893150 0.000000 
#    z 0.022710 0.000000 1.866390 
# 
# From -- ./inp_files/175735.got.cif
#   From: 2010.06.25/outbox.cif.g09.slc.cpg/sg15_88_cif.got.tgz:175735.got - 2010.06.28 07:06:18.
