data_PCOD8145807
_publ_section_title
;
Structure prediction by ZEFSAII (Michael W. Deem and Ramdas Pophale) SiO2 
 PCOD8145807
Probable space group: C 2/C
;
_chemical_formula_sum "Si O2"
_cell_formula_units_Z 56
_cell_length_a 27.115816
_cell_length_b 6.418079
_cell_length_c 23.601321
_cell_angle_alpha 90.000000
_cell_angle_beta 139.194865
_cell_angle_gamma 90.000000
_cell_volume 2684.120206
_symmetry_space_group_name_H-M "C 2/C"
_symmetry_group_IT_number 15
_symmetry_cell_setting 'monoclinic'
loop_
_space_group_symop_operation_xyz
x,y,z
-x,y,1/2-z
-x,-y,-z
x,-y,1/2+z
1/2+x,1/2+y,z
1/2-x,1/2+y,1/2-z
1/2-x,1/2-y,-z
1/2+x,1/2-y,1/2+z
loop_
_atom_site_type_symbol
_atom_site_label
_atom_site_fract_x
_atom_site_fract_y
_atom_site_fract_z
Si Si1 0.588341 0.479405 0.330820
Si Si2 0.213275 0.423969 0.104745
Si Si3 0.600702 0.573689 0.970661
Si Si4 0.909398 0.319108 0.958398
Si Si5 0.027611 0.361345 0.606859
Si Si6 0.284845 0.755207 0.091492
Si Si7 0.846070 0.341121 0.696540
O O1 0.500000 0.511641 0.250000
O O2 0.613040 0.501006 0.417489
O O3 0.630058 0.665338 0.334084
O O4 0.614767 0.263684 0.324437
O O5 0.164560 0.529378 0.113141
O O6 0.225711 0.615159 0.073582
O O7 0.294678 0.320750 0.189123
O O8 0.162776 0.248502 0.032757
O O9 0.517563 0.671439 0.904312
O O10 0.610711 0.390006 0.025110
O O11 0.936552 0.266829 0.919131
O O12 0.975659 0.438681 0.049910
O O13 0.091698 0.432867 0.706771
O O14 0.290083 0.981456 0.124518
O O15 0.250000 0.750000 0.000000
#
# Coordination Sequence:
#
# PCOD8145807 Si02
#       7
#     8   8   8   8   8   8   8
#     4  11  23  37  60  97 125 162 208 252 314 380
#     4  10  22  40  59  93 120 162 215 247 312 377
#     4  11  21  41  66  88 127 163 206 264 312 378
#     4  10  22  41  66  89 119 169 217 257 319 376
#     4  10  23  41  62  94 122 163 214 262 316 380
#     4  11  23  40  62  91 127 171 203 246 315 382
#     4  11  23  41  61  91 135 163 204 271 315 370
#
# _framework density 20.863447000000001
#
# number of rings (size 3 to 8) (size 9 to 14) (size 15 to 20)
#    0.000    1.429    1.429    3.857    2.000    4.000 
#    5.143    0.000    0.000    0.000    0.000    0.000 
#    0.000    0.000    0.000    0.000    0.000    0.000 
#
# Total GULP energy -347073.649275 kJ/mol
# GULP energy per Si atom -12395.487474 kJ/mol
# Density = 2.081596 g / cm^3
# Si number density = 20.863447 Si / 1000 Ang^3
#
#
#
# Elastic Constant Matrix: (Units=GPa)
#
#
# Indices 1 2 3 4 5 6 
#
# 1 97.7253 29.4811 29.6069 0.0007 10.8673 0.0034
# 2 29.4811 86.3856 31.3132 -0.0001 4.8034 0.0055
# 3 29.6069 31.3132 73.9147 0.0005 8.6334 -0.0014
# 4 0.0007 -0.0001 0.0005 26.6422 -0.0002 7.1060
# 5 10.8673 4.8034 8.6334 -0.0002 37.1867 0.0011
# 6 0.0034 0.0055 -0.0014 7.1060 0.0011 35.0532
#
#
#
# Elastic Compliance Matrix: (Units=1/GPa)
#
#
# Indices 1 2 3 4 5 6 
#
# 1 0.012418 -0.002838 -0.003485 0.000000 -0.002453 -0.000001
# 2 -0.002838 0.014332 -0.004949 0.000001 0.000127 -0.000002
# 3 -0.003485 -0.004949 0.017297 -0.000001 -0.002358 0.000002
# 4 0.000000 0.000001 -0.000001 0.039680 0.000001 -0.008044
# 5 -0.002453 0.000127 -0.002358 0.000001 0.028139 -0.000001
# 6 -0.000001 -0.000002 0.000002 -0.008044 -0.000001 0.030159
#
#
# Mechanical properties :
#
#
# Convention : Reuss Voigt Hill
#
# Bulk Modulus (GPa) = 46.50911 48.75867 47.63389
# Shear Modulus (GPa) = 29.11434 30.95138 30.03286
#
# Velocity S-wave (km/s) = 3.73965 3.85583 3.79819
# Velocity P-wave (km/s) = 6.40213 6.57604 6.48967
#
# Compressibility (1/GPa) = 0.02150117
#
# Stress axis : x y z
#
# Youngs Moduli (GPa) = 80.53095 69.77595 57.81256
#
# Poissons Ratio (x) = 0.19803 0.20148
# Poissons Ratio (y) = 0.22856 0.28614
# Poissons Ratio (z) = 0.28066 0.34535
#
# Static dielectric constant tensor:
#      x y z
#    x 4.150150 -0.000010 0.395220 
#    y -0.000010 3.833010 -0.000010 
#    z 0.395220 -0.000010 3.659450 
# 
# 
# High freq. dielectric constant tensor:
#      x y z
#    x 1.834440 0.000000 0.026880 
#    y 0.000000 1.819250 0.000000 
#    z 0.026880 0.000000 1.804470 
# 
# From -- ./inp_files/302936.got.cif
#   From: 2010.06.25/outbox.cif.g09.slc.cpg/sg15_152_cif.got.tgz:302936.got - 2010.06.28 07:06:18.
