data_PCOD8145365
_publ_section_title
;
Structure prediction by ZEFSAII (Michael W. Deem and Ramdas Pophale) SiO2 
 PCOD8145365
Probable space group: C 2/C
;
_chemical_formula_sum "Si O2"
_cell_formula_units_Z 56
_cell_length_a 24.694588
_cell_length_b 7.587836
_cell_length_c 16.814970
_cell_angle_alpha 90.000000
_cell_angle_beta 53.104209
_cell_angle_gamma 90.000000
_cell_volume 2519.756266
_symmetry_space_group_name_H-M "C 2/C"
_symmetry_group_IT_number 15
_symmetry_cell_setting 'monoclinic'
loop_
_space_group_symop_operation_xyz
x,y,z
-x,y,1/2-z
-x,-y,-z
x,-y,1/2+z
1/2+x,1/2+y,z
1/2-x,1/2+y,1/2-z
1/2-x,1/2-y,-z
1/2+x,1/2-y,1/2+z
loop_
_atom_site_type_symbol
_atom_site_label
_atom_site_fract_x
_atom_site_fract_y
_atom_site_fract_z
Si Si1 0.130190 0.788945 0.447302
Si Si2 0.633478 0.819781 0.782454
Si Si3 0.068217 0.171424 0.156306
Si Si4 0.927449 0.434241 0.813184
Si Si5 0.210516 0.879217 0.818525
Si Si6 0.323304 0.477979 0.826000
Si Si7 0.679202 0.080598 0.966166
O O1 0.092541 0.715678 0.400892
O O2 0.079566 0.885098 0.554095
O O3 0.162839 0.620356 0.459953
O O4 0.186644 0.931649 0.372110
O O5 0.598244 0.960408 0.755347
O O6 0.709295 0.874394 0.739249
O O7 0.628137 0.639918 0.737444
O O8 0.056051 0.378611 0.163757
O O9 0.135895 0.139381 0.147617
O O10 0.000000 0.077915 0.250000
O O11 0.000000 0.329536 0.750000
O O12 0.869611 0.344391 0.920499
O O13 0.194969 0.867610 0.737933
O O14 0.174695 0.714381 0.894793
O O15 0.256942 0.563284 0.926808
#
# Coordination Sequence:
#
# PCOD8145365 Si02
#       7
#     8   8   8   8   8   8   8
#     4  10  22  40  63  92 124 168 201 256 318 368
#     4  10  22  39  63  91 128 156 209 260 306 373
#     4  10  24  43  60  90 129 165 209 256 309 377
#     4  10  24  42  60  91 126 168 210 251 315 372
#     4  10  22  39  62  99 125 153 210 266 306 369
#     4  10  22  38  64  95 121 162 207 256 321 357
#     4  10  22  39  64  95 122 163 212 251 319 369
#
# _framework density 22.224371999999999
#
# number of rings (size 3 to 8) (size 9 to 14) (size 15 to 20)
#    0.000    2.000    1.429    0.000    8.000    2.857 
#    2.571    3.571    0.000    0.000    0.000    0.000 
#    0.000    0.000    0.000    0.000    0.000    0.000 
#
# Total GULP energy -346895.215467 kJ/mol
# GULP energy per Si atom -12389.114838 kJ/mol
# Density = 2.217379 g / cm^3
# Si number density = 22.224372 Si / 1000 Ang^3
#
#
#
# Elastic Constant Matrix: (Units=GPa)
#
#
# Indices 1 2 3 4 5 6 
#
# 1 101.6835 4.6286 89.9747 -0.0010 5.4542 0.0001
# 2 4.6286 47.8029 13.7335 0.0086 1.4855 -0.0042
# 3 89.9747 13.7335 191.0187 0.0014 14.3486 -0.0009
# 4 -0.0010 0.0086 0.0014 14.4295 -0.0018 9.8403
# 5 5.4542 1.4855 14.3486 -0.0018 28.4373 0.0004
# 6 0.0001 -0.0042 -0.0009 9.8403 0.0004 17.2730
#
#
#
# Elastic Compliance Matrix: (Units=1/GPa)
#
#
# Indices 1 2 3 4 5 6 
#
# 1 0.016900 0.000657 -0.008067 0.000003 0.000795 -0.000002
# 2 0.000657 0.021389 -0.001823 -0.000026 -0.000324 0.000020
# 3 -0.008067 -0.001823 0.009399 -0.000002 -0.003100 0.000001
# 4 0.000003 -0.000026 -0.000002 0.113334 0.000010 -0.064566
# 5 0.000795 -0.000324 -0.003100 0.000010 0.036594 -0.000007
# 6 -0.000002 0.000020 0.000001 -0.064566 -0.000007 0.094677
#
#
# Mechanical properties :
#
#
# Convention : Reuss Voigt Hill
#
# Bulk Modulus (GPa) = 34.22133 61.90873 48.06503
# Shear Modulus (GPa) = 15.60060 27.50584 21.55322
#
# Velocity S-wave (km/s) = 2.65233 3.52183 3.11754
# Velocity P-wave (km/s) = 4.98109 6.66742 5.88497
#
# Compressibility (1/GPa) = 0.02922154
#
# Stress axis : x y z
#
# Youngs Moduli (GPa) = 59.17028 46.75213 106.39480
#
# Poissons Ratio (x) = -0.03070 0.85833
# Poissons Ratio (y) = -0.03885 0.19394
# Poissons Ratio (z) = 0.47735 0.08522
#
# Static dielectric constant tensor:
#      x y z
#    x 3.708060 0.000000 0.053600 
#    y 0.000000 3.927520 0.000000 
#    z 0.053600 0.000000 4.964700 
# 
# 
# High freq. dielectric constant tensor:
#      x y z
#    x 1.848330 0.000000 0.014250 
#    y 0.000000 1.868430 0.000000 
#    z 0.014250 0.000000 1.888550 
# 
# From -- ./inp_files/218517.got.cif
#   From: 2010.06.25/outbox.cif.g09.slc.cpg/sg15_110_cif.got.tgz:218517.got - 2010.06.28 07:06:18.
