data_PCOD8145023
_publ_section_title
;
Structure prediction by ZEFSAII (Michael W. Deem and Ramdas Pophale) SiO2 
 PCOD8145023
Probable space group: C 2/C
;
_chemical_formula_sum "Si O2"
_cell_formula_units_Z 60
_cell_length_a 24.003601
_cell_length_b 5.325248
_cell_length_c 21.330890
_cell_angle_alpha 90.000000
_cell_angle_beta 94.928056
_cell_angle_gamma 90.000000
_cell_volume 2716.544377
_symmetry_space_group_name_H-M "C 2/C"
_symmetry_group_IT_number 15
_symmetry_cell_setting 'monoclinic'
loop_
_space_group_symop_operation_xyz
x,y,z
-x,y,1/2-z
-x,-y,-z
x,-y,1/2+z
1/2+x,1/2+y,z
1/2-x,1/2+y,1/2-z
1/2-x,1/2-y,-z
1/2+x,1/2-y,1/2+z
loop_
_atom_site_type_symbol
_atom_site_label
_atom_site_fract_x
_atom_site_fract_y
_atom_site_fract_z
Si Si1 0.168842 0.452489 0.632467
Si Si2 0.500000 0.575489 0.750000
Si Si3 0.339254 0.028718 0.725268
Si Si4 0.562726 0.926419 0.842081
Si Si5 0.381499 0.445028 0.929295
Si Si6 0.890529 0.966756 0.075354
Si Si7 0.297129 0.496741 0.163783
Si Si8 0.509054 0.678568 0.127724
O O1 0.147158 0.488343 0.700849
O O2 0.144540 0.675751 0.588082
O O3 0.234708 0.486775 0.631985
O O4 0.147826 0.177995 0.608315
O O5 0.471022 0.417698 0.802532
O O6 0.550610 0.719722 0.787852
O O7 0.310491 0.775319 0.695090
O O8 0.395458 0.107910 0.692263
O O9 0.300529 0.276464 0.715055
O O10 0.501841 0.025170 0.860299
O O11 0.596386 0.821821 0.905432
O O12 0.447223 0.411690 0.919390
O O13 0.376198 0.499664 0.001819
O O14 0.836877 0.059887 0.108878
O O15 0.946193 0.115726 0.099713
#
# Coordination Sequence:
#
# PCOD8145023 Si02
#       8
#     8   4   8   8   8   8   8   8
#     4  12  27  44  68 102 136 178 215 285 344 389
#     4  10  22  36  62 102 134 168 210 280 334 406
#     4  11  22  42  70 102 132 166 224 280 345 402
#     4  10  22  38  67  95 132 175 218 279 336 400
#     4  12  29  43  66  98 142 178 226 272 328 404
#     4  10  25  45  66  96 129 184 232 268 326 396
#     4  11  23  45  73  97 131 174 228 278 337 402
#     4  11  23  42  66  97 133 179 221 275 340 398
#
# _framework density 22.086883
#
# number of rings (size 3 to 8) (size 9 to 14) (size 15 to 20)
#    0.000    1.067    1.333    4.000    9.333    1.600 
#    0.000    0.000    0.000    0.000    0.000    0.000 
#    0.000    0.000    0.000    0.000    0.000    0.000 
#
# Total GULP energy -371678.286184 kJ/mol
# GULP energy per Si atom -12389.276206 kJ/mol
# Density = 2.203661 g / cm^3
# Si number density = 22.086883 Si / 1000 Ang^3
#
#
#
# Elastic Constant Matrix: (Units=GPa)
#
#
# Indices 1 2 3 4 5 6 
#
# 1 73.0085 17.1086 19.1826 0.0000 1.0980 0.0000
# 2 17.1086 106.0820 26.0251 0.0000 5.2003 0.0000
# 3 19.1826 26.0251 126.0861 0.0000 -1.1829 0.0000
# 4 0.0000 0.0000 0.0000 20.3885 0.0000 -3.7549
# 5 1.0980 5.2003 -1.1829 0.0000 24.2226 0.0000
# 6 0.0000 0.0000 0.0000 -3.7549 0.0000 20.0707
#
#
#
# Elastic Compliance Matrix: (Units=1/GPa)
#
#
# Indices 1 2 3 4 5 6 
#
# 1 0.014628 -0.001891 -0.001838 0.000000 -0.000347 0.000000
# 2 -0.001891 0.010296 -0.001858 0.000000 -0.002215 0.000000
# 3 -0.001838 -0.001858 0.008603 0.000000 0.000902 0.000000
# 4 0.000000 0.000000 0.000000 0.050797 0.000000 0.009503
# 5 -0.000347 -0.002215 0.000902 0.000000 0.041819 0.000000
# 6 0.000000 0.000000 0.000000 0.009503 0.000000 0.051602
#
#
# Mechanical properties :
#
#
# Convention : Reuss Voigt Hill
#
# Bulk Modulus (GPa) = 44.73950 47.75658 46.24804
# Shear Modulus (GPa) = 25.46186 29.12705 27.29446
#
# Velocity S-wave (km/s) = 3.39898 3.63540 3.51918
# Velocity P-wave (km/s) = 5.97530 6.26822 6.12351
#
# Compressibility (1/GPa) = 0.02235161
#
# Stress axis : x y z
#
# Youngs Moduli (GPa) = 68.35978 97.12348 116.24098
#
# Poissons Ratio (x) = 0.18368 0.21370
# Poissons Ratio (y) = 0.12928 0.21601
# Poissons Ratio (z) = 0.12568 0.18048
#
# Static dielectric constant tensor:
#      x y z
#    x 4.005940 0.000000 -0.085460 
#    y 0.000000 4.378860 0.000000 
#    z -0.085460 0.000000 3.949730 
# 
# 
# High freq. dielectric constant tensor:
#      x y z
#    x 1.873460 0.000000 -0.000780 
#    y 0.000000 1.883240 0.000000 
#    z -0.000780 0.000000 1.864370 
# 
# From -- ./inp_files/254352.got.cif
#   From: 2010.06.25/outbox.cif.g09.slc.cpg/sg15_128_cif.got.tgz:254352.got - 2010.06.28 07:06:18.
