data_PCOD8145650
_publ_section_title
;
Structure prediction by ZEFSAII (Michael W. Deem and Ramdas Pophale) SiO2 
 PCOD8145650
Probable space group: C 2/C
;
_chemical_formula_sum "Si O2"
_cell_formula_units_Z 40
_cell_length_a 14.124091
_cell_length_b 13.297566
_cell_length_c 10.155925
_cell_angle_alpha 90.000000
_cell_angle_beta 102.164458
_cell_angle_gamma 90.000000
_cell_volume 1864.617274
_symmetry_space_group_name_H-M "C 2/C"
_symmetry_group_IT_number 15
_symmetry_cell_setting 'monoclinic'
loop_
_space_group_symop_operation_xyz
x,y,z
-x,y,1/2-z
-x,-y,-z
x,-y,1/2+z
1/2+x,1/2+y,z
1/2-x,1/2+y,1/2-z
1/2-x,1/2-y,-z
1/2+x,1/2-y,1/2+z
loop_
_atom_site_type_symbol
_atom_site_label
_atom_site_fract_x
_atom_site_fract_y
_atom_site_fract_z
Si Si1 0.293456 0.911144 0.470452
Si Si2 0.432428 0.597453 0.975216
Si Si3 0.884426 0.204326 0.500141
Si Si4 0.722943 0.081143 0.829840
Si Si5 0.608069 0.275109 0.793879
O O1 0.181511 0.875483 0.441134
O O2 0.361551 0.818464 0.534011
O O3 0.316219 0.945462 0.327620
O O4 0.315972 0.000716 0.576913
O O5 0.501819 0.685275 0.937505
O O6 0.339791 0.582302 0.856257
O O7 0.500000 0.500000 0.000000
O O8 0.391939 0.629805 0.107249
O O9 0.858774 0.184607 0.338737
O O10 0.681603 0.188967 0.864345
O O11 0.500000 0.228553 0.750000
#
# Coordination Sequence:
#
# PCOD8145650 Si02
#       5
#     8   8   8   8   8
#     4  10  22  39  64  86 128 159 204 246 308 358
#     4  11  21  36  62  94 120 156 204 251 301 357
#     4   9  20  40  58  86 124 166 189 252 310 354
#     4  11  23  39  64  93 119 163 205 248 304 365
#     4   9  21  41  65  85 126 161 201 252 309 360
#
# _framework density 21.452123
#
# number of rings (size 3 to 8) (size 9 to 14) (size 15 to 20)
#    0.000    2.000    2.000    0.600    2.800    2.400 
#    3.600    9.000    0.000    0.000    0.000    0.000 
#    0.000    0.000    0.000    0.000    0.000    0.000 
#
# Total GULP energy -247979.137693 kJ/mol
# GULP energy per Si atom -12398.956885 kJ/mol
# Density = 2.140330 g / cm^3
# Si number density = 21.452123 Si / 1000 Ang^3
#
#
#
# Elastic Constant Matrix: (Units=GPa)
#
#
# Indices 1 2 3 4 5 6 
#
# 1 70.6436 33.5920 13.1980 0.0000 -0.9003 0.0000
# 2 33.5920 114.2045 56.6220 0.0000 -8.4723 0.0000
# 3 13.1980 56.6220 74.3739 0.0000 -19.8102 0.0000
# 4 0.0000 0.0000 0.0000 36.4525 0.0000 -10.1850
# 5 -0.9003 -8.4723 -19.8102 0.0000 34.2640 0.0000
# 6 0.0000 0.0000 0.0000 -10.1850 0.0000 40.3846
#
#
#
# Elastic Compliance Matrix: (Units=1/GPa)
#
#
# Indices 1 2 3 4 5 6 
#
# 1 0.016529 -0.005451 0.001150 0.000000 -0.000248 0.000000
# 2 -0.005451 0.016167 -0.012192 0.000000 -0.003195 0.000000
# 3 0.001150 -0.012192 0.025684 0.000000 0.011865 0.000000
# 4 0.000000 0.000000 0.000000 0.029513 0.000000 0.007443
# 5 -0.000248 -0.003195 0.011865 0.000000 0.035249 0.000000
# 6 0.000000 0.000000 0.000000 0.007443 0.000000 0.026639
#
#
# Mechanical properties :
#
#
# Convention : Reuss Voigt Hill
#
# Bulk Modulus (GPa) = 39.37690 51.78288 45.57989
# Shear Modulus (GPa) = 26.14641 32.60752 29.37697
#
# Velocity S-wave (km/s) = 3.49496 3.90297 3.70458
# Velocity P-wave (km/s) = 5.88913 6.67099 6.29221
#
# Compressibility (1/GPa) = 0.02539560
#
# Stress axis : x y z
#
# Youngs Moduli (GPa) = 60.49838 61.85346 38.93502
#
# Poissons Ratio (x) = 0.33714 -0.04479
# Poissons Ratio (y) = 0.32976 0.47470
# Poissons Ratio (z) = -0.06959 0.75412
#
# Static dielectric constant tensor:
#      x y z
#    x 4.086290 0.000000 -0.174310 
#    y 0.000000 3.871680 0.000000 
#    z -0.174310 0.000000 3.705930 
# 
# 
# High freq. dielectric constant tensor:
#      x y z
#    x 1.843260 0.000000 -0.018060 
#    y 0.000000 1.835860 0.000000 
#    z -0.018060 0.000000 1.825840 
# 
# From -- ./inp_files/38070.got.cif
#   From: 2010.06.25/outbox.cif.g09.slc.cpg/sg15_20_cif.got.tgz:38070.got - 2010.06.28 07:06:18.
