data_PCOD8145824
_publ_section_title
;
Structure prediction by ZEFSAII (Michael W. Deem and Ramdas Pophale) SiO2 
 PCOD8145824
Probable space group: C 2/C
;
_chemical_formula_sum "Si O2"
_cell_formula_units_Z 48
_cell_length_a 11.187418
_cell_length_b 8.978226
_cell_length_c 26.193791
_cell_angle_alpha 90.000000
_cell_angle_beta 60.124163
_cell_angle_gamma 90.000000
_cell_volume 2281.347255
_symmetry_space_group_name_H-M "C 2/C"
_symmetry_group_IT_number 15
_symmetry_cell_setting 'monoclinic'
loop_
_space_group_symop_operation_xyz
x,y,z
-x,y,1/2-z
-x,-y,-z
x,-y,1/2+z
1/2+x,1/2+y,z
1/2-x,1/2+y,1/2-z
1/2-x,1/2-y,-z
1/2+x,1/2-y,1/2+z
loop_
_atom_site_type_symbol
_atom_site_label
_atom_site_fract_x
_atom_site_fract_y
_atom_site_fract_z
Si Si1 0.440343 0.636910 0.339135
Si Si2 0.684538 0.528298 0.226945
Si Si3 0.647982 0.193271 0.237269
Si Si4 0.260937 0.133881 0.924323
Si Si5 0.062470 0.363827 0.017482
Si Si6 0.117221 0.877164 0.893029
O O1 0.576270 0.645851 0.274984
O O2 0.328587 0.534275 0.332132
O O3 0.373222 0.800540 0.360431
O O4 0.487588 0.570513 0.384476
O O5 0.649950 0.364579 0.254890
O O6 0.829174 0.587750 0.217891
O O7 0.500000 0.144105 0.250000
O O8 0.756742 0.172793 0.168919
O O9 0.344786 0.073026 0.955459
O O10 0.166319 0.006605 0.920145
O O11 0.161099 0.269617 0.959821
O O12 0.934699 0.263134 0.063445
O O13 0.000000 0.500000 0.000000
#
# Coordination Sequence:
#
# PCOD8145824 Si02
#       6
#     8   8   8   8   8   8
#     4   9  20  39  64  85 124 163 201 245 309 349
#     4  10  22  40  60  88 128 163 203 254 295 361
#     4  11  24  40  60  92 126 163 208 247 300 363
#     4  10  22  42  65  90 124 161 201 256 311 364
#     4  10  23  42  65  93 120 159 205 255 312 368
#     4  10  23  42  62  95 124 160 208 252 305 369
#
# _framework density 21.040198
#
# number of rings (size 3 to 8) (size 9 to 14) (size 15 to 20)
#    0.000    2.000    1.667    0.500    7.000    4.667 
#    3.000    0.000    0.000    0.000    0.000    0.000 
#    0.000    0.000    0.000    0.000    0.000    0.000 
#
# Total GULP energy -297394.222220 kJ/mol
# GULP energy per Si atom -12391.425926 kJ/mol
# Density = 2.099231 g / cm^3
# Si number density = 21.040198 Si / 1000 Ang^3
#
#
#
# Elastic Constant Matrix: (Units=GPa)
#
#
# Indices 1 2 3 4 5 6 
#
# 1 188.1878 86.3432 40.3569 0.0000 29.7794 0.0000
# 2 86.3432 89.3456 33.2224 0.0000 22.9683 0.0000
# 3 40.3569 33.2224 69.1870 0.0000 4.9428 0.0000
# 4 0.0000 0.0000 0.0000 22.2645 0.0000 6.9693
# 5 29.7794 22.9683 4.9428 0.0000 36.4243 0.0000
# 6 0.0000 0.0000 0.0000 6.9693 0.0000 44.0397
#
#
#
# Elastic Compliance Matrix: (Units=1/GPa)
#
#
# Indices 1 2 3 4 5 6 
#
# 1 0.009864 -0.008259 -0.001599 0.000000 -0.002639 0.000000
# 2 -0.008259 0.023141 -0.005790 0.000000 -0.007054 0.000000
# 3 -0.001599 -0.005790 0.017987 0.000000 0.002518 0.000000
# 4 0.000000 0.000000 0.000000 0.047256 0.000000 -0.007478
# 5 -0.002639 -0.007054 0.002518 0.000000 0.033718 0.000000
# 6 0.000000 0.000000 0.000000 -0.007478 0.000000 0.023890
#
#
# Mechanical properties :
#
#
# Convention : Reuss Voigt Hill
#
# Bulk Modulus (GPa) = 50.77641 74.06285 62.41963
# Shear Modulus (GPa) = 25.81084 32.99888 29.40486
#
# Velocity S-wave (km/s) = 3.50628 3.96457 3.74245
# Velocity P-wave (km/s) = 6.37004 7.49894 6.95743
#
# Compressibility (1/GPa) = 0.01969418
#
# Stress axis : x y z
#
# Youngs Moduli (GPa) = 101.37952 43.21412 55.59638
#
# Poissons Ratio (x) = 0.35692 0.08890
# Poissons Ratio (y) = 0.83733 0.32191
# Poissons Ratio (z) = 0.16212 0.25021
#
# Static dielectric constant tensor:
#      x y z
#    x 4.436090 0.000000 0.214760 
#    y 0.000000 3.539720 0.000000 
#    z 0.214760 0.000000 3.900270 
# 
# 
# High freq. dielectric constant tensor:
#      x y z
#    x 1.849250 0.000000 0.008030 
#    y 0.000000 1.799830 0.000000 
#    z 0.008030 0.000000 1.815550 
# 
# From -- ./inp_files/291068.got.cif
#   From: 2010.06.25/outbox.cif.g09.slc.cpg/sg15_146_cif.got.tgz:291068.got - 2010.06.28 07:06:18.
