data_PCOD8145499
_publ_section_title
;
Structure prediction by ZEFSAII (Michael W. Deem and Ramdas Pophale) SiO2 
 PCOD8145499
Probable space group: C 2/C
;
_chemical_formula_sum "Si O2"
_cell_formula_units_Z 64
_cell_length_a 18.857452
_cell_length_b 12.204904
_cell_length_c 15.245726
_cell_angle_alpha 90.000000
_cell_angle_beta 65.694277
_cell_angle_gamma 90.000000
_cell_volume 3197.838194
_symmetry_space_group_name_H-M "C 2/C"
_symmetry_group_IT_number 15
_symmetry_cell_setting 'monoclinic'
loop_
_space_group_symop_operation_xyz
x,y,z
-x,y,1/2-z
-x,-y,-z
x,-y,1/2+z
1/2+x,1/2+y,z
1/2-x,1/2+y,1/2-z
1/2-x,1/2-y,-z
1/2+x,1/2-y,1/2+z
loop_
_atom_site_type_symbol
_atom_site_label
_atom_site_fract_x
_atom_site_fract_y
_atom_site_fract_z
Si Si1 0.963546 0.880758 0.508476
Si Si2 0.836486 0.421823 0.419501
Si Si3 0.111457 0.774066 0.498358
Si Si4 0.819312 0.927226 0.896763
Si Si5 0.581926 0.632085 0.665375
Si Si6 0.162503 0.657529 0.086158
Si Si7 0.732664 0.769864 0.185298
Si Si8 0.688681 0.276671 0.897118
O O1 0.930003 0.870255 0.430359
O O2 0.884588 0.850204 0.602226
O O3 0.028561 0.789604 0.494625
O O4 0.000000 0.000000 0.500000
O O5 0.888826 0.343622 0.453703
O O6 0.758382 0.453770 0.510902
O O7 0.878700 0.538541 0.380954
O O8 0.818067 0.363085 0.336903
O O9 0.121435 0.867804 0.566633
O O10 0.177925 0.781482 0.390547
O O11 0.799752 0.848945 0.825329
O O12 0.857548 0.037196 0.837799
O O13 0.500000 0.609273 0.750000
O O14 0.616840 0.752136 0.668245
O O15 0.248789 0.647308 0.084438
O O16 0.163806 0.685037 0.981478
O O17 0.725829 0.783470 0.293360
#
# Coordination Sequence:
#
# PCOD8145499 Si02
#       8
#     8   8   8   8   8   8   8   8
#     4  11  22  37  59  90 124 154 194 253 317 353
#     4   9  18  40  62  81 119 164 200 245 304 362
#     4   9  19  36  59  89 121 154 195 255 312 349
#     4   9  17  35  58  87 120 154 192 251 315 351
#     4  11  24  38  58  87 121 162 202 250 306 365
#     4  10  22  42  58  78 126 169 200 242 311 361
#     4   9  20  35  62  93 117 153 214 254 287 372
#     4  10  22  39  59  88 119 165 209 242 300 372
#
# _framework density 20.01352
#
# number of rings (size 3 to 8) (size 9 to 14) (size 15 to 20)
#    0.000    2.250    1.250    3.750    5.250    0.000 
#    6.750    5.625    0.000    0.000    0.000    0.000 
#    0.000    0.000    0.000    0.000    0.000    0.000 
#
# Total GULP energy -396590.718010 kJ/mol
# GULP energy per Si atom -12393.459938 kJ/mol
# Density = 1.996797 g / cm^3
# Si number density = 20.013520 Si / 1000 Ang^3
#
#
#
# Elastic Constant Matrix: (Units=GPa)
#
#
# Indices 1 2 3 4 5 6 
#
# 1 98.5235 42.7427 12.6520 0.0000 -7.2135 0.0000
# 2 42.7427 155.8900 23.8009 0.0000 -5.7232 0.0000
# 3 12.6520 23.8009 82.2988 0.0000 -1.8804 0.0000
# 4 0.0000 0.0000 0.0000 12.8677 0.0000 0.4181
# 5 -7.2135 -5.7232 -1.8804 0.0000 20.2224 0.0000
# 6 0.0000 0.0000 0.0000 0.4181 0.0000 24.1308
#
#
#
# Elastic Compliance Matrix: (Units=1/GPa)
#
#
# Indices 1 2 3 4 5 6 
#
# 1 0.011796 -0.002980 -0.000877 0.000000 0.003283 0.000000
# 2 -0.002980 0.007524 -0.001697 0.000000 0.000909 0.000000
# 3 -0.000877 -0.001697 0.012785 0.000000 0.000396 0.000000
# 4 0.000000 0.000000 0.000000 0.077757 0.000000 -0.001347
# 5 0.003283 0.000909 0.000396 0.000000 0.050915 0.000000
# 6 0.000000 0.000000 0.000000 -0.001347 0.000000 0.041464
#
#
# Mechanical properties :
#
#
# Convention : Reuss Voigt Hill
#
# Bulk Modulus (GPa) = 47.62325 55.01151 51.31738
# Shear Modulus (GPa) = 22.69134 28.61198 25.65166
#
# Velocity S-wave (km/s) = 3.37085 3.78515 3.58399
# Velocity P-wave (km/s) = 6.24479 6.83008 6.54398
#
# Compressibility (1/GPa) = 0.02099815
#
# Stress axis : x y z
#
# Youngs Moduli (GPa) = 84.77802 132.90307 78.21372
#
# Poissons Ratio (x) = 0.39602 0.06856
# Poissons Ratio (y) = 0.25262 0.13274
# Poissons Ratio (z) = 0.07432 0.22556
#
# Static dielectric constant tensor:
#      x y z
#    x 8.174690 0.000000 -1.974860 
#    y 0.000000 3.029820 0.000000 
#    z -1.974860 0.000000 4.227080 
# 
# 
# High freq. dielectric constant tensor:
#      x y z
#    x 1.771960 0.000000 0.007180 
#    y 0.000000 1.783430 0.000000 
#    z 0.007180 0.000000 1.761300 
# 
# From -- ./inp_files/167641.got.cif
#   From: 2010.06.25/outbox.cif.g09.slc.cpg/sg15_84_cif.got.tgz:167641.got - 2010.06.28 07:06:18.
