data_PCOD8145717
_publ_section_title
;
Structure prediction by ZEFSAII (Michael W. Deem and Ramdas Pophale) SiO2 
 PCOD8145717
Probable space group: C 2/C
;
_chemical_formula_sum "Si O2"
_cell_formula_units_Z 64
_cell_length_a 28.799616
_cell_length_b 8.762251
_cell_length_c 18.514379
_cell_angle_alpha 90.000000
_cell_angle_beta 139.244022
_cell_angle_gamma 90.000000
_cell_volume 3050.123945
_symmetry_space_group_name_H-M "C 2/C"
_symmetry_group_IT_number 15
_symmetry_cell_setting 'monoclinic'
loop_
_space_group_symop_operation_xyz
x,y,z
-x,y,1/2-z
-x,-y,-z
x,-y,1/2+z
1/2+x,1/2+y,z
1/2-x,1/2+y,1/2-z
1/2-x,1/2-y,-z
1/2+x,1/2-y,1/2+z
loop_
_atom_site_type_symbol
_atom_site_label
_atom_site_fract_x
_atom_site_fract_y
_atom_site_fract_z
Si Si1 0.497593 0.640130 0.406535
Si Si2 0.689729 0.688609 0.020680
Si Si3 0.847648 0.627579 0.161501
Si Si4 0.761655 0.734211 0.358559
Si Si5 0.411528 0.346035 0.349254
Si Si6 0.747373 0.406820 0.292823
Si Si7 0.889428 0.880110 0.576698
Si Si8 0.371237 0.781359 0.200639
O O1 0.463276 0.473484 0.377366
O O2 0.553585 0.697157 0.532883
O O3 0.534789 0.638965 0.371981
O O4 0.434528 0.765031 0.333560
O O5 0.766838 0.621173 0.093421
O O6 0.698011 0.799882 0.098843
O O7 0.651341 0.778816 0.911133
O O8 0.638493 0.548029 0.977297
O O9 0.902794 0.703214 0.283884
O O10 0.870715 0.454501 0.171921
O O11 0.771149 0.580315 0.324987
O O12 0.746269 0.869069 0.283974
O O13 0.836471 0.752876 0.484719
O O14 0.702605 0.730319 0.351098
O O15 0.332086 0.404680 0.269403
O O16 0.891853 0.845560 0.664758
#
# Coordination Sequence:
#
# PCOD8145717 Si02
#       8
#     8   8   8   8   8   8   8   8
#     4  11  24  43  66  92 130 182 221 264 326 400
#     4  10  22  39  66  96 128 165 218 273 329 384
#     4  10  22  40  64  96 128 167 214 276 332 385
#     4  12  24  40  66 100 133 166 218 277 328 385
#     4  10  22  43  67  91 129 172 224 265 324 404
#     4  11  23  40  66  99 132 165 216 276 328 389
#     4  12  24  42  66  98 131 176 223 269 323 399
#     4  12  25  41  65  97 135 175 217 270 332 387
#
# _framework density 20.982754
#
# number of rings (size 3 to 8) (size 9 to 14) (size 15 to 20)
#    0.000    1.000    3.750    3.000    5.250    0.500 
#    0.000    3.750    0.000    0.000    0.000    0.000 
#    0.000    0.000    0.000    0.000    0.000    0.000 
#
# Total GULP energy -396810.879058 kJ/mol
# GULP energy per Si atom -12400.339971 kJ/mol
# Density = 2.093500 g / cm^3
# Si number density = 20.982754 Si / 1000 Ang^3
#
#
#
# Elastic Constant Matrix: (Units=GPa)
#
#
# Indices 1 2 3 4 5 6 
#
# 1 91.7339 11.5781 11.4685 0.0000 -4.2901 0.0000
# 2 11.5781 91.3433 34.1732 0.0000 10.7643 0.0000
# 3 11.4685 34.1732 68.1850 0.0000 -2.1616 0.0000
# 4 0.0000 0.0000 0.0000 36.4011 0.0000 -2.8779
# 5 -4.2901 10.7643 -2.1616 0.0000 28.9641 0.0000
# 6 0.0000 0.0000 0.0000 -2.8779 0.0000 27.7626
#
#
#
# Elastic Compliance Matrix: (Units=1/GPa)
#
#
# Indices 1 2 3 4 5 6 
#
# 1 0.011303 -0.001212 -0.001229 0.000000 0.002033 0.000000
# 2 -0.001212 0.014548 -0.007282 0.000000 -0.006130 0.000000
# 3 -0.001229 -0.007282 0.018646 0.000000 0.003916 0.000000
# 4 0.000000 0.000000 0.000000 0.027699 0.000000 0.002871
# 5 0.002033 -0.006130 0.003916 0.000000 0.037397 0.000000
# 6 0.000000 0.000000 0.000000 0.002871 0.000000 0.036317
#
#
# Mechanical properties :
#
#
# Convention : Reuss Voigt Hill
#
# Bulk Modulus (GPa) = 39.91867 40.63356 40.27611
# Shear Modulus (GPa) = 28.78421 31.56170 30.17296
#
# Velocity S-wave (km/s) = 3.70780 3.88258 3.79620
# Velocity P-wave (km/s) = 6.11525 6.28542 6.20091
#
# Compressibility (1/GPa) = 0.02505094
#
# Stress axis : x y z
#
# Youngs Moduli (GPa) = 88.47320 68.73839 53.63017
#
# Poissons Ratio (x) = 0.08334 0.06591
# Poissons Ratio (y) = 0.10727 0.39051
# Poissons Ratio (z) = 0.10873 0.50052
#
# Static dielectric constant tensor:
#      x y z
#    x 3.594940 0.000000 -0.102630 
#    y 0.000000 3.725080 0.000000 
#    z -0.102630 0.000000 4.064100 
# 
# 
# High freq. dielectric constant tensor:
#      x y z
#    x 1.810020 0.000000 -0.008600 
#    y 0.000000 1.819970 0.000000 
#    z -0.008600 0.000000 1.839130 
# 
# From -- ./inp_files/224627.got.cif
#   From: 2010.06.25/outbox.cif.g09.slc.cpg/sg15_113_cif.got.tgz:224627.got - 2010.06.28 07:06:18.
