data_PCOD8145392
_publ_section_title
;
Structure prediction by ZEFSAII (Michael W. Deem and Ramdas Pophale) SiO2 
 PCOD8145392
Probable space group: C 2/C
;
_chemical_formula_sum "Si O2"
_cell_formula_units_Z 60
_cell_length_a 12.375184
_cell_length_b 13.559880
_cell_length_c 17.544150
_cell_angle_alpha 90.000000
_cell_angle_beta 73.530670
_cell_angle_gamma 90.000000
_cell_volume 2823.225719
_symmetry_space_group_name_H-M "C 2/C"
_symmetry_group_IT_number 15
_symmetry_cell_setting 'monoclinic'
loop_
_space_group_symop_operation_xyz
x,y,z
-x,y,1/2-z
-x,-y,-z
x,-y,1/2+z
1/2+x,1/2+y,z
1/2-x,1/2+y,1/2-z
1/2-x,1/2-y,-z
1/2+x,1/2-y,1/2+z
loop_
_atom_site_type_symbol
_atom_site_label
_atom_site_fract_x
_atom_site_fract_y
_atom_site_fract_z
Si Si1 0.426434 0.786465 0.548111
Si Si2 0.406122 0.785833 0.373513
Si Si3 0.785419 0.109992 0.337753
Si Si4 0.684328 0.377164 0.350472
Si Si5 0.717624 0.930498 0.689148
Si Si6 0.500000 0.934516 0.250000
Si Si7 0.124646 0.101596 0.698320
Si Si8 0.847450 0.275615 0.922280
O O1 0.427652 0.775528 0.457957
O O2 0.325875 0.860003 0.592031
O O3 0.418967 0.677342 0.587871
O O4 0.547234 0.824176 0.553831
O O5 0.394422 0.675693 0.340001
O O6 0.290072 0.838079 0.376146
O O7 0.502970 0.857856 0.320941
O O8 0.757148 0.130692 0.254807
O O9 0.811958 0.995250 0.346166
O O10 0.681283 0.496122 0.357685
O O11 0.688922 0.351991 0.258896
O O12 0.695643 0.858770 0.625106
O O13 0.609071 0.996545 0.732872
O O14 0.118107 0.179940 0.632383
O O15 0.000000 0.070845 0.750000
O O16 0.750000 0.250000 0.000000
#
# Coordination Sequence:
#
# PCOD8145392 Si02
#       8
#     8   8   8   8   8   4   8   8
#     4  11  22  42  67  94 135 175 206 272 334 392
#     4  10  22  38  65  96 131 162 217 260 330 386
#     4  10  22  40  71  96 126 174 218 266 326 397
#     4   9  19  40  66  92 125 171 213 265 324 388
#     4  10  22  41  66  92 126 169 221 263 318 379
#     4  10  22  40  64  94 122 168 214 270 312 384
#     4  11  23  42  67  95 134 173 224 273 332 394
#     4  12  27  43  65  98 133 176 225 273 326 393
#
# _framework density 21.252285000000001
#
# number of rings (size 3 to 8) (size 9 to 14) (size 15 to 20)
#    0.000    1.600    1.333    4.000    1.867    7.467 
#    2.400    5.333    0.000    0.000    0.000    0.000 
#    0.000    0.000    0.000    0.000    0.000    0.000 
#
# Total GULP energy -371787.513359 kJ/mol
# GULP energy per Si atom -12392.917112 kJ/mol
# Density = 2.120391 g / cm^3
# Si number density = 21.252285 Si / 1000 Ang^3
#
#
#
# Elastic Constant Matrix: (Units=GPa)
#
#
# Indices 1 2 3 4 5 6 
#
# 1 67.0426 27.6234 45.6030 0.0000 7.5194 0.0000
# 2 27.6234 104.0487 71.6874 0.0000 3.1428 0.0000
# 3 45.6030 71.6874 148.3033 0.0000 18.4853 0.0000
# 4 0.0000 0.0000 0.0000 7.5405 0.0000 2.3920
# 5 7.5194 3.1428 18.4853 0.0000 44.5169 0.0000
# 6 0.0000 0.0000 0.0000 2.3920 0.0000 27.3452
#
#
#
# Elastic Compliance Matrix: (Units=1/GPa)
#
#
# Indices 1 2 3 4 5 6 
#
# 1 0.019068 -0.001621 -0.004949 0.000000 -0.001051 0.000000
# 2 -0.001621 0.014715 -0.006875 0.000000 0.002090 0.000000
# 3 -0.004949 -0.006875 0.012047 0.000000 -0.003681 0.000000
# 4 0.000000 0.000000 0.000000 0.136402 0.000000 -0.011932
# 5 -0.001051 0.002090 -0.003681 0.000000 0.024022 0.000000
# 6 0.000000 0.000000 0.000000 -0.011932 0.000000 0.037613
#
#
# Mechanical properties :
#
#
# Convention : Reuss Voigt Hill
#
# Bulk Modulus (GPa) = 52.79779 67.69137 60.24458
# Shear Modulus (GPa) = 18.04605 27.51257 22.77931
#
# Velocity S-wave (km/s) = 2.91715 3.60192 3.27747
# Velocity P-wave (km/s) = 6.02027 7.01562 6.53692
#
# Compressibility (1/GPa) = 0.01894019
#
# Stress axis : x y z
#
# Youngs Moduli (GPa) = 52.44430 67.95888 83.00999
#
# Poissons Ratio (x) = 0.11015 0.41080
# Poissons Ratio (y) = 0.08501 0.57069
# Poissons Ratio (z) = 0.25954 0.46721
#
# Static dielectric constant tensor:
#      x y z
#    x 4.024550 0.000000 0.009620 
#    y 0.000000 4.396850 0.000000 
#    z 0.009620 0.000000 3.876370 
# 
# 
# High freq. dielectric constant tensor:
#      x y z
#    x 1.836190 0.000000 0.016850 
#    y 0.000000 1.838720 0.000000 
#    z 0.016850 0.000000 1.826930 
# 
# From -- ./inp_files/153912.got.cif
#   From: 2010.06.25/outbox.cif.g09.slc.cpg/sg15_77_cif.got.tgz:153912.got - 2010.06.28 07:06:18.
