data_PCOD8145236
_publ_section_title
;
Structure prediction by ZEFSAII (Michael W. Deem and Ramdas Pophale) SiO2 
 PCOD8145236
Probable space group: C 2/C
;
_chemical_formula_sum "Si O2"
_cell_formula_units_Z 52
_cell_length_a 21.992112
_cell_length_b 8.613058
_cell_length_c 14.835827
_cell_angle_alpha 90.000000
_cell_angle_beta 124.736952
_cell_angle_gamma 90.000000
_cell_volume 2309.350784
_symmetry_space_group_name_H-M "C 2/C"
_symmetry_group_IT_number 15
_symmetry_cell_setting 'monoclinic'
loop_
_space_group_symop_operation_xyz
x,y,z
-x,y,1/2-z
-x,-y,-z
x,-y,1/2+z
1/2+x,1/2+y,z
1/2-x,1/2+y,1/2-z
1/2-x,1/2-y,-z
1/2+x,1/2-y,1/2+z
loop_
_atom_site_type_symbol
_atom_site_label
_atom_site_fract_x
_atom_site_fract_y
_atom_site_fract_z
Si Si1 0.000000 0.075652 0.750000
Si Si2 0.131225 0.700098 0.406726
Si Si3 0.327236 0.299644 0.240294
Si Si4 0.608750 0.617769 0.241258
Si Si5 0.667674 0.192466 0.635696
Si Si6 0.924029 0.601973 0.444025
Si Si7 0.579740 0.849047 0.360980
O O1 0.029481 0.962803 0.694849
O O2 0.062694 0.184500 0.841489
O O3 0.186075 0.723364 0.369053
O O4 0.165657 0.748329 0.530912
O O5 0.109298 0.521966 0.383741
O O6 0.332036 0.482846 0.224356
O O7 0.253208 0.279920 0.238874
O O8 0.403297 0.228912 0.349037
O O9 0.609121 0.717980 0.149828
O O10 0.630202 0.729006 0.345233
O O11 0.645762 0.012555 0.620954
O O12 0.925408 0.698830 0.538321
O O13 0.000000 0.500000 0.500000
O O14 0.500000 0.846537 0.250000
#
# Coordination Sequence:
#
# PCOD8145236 Si02
#       7
#     4   8   8   8   8   8   8
#     4  10  22  38  60 104 134 174 222 296 356 404
#     4  10  22  40  68  92 135 181 232 280 350 424
#     4  11  24  44  64  99 143 182 234 295 352 422
#     4  11  24  39  66  97 144 171 227 296 352 407
#     4  11  24  43  67  98 136 191 235 283 360 425
#     4  11  25  43  74 101 132 191 243 282 350 430
#     4  11  21  42  66  99 135 174 230 289 351 418
#
# _framework density 22.517150999999998
#
# number of rings (size 3 to 8) (size 9 to 14) (size 15 to 20)
#    0.000    1.231    1.538    4.154    6.462    3.077 
#    0.000    8.462    0.000    0.000    0.000    0.000 
#    0.000    0.000    0.000    0.000    0.000    0.000 
#
# Total GULP energy -322101.357842 kJ/mol
# GULP energy per Si atom -12388.513763 kJ/mol
# Density = 2.246590 g / cm^3
# Si number density = 22.517151 Si / 1000 Ang^3
#
#
#
# Elastic Constant Matrix: (Units=GPa)
#
#
# Indices 1 2 3 4 5 6 
#
# 1 123.7172 47.3259 41.0920 0.0000 -5.9181 0.0000
# 2 47.3259 112.8136 53.4187 0.0000 -11.3304 0.0000
# 3 41.0920 53.4187 105.1473 0.0000 -26.4026 0.0000
# 4 0.0000 0.0000 0.0000 19.4195 0.0000 -9.6736
# 5 -5.9181 -11.3304 -26.4026 0.0000 43.2708 0.0000
# 6 0.0000 0.0000 0.0000 -9.6736 0.0000 41.8106
#
#
#
# Elastic Compliance Matrix: (Units=1/GPa)
#
#
# Indices 1 2 3 4 5 6 
#
# 1 0.010090 -0.003090 -0.002634 0.000000 -0.001036 0.000000
# 2 -0.003090 0.012634 -0.005298 0.000000 -0.000347 0.000000
# 3 -0.002634 -0.005298 0.015107 0.000000 0.007470 0.000000
# 4 0.000000 0.000000 0.000000 0.058203 0.000000 0.013466
# 5 -0.001036 -0.000347 0.007470 0.000000 0.027436 0.000000
# 6 0.000000 0.000000 0.000000 0.013466 0.000000 0.027033
#
#
# Mechanical properties :
#
#
# Convention : Reuss Voigt Hill
#
# Bulk Modulus (GPa) = 63.33903 69.48346 66.41125
# Shear Modulus (GPa) = 28.11992 34.22296 31.17144
#
# Velocity S-wave (km/s) = 3.53770 3.90277 3.72471
# Velocity P-wave (km/s) = 6.69906 7.15778 6.93222
#
# Compressibility (1/GPa) = 0.01578805
#
# Stress axis : x y z
#
# Youngs Moduli (GPa) = 99.10692 79.14929 66.19307
#
# Poissons Ratio (x) = 0.24456 0.17433
# Poissons Ratio (y) = 0.30622 0.35072
# Poissons Ratio (z) = 0.26101 0.41936
#
# Static dielectric constant tensor:
#      x y z
#    x 4.283720 0.000000 -0.402510 
#    y 0.000000 4.497500 0.000000 
#    z -0.402510 0.000000 4.090340 
# 
# 
# High freq. dielectric constant tensor:
#      x y z
#    x 1.893480 0.000000 -0.019040 
#    y 0.000000 1.900300 0.000000 
#    z -0.019040 0.000000 1.868520 
# 
# From -- ./inp_files/172064.got.cif
#   From: 2010.06.25/outbox.cif.g09.slc.cpg/sg15_87_cif.got.tgz:172064.got - 2010.06.28 07:06:18.
