data_PCOD8145209
_publ_section_title
;
Structure prediction by ZEFSAII (Michael W. Deem and Ramdas Pophale) SiO2 
 PCOD8145209
Probable space group: C 2/C
;
_chemical_formula_sum "Si O2"
_cell_formula_units_Z 40
_cell_length_a 15.733071
_cell_length_b 21.835464
_cell_length_c 8.891929
_cell_angle_alpha 90.000000
_cell_angle_beta 144.489350
_cell_angle_gamma 90.000000
_cell_volume 1774.349226
_symmetry_space_group_name_H-M "C 2/C"
_symmetry_group_IT_number 15
_symmetry_cell_setting 'monoclinic'
loop_
_space_group_symop_operation_xyz
x,y,z
-x,y,1/2-z
-x,-y,-z
x,-y,1/2+z
1/2+x,1/2+y,z
1/2-x,1/2+y,1/2-z
1/2-x,1/2-y,-z
1/2+x,1/2-y,1/2+z
loop_
_atom_site_type_symbol
_atom_site_label
_atom_site_fract_x
_atom_site_fract_y
_atom_site_fract_z
Si Si1 0.319278 0.432421 0.244006
Si Si2 0.225993 0.685369 0.041636
Si Si3 0.022307 0.684265 0.023241
Si Si4 0.988025 0.176055 0.906449
Si Si5 0.500000 0.093436 0.250000
Si Si6 0.000000 0.998639 0.750000
O O1 0.346417 0.358217 0.273049
O O2 0.386125 0.457460 0.494068
O O3 0.401081 0.460828 0.218367
O O4 0.144172 0.446713 0.996962
O O5 0.116620 0.653649 0.765290
O O6 0.250000 0.750000 0.000000
O O7 0.155315 0.693846 0.102710
O O8 0.376675 0.649766 0.295277
O O9 0.003067 0.750900 0.069132
O O10 0.060699 0.635401 0.203696
O O11 0.000000 0.157405 0.750000
#
# Coordination Sequence:
#
# PCOD8145209 Si02
#       6
#     8   8   8   8   4   4
#     4  11  26  45  72  97 127 174 227 282 347 389
#     4   9  21  37  55  88 138 189 223 253 307 391
#     4  10  22  38  59 100 147 174 217 264 320 413
#     4  11  21  36  66  95 134 179 216 264 329 400
#     4  12  26  41  70 108 136 175 214 274 352 410
#     4  10  26  53  70  92 124 167 240 298 326 402
#
# _framework density 22.543476999999999
#
# number of rings (size 3 to 8) (size 9 to 14) (size 15 to 20)
#    0.000    1.600    2.000    1.200    8.400    4.000 
#    0.000    0.000    0.000    0.000    0.000    0.000 
#    0.000    0.000    0.000    0.000    0.000    0.000 
#
# Total GULP energy -247774.743480 kJ/mol
# GULP energy per Si atom -12388.737174 kJ/mol
# Density = 2.249217 g / cm^3
# Si number density = 22.543477 Si / 1000 Ang^3
#
#
#
# Elastic Constant Matrix: (Units=GPa)
#
#
# Indices 1 2 3 4 5 6 
#
# 1 92.7564 14.6344 49.8047 0.0000 -4.3860 0.0000
# 2 14.6344 49.1706 38.9094 0.0000 -3.5367 0.0000
# 3 49.8047 38.9094 171.1914 0.0000 14.0787 0.0000
# 4 0.0000 0.0000 0.0000 20.7255 0.0000 3.4910
# 5 -4.3860 -3.5367 14.0787 0.0000 44.3758 0.0000
# 6 0.0000 0.0000 0.0000 3.4910 0.0000 3.3255
#
#
#
# Elastic Compliance Matrix: (Units=1/GPa)
#
#
# Indices 1 2 3 4 5 6 
#
# 1 0.013072 -0.000663 -0.003855 0.000000 0.002462 0.000000
# 2 -0.000663 0.025494 -0.005918 0.000000 0.003844 0.000000
# 3 -0.003855 -0.005918 0.008602 0.000000 -0.003582 0.000000
# 4 0.000000 0.000000 0.000000 0.058614 0.000000 -0.061532
# 5 0.002462 0.003844 -0.003582 0.000000 0.024221 0.000000
# 6 0.000000 0.000000 0.000000 -0.061532 0.000000 0.365300
#
#
# Mechanical properties :
#
#
# Convention : Reuss Voigt Hill
#
# Bulk Modulus (GPa) = 38.02684 57.75727 47.89206
# Shear Modulus (GPa) = 9.52491 27.67003 18.59747
#
# Velocity S-wave (km/s) = 2.05774 3.50724 2.87533
# Velocity P-wave (km/s) = 4.74874 6.48668 5.68452
#
# Compressibility (1/GPa) = 0.02629721
#
# Stress axis : x y z
#
# Youngs Moduli (GPa) = 76.50100 39.22513 116.24624
#
# Poissons Ratio (x) = 0.02601 0.44810
# Poissons Ratio (y) = 0.05073 0.68790
# Poissons Ratio (z) = 0.29489 0.23212
#
# Static dielectric constant tensor:
#      x y z
#    x 3.960110 0.000000 -0.067940 
#    y 0.000000 3.610750 0.000000 
#    z -0.067940 0.000000 4.961380 
# 
# 
# High freq. dielectric constant tensor:
#      x y z
#    x 1.894500 0.000000 -0.008990 
#    y 0.000000 1.845890 0.000000 
#    z -0.008990 0.000000 1.917360 
# 
# From -- ./inp_files/43314.got.cif
#   From: 2010.06.25/outbox.cif.g09.slc.cpg/sg15_22_cif.got.tgz:43314.got - 2010.06.28 07:06:18.
