data_PCOD8145491
_publ_section_title
;
Structure prediction by ZEFSAII (Michael W. Deem and Ramdas Pophale) SiO2 
 PCOD8145491
Probable space group: C 2/C
;
_chemical_formula_sum "Si O2"
_cell_formula_units_Z 64
_cell_length_a 9.270381
_cell_length_b 10.986534
_cell_length_c 30.997997
_cell_angle_alpha 90.000000
_cell_angle_beta 97.166275
_cell_angle_gamma 90.000000
_cell_volume 3132.463519
_symmetry_space_group_name_H-M "C 2/C"
_symmetry_group_IT_number 15
_symmetry_cell_setting 'monoclinic'
loop_
_space_group_symop_operation_xyz
x,y,z
-x,y,1/2-z
-x,-y,-z
x,-y,1/2+z
1/2+x,1/2+y,z
1/2-x,1/2+y,1/2-z
1/2-x,1/2-y,-z
1/2+x,1/2-y,1/2+z
loop_
_atom_site_type_symbol
_atom_site_label
_atom_site_fract_x
_atom_site_fract_y
_atom_site_fract_z
Si Si1 0.764208 0.910585 0.588702
Si Si2 0.446850 0.485285 0.701246
Si Si3 0.648646 0.426929 0.133648
Si Si4 0.407161 0.752843 0.158924
Si Si5 0.200545 0.626077 0.645782
Si Si6 0.511032 0.742469 0.565165
Si Si7 0.268788 0.656468 0.410547
Si Si8 0.538736 0.376550 0.978767
O O1 0.898268 0.848716 0.620063
O O2 0.623795 0.831075 0.591565
O O3 0.811520 0.907560 0.540506
O O4 0.713549 0.042486 0.603483
O O5 0.500000 0.526474 0.750000
O O6 0.572815 0.513009 0.671620
O O7 0.420815 0.337956 0.700702
O O8 0.301308 0.564867 0.686226
O O9 0.757151 0.325710 0.156193
O O10 0.521436 0.377996 0.096194
O O11 0.743778 0.520375 0.108534
O O12 0.537447 0.850964 0.158181
O O13 0.251628 0.758537 0.632230
O O14 0.356331 0.809447 0.560019
O O15 0.559528 0.720768 0.517665
O O16 0.418865 0.675295 0.441559
O O17 0.500000 0.500000 0.000000
#
# Coordination Sequence:
#
# PCOD8145491 Si02
#       8
#     8   8   8   8   8   8   8   8
#     4  10  22  39  58  90 123 166 212 258 306 361
#     4  11  24  43  67  95 124 155 196 254 317 383
#     4  11  22  42  64  91 124 164 206 254 311 375
#     4  10  22  41  67  90 123 163 204 252 309 373
#     4  11  20  41  68  89 124 166 207 250 314 380
#     4  11  23  38  59  88 128 166 215 262 305 360
#     4  12  21  39  64  89 121 171 213 252 312 369
#     4  12  22  38  57  87 127 168 218 266 307 353
#
# _framework density 20.431203
#
# number of rings (size 3 to 8) (size 9 to 14) (size 15 to 20)
#    0.000    1.000    5.000    3.000    0.000    1.000 
#    0.000    1.250    0.000    0.000    0.000    0.000 
#    0.000    0.000    0.000    0.000    0.000    0.000 
#
# Total GULP energy -396582.217178 kJ/mol
# GULP energy per Si atom -12393.194287 kJ/mol
# Density = 2.038470 g / cm^3
# Si number density = 20.431203 Si / 1000 Ang^3
#
#
#
# Elastic Constant Matrix: (Units=GPa)
#
#
# Indices 1 2 3 4 5 6 
#
# 1 88.3178 37.8224 22.5350 0.0000 6.1471 0.0000
# 2 37.8224 102.1531 28.9802 0.0000 5.8600 0.0000
# 3 22.5350 28.9802 80.3957 0.0000 9.6964 0.0000
# 4 0.0000 0.0000 0.0000 25.3665 0.0000 1.6472
# 5 6.1471 5.8600 9.6964 0.0000 17.8535 0.0000
# 6 0.0000 0.0000 0.0000 1.6472 0.0000 35.7502
#
#
#
# Elastic Compliance Matrix: (Units=1/GPa)
#
#
# Indices 1 2 3 4 5 6 
#
# 1 0.013897 -0.004443 -0.002025 0.000000 -0.002227 0.000000
# 2 -0.004443 0.012365 -0.003110 0.000000 -0.000839 0.000000
# 3 -0.002025 -0.003110 0.014896 0.000000 -0.006372 0.000000
# 4 0.000000 0.000000 0.000000 0.039540 0.000000 -0.001822
# 5 -0.002227 -0.000839 -0.006372 0.000000 0.060514 0.000000
# 6 0.000000 0.000000 0.000000 -0.001822 0.000000 0.028056
#
#
# Mechanical properties :
#
#
# Convention : Reuss Voigt Hill
#
# Bulk Modulus (GPa) = 45.45419 49.94910 47.70164
# Shear Modulus (GPa) = 25.54151 27.89598 26.71874
#
# Velocity S-wave (km/s) = 3.53954 3.69909 3.62019
# Velocity P-wave (km/s) = 6.24502 6.53796 6.39316
#
# Compressibility (1/GPa) = 0.02200017
#
# Stress axis : x y z
#
# Youngs Moduli (GPa) = 71.95641 80.87401 67.13264
#
# Poissons Ratio (x) = 0.35934 0.13596
# Poissons Ratio (y) = 0.31972 0.20882
# Poissons Ratio (z) = 0.14573 0.25156
#
# Static dielectric constant tensor:
#      x y z
#    x 3.766170 0.000000 0.045180 
#    y 0.000000 3.842790 0.000000 
#    z 0.045180 0.000000 3.704610 
# 
# 
# High freq. dielectric constant tensor:
#      x y z
#    x 1.799990 0.000000 -0.002300 
#    y 0.000000 1.808520 0.000000 
#    z -0.002300 0.000000 1.775630 
# 
# From -- ./inp_files/307501.got.cif
#   From: 2010.06.25/outbox.cif.g09.slc.cpg/sg15_154_cif.got.tgz:307501.got - 2010.06.28 07:06:18.
