data_PCOD8145812
_publ_section_title
;
Structure prediction by ZEFSAII (Michael W. Deem and Ramdas Pophale) SiO2 
 PCOD8145812
Probable space group: C 2/C
;
_chemical_formula_sum "Si O2"
_cell_formula_units_Z 52
_cell_length_a 24.133703
_cell_length_b 20.123604
_cell_length_c 5.452415
_cell_angle_alpha 90.000000
_cell_angle_beta 115.163434
_cell_angle_gamma 90.000000
_cell_volume 2396.704675
_symmetry_space_group_name_H-M "C 2/C"
_symmetry_group_IT_number 15
_symmetry_cell_setting 'monoclinic'
loop_
_space_group_symop_operation_xyz
x,y,z
-x,y,1/2-z
-x,-y,-z
x,-y,1/2+z
1/2+x,1/2+y,z
1/2-x,1/2+y,1/2-z
1/2-x,1/2-y,-z
1/2+x,1/2-y,1/2+z
loop_
_atom_site_type_symbol
_atom_site_label
_atom_site_fract_x
_atom_site_fract_y
_atom_site_fract_z
Si Si1 0.782125 0.463878 0.834870
Si Si2 0.179224 0.333380 0.388415
Si Si3 0.897986 0.161163 0.725537
Si Si4 0.137456 0.964235 0.580006
Si Si5 0.061537 0.716366 0.483837
Si Si6 0.716684 0.293559 0.236727
Si Si7 0.000000 0.808602 0.750000
O O1 0.804819 0.498689 0.626380
O O2 0.709806 0.456786 0.706836
O O3 0.812090 0.390085 0.890459
O O4 0.110687 0.340479 0.146711
O O5 0.233770 0.342909 0.293231
O O6 0.184585 0.257438 0.489766
O O7 0.893817 0.108568 0.495616
O O8 0.905151 0.236632 0.650885
O O9 0.834428 0.156294 0.755993
O O10 0.957707 0.144200 0.001533
O O11 0.115271 0.995733 0.794573
O O12 0.044973 0.761181 0.683767
O O13 0.000000 0.684018 0.250000
O O14 0.750000 0.250000 0.500000
#
# Coordination Sequence:
#
# PCOD8145812 Si02
#       7
#     8   8   8   8   8   8   4
#     4  10  24  41  61  91 131 175 206 250 313 382
#     4  11  23  37  62  94 128 156 211 256 322 380
#     4  11  22  38  63  86 128 162 212 259 319 373
#     4  10  24  40  61  88 125 174 214 255 307 372
#     4  10  22  40  61  91 120 164 203 261 328 378
#     4  11  22  34  59  98 122 157 196 268 324 373
#     4  10  22  40  60  84 124 164 206 258 328 372
#
# _framework density 21.696459000000001
#
# number of rings (size 3 to 8) (size 9 to 14) (size 15 to 20)
#    0.000    1.538    3.077    0.923   12.923    0.000 
#    0.000    0.769    0.000    0.923    0.000    0.000 
#    0.000    0.000    0.000    0.000    0.000    0.000 
#
# Total GULP energy -322372.745124 kJ/mol
# GULP energy per Si atom -12398.951736 kJ/mol
# Density = 2.164708 g / cm^3
# Si number density = 21.696459 Si / 1000 Ang^3
#
#
#
# Elastic Constant Matrix: (Units=GPa)
#
#
# Indices 1 2 3 4 5 6 
#
# 1 81.4830 11.7076 35.1809 0.0000 10.8559 0.0000
# 2 11.7076 62.0447 33.0217 0.0000 9.9547 0.0000
# 3 35.1809 33.0217 124.3020 0.0000 2.2218 0.0000
# 4 0.0000 0.0000 0.0000 43.1774 0.0000 -0.3395
# 5 10.8559 9.9547 2.2218 0.0000 29.8447 0.0000
# 6 0.0000 0.0000 0.0000 -0.3395 0.0000 13.8761
#
#
#
# Elastic Compliance Matrix: (Units=1/GPa)
#
#
# Indices 1 2 3 4 5 6 
#
# 1 0.014705 0.000249 -0.004137 0.000000 -0.005124 0.000000
# 2 0.000249 0.019873 -0.005237 0.000000 -0.006329 0.000000
# 3 -0.004137 -0.005237 0.010563 0.000000 0.002465 0.000000
# 4 0.000000 0.000000 0.000000 0.023165 0.000000 0.000567
# 5 -0.005124 -0.006329 0.002465 0.000000 0.037298 0.000000
# 6 0.000000 0.000000 0.000000 0.000567 0.000000 0.072080
#
#
# Mechanical properties :
#
#
# Convention : Reuss Voigt Hill
#
# Bulk Modulus (GPa) = 37.18523 47.51667 42.35095
# Shear Modulus (GPa) = 24.40244 29.90762 27.15503
#
# Velocity S-wave (km/s) = 3.35732 3.71678 3.54162
# Velocity P-wave (km/s) = 5.67493 6.35354 6.02380
#
# Compressibility (1/GPa) = 0.02689240
#
# Stress axis : x y z
#
# Youngs Moduli (GPa) = 68.00225 50.31940 94.67201
#
# Poissons Ratio (x) = -0.01252 0.39161
# Poissons Ratio (y) = -0.01692 0.49577
# Poissons Ratio (z) = 0.28129 0.26351
#
# Static dielectric constant tensor:
#      x y z
#    x 3.887360 0.000000 -0.103060 
#    y 0.000000 3.594390 0.000000 
#    z -0.103060 0.000000 4.358840 
# 
# 
# High freq. dielectric constant tensor:
#      x y z
#    x 1.835200 0.000000 -0.002160 
#    y 0.000000 1.813810 0.000000 
#    z -0.002160 0.000000 1.872880 
# 
# From -- ./inp_files/13364.got.cif
#   From: 2010.06.25/outbox.cif.g09.slc.cpg/sg15_7_cif.got.tgz:13364.got - 2010.06.28 07:06:18.
