data_PCOD8145751
_publ_section_title
;
Structure prediction by ZEFSAII (Michael W. Deem and Ramdas Pophale) SiO2 
 PCOD8145751
Probable space group: C 2/C
;
_chemical_formula_sum "Si O2"
_cell_formula_units_Z 56
_cell_length_a 11.277838
_cell_length_b 16.849852
_cell_length_c 17.816985
_cell_angle_alpha 90.000000
_cell_angle_beta 52.190867
_cell_angle_gamma 90.000000
_cell_volume 2674.944339
_symmetry_space_group_name_H-M "C 2/C"
_symmetry_group_IT_number 15
_symmetry_cell_setting 'monoclinic'
loop_
_space_group_symop_operation_xyz
x,y,z
-x,y,1/2-z
-x,-y,-z
x,-y,1/2+z
1/2+x,1/2+y,z
1/2-x,1/2+y,1/2-z
1/2-x,1/2-y,-z
1/2+x,1/2-y,1/2+z
loop_
_atom_site_type_symbol
_atom_site_label
_atom_site_fract_x
_atom_site_fract_y
_atom_site_fract_z
Si Si1 0.146873 0.970844 0.485652
Si Si2 0.199242 0.625274 0.051440
Si Si3 0.365872 0.833577 0.636981
Si Si4 0.143211 0.794223 0.483031
Si Si5 0.807925 0.782441 0.650379
Si Si6 0.164457 0.867301 0.160642
Si Si7 0.149114 0.955870 0.656805
O O1 0.200577 0.882868 0.439082
O O2 0.106176 0.966031 0.587906
O O3 0.278071 0.036275 0.423752
O O4 0.000000 0.000000 0.500000
O O5 0.232892 0.688425 0.102492
O O6 0.030123 0.634354 0.090051
O O7 0.313084 0.640639 0.938040
O O8 0.371867 0.751478 0.589467
O O9 0.271511 0.824170 0.749063
O O10 0.289666 0.898716 0.613282
O O11 0.250000 0.750000 0.500000
O O12 0.982820 0.802643 0.586047
O O13 0.783684 0.687261 0.659252
O O14 0.000000 0.837392 0.250000
O O15 0.188512 0.958163 0.177442
O O16 0.000000 0.918017 0.750000
#
# Coordination Sequence:
#
# PCOD8145751 Si02
#       7
#     8   8   8   8   8   8   8
#     4  11  23  43  71  99 139 184 230 284 353 416
#     4  11  24  43  71 103 137 182 236 289 347 417
#     4  12  26  43  72  97 143 188 233 291 351 416
#     4  12  26  45  71 103 140 186 233 286 353 422
#     4  12  25  43  69 103 143 178 235 288 357 412
#     4  10  22  39  68 101 133 175 233 288 342 408
#     4  10  23  42  67  97 139 189 233 280 359 417
#
# _framework density 20.935015
#
# number of rings (size 3 to 8) (size 9 to 14) (size 15 to 20)
#    0.000    0.857    4.286    2.571    2.000    4.571 
#    0.000    0.000    3.143    0.000    0.000    0.000 
#    0.000    0.000    0.000    0.000    0.000    0.000 
#
# Total GULP energy -347248.242521 kJ/mol
# GULP energy per Si atom -12401.722947 kJ/mol
# Density = 2.088737 g / cm^3
# Si number density = 20.935015 Si / 1000 Ang^3
#
#
#
# Elastic Constant Matrix: (Units=GPa)
#
#
# Indices 1 2 3 4 5 6 
#
# 1 138.9240 57.0015 41.1716 -0.0002 -6.1371 0.0001
# 2 57.0015 140.7506 20.3021 -0.0001 -6.1400 0.0001
# 3 41.1716 20.3021 114.7075 -0.0006 -5.1036 0.0003
# 4 -0.0002 -0.0001 -0.0006 26.1703 0.0004 -0.9958
# 5 -6.1371 -6.1400 -5.1036 0.0004 25.4793 -0.0002
# 6 0.0001 0.0001 0.0003 -0.9958 -0.0002 44.5823
#
#
#
# Elastic Compliance Matrix: (Units=1/GPa)
#
#
# Indices 1 2 3 4 5 6 
#
# 1 0.009443 -0.003388 -0.002749 0.000000 0.000907 0.000000
# 2 -0.003388 0.008565 -0.000246 0.000000 0.001198 0.000000
# 3 -0.002749 -0.000246 0.009804 0.000000 0.001242 0.000000
# 4 0.000000 0.000000 0.000000 0.038244 -0.000001 0.000854
# 5 0.000907 0.001198 0.001242 -0.000001 0.040004 0.000000
# 6 0.000000 0.000000 0.000000 0.000854 0.000000 0.022450
#
#
# Mechanical properties :
#
#
# Convention : Reuss Voigt Hill
#
# Bulk Modulus (GPa) = 66.47389 70.14805 68.31097
# Shear Modulus (GPa) = 34.17844 37.64018 35.90931
#
# Velocity S-wave (km/s) = 4.04492 4.24483 4.14608
# Velocity P-wave (km/s) = 7.32370 7.58980 7.45794
#
# Compressibility (1/GPa) = 0.01504350
#
# Stress axis : x y z
#
# Youngs Moduli (GPa) = 105.89532 116.75755 102.00402
#
# Poissons Ratio (x) = 0.39560 0.28045
# Poissons Ratio (y) = 0.35880 0.02514
# Poissons Ratio (z) = 0.29115 0.02877
#
# Static dielectric constant tensor:
#      x y z
#    x 3.728560 0.000000 0.010280 
#    y 0.000000 4.393830 0.000000 
#    z 0.010280 0.000000 3.775320 
# 
# 
# High freq. dielectric constant tensor:
#      x y z
#    x 1.816950 0.000000 0.005220 
#    y 0.000000 1.840970 0.000000 
#    z 0.005220 0.000000 1.813310 
# 
# From -- ./inp_files/199422.got.cif
#   From: 2010.06.25/outbox.cif.g09.slc.cpg/sg15_100_cif.got.tgz:199422.got - 2010.06.28 07:06:18.
