data_PCOD8145538
_publ_section_title
;
Structure prediction by ZEFSAII (Michael W. Deem and Ramdas Pophale) SiO2 
 PCOD8145538
Probable space group: C 2/C
;
_chemical_formula_sum "Si O2"
_cell_formula_units_Z 64
_cell_length_a 23.885544
_cell_length_b 18.584134
_cell_length_c 19.358410
_cell_angle_alpha 90.000000
_cell_angle_beta 156.855689
_cell_angle_gamma 90.000000
_cell_volume 3377.482769
_symmetry_space_group_name_H-M "C 2/C"
_symmetry_group_IT_number 15
_symmetry_cell_setting 'monoclinic'
loop_
_space_group_symop_operation_xyz
x,y,z
-x,y,1/2-z
-x,-y,-z
x,-y,1/2+z
1/2+x,1/2+y,z
1/2-x,1/2+y,1/2-z
1/2-x,1/2-y,-z
1/2+x,1/2-y,1/2+z
loop_
_atom_site_type_symbol
_atom_site_label
_atom_site_fract_x
_atom_site_fract_y
_atom_site_fract_z
Si Si1 0.042598 0.169293 0.940030
Si Si2 0.925421 0.336385 0.520066
Si Si3 0.620525 0.554390 0.291228
Si Si4 0.286502 0.905073 0.634352
Si Si5 0.759022 0.100696 0.576686
Si Si6 0.923909 0.175892 0.364575
Si Si7 0.199347 0.939631 0.032541
Si Si8 0.755295 0.815805 0.315452
O O1 0.075706 0.252362 0.964330
O O2 0.880719 0.156826 0.735133
O O3 0.141727 0.120842 0.004986
O O4 0.064063 0.146882 0.043977
O O5 0.877835 0.381689 0.532476
O O6 0.820753 0.350370 0.337286
O O7 0.082972 0.364820 0.680031
O O8 0.694405 0.480364 0.353036
O O9 0.646344 0.613669 0.261588
O O10 0.688076 0.582327 0.439428
O O11 0.453817 0.539030 0.110727
O O12 0.281216 0.885821 0.547870
O O13 0.300488 0.991215 0.658188
O O14 0.818447 0.243275 0.242444
O O15 0.078920 0.199409 0.512356
O O16 0.265635 0.872153 0.146696
#
# Coordination Sequence:
#
# PCOD8145538 Si02
#       8
#     8   8   8   8   8   8   8   8
#     4  11  22  37  59  83 113 153 198 232 280 341
#     4  11  24  37  54  86 119 153 187 240 283 331
#     4   9  19  38  64  86 113 149 193 232 281 344
#     4  11  23  37  59  84 117 152 193 235 285 334
#     4  11  21  39  58  85 115 151 194 237 280 337
#     4  10  22  39  61  88 114 149 188 238 285 341
#     4   9  19  39  62  87 114 149 189 237 282 340
#     4  10  22  40  61  85 117 148 190 235 288 340
#
# _framework density 18.949023
#
# number of rings (size 3 to 8) (size 9 to 14) (size 15 to 20)
#    0.000    1.750    2.500    1.500    5.250    5.500 
#    2.250    0.000    0.000    0.000    0.000    0.000 
#    0.000    0.000    0.000    0.000    0.000    0.000 
#
# Total GULP energy -396931.470883 kJ/mol
# GULP energy per Si atom -12404.108465 kJ/mol
# Density = 1.890589 g / cm^3
# Si number density = 18.949023 Si / 1000 Ang^3
#
#
#
# Elastic Constant Matrix: (Units=GPa)
#
#
# Indices 1 2 3 4 5 6 
#
# 1 87.7416 52.2755 21.6690 0.0001 -13.4441 0.0045
# 2 52.2755 86.6946 40.8046 -0.0054 -17.9071 -0.0015
# 3 21.6690 40.8046 67.1852 -0.0052 -5.4470 -0.0009
# 4 0.0001 -0.0054 -0.0052 25.8043 -0.0027 -5.3411
# 5 -13.4441 -17.9071 -5.4470 -0.0027 23.1342 0.0021
# 6 0.0045 -0.0015 -0.0009 -5.3411 0.0021 30.2507
#
#
#
# Elastic Compliance Matrix: (Units=1/GPa)
#
#
# Indices 1 2 3 4 5 6 
#
# 1 0.017945 -0.010796 0.000955 -0.000003 0.002297 -0.000004
# 2 -0.010796 0.025535 -0.011146 0.000005 0.010867 0.000003
# 3 0.000955 -0.011146 0.021094 0.000002 -0.003106 0.000000
# 4 -0.000003 0.000005 0.000002 0.040223 0.000007 0.007102
# 5 0.002297 0.010867 -0.003106 0.000007 0.052242 -0.000002
# 6 -0.000004 0.000003 0.000000 0.007102 -0.000002 0.034311
#
#
# Mechanical properties :
#
#
# Convention : Reuss Voigt Hill
#
# Bulk Modulus (GPa) = 44.24494 52.34663 48.29578
# Shear Modulus (GPa) = 20.75929 24.29599 22.52764
#
# Velocity S-wave (km/s) = 3.31348 3.58463 3.45172
# Velocity P-wave (km/s) = 6.16757 6.69461 6.43649
#
# Compressibility (1/GPa) = 0.02260145
#
# Stress axis : x y z
#
# Youngs Moduli (GPa) = 55.72524 39.16179 47.40775
#
# Poissons Ratio (x) = 0.42278 -0.04529
# Poissons Ratio (y) = 0.60160 0.52839
# Poissons Ratio (z) = -0.05323 0.43648
#
# Static dielectric constant tensor:
#      x y z
#    x 3.517740 -0.000010 -0.101960 
#    y -0.000010 3.418980 0.000000 
#    z -0.101960 0.000000 3.472610 
# 
# 
# High freq. dielectric constant tensor:
#      x y z
#    x 1.740200 0.000000 -0.004100 
#    y 0.000000 1.737250 0.000000 
#    z -0.004100 0.000000 1.735760 
# 
# From -- ./inp_files/258074.got.cif
#   From: 2010.06.25/outbox.cif.g09.slc.cpg/sg15_130_cif.got.tgz:258074.got - 2010.06.28 07:06:18.
