data_PCOD8145367
_publ_section_title
;
Structure prediction by ZEFSAII (Michael W. Deem and Ramdas Pophale) SiO2 
 PCOD8145367
Probable space group: C 2/C
;
_chemical_formula_sum "Si O2"
_cell_formula_units_Z 64
_cell_length_a 29.322031
_cell_length_b 16.710297
_cell_length_c 9.344231
_cell_angle_alpha 90.000000
_cell_angle_beta 37.324769
_cell_angle_gamma 90.000000
_cell_volume 2776.082930
_symmetry_space_group_name_H-M "C 2/C"
_symmetry_group_IT_number 15
_symmetry_cell_setting 'monoclinic'
loop_
_space_group_symop_operation_xyz
x,y,z
-x,y,1/2-z
-x,-y,-z
x,-y,1/2+z
1/2+x,1/2+y,z
1/2-x,1/2+y,1/2-z
1/2-x,1/2-y,-z
1/2+x,1/2-y,1/2+z
loop_
_atom_site_type_symbol
_atom_site_label
_atom_site_fract_x
_atom_site_fract_y
_atom_site_fract_z
Si Si1 0.849751 0.425261 0.821103
Si Si2 0.715832 0.367220 0.766719
Si Si3 0.688402 0.454770 0.281902
Si Si4 0.623224 0.919213 0.064743
Si Si5 0.553755 0.478593 0.990627
Si Si6 0.605064 0.226783 0.114892
Si Si7 0.161627 0.848114 0.609587
Si Si8 0.561333 0.790309 0.403096
O O1 0.896181 0.428176 0.555959
O O2 0.874736 0.493520 0.869601
O O3 0.857429 0.340890 0.880722
O O4 0.761856 0.443007 0.999871
O O5 0.683053 0.457085 0.866960
O O6 0.799647 0.367727 0.619790
O O7 0.724954 0.341117 0.575699
O O8 0.660306 0.303984 0.983877
O O9 0.611163 0.447392 0.383665
O O10 0.696145 0.387578 0.383556
O O11 0.559307 0.871421 0.313331
O O12 0.598186 0.399871 0.843074
O O13 0.500000 0.453311 0.250000
O O14 0.500000 0.500000 0.000000
O O15 0.522482 0.247123 0.384529
O O16 0.593398 0.194295 0.982693
O O17 0.120149 0.766387 0.672334
#
# Coordination Sequence:
#
# PCOD8145367 Si02
#       8
#     8   8   8   8   8   8   8   8
#     4  11  26  44  73  95 135 172 230 277 343 402
#     4   9  23  38  68  95 139 176 225 275 333 401
#     4  10  23  39  63 100 134 180 229 272 328 407
#     4  11  25  45  68 103 130 176 222 288 336 406
#     4  11  22  37  59  92 136 181 223 271 328 395
#     4  10  23  46  69  99 132 182 221 281 337 407
#     4  10  22  38  64  95 135 181 224 272 328 411
#     4  10  24  43  69  98 135 174 231 275 343 405
#
# _framework density 23.054068000000001
#
# number of rings (size 3 to 8) (size 9 to 14) (size 15 to 20)
#    0.000    1.750    1.250    0.750   19.250    2.500 
#    0.000    1.250    0.000    0.000    0.000    0.000 
#    0.000    0.000    0.000    0.000    0.000    0.000 
#
# Total GULP energy -396619.799404 kJ/mol
# GULP energy per Si atom -12394.368731 kJ/mol
# Density = 2.300160 g / cm^3
# Si number density = 23.054068 Si / 1000 Ang^3
#
#
#
# Elastic Constant Matrix: (Units=GPa)
#
#
# Indices 1 2 3 4 5 6 
#
# 1 72.0842 24.5261 9.5617 0.0000 12.9771 0.0000
# 2 24.5261 96.7757 25.9413 0.0000 13.2350 0.0000
# 3 9.5617 25.9413 69.8231 0.0000 22.3346 0.0000
# 4 0.0000 0.0000 0.0000 43.7342 0.0000 4.9947
# 5 12.9771 13.2350 22.3346 0.0000 31.3144 0.0000
# 6 0.0000 0.0000 0.0000 4.9947 0.0000 22.4115
#
#
#
# Elastic Compliance Matrix: (Units=1/GPa)
#
#
# Indices 1 2 3 4 5 6 
#
# 1 0.015991 -0.003518 0.000986 0.000000 -0.005843 0.000000
# 2 -0.003518 0.012384 -0.003772 0.000000 -0.001086 0.000000
# 3 0.000986 -0.003772 0.019705 0.000000 -0.012869 0.000000
# 4 0.000000 0.000000 0.000000 0.023463 0.000000 -0.005229
# 5 -0.005843 -0.001086 -0.012869 0.000000 0.043993 0.000000
# 6 0.000000 0.000000 0.000000 -0.005229 0.000000 0.045785
#
#
# Mechanical properties :
#
#
# Convention : Reuss Voigt Hill
#
# Bulk Modulus (GPa) = 28.19070 39.86010 34.02540
# Shear Modulus (GPa) = 26.91762 31.40227 29.15995
#
# Velocity S-wave (km/s) = 3.42070 3.69469 3.56033
# Velocity P-wave (km/s) = 5.27790 5.96056 5.62959
#
# Compressibility (1/GPa) = 0.03547270
#
# Stress axis : x y z
#
# Youngs Moduli (GPa) = 62.53633 80.74716 50.74964
#
# Poissons Ratio (x) = 0.28405 -0.05006
# Poissons Ratio (y) = 0.21999 0.19143
# Poissons Ratio (z) = -0.06168 0.30458
#
# Static dielectric constant tensor:
#      x y z
#    x 4.082030 0.000000 -0.175470 
#    y 0.000000 4.016590 0.000000 
#    z -0.175470 0.000000 4.096690 
# 
# 
# High freq. dielectric constant tensor:
#      x y z
#    x 1.904200 0.000000 -0.005350 
#    y 0.000000 1.902740 0.000000 
#    z -0.005350 0.000000 1.912820 
# 
# From -- ./inp_files/70589.got.cif
#   From: 2010.06.25/outbox.cif.g09.slc.cpg/sg15_36_cif.got.tgz:70589.got - 2010.06.28 07:06:18.
