data_PCOD8145773
_publ_section_title
;
Structure prediction by ZEFSAII (Michael W. Deem and Ramdas Pophale) SiO2 
 PCOD8145773
Probable space group: C 2/C
;
_chemical_formula_sum "Si O2"
_cell_formula_units_Z 48
_cell_length_a 22.394798
_cell_length_b 19.813465
_cell_length_c 13.539381
_cell_angle_alpha 90.000000
_cell_angle_beta 157.566298
_cell_angle_gamma 90.000000
_cell_volume 2292.613511
_symmetry_space_group_name_H-M "C 2/C"
_symmetry_group_IT_number 15
_symmetry_cell_setting 'monoclinic'
loop_
_space_group_symop_operation_xyz
x,y,z
-x,y,1/2-z
-x,-y,-z
x,-y,1/2+z
1/2+x,1/2+y,z
1/2-x,1/2+y,1/2-z
1/2-x,1/2-y,-z
1/2+x,1/2-y,1/2+z
loop_
_atom_site_type_symbol
_atom_site_label
_atom_site_fract_x
_atom_site_fract_y
_atom_site_fract_z
Si Si1 0.556177 0.189363 0.132728
Si Si2 0.021766 0.102138 0.066675
Si Si3 0.933620 0.761415 0.759330
Si Si4 0.493413 0.957983 0.891521
Si Si5 0.079935 0.179964 0.775342
Si Si6 0.250046 0.993020 0.368616
O O1 0.466184 0.120460 0.023950
O O2 0.739193 0.182982 0.425097
O O3 0.502214 0.247985 0.125764
O O4 0.523439 0.210426 0.969561
O O5 0.029862 0.160505 0.160803
O O6 0.191793 0.068075 0.309821
O O7 0.954769 0.127440 0.861847
O O8 0.894134 0.046487 0.902959
O O9 0.750000 0.750000 0.500000
O O10 0.000000 0.746872 0.750000
O O11 0.322528 0.959822 0.578798
O O12 0.617163 0.994884 0.010848
O O13 0.500000 0.000000 0.000000
O O14 0.000000 0.151693 0.750000
#
# Coordination Sequence:
#
# PCOD8145773 Si02
#       6
#     8   8   8   8   8   8
#     4  10  24  42  66  99 131 174 227 272 342 399
#     4  10  23  45  66  97 128 177 222 269 336 392
#     4  11  28  45  69 101 140 180 223 281 342 407
#     4  11  25  41  66  97 132 176 217 274 334 391
#     4  10  22  39  70  97 130 168 221 282 325 395
#     4  10  24  43  68  92 133 172 223 273 324 403
#
# _framework density 20.936803000000001
#
# number of rings (size 3 to 8) (size 9 to 14) (size 15 to 20)
#    0.000    1.667    1.667    0.000   14.000    0.000 
#    0.000    3.333    0.000    0.000    0.000    0.000 
#    0.000    0.000    0.000    0.000    0.000    0.000 
#
# Total GULP energy -297504.293835 kJ/mol
# GULP energy per Si atom -12396.012243 kJ/mol
# Density = 2.088915 g / cm^3
# Si number density = 20.936803 Si / 1000 Ang^3
#
#
#
# Elastic Constant Matrix: (Units=GPa)
#
#
# Indices 1 2 3 4 5 6 
#
# 1 120.7641 21.3883 50.0495 0.0000 -10.8320 0.0000
# 2 21.3883 85.5242 42.7668 0.0000 -7.1821 0.0000
# 3 50.0495 42.7668 83.7793 0.0000 -4.0068 0.0000
# 4 0.0000 0.0000 0.0000 41.8519 0.0000 -5.5463
# 5 -10.8320 -7.1821 -4.0068 0.0000 29.7906 0.0000
# 6 0.0000 0.0000 0.0000 -5.5463 0.0000 25.4505
#
#
#
# Elastic Compliance Matrix: (Units=1/GPa)
#
#
# Indices 1 2 3 4 5 6 
#
# 1 0.011369 0.001018 -0.007148 0.000000 0.003418 0.000000
# 2 0.001018 0.016014 -0.008636 0.000000 0.003070 0.000000
# 3 -0.007148 -0.008636 0.020523 0.000000 -0.001921 0.000000
# 4 0.000000 0.000000 0.000000 0.024604 0.000000 0.005362
# 5 0.003418 0.003070 -0.001921 0.000000 0.035292 0.000000
# 6 0.000000 0.000000 0.000000 0.005362 0.000000 0.040460
#
#
# Mechanical properties :
#
#
# Convention : Reuss Voigt Hill
#
# Bulk Modulus (GPa) = 54.42431 57.60851 56.01641
# Shear Modulus (GPa) = 27.18547 31.14279 29.16413
#
# Velocity S-wave (km/s) = 3.60732 3.86095 3.73629
# Velocity P-wave (km/s) = 6.58797 6.88848 6.73990
#
# Compressibility (1/GPa) = 0.01837414
#
# Stress axis : x y z
#
# Youngs Moduli (GPa) = 87.95528 62.44388 48.72508
#
# Poissons Ratio (x) = -0.06359 0.34831
# Poissons Ratio (y) = -0.08957 0.42081
# Poissons Ratio (z) = 0.62874 0.53929
#
# Static dielectric constant tensor:
#      x y z
#    x 2.664000 0.000000 0.461040 
#    y 0.000000 3.908410 0.000000 
#    z 0.461040 0.000000 3.535700 
# 
# 
# High freq. dielectric constant tensor:
#      x y z
#    x 1.813390 0.000000 -0.008660 
#    y 0.000000 1.825520 0.000000 
#    z -0.008660 0.000000 1.829950 
# 
# From -- ./inp_files/174537.got.cif
#   From: 2010.06.25/outbox.cif.g09.slc.cpg/sg15_88_cif.got.tgz:174537.got - 2010.06.28 07:06:18.
