data_PCOD8145553
_publ_section_title
;
Structure prediction by ZEFSAII (Michael W. Deem and Ramdas Pophale) SiO2 
 PCOD8145553
Probable space group: C 2/C
;
_chemical_formula_sum "Si O2"
_cell_formula_units_Z 48
_cell_length_a 27.021427
_cell_length_b 5.019001
_cell_length_c 15.992983
_cell_angle_alpha 90.000000
_cell_angle_beta 87.102499
_cell_angle_gamma 90.000000
_cell_volume 2166.204555
_symmetry_space_group_name_H-M "C 2/C"
_symmetry_group_IT_number 15
_symmetry_cell_setting 'monoclinic'
loop_
_space_group_symop_operation_xyz
x,y,z
-x,y,1/2-z
-x,-y,-z
x,-y,1/2+z
1/2+x,1/2+y,z
1/2-x,1/2+y,1/2-z
1/2-x,1/2-y,-z
1/2+x,1/2-y,1/2+z
loop_
_atom_site_type_symbol
_atom_site_label
_atom_site_fract_x
_atom_site_fract_y
_atom_site_fract_z
Si Si1 0.773766 0.984838 0.778173
Si Si2 0.056827 0.537842 0.515440
Si Si3 0.800927 0.846166 0.951933
Si Si4 0.609210 0.534146 0.450249
Si Si5 0.377890 0.386340 0.234016
Si Si6 0.386033 0.113990 0.839700
O O1 0.768848 0.673536 0.754602
O O2 0.782313 0.032692 0.876796
O O3 0.820574 0.070648 0.720905
O O4 0.072312 0.845338 0.504384
O O5 0.067642 0.493038 0.612686
O O6 0.000000 0.500000 0.500000
O O7 0.091673 0.339695 0.458862
O O8 0.836301 0.621412 0.903817
O O9 0.750000 0.750000 0.000000
O O10 0.834545 0.002863 0.017867
O O11 0.598031 0.438841 0.357248
O O12 0.397225 0.589992 0.303788
O O13 0.382655 0.081082 0.261230
#
# Coordination Sequence:
#
# PCOD8145553 Si02
#       6
#     8   8   8   8   8   8
#     4  11  22  36  55  82 117 162 203 244 294 349
#     4  11  23  44  67  92 122 160 205 259 317 376
#     4  10  22  39  61  91 126 167 212 254 304 371
#     4  11  24  41  65  94 123 162 209 257 310 374
#     4  11  22  41  60  87 126 161 201 257 308 366
#     4  10  22  41  63  88 125 166 203 253 313 366
#
# _framework density 22.158573000000001
#
# number of rings (size 3 to 8) (size 9 to 14) (size 15 to 20)
#    0.000    1.333    0.000    7.500    0.000    4.000 
#    0.000   20.000    0.000    0.000    0.000    0.000 
#    0.000    0.000    0.000    0.000    0.000    0.000 
#
# Total GULP energy -297331.708822 kJ/mol
# GULP energy per Si atom -12388.821201 kJ/mol
# Density = 2.210814 g / cm^3
# Si number density = 22.158573 Si / 1000 Ang^3
#
#
#
# Elastic Constant Matrix: (Units=GPa)
#
#
# Indices 1 2 3 4 5 6 
#
# 1 106.7934 12.7638 34.6407 0.0000 25.5056 0.0000
# 2 12.7638 83.8494 17.1794 0.0000 7.0947 0.0000
# 3 34.6407 17.1794 106.0569 0.0000 14.1672 0.0000
# 4 0.0000 0.0000 0.0000 36.2493 0.0000 5.4305
# 5 25.5056 7.0947 14.1672 0.0000 25.0035 0.0000
# 6 0.0000 0.0000 0.0000 5.4305 0.0000 25.7145
#
#
#
# Elastic Compliance Matrix: (Units=1/GPa)
#
#
# Indices 1 2 3 4 5 6 
#
# 1 0.013069 -0.000460 -0.002630 0.000000 -0.011711 0.000000
# 2 -0.000460 0.012505 -0.001584 0.000000 -0.002182 0.000000
# 3 -0.002630 -0.001584 0.010955 0.000000 -0.003075 0.000000
# 4 0.000000 0.000000 0.000000 0.028488 0.000000 -0.006016
# 5 -0.011711 -0.002182 -0.003075 0.000000 0.054302 0.000000
# 6 0.000000 0.000000 0.000000 -0.006016 0.000000 0.040159
#
#
# Mechanical properties :
#
#
# Convention : Reuss Voigt Hill
#
# Bulk Modulus (GPa) = 36.78874 47.31862 42.05368
# Shear Modulus (GPa) = 28.10792 32.86786 30.48789
#
# Velocity S-wave (km/s) = 3.56545 3.85554 3.71333
# Velocity P-wave (km/s) = 5.79555 6.42037 6.11595
#
# Compressibility (1/GPa) = 0.02718223
#
# Stress axis : x y z
#
# Youngs Moduli (GPa) = 76.51865 79.96625 91.28063
#
# Poissons Ratio (x) = 0.03676 0.24005
# Poissons Ratio (y) = 0.03518 0.14459
# Poissons Ratio (z) = 0.20123 0.12667
#
# Static dielectric constant tensor:
#      x y z
#    x 3.872000 0.000000 0.306190 
#    y 0.000000 4.183340 0.000000 
#    z 0.306190 0.000000 4.213620 
# 
# 
# High freq. dielectric constant tensor:
#      x y z
#    x 1.846940 0.000000 0.022470 
#    y 0.000000 1.872420 0.000000 
#    z 0.022470 0.000000 1.882170 
# 
# From -- ./inp_files/175718.got.cif
#   From: 2010.06.25/outbox.cif.g09.slc.cpg/sg15_88_cif.got.tgz:175718.got - 2010.06.28 07:06:18.
