data_PCOD8145400
_publ_section_title
;
Structure prediction by ZEFSAII (Michael W. Deem and Ramdas Pophale) SiO2 
 PCOD8145400
Probable space group: C 2/C
;
_chemical_formula_sum "Si O2"
_cell_formula_units_Z 60
_cell_length_a 14.576622
_cell_length_b 13.995253
_cell_length_c 13.952245
_cell_angle_alpha 90.000000
_cell_angle_beta 76.531722
_cell_angle_gamma 90.000000
_cell_volume 2768.030757
_symmetry_space_group_name_H-M "C 2/C"
_symmetry_group_IT_number 15
_symmetry_cell_setting 'monoclinic'
loop_
_space_group_symop_operation_xyz
x,y,z
-x,y,1/2-z
-x,-y,-z
x,-y,1/2+z
1/2+x,1/2+y,z
1/2-x,1/2+y,1/2-z
1/2-x,1/2-y,-z
1/2+x,1/2-y,1/2+z
loop_
_atom_site_type_symbol
_atom_site_label
_atom_site_fract_x
_atom_site_fract_y
_atom_site_fract_z
Si Si1 0.897477 0.498529 0.365394
Si Si2 0.400669 0.369122 0.919390
Si Si3 0.889063 0.147715 0.647712
Si Si4 0.528865 0.155606 0.391422
Si Si5 0.500000 0.492022 0.250000
Si Si6 0.802775 0.604938 0.727393
Si Si7 0.291924 0.957503 0.575647
Si Si8 0.984497 0.316946 0.110198
O O1 0.846414 0.482423 0.277711
O O2 0.818505 0.501351 0.466507
O O3 0.956493 0.597038 0.342326
O O4 0.971788 0.415446 0.366103
O O5 0.456420 0.449086 0.848087
O O6 0.290993 0.379002 0.916474
O O7 0.445148 0.268119 0.874974
O O8 0.411058 0.380906 0.032032
O O9 0.938308 0.246830 0.666346
O O10 0.921312 0.069517 0.716020
O O11 0.776994 0.158727 0.691731
O O12 0.619012 0.094408 0.400106
O O13 0.469850 0.183268 0.500362
O O14 0.761471 0.550163 0.644566
O O15 0.880257 0.686837 0.682859
#
# Coordination Sequence:
#
# PCOD8145400 Si02
#       8
#     8   8   8   8   4   8   8   8
#     4  11  21  38  66  99 139 173 219 283 338 394
#     4  11  25  44  68  97 134 177 226 279 339 395
#     4  11  26  44  68  95 136 177 226 282 335 405
#     4  10  22  41  64  96 138 180 213 281 346 392
#     4  12  26  46  70  88 130 182 234 274 336 412
#     4  12  22  39  68 102 133 178 228 276 333 409
#     4  11  21  40  65  99 138 173 219 279 344 389
#     4  10  22  38  66 101 135 169 223 278 337 399
#
# _framework density 21.67606
#
# number of rings (size 3 to 8) (size 9 to 14) (size 15 to 20)
#    0.000    1.067    5.333    1.600    3.733    2.667 
#    0.000    0.000    0.000    2.400    0.000    0.000 
#    0.000    0.000    0.000    0.000    0.000    0.000 
#
# Total GULP energy -371908.722065 kJ/mol
# GULP energy per Si atom -12396.957402 kJ/mol
# Density = 2.162672 g / cm^3
# Si number density = 21.676060 Si / 1000 Ang^3
#
#
#
# Elastic Constant Matrix: (Units=GPa)
#
#
# Indices 1 2 3 4 5 6 
#
# 1 115.0190 55.7072 48.7424 0.0000 -22.4160 0.0000
# 2 55.7072 117.0705 47.1142 0.0000 -17.9816 0.0000
# 3 48.7424 47.1142 112.4285 0.0000 -26.0666 0.0000
# 4 0.0000 0.0000 0.0000 16.6288 0.0000 -2.9148
# 5 -22.4160 -17.9816 -26.0666 0.0000 32.5531 0.0000
# 6 0.0000 0.0000 0.0000 -2.9148 0.0000 45.8470
#
#
#
# Elastic Compliance Matrix: (Units=1/GPa)
#
#
# Indices 1 2 3 4 5 6 
#
# 1 0.012774 -0.004326 -0.002751 0.000000 0.004204 0.000000
# 2 -0.004326 0.011942 -0.002812 0.000000 0.001366 0.000000
# 3 -0.002751 -0.002812 0.012852 0.000000 0.006844 0.000000
# 4 0.000000 0.000000 0.000000 0.060814 0.000000 0.003866
# 5 0.004204 0.001366 0.006844 0.000000 0.039849 0.000000
# 6 0.000000 0.000000 0.000000 0.003866 0.000000 0.022057
#
#
# Mechanical properties :
#
#
# Convention : Reuss Voigt Hill
#
# Bulk Modulus (GPa) = 56.20810 71.96062 64.08436
# Shear Modulus (GPa) = 26.88214 31.86939 29.37577
#
# Velocity S-wave (km/s) = 3.52543 3.83855 3.68532
# Velocity P-wave (km/s) = 6.52371 7.27436 6.90924
#
# Compressibility (1/GPa) = 0.01779103
#
# Stress axis : x y z
#
# Youngs Moduli (GPa) = 78.28146 83.73918 77.80689
#
# Poissons Ratio (x) = 0.36224 0.21402
# Poissons Ratio (y) = 0.33863 0.21881
# Poissons Ratio (z) = 0.21533 0.23550
#
# Static dielectric constant tensor:
#      x y z
#    x 3.855010 0.000000 -0.202970 
#    y 0.000000 3.778660 0.000000 
#    z -0.202970 0.000000 4.285520 
# 
# 
# High freq. dielectric constant tensor:
#      x y z
#    x 1.842400 0.000000 -0.012820 
#    y 0.000000 1.834400 0.000000 
#    z -0.012820 0.000000 1.874780 
# 
# From -- ./inp_files/153930.got.cif
#   From: 2010.06.25/outbox.cif.g09.slc.cpg/sg15_77_cif.got.tgz:153930.got - 2010.06.28 07:06:18.
