data_PCOD8145603
_publ_section_title
;
Structure prediction by ZEFSAII (Michael W. Deem and Ramdas Pophale) SiO2 
 PCOD8145603
Probable space group: C 2/C
;
_chemical_formula_sum "Si O2"
_cell_formula_units_Z 60
_cell_length_a 18.554834
_cell_length_b 19.426865
_cell_length_c 8.934569
_cell_angle_alpha 90.000000
_cell_angle_beta 56.735981
_cell_angle_gamma 90.000000
_cell_volume 2692.890058
_symmetry_space_group_name_H-M "C 2/C"
_symmetry_group_IT_number 15
_symmetry_cell_setting 'monoclinic'
loop_
_space_group_symop_operation_xyz
x,y,z
-x,y,1/2-z
-x,-y,-z
x,-y,1/2+z
1/2+x,1/2+y,z
1/2-x,1/2+y,1/2-z
1/2-x,1/2-y,-z
1/2+x,1/2-y,1/2+z
loop_
_atom_site_type_symbol
_atom_site_label
_atom_site_fract_x
_atom_site_fract_y
_atom_site_fract_z
Si Si1 0.500000 0.856140 0.750000
Si Si2 0.597959 0.775921 0.873278
Si Si3 0.154584 0.352774 0.401894
Si Si4 0.905850 0.371078 0.354981
Si Si5 0.772690 0.080934 0.364260
Si Si6 0.792008 0.197249 0.121837
Si Si7 0.584266 0.364816 0.254846
Si Si8 0.812650 0.053130 0.654986
O O1 0.522472 0.811239 0.867607
O O2 0.587639 0.893339 0.592016
O O3 0.691158 0.795001 0.696492
O O4 0.575897 0.695762 0.886499
O O5 0.592069 0.800905 0.050526
O O6 0.114393 0.348036 0.286228
O O7 0.166393 0.272658 0.429672
O O8 0.242058 0.395063 0.303028
O O9 0.831235 0.422516 0.497085
O O10 0.000000 0.408163 0.250000
O O11 0.801190 0.156510 0.270998
O O12 0.821306 0.064154 0.465833
O O13 0.791786 0.026039 0.212290
O O14 0.836070 0.150777 0.945507
O O15 0.500000 0.377988 0.250000
O O16 0.601957 0.430007 0.343850
#
# Coordination Sequence:
#
# PCOD8145603 Si02
#       8
#     4   8   8   8   8   8   8   8
#     4  12  20  34  56 100 128 164 206 260 326 376
#     4  11  20  34  60  91 135 165 204 265 323 382
#     4  11  22  38  66  96 132 167 213 265 328 391
#     4  10  22  39  62  95 136 168 207 268 323 387
#     4  10  25  45  69  89 129 177 220 262 327 393
#     4  11  22  40  64  96 130 168 216 269 328 389
#     4  12  23  39  64  99 131 167 219 274 324 381
#     4  11  24  46  65  92 128 178 220 265 324 390
#
# _framework density 22.280895000000001
#
# number of rings (size 3 to 8) (size 9 to 14) (size 15 to 20)
#    0.000    1.067    4.667    2.000    1.867    2.667 
#    1.200    4.667    0.000    0.000    0.000    0.000 
#    0.000    0.000    0.000    0.000    0.000    0.000 
#
# Total GULP energy -371705.233098 kJ/mol
# GULP energy per Si atom -12390.174437 kJ/mol
# Density = 2.223018 g / cm^3
# Si number density = 22.280895 Si / 1000 Ang^3
#
#
#
# Elastic Constant Matrix: (Units=GPa)
#
#
# Indices 1 2 3 4 5 6 
#
# 1 115.1370 26.5375 17.1338 0.0000 15.2439 0.0000
# 2 26.5375 61.9380 16.2908 0.0000 14.1705 0.0000
# 3 17.1338 16.2908 64.0352 0.0000 14.7674 0.0000
# 4 0.0000 0.0000 0.0000 30.4254 0.0000 9.5814
# 5 15.2439 14.1705 14.7674 0.0000 31.7806 0.0000
# 6 0.0000 0.0000 0.0000 9.5814 0.0000 13.8320
#
#
#
# Elastic Compliance Matrix: (Units=1/GPa)
#
#
# Indices 1 2 3 4 5 6 
#
# 1 0.009997 -0.003340 -0.001190 0.000000 -0.002753 0.000000
# 2 -0.003340 0.019644 -0.002748 0.000000 -0.005880 0.000000
# 3 -0.001190 -0.002748 0.018166 0.000000 -0.006645 0.000000
# 4 0.000000 0.000000 0.000000 0.042037 0.000000 -0.029119
# 5 -0.002753 -0.005880 -0.006645 0.000000 0.038496 0.000000
# 6 0.000000 0.000000 0.000000 -0.029119 0.000000 0.092467
#
#
# Mechanical properties :
#
#
# Convention : Reuss Voigt Hill
#
# Bulk Modulus (GPa) = 30.07451 40.11494 35.09472
# Shear Modulus (GPa) = 20.28827 27.28414 23.78620
#
# Velocity S-wave (km/s) = 3.02084 3.50316 3.27090
# Velocity P-wave (km/s) = 5.06897 5.86567 5.48181
#
# Compressibility (1/GPa) = 0.03325075
#
# Stress axis : x y z
#
# Youngs Moduli (GPa) = 100.03239 50.90525 55.04667
#
# Poissons Ratio (x) = 0.17004 0.06552
# Poissons Ratio (y) = 0.33414 0.15126
# Poissons Ratio (z) = 0.11906 0.13988
#
# Static dielectric constant tensor:
#      x y z
#    x 4.090480 0.000000 0.166690 
#    y 0.000000 3.661340 0.000000 
#    z 0.166690 0.000000 4.040020 
# 
# 
# High freq. dielectric constant tensor:
#      x y z
#    x 1.892170 0.000000 0.008740 
#    y 0.000000 1.839750 0.000000 
#    z 0.008740 0.000000 1.886450 
# 
# From -- ./inp_files/50658.got.cif
#   From: 2010.06.25/outbox.cif.g09.slc.cpg/sg15_26_cif.got.tgz:50658.got - 2010.06.28 07:06:18.
