data_PCOD8145925
_publ_section_title
;
Structure prediction by ZEFSAII (Michael W. Deem and Ramdas Pophale) SiO2 
 PCOD8145925
Probable space group: C 2/C
;
_chemical_formula_sum "Si O2"
_cell_formula_units_Z 56
_cell_length_a 31.269315
_cell_length_b 10.610025
_cell_length_c 9.095657
_cell_angle_alpha 90.000000
_cell_angle_beta 114.493726
_cell_angle_gamma 90.000000
_cell_volume 2746.081531
_symmetry_space_group_name_H-M "C 2/C"
_symmetry_group_IT_number 15
_symmetry_cell_setting 'monoclinic'
loop_
_space_group_symop_operation_xyz
x,y,z
-x,y,1/2-z
-x,-y,-z
x,-y,1/2+z
1/2+x,1/2+y,z
1/2-x,1/2+y,1/2-z
1/2-x,1/2-y,-z
1/2+x,1/2-y,1/2+z
loop_
_atom_site_type_symbol
_atom_site_label
_atom_site_fract_x
_atom_site_fract_y
_atom_site_fract_z
Si Si1 0.374103 0.138584 0.207613
Si Si2 0.704205 0.667286 0.931548
Si Si3 0.981707 0.118392 0.385658
Si Si4 0.030559 0.625856 0.019982
Si Si5 0.624408 0.639438 0.323095
Si Si6 0.824915 0.996863 0.859567
Si Si7 0.382482 0.896725 0.040105
O O1 0.345253 0.259291 0.108766
O O2 0.431124 0.153411 0.295395
O O3 0.355100 0.112716 0.345944
O O4 0.363822 0.023788 0.085348
O O5 0.703093 0.603725 0.769489
O O6 0.750000 0.750000 0.000000
O O7 0.709718 0.568791 0.073060
O O8 0.926332 0.109499 0.310449
O O9 0.000000 0.104264 0.250000
O O10 0.997291 0.253019 0.473245
O O11 0.000000 0.000000 0.500000
O O12 0.939355 0.609292 0.589604
O O13 0.000000 0.500000 0.000000
O O14 0.633102 0.560241 0.485411
O O15 0.658140 0.603528 0.237122
O O16 0.631316 0.786116 0.368187
#
# Coordination Sequence:
#
# PCOD8145925 Si02
#       7
#     8   8   8   8   8   8   8
#     4  10  23  40  65  92 128 172 217 278 329 397
#     4  11  25  48  71 102 133 164 227 275 343 414
#     4  12  24  38  59  96 132 179 229 277 317 397
#     4  10  23  41  62  90 136 178 230 272 332 384
#     4  11  21  42  66  93 137 174 219 265 340 390
#     4  10  24  44  72  95 134 176 205 281 341 395
#     4  10  22  40  63  91 128 175 224 268 329 388
#
# _framework density 20.392695
#
# number of rings (size 3 to 8) (size 9 to 14) (size 15 to 20)
#    0.857    0.571    2.857    1.714    6.000    1.143 
#    2.571    1.429    0.000    0.000    0.000    0.000 
#    0.000    0.000    0.000    0.000    0.000    0.000 
#
# Total GULP energy -347024.048265 kJ/mol
# GULP energy per Si atom -12393.716009 kJ/mol
# Density = 2.034628 g / cm^3
# Si number density = 20.392695 Si / 1000 Ang^3
#
#
#
# Elastic Constant Matrix: (Units=GPa)
#
#
# Indices 1 2 3 4 5 6 
#
# 1 60.5060 44.5972 33.7696 0.0000 12.4526 0.0000
# 2 44.5972 145.8764 58.3448 0.0000 0.8602 0.0000
# 3 33.7696 58.3448 99.1053 0.0000 -3.7355 0.0000
# 4 0.0000 0.0000 0.0000 39.9819 0.0000 -4.9298
# 5 12.4526 0.8602 -3.7355 0.0000 28.1919 0.0000
# 6 0.0000 0.0000 0.0000 -4.9298 0.0000 33.5615
#
#
#
# Elastic Compliance Matrix: (Units=1/GPa)
#
#
# Indices 1 2 3 4 5 6 
#
# 1 0.026713 -0.005578 -0.006288 0.000000 -0.012462 0.000000
# 2 -0.005578 0.010158 -0.004018 0.000000 0.001622 0.000000
# 3 -0.006288 -0.004018 0.014782 0.000000 0.004859 0.000000
# 4 0.000000 0.000000 0.000000 0.025473 0.000000 0.003742
# 5 -0.012462 0.001622 0.004859 0.000000 0.041570 0.000000
# 6 0.000000 0.000000 0.000000 0.003742 0.000000 0.030346
#
#
# Mechanical properties :
#
#
# Convention : Reuss Voigt Hill
#
# Bulk Modulus (GPa) = 50.29270 64.32344 57.30807
# Shear Modulus (GPa) = 26.67535 31.59880 29.13707
#
# Velocity S-wave (km/s) = 3.62067 3.94066 3.78405
# Velocity P-wave (km/s) = 6.49574 7.23298 6.87425
#
# Compressibility (1/GPa) = 0.01988360
#
# Stress axis : x y z
#
# Youngs Moduli (GPa) = 37.43463 98.44344 67.65109
#
# Poissons Ratio (x) = 0.54914 0.42540
# Poissons Ratio (y) = 0.20882 0.27185
# Poissons Ratio (z) = 0.23539 0.39558
#
# Static dielectric constant tensor:
#      x y z
#    x 3.392920 0.000000 -0.060510 
#    y 0.000000 3.689230 0.000000 
#    z -0.060510 0.000000 3.826180 
# 
# 
# High freq. dielectric constant tensor:
#      x y z
#    x 1.768140 0.000000 -0.006170 
#    y 0.000000 1.807830 0.000000 
#    z -0.006170 0.000000 1.806530 
# 
# From -- ./inp_files/69447.got.cif
#   From: 2010.06.25/outbox.cif.g09.slc.cpg/sg15_35_cif.got.tgz:69447.got - 2010.06.28 07:06:18.
