data_PCOD8145305
_publ_section_title
;
Structure prediction by ZEFSAII (Michael W. Deem and Ramdas Pophale) SiO2 
 PCOD8145305
Probable space group: C 2/C
;
_chemical_formula_sum "Si O2"
_cell_formula_units_Z 48
_cell_length_a 11.035547
_cell_length_b 10.903696
_cell_length_c 21.816766
_cell_angle_alpha 90.000000
_cell_angle_beta 58.694046
_cell_angle_gamma 90.000000
_cell_volume 2242.960741
_symmetry_space_group_name_H-M "C 2/C"
_symmetry_group_IT_number 15
_symmetry_cell_setting 'monoclinic'
loop_
_space_group_symop_operation_xyz
x,y,z
-x,y,1/2-z
-x,-y,-z
x,-y,1/2+z
1/2+x,1/2+y,z
1/2-x,1/2+y,1/2-z
1/2-x,1/2-y,-z
1/2+x,1/2-y,1/2+z
loop_
_atom_site_type_symbol
_atom_site_label
_atom_site_fract_x
_atom_site_fract_y
_atom_site_fract_z
Si Si1 0.674105 0.300174 0.814029
Si Si2 0.590091 0.255365 0.344332
Si Si3 0.026191 0.009105 0.675462
Si Si4 0.722905 0.140717 0.426992
Si Si5 0.602646 0.063478 0.167403
Si Si6 0.921626 0.652160 0.915877
O O1 0.783414 0.242547 0.737671
O O2 0.569549 0.388171 0.804056
O O3 0.751528 0.377278 0.847004
O O4 0.588684 0.184586 0.865197
O O5 0.519143 0.390032 0.362981
O O6 0.645090 0.222300 0.396801
O O7 0.471272 0.157877 0.358489
O O8 0.000000 0.066125 0.750000
O O9 0.193087 0.975898 0.623334
O O10 0.840399 0.220244 0.430799
O O11 0.608585 0.097198 0.508265
O O12 0.500000 0.027406 0.250000
O O13 0.634053 0.940642 0.121408
#
# Coordination Sequence:
#
# PCOD8145305 Si02
#       6
#     8   8   8   8   8   8
#     4  10  22  38  62  92 122 163 212 259 313 366
#     4  11  23  38  62  90 127 161 208 263 309 372
#     4  11  21  38  64  90 124 162 210 265 307 371
#     4  10  23  42  60  96 120 165 211 251 321 370
#     4  10  23  39  58  93 123 162 209 257 315 366
#     4  10  23  40  66  87 127 163 208 259 308 383
#
# _framework density 21.400286000000001
#
# number of rings (size 3 to 8) (size 9 to 14) (size 15 to 20)
#    0.000    1.667    1.667    2.500    7.000    3.333 
#    0.000    6.667    0.000    0.000    0.000    0.000 
#    0.000    0.000    0.000    0.000    0.000    0.000 
#
# Total GULP energy -297655.270843 kJ/mol
# GULP energy per Si atom -12402.302952 kJ/mol
# Density = 2.135158 g / cm^3
# Si number density = 21.400286 Si / 1000 Ang^3
#
#
#
# Elastic Constant Matrix: (Units=GPa)
#
#
# Indices 1 2 3 4 5 6 
#
# 1 87.6565 13.0820 40.0133 0.0000 12.5122 0.0000
# 2 13.0820 59.9548 30.6721 0.0000 7.5454 0.0000
# 3 40.0133 30.6721 112.0330 0.0000 15.2941 0.0000
# 4 0.0000 0.0000 0.0000 12.5876 0.0000 13.0743
# 5 12.5122 7.5454 15.2941 0.0000 16.0375 0.0000
# 6 0.0000 0.0000 0.0000 13.0743 0.0000 40.0620
#
#
#
# Elastic Compliance Matrix: (Units=1/GPa)
#
#
# Indices 1 2 3 4 5 6 
#
# 1 0.014327 -0.000121 -0.004099 0.000000 -0.007211 0.000000
# 2 -0.000121 0.019706 -0.004712 0.000000 -0.004683 0.000000
# 3 -0.004099 -0.004712 0.012578 0.000000 -0.006580 0.000000
# 4 0.000000 0.000000 0.000000 0.120181 0.000000 -0.039221
# 5 -0.007211 -0.004683 -0.006580 0.000000 0.076458 0.000000
# 6 0.000000 0.000000 0.000000 -0.039221 0.000000 0.037761
#
#
# Mechanical properties :
#
#
# Convention : Reuss Voigt Hill
#
# Bulk Modulus (GPa) = 34.78868 47.46435 41.12652
# Shear Modulus (GPa) = 16.20960 25.46253 20.83607
#
# Velocity S-wave (km/s) = 2.75516 3.45312 3.12370
# Velocity P-wave (km/s) = 5.13933 6.17464 5.68062
#
# Compressibility (1/GPa) = 0.02874498
#
# Stress axis : x y z
#
# Youngs Moduli (GPa) = 69.79904 50.74631 79.50107
#
# Poissons Ratio (x) = 0.00616 0.32589
# Poissons Ratio (y) = 0.00847 0.37464
# Poissons Ratio (z) = 0.28612 0.23914
#
# Static dielectric constant tensor:
#      x y z
#    x 3.939260 0.000000 -0.149650 
#    y 0.000000 3.699090 0.000000 
#    z -0.149650 0.000000 3.957430 
# 
# 
# High freq. dielectric constant tensor:
#      x y z
#    x 1.845410 0.000000 0.000140 
#    y 0.000000 1.835790 0.000000 
#    z 0.000140 0.000000 1.830230 
# 
# From -- ./inp_files/236845.got.cif
#   From: 2010.06.25/outbox.cif.g09.slc.cpg/sg15_119_cif.got.tgz:236845.got - 2010.06.28 07:06:18.
