data_PCOD8145605
_publ_section_title
;
Structure prediction by ZEFSAII (Michael W. Deem and Ramdas Pophale) SiO2 
 PCOD8145605
Probable space group: C 2/C
;
_chemical_formula_sum "Si O2"
_cell_formula_units_Z 56
_cell_length_a 16.975002
_cell_length_b 21.277018
_cell_length_c 8.990844
_cell_angle_alpha 90.000000
_cell_angle_beta 57.496775
_cell_angle_gamma 90.000000
_cell_volume 2738.638284
_symmetry_space_group_name_H-M "C 2/C"
_symmetry_group_IT_number 15
_symmetry_cell_setting 'monoclinic'
loop_
_space_group_symop_operation_xyz
x,y,z
-x,y,1/2-z
-x,-y,-z
x,-y,1/2+z
1/2+x,1/2+y,z
1/2-x,1/2+y,1/2-z
1/2-x,1/2-y,-z
1/2+x,1/2-y,1/2+z
loop_
_atom_site_type_symbol
_atom_site_label
_atom_site_fract_x
_atom_site_fract_y
_atom_site_fract_z
Si Si1 0.500000 0.423634 0.750000
Si Si2 0.000000 0.249124 0.750000
Si Si3 0.249709 0.664029 0.647070
Si Si4 0.549162 0.344248 0.961384
Si Si5 0.280909 0.581989 0.119634
Si Si6 0.806257 0.687424 0.468968
Si Si7 0.202952 0.040344 0.070313
Si Si8 0.609963 0.743308 0.162633
O O1 0.480863 0.380049 0.915060
O O2 0.409743 0.465494 0.810671
O O3 0.986716 0.202519 0.623184
O O4 0.085399 0.295720 0.639839
O O5 0.266518 0.593868 0.574309
O O6 0.338928 0.709982 0.529118
O O7 0.159901 0.691317 0.650146
O O8 0.227731 0.657334 0.842753
O O9 0.611860 0.392273 0.995508
O O10 0.623759 0.304063 0.788344
O O11 0.211430 0.638291 0.146235
O O12 0.256771 0.555783 0.307759
O O13 0.262294 0.526991 0.019879
O O14 0.750000 0.750000 0.500000
O O15 0.500000 0.755663 0.250000
#
# Coordination Sequence:
#
# PCOD8145605 Si02
#       8
#     4   4   8   8   8   8   8   8
#     4  10  22  39  62  96 133 176 216 258 324 406
#     4  12  26  39  66  98 137 172 218 270 342 384
#     4  11  23  39  64  96 129 171 223 262 325 389
#     4  11  21  40  59  98 131 173 210 264 327 397
#     4  11  24  44  64  94 132 174 220 268 332 388
#     4  12  26  42  65  99 135 175 217 281 330 390
#     4  11  24  42  67  93 133 179 221 269 327 398
#     4  11  21  37  66  93 134 169 211 268 324 386
#
# _framework density 20.448118999999998
#
# number of rings (size 3 to 8) (size 9 to 14) (size 15 to 20)
#    0.000    0.857    6.429    0.857    6.000    4.000 
#    0.000    0.000    1.571    1.714    0.000    0.000 
#    0.000    0.000    0.000    0.000    0.000    0.000 
#
# Total GULP energy -347192.405819 kJ/mol
# GULP energy per Si atom -12399.728779 kJ/mol
# Density = 2.040158 g / cm^3
# Si number density = 20.448119 Si / 1000 Ang^3
#
#
#
# Elastic Constant Matrix: (Units=GPa)
#
#
# Indices 1 2 3 4 5 6 
#
# 1 94.4546 38.2587 38.6016 0.0000 0.3140 0.0000
# 2 38.2587 109.8796 33.7221 0.0000 11.8632 0.0000
# 3 38.6016 33.7221 114.2887 0.0000 12.9973 0.0000
# 4 0.0000 0.0000 0.0000 31.3089 0.0000 8.3876
# 5 0.3140 11.8632 12.9973 0.0000 35.3166 0.0000
# 6 0.0000 0.0000 0.0000 8.3876 0.0000 23.7574
#
#
#
# Elastic Compliance Matrix: (Units=1/GPa)
#
#
# Indices 1 2 3 4 5 6 
#
# 1 0.013695 -0.003889 -0.003771 0.000000 0.002572 0.000000
# 2 -0.003889 0.011306 -0.001664 0.000000 -0.003151 0.000000
# 3 -0.003771 -0.001664 0.010903 0.000000 -0.003420 0.000000
# 4 0.000000 0.000000 0.000000 0.035276 0.000000 -0.012454
# 5 0.002572 -0.003151 -0.003420 0.000000 0.030609 0.000000
# 6 0.000000 0.000000 0.000000 -0.012454 0.000000 0.046489
#
#
# Mechanical properties :
#
#
# Convention : Reuss Voigt Hill
#
# Bulk Modulus (GPa) = 57.94828 59.97641 58.96235
# Shear Modulus (GPa) = 28.95570 31.94596 30.45083
#
# Velocity S-wave (km/s) = 3.76714 3.95687 3.86317
# Velocity P-wave (km/s) = 6.87913 7.09017 6.98545
#
# Compressibility (1/GPa) = 0.01725677
#
# Stress axis : x y z
#
# Youngs Moduli (GPa) = 73.02121 88.45017 91.71580
#
# Poissons Ratio (x) = 0.34397 0.34582
# Poissons Ratio (y) = 0.28397 0.15262
# Poissons Ratio (z) = 0.27533 0.14719
#
# Static dielectric constant tensor:
#      x y z
#    x 3.540680 0.000000 0.112990 
#    y 0.000000 3.672660 0.000000 
#    z 0.112990 0.000000 4.034010 
# 
# 
# High freq. dielectric constant tensor:
#      x y z
#    x 1.785760 0.000000 0.018580 
#    y 0.000000 1.793150 0.000000 
#    z 0.018580 0.000000 1.800810 
# 
# From -- ./inp_files/50160.got.cif
#   From: 2010.06.25/outbox.cif.g09.slc.cpg/sg15_26_cif.got.tgz:50160.got - 2010.06.28 07:06:18.
