data_PCOD8145789
_publ_section_title
;
Structure prediction by ZEFSAII (Michael W. Deem and Ramdas Pophale) SiO2 
 PCOD8145789
Probable space group: C 2/C
;
_chemical_formula_sum "Si O2"
_cell_formula_units_Z 32
_cell_length_a 9.550239
_cell_length_b 10.485697
_cell_length_c 14.090934
_cell_angle_alpha 90.000000
_cell_angle_beta 71.821672
_cell_angle_gamma 90.000000
_cell_volume 1340.652210
_symmetry_space_group_name_H-M "C 2/C"
_symmetry_group_IT_number 15
_symmetry_cell_setting 'monoclinic'
loop_
_space_group_symop_operation_xyz
x,y,z
-x,y,1/2-z
-x,-y,-z
x,-y,1/2+z
1/2+x,1/2+y,z
1/2-x,1/2+y,1/2-z
1/2-x,1/2-y,-z
1/2+x,1/2-y,1/2+z
loop_
_atom_site_type_symbol
_atom_site_label
_atom_site_fract_x
_atom_site_fract_y
_atom_site_fract_z
Si Si1 0.583999 0.216673 0.322024
Si Si2 0.406127 0.069548 0.685843
Si Si3 0.640258 0.417675 0.785799
Si Si4 0.101755 0.771086 0.972269
O O1 0.500000 0.279163 0.250000
O O2 0.761682 0.207691 0.267234
O O3 0.536259 0.291988 0.427000
O O4 0.523976 0.070896 0.347428
O O5 0.500000 0.136645 0.750000
O O6 0.424386 0.147389 0.586298
O O7 0.233059 0.049208 0.754084
O O8 0.500000 0.427703 0.750000
O O9 0.603849 0.396222 0.904502
O O10 0.250000 0.750000 0.000000
#
# Coordination Sequence:
#
# PCOD8145789 Si02
#       4
#     8   8   8   8
#     4   9  19  39  61  87 121 161 205 240 298 360
#     4   9  20  41  62  87 122 158 202 244 296 368
#     4  10  22  40  57  94 127 153 206 253 297 353
#     4  12  20  37  70  88 117 164 203 247 307 356
#
# _framework density 23.868980000000001
#
# number of rings (size 3 to 8) (size 9 to 14) (size 15 to 20)
#    1.500    0.500    2.500    1.500    0.000    1.000 
#    4.500    1.250    0.000    0.000    0.000    0.000 
#    0.000    0.000    0.000    0.000    0.000    0.000 
#
# Total GULP energy -198328.244742 kJ/mol
# GULP energy per Si atom -12395.515296 kJ/mol
# Density = 2.381465 g / cm^3
# Si number density = 23.868980 Si / 1000 Ang^3
#
#
#
# Elastic Constant Matrix: (Units=GPa)
#
#
# Indices 1 2 3 4 5 6 
#
# 1 191.3334 4.9652 65.2116 0.0000 22.7841 0.0000
# 2 4.9652 36.8663 13.4997 0.0000 14.3175 0.0000
# 3 65.2116 13.4997 189.0140 0.0000 9.9582 0.0000
# 4 0.0000 0.0000 0.0000 10.2419 0.0000 4.4197
# 5 22.7841 14.3175 9.9582 0.0000 48.9534 0.0000
# 6 0.0000 0.0000 0.0000 4.4197 0.0000 16.3093
#
#
#
# Elastic Compliance Matrix: (Units=1/GPa)
#
#
# Indices 1 2 3 4 5 6 
#
# 1 0.006239 0.000997 -0.002078 0.000000 -0.002773 0.000000
# 2 0.000997 0.031332 -0.002097 0.000000 -0.009201 0.000000
# 3 -0.002078 -0.002097 0.006140 0.000000 0.000331 0.000000
# 4 0.000000 0.000000 0.000000 0.110568 0.000000 -0.029963
# 5 -0.002773 -0.009201 0.000331 0.000000 0.024342 0.000000
# 6 0.000000 0.000000 0.000000 -0.029963 0.000000 0.069434
#
#
# Mechanical properties :
#
#
# Convention : Reuss Voigt Hill
#
# Bulk Modulus (GPa) = 26.76951 64.95188 45.86070
# Shear Modulus (GPa) = 18.73630 37.33673 28.03651
#
# Velocity S-wave (km/s) = 2.80476 3.95933 3.43096
# Velocity P-wave (km/s) = 4.66138 6.94065 5.91190
#
# Compressibility (1/GPa) = 0.03735593
#
# Stress axis : x y z
#
# Youngs Moduli (GPa) = 160.28475 31.91621 162.87347
#
# Poissons Ratio (x) = -0.03183 0.33839
# Poissons Ratio (y) = -0.15986 0.34157
# Poissons Ratio (z) = 0.33301 0.06693
#
# Static dielectric constant tensor:
#      x y z
#    x 4.130650 0.000000 0.053690 
#    y 0.000000 4.124970 0.000000 
#    z 0.053690 0.000000 4.457990 
# 
# 
# High freq. dielectric constant tensor:
#      x y z
#    x 1.945550 0.000000 0.003800 
#    y 0.000000 1.946420 0.000000 
#    z 0.003800 0.000000 1.942000 
# 
# From -- ./inp_files/132295.got.cif
#   From: 2010.06.25/outbox.cif.g09.slc.cpg/sg15_67_cif.got.tgz:132295.got - 2010.06.28 07:06:18.
