data_PCOD8145595
_publ_section_title
;
Structure prediction by ZEFSAII (Michael W. Deem and Ramdas Pophale) SiO2 
 PCOD8145595
Probable space group: C 2/C
;
_chemical_formula_sum "Si O2"
_cell_formula_units_Z 64
_cell_length_a 17.390940
_cell_length_b 26.710578
_cell_length_c 8.795102
_cell_angle_alpha 90.000000
_cell_angle_beta 44.341119
_cell_angle_gamma 90.000000
_cell_volume 2855.486535
_symmetry_space_group_name_H-M "C 2/C"
_symmetry_group_IT_number 15
_symmetry_cell_setting 'monoclinic'
loop_
_space_group_symop_operation_xyz
x,y,z
-x,y,1/2-z
-x,-y,-z
x,-y,1/2+z
1/2+x,1/2+y,z
1/2-x,1/2+y,1/2-z
1/2-x,1/2-y,-z
1/2+x,1/2-y,1/2+z
loop_
_atom_site_type_symbol
_atom_site_label
_atom_site_fract_x
_atom_site_fract_y
_atom_site_fract_z
Si Si1 0.127384 0.945322 0.548485
Si Si2 0.886138 0.165274 0.356637
Si Si3 0.791874 0.028408 0.253438
Si Si4 0.399749 0.377815 0.503899
Si Si5 0.282314 0.214646 0.702931
Si Si6 0.234160 0.687358 0.110997
Si Si7 0.998433 0.348818 0.924604
Si Si8 0.045775 0.548145 0.520174
O O1 0.140920 0.885909 0.513317
O O2 0.207596 0.966802 0.566066
O O3 0.000000 0.959740 0.750000
O O4 0.176332 0.971167 0.328733
O O5 0.899027 0.154550 0.159992
O O6 0.795260 0.205171 0.540375
O O7 0.000000 0.188806 0.250000
O O8 0.892685 0.063436 0.050984
O O9 0.677930 0.046371 0.340023
O O10 0.286893 0.365626 0.576613
O O11 0.500000 0.364760 0.250000
O O12 0.290898 0.273697 0.650993
O O13 0.233873 0.195050 0.610793
O O14 0.395855 0.188442 0.593072
O O15 0.103188 0.685476 0.318470
O O16 0.000000 0.367616 0.750000
O O17 0.997902 0.399755 0.021733
O O18 0.000000 0.543855 0.750000
O O19 0.000000 0.500000 0.500000
#
# Coordination Sequence:
#
# PCOD8145595 Si02
#       8
#     8   8   8   8   8   8   8   8
#     4  10  22  39  62  93 133 172 220 276 333 403
#     4  10  23  41  61  98 132 173 219 272 336 399
#     4  11  23  40  63  94 130 178 223 275 335 399
#     4  11  23  40  66  93 131 173 221 276 335 399
#     4  10  23  40  71  92 133 171 218 277 335 409
#     4  10  22  44  64 100 128 170 218 277 339 399
#     4  10  23  43  68 100 136 178 226 274 340 407
#     4  12  26  43  66  98 139 184 231 282 337 407
#
# _framework density 22.412993
#
# number of rings (size 3 to 8) (size 9 to 14) (size 15 to 20)
#    0.000    1.500    1.250    2.625    5.250    7.000 
#    0.000    0.625    0.000    0.000    0.000    0.000 
#    0.000    0.000    0.000    0.000    0.000    0.000 
#
# Total GULP energy -396540.360347 kJ/mol
# GULP energy per Si atom -12391.886261 kJ/mol
# Density = 2.236198 g / cm^3
# Si number density = 22.412993 Si / 1000 Ang^3
#
#
#
# Elastic Constant Matrix: (Units=GPa)
#
#
# Indices 1 2 3 4 5 6 
#
# 1 97.2200 35.2053 33.6273 0.0000 -17.2806 0.0000
# 2 35.2053 81.5066 27.3429 0.0000 3.6241 0.0000
# 3 33.6273 27.3429 120.1725 0.0000 2.9486 0.0000
# 4 0.0000 0.0000 0.0000 26.7573 0.0000 -26.9440
# 5 -17.2806 3.6241 2.9486 0.0000 33.9461 0.0000
# 6 0.0000 0.0000 0.0000 -26.9440 0.0000 -97.8505
#
#
#
# Elastic Compliance Matrix: (Units=1/GPa)
#
#
# Indices 1 2 3 4 5 6 
#
# 1 0.014965 -0.005811 -0.003074 0.000000 0.008506 0.000000
# 2 -0.005811 0.015585 -0.001810 0.000000 -0.004465 0.000000
# 3 -0.003074 -0.001810 0.009648 0.000000 -0.002210 0.000000
# 4 0.000000 0.000000 0.000000 0.029260 0.000000 -0.008057
# 5 0.008506 -0.004465 -0.002210 0.000000 0.034457 0.000000
# 6 0.000000 0.000000 0.000000 -0.008057 0.000000 -0.008001
#
#
# Mechanical properties :
#
#
# Convention : Reuss Voigt Hill
#
# Bulk Modulus (GPa) = 53.17240 54.58336 53.87788
# Shear Modulus (GPa) = 40.46173 6.08548 23.27361
#
# Velocity S-wave (km/s) = 4.25347 1.64956 3.22591
# Velocity P-wave (km/s) = 6.92084 5.29475 6.16167
#
# Compressibility (1/GPa) = 0.01880675
#
# Stress axis : x y z
#
# Youngs Moduli (GPa) = 66.82080 64.16539 103.65101
#
# Poissons Ratio (x) = 0.37286 0.31865
# Poissons Ratio (y) = 0.38829 0.18765
# Poissons Ratio (z) = 0.20542 0.11617
#
# Static dielectric constant tensor:
#      x y z
#    x 4.084040 0.000000 0.023130 
#    y 0.000000 3.969950 0.000000 
#    z 0.023130 0.000000 3.884500 
# 
# 
# High freq. dielectric constant tensor:
#      x y z
#    x 1.897350 0.000000 0.000170 
#    y 0.000000 1.881130 0.000000 
#    z 0.000170 0.000000 1.873710 
# 
# From -- ./inp_files/52802.got.cif
#   From: 2010.06.25/outbox.cif.g09.slc.cpg/sg15_27_cif.got.tgz:52802.got - 2010.06.28 07:06:18.
