data_PCOD8145345
_publ_section_title
;
Structure prediction by ZEFSAII (Michael W. Deem and Ramdas Pophale) SiO2 
 PCOD8145345
Probable space group: C 2/C
;
_chemical_formula_sum "Si O2"
_cell_formula_units_Z 40
_cell_length_a 11.857120
_cell_length_b 14.775723
_cell_length_c 17.801205
_cell_angle_alpha 90.000000
_cell_angle_beta 149.237392
_cell_angle_gamma 90.000000
_cell_volume 1595.173297
_symmetry_space_group_name_H-M "C 2/C"
_symmetry_group_IT_number 15
_symmetry_cell_setting 'monoclinic'
loop_
_space_group_symop_operation_xyz
x,y,z
-x,y,1/2-z
-x,-y,-z
x,-y,1/2+z
1/2+x,1/2+y,z
1/2-x,1/2+y,1/2-z
1/2-x,1/2-y,-z
1/2+x,1/2-y,1/2+z
loop_
_atom_site_type_symbol
_atom_site_label
_atom_site_fract_x
_atom_site_fract_y
_atom_site_fract_z
Si Si1 0.660602 0.331946 0.153216
Si Si2 0.999282 0.070964 0.431607
Si Si3 0.608696 0.130266 0.117422
Si Si4 0.652080 0.662263 0.904984
Si Si5 0.344109 0.150614 0.531854
O O1 0.659803 0.228960 0.180404
O O2 0.504964 0.389412 0.123612
O O3 0.911163 0.366004 0.296221
O O4 0.549846 0.335943 0.007207
O O5 0.195077 0.070255 0.482383
O O6 0.767256 0.064483 0.255596
O O7 0.000000 0.000000 0.500000
O O8 0.663498 0.130632 0.061071
O O9 0.355303 0.101415 0.989802
O O10 0.500000 0.694268 0.750000
O O11 0.750000 0.750000 0.000000
O O12 0.250000 0.250000 0.500000
#
# Coordination Sequence:
#
# PCOD8145345 Si02
#       5
#     8   8   8   8   8
#     4  11  22  43  73 107 147 193 259 317 379 471
#     4  12  28  45  66 115 159 195 245 328 410 451
#     4  11  22  43  77 108 144 198 256 321 382 467
#     4  10  22  38  64 106 147 184 241 311 383 449
#     4  12  22  43  79 112 143 192 266 332 380 468
#
# _framework density 25.075645999999999
#
# number of rings (size 3 to 8) (size 9 to 14) (size 15 to 20)
#    0.000    0.800    6.000    1.200    8.400    0.000 
#    7.200    3.000    0.000    0.000    0.000    0.000 
#    0.000    0.000    0.000    0.000    0.000    0.000 
#
# Total GULP energy -247816.114039 kJ/mol
# GULP energy per Si atom -12390.805702 kJ/mol
# Density = 2.501857 g / cm^3
# Si number density = 25.075646 Si / 1000 Ang^3
#
#
#
# Elastic Constant Matrix: (Units=GPa)
#
#
# Indices 1 2 3 4 5 6 
#
# 1 234.3829 30.0033 101.9320 0.0010 17.9681 -0.0002
# 2 30.0033 30.1787 14.9908 0.0056 11.0619 0.0010
# 3 101.9320 14.9908 204.0486 0.0155 3.9560 0.0024
# 4 0.0010 0.0056 0.0155 28.0941 0.0026 -4.2846
# 5 17.9681 11.0619 3.9560 0.0026 61.6984 -0.0003
# 6 -0.0002 0.0010 0.0024 -4.2846 -0.0003 39.0283
#
#
#
# Elastic Compliance Matrix: (Units=1/GPa)
#
#
# Indices 1 2 3 4 5 6 
#
# 1 0.006060 -0.004394 -0.002689 0.000002 -0.000805 0.000001
# 2 -0.004394 0.039958 -0.000627 -0.000007 -0.005844 -0.000002
# 3 -0.002689 -0.000627 0.006281 -0.000003 0.000493 -0.000001
# 4 0.000002 -0.000007 -0.000003 0.036201 -0.000001 0.003974
# 5 -0.000805 -0.005844 0.000493 -0.000001 0.017458 0.000000
# 6 0.000001 -0.000002 -0.000001 0.003974 0.000000 0.026059
#
#
# Mechanical properties :
#
#
# Convention : Reuss Voigt Hill
#
# Bulk Modulus (GPa) = 27.11609 84.71805 55.91707
# Shear Modulus (GPa) = 31.30274 47.20977 39.25625
#
# Velocity S-wave (km/s) = 3.53701 4.34371 3.96095
# Velocity P-wave (km/s) = 5.24574 7.68215 6.57773
#
# Compressibility (1/GPa) = 0.03687847
#
# Stress axis : x y z
#
# Youngs Moduli (GPa) = 165.01389 25.02597 159.22216
#
# Poissons Ratio (x) = 0.10997 0.42813
# Poissons Ratio (y) = 0.72512 0.09985
# Poissons Ratio (z) = 0.44370 0.01569
#
# Static dielectric constant tensor:
#      x y z
#    x 5.801550 0.000010 0.184560 
#    y 0.000010 4.364370 -0.000030 
#    z 0.184560 -0.000030 5.174950 
# 
# 
# High freq. dielectric constant tensor:
#      x y z
#    x 2.035750 0.000000 0.002030 
#    y 0.000000 1.964580 0.000000 
#    z 0.002030 0.000000 2.009140 
# 
# From -- ./inp_files/29101.got.cif
#   From: 2010.06.25/outbox.cif.g09.slc.cpg/sg15_15_cif.got.tgz:29101.got - 2010.06.28 07:06:18.
