data_PCOD8145513
_publ_section_title
;
Structure prediction by ZEFSAII (Michael W. Deem and Ramdas Pophale) SiO2 
 PCOD8145513
Probable space group: C 2/C
;
_chemical_formula_sum "Si O2"
_cell_formula_units_Z 48
_cell_length_a 17.686119
_cell_length_b 15.232354
_cell_length_c 16.427305
_cell_angle_alpha 90.000000
_cell_angle_beta 30.278747
_cell_angle_gamma 90.000000
_cell_volume 2231.387721
_symmetry_space_group_name_H-M "C 2/C"
_symmetry_group_IT_number 15
_symmetry_cell_setting 'monoclinic'
loop_
_space_group_symop_operation_xyz
x,y,z
-x,y,1/2-z
-x,-y,-z
x,-y,1/2+z
1/2+x,1/2+y,z
1/2-x,1/2+y,1/2-z
1/2-x,1/2-y,-z
1/2+x,1/2-y,1/2+z
loop_
_atom_site_type_symbol
_atom_site_label
_atom_site_fract_x
_atom_site_fract_y
_atom_site_fract_z
Si Si1 0.888050 0.506799 0.221522
Si Si2 0.078647 0.321972 0.259685
Si Si3 0.795595 0.315205 0.626535
Si Si4 0.433240 0.342905 0.225580
Si Si5 0.257233 0.314574 0.636144
Si Si6 0.283806 0.010632 0.637511
O O1 0.804384 0.591038 0.336505
O O2 0.815513 0.479465 0.203395
O O3 0.864172 0.422724 0.302362
O O4 0.063196 0.532197 0.052611
O O5 0.970102 0.315613 0.439046
O O6 0.000000 0.292517 0.250000
O O7 0.216101 0.257021 0.145357
O O8 0.782776 0.293597 0.733342
O O9 0.727981 0.411542 0.670878
O O10 0.500000 0.371727 0.250000
O O11 0.320202 0.261763 0.344706
O O12 0.347747 0.424897 0.266158
O O13 0.564673 0.313198 0.042079
#
# Coordination Sequence:
#
# PCOD8145513 Si02
#       6
#     8   8   8   8   8   8
#     4   9  20  39  63  85 114 156 200 245 290 352
#     4  11  22  36  58  87 118 149 185 238 295 343
#     4  10  22  39  60  83 113 154 194 235 282 350
#     4  12  25  39  60  90 123 155 195 251 304 353
#     4  11  23  40  62  84 114 159 201 241 290 353
#     4   9  20  40  61  86 117 154 200 243 293 351
#
# _framework density 21.511277
#
# number of rings (size 3 to 8) (size 9 to 14) (size 15 to 20)
#    0.000    1.667    0.000    5.000    0.000    8.000 
#    0.000    0.000    0.000    0.000    0.000    0.000 
#    0.000    0.000    0.000    0.000    0.000    0.000 
#
# Total GULP energy -297696.445973 kJ/mol
# GULP energy per Si atom -12404.018582 kJ/mol
# Density = 2.146232 g / cm^3
# Si number density = 21.511277 Si / 1000 Ang^3
#
#
#
# Elastic Constant Matrix: (Units=GPa)
#
#
# Indices 1 2 3 4 5 6 
#
# 1 58.9573 15.6108 10.5136 0.0003 -8.8733 -0.0003
# 2 15.6108 111.0409 27.6164 -0.0001 -26.7114 0.0001
# 3 10.5136 27.6164 75.2271 -0.0076 -12.1314 0.0026
# 4 0.0003 -0.0001 -0.0076 33.9588 0.0028 -20.0103
# 5 -8.8733 -26.7114 -12.1314 0.0028 31.2463 -0.0007
# 6 -0.0003 0.0001 0.0026 -20.0103 -0.0007 32.6576
#
#
#
# Elastic Compliance Matrix: (Units=1/GPa)
#
#
# Indices 1 2 3 4 5 6 
#
# 1 0.018097 -0.001357 -0.001482 -0.000001 0.003404 0.000000
# 2 -0.001357 0.012008 -0.002801 -0.000002 0.008793 -0.000001
# 3 -0.001482 -0.002801 0.015014 0.000004 0.003014 0.000001
# 4 -0.000001 -0.000002 0.000004 0.046088 -0.000004 0.028239
# 5 0.003404 0.008793 0.003014 -0.000004 0.041657 -0.000002
# 6 0.000000 -0.000001 0.000001 0.028239 -0.000002 0.047924
#
#
# Mechanical properties :
#
#
# Convention : Reuss Voigt Hill
#
# Bulk Modulus (GPa) = 29.55043 39.18966 34.37005
# Shear Modulus (GPa) = 24.58838 32.33816 28.46327
#
# Velocity S-wave (km/s) = 3.38456 3.88146 3.64150
# Velocity P-wave (km/s) = 5.38894 6.19237 5.80457
#
# Compressibility (1/GPa) = 0.03384045
#
# Stress axis : x y z
#
# Youngs Moduli (GPa) = 55.25683 83.27722 66.60235
#
# Poissons Ratio (x) = 0.11299 0.09872
# Poissons Ratio (y) = 0.07497 0.18653
# Poissons Ratio (z) = 0.08190 0.23324
#
# Static dielectric constant tensor:
#      x y z
#    x 3.633690 0.000000 -0.053630 
#    y 0.000000 4.050380 0.000000 
#    z -0.053630 0.000000 3.790890 
# 
# 
# High freq. dielectric constant tensor:
#      x y z
#    x 1.835490 0.000000 -0.003400 
#    y 0.000000 1.857960 0.000000 
#    z -0.003400 0.000000 1.835700 
# 
# From -- ./inp_files/211303.got.cif
#   From: 2010.06.25/outbox.cif.g09.slc.cpg/sg15_106_cif.got.tgz:211303.got - 2010.06.28 07:06:18.
