data_PCOD8145785
_publ_section_title
;
Structure prediction by ZEFSAII (Michael W. Deem and Ramdas Pophale) SiO2 
 PCOD8145785
Probable space group: C 2/C
;
_chemical_formula_sum "Si O2"
_cell_formula_units_Z 52
_cell_length_a 23.802379
_cell_length_b 15.655917
_cell_length_c 9.815634
_cell_angle_alpha 90.000000
_cell_angle_beta 134.366556
_cell_angle_gamma 90.000000
_cell_volume 2614.875169
_symmetry_space_group_name_H-M "C 2/C"
_symmetry_group_IT_number 15
_symmetry_cell_setting 'monoclinic'
loop_
_space_group_symop_operation_xyz
x,y,z
-x,y,1/2-z
-x,-y,-z
x,-y,1/2+z
1/2+x,1/2+y,z
1/2-x,1/2+y,1/2-z
1/2-x,1/2-y,-z
1/2+x,1/2-y,1/2+z
loop_
_atom_site_type_symbol
_atom_site_label
_atom_site_fract_x
_atom_site_fract_y
_atom_site_fract_z
Si Si1 0.251230 0.031044 0.433375
Si Si2 0.679497 0.192189 0.830966
Si Si3 0.365770 0.709131 0.712922
Si Si4 0.980660 0.218774 0.363987
Si Si5 0.282419 0.848903 0.407494
Si Si6 0.500000 0.444706 0.750000
Si Si7 0.151365 0.950003 0.502338
O O1 0.315714 0.102161 0.581979
O O2 0.199941 0.067587 0.221712
O O3 0.298796 0.948207 0.464141
O O4 0.198493 0.009585 0.476279
O O5 0.598560 0.240542 0.716595
O O6 0.684557 0.176939 0.680309
O O7 0.750000 0.250000 0.000000
O O8 0.326531 0.796863 0.599210
O O9 0.311890 0.668802 0.742496
O O10 0.370889 0.641388 0.598855
O O11 0.450653 0.735564 0.911556
O O12 0.974403 0.115635 0.334258
O O13 0.000000 0.261483 0.250000
O O14 0.427364 0.502869 0.583356
#
# Coordination Sequence:
#
# PCOD8145785 Si02
#       7
#     8   8   8   8   8   4   8
#     4  11  23  40  64  98 128 169 223 275 319 387
#     4  12  23  40  69  93 127 175 228 268 328 399
#     4  10  22  41  65  93 134 173 208 275 333 390
#     4  10  24  41  61  93 134 169 213 271 333 388
#     4  10  22  42  65  96 128 171 225 270 323 397
#     4  10  22  40  56  96 140 162 206 272 334 404
#     4  11  22  38  65  96 133 169 212 267 339 393
#
# _framework density 19.886226000000001
#
# number of rings (size 3 to 8) (size 9 to 14) (size 15 to 20)
#    0.462    0.923    1.538    4.615    0.000    8.000 
#    0.000    0.769    0.000    0.000    0.000    0.000 
#    0.000    0.000    0.000    0.000    0.000    0.000 
#
# Total GULP energy -322425.948468 kJ/mol
# GULP energy per Si atom -12400.998018 kJ/mol
# Density = 1.984096 g / cm^3
# Si number density = 19.886226 Si / 1000 Ang^3
#
#
#
# Elastic Constant Matrix: (Units=GPa)
#
#
# Indices 1 2 3 4 5 6 
#
# 1 110.4058 44.2302 41.7530 0.0000 6.6622 0.0000
# 2 44.2302 107.6600 31.5943 0.0000 16.7526 0.0000
# 3 41.7530 31.5943 106.5161 0.0000 11.5439 0.0000
# 4 0.0000 0.0000 0.0000 23.2333 0.0000 5.7758
# 5 6.6622 16.7526 11.5439 0.0000 37.8086 0.0000
# 6 0.0000 0.0000 0.0000 5.7758 0.0000 36.5838
#
#
#
# Elastic Compliance Matrix: (Units=1/GPa)
#
#
# Indices 1 2 3 4 5 6 
#
# 1 0.011964 -0.003978 -0.003591 0.000000 0.000751 0.000000
# 2 -0.003978 0.012026 -0.001558 0.000000 -0.004152 0.000000
# 3 -0.003591 -0.001558 0.011495 0.000000 -0.002187 0.000000
# 4 0.000000 0.000000 0.000000 0.044800 0.000000 -0.007073
# 5 0.000751 -0.004152 -0.002187 0.000000 0.028824 0.000000
# 6 0.000000 0.000000 0.000000 -0.007073 0.000000 0.028451
#
#
# Mechanical properties :
#
#
# Convention : Reuss Voigt Hill
#
# Bulk Modulus (GPa) = 58.03519 62.19300 60.11410
# Shear Modulus (GPa) = 30.94866 33.32545 32.13705
#
# Velocity S-wave (km/s) = 3.94926 4.09810 4.02437
# Velocity P-wave (km/s) = 7.07407 7.33041 7.20338
#
# Compressibility (1/GPa) = 0.01723093
#
# Stress axis : x y z
#
# Youngs Moduli (GPa) = 83.58419 83.15249 86.99456
#
# Poissons Ratio (x) = 0.33080 0.31241
# Poissons Ratio (y) = 0.33251 0.13551
# Poissons Ratio (z) = 0.30016 0.12953
#
# Static dielectric constant tensor:
#      x y z
#    x 3.600520 0.000000 -0.073190 
#    y 0.000000 3.731430 0.000000 
#    z -0.073190 0.000000 3.444160 
# 
# 
# High freq. dielectric constant tensor:
#      x y z
#    x 1.765610 0.000000 -0.012950 
#    y 0.000000 1.779520 0.000000 
#    z -0.012950 0.000000 1.778230 
# 
# From -- ./inp_files/67073.got.cif
#   From: 2010.06.25/outbox.cif.g09.slc.cpg/sg15_34_cif.got.tgz:67073.got - 2010.06.28 07:06:18.
