data_PCOD8145589
_publ_section_title
;
Structure prediction by ZEFSAII (Michael W. Deem and Ramdas Pophale) SiO2 
 PCOD8145589
Probable space group: C 2/C
;
_chemical_formula_sum "Si O2"
_cell_formula_units_Z 48
_cell_length_a 6.093085
_cell_length_b 24.157661
_cell_length_c 15.796437
_cell_angle_alpha 90.000000
_cell_angle_beta 76.629510
_cell_angle_gamma 90.000000
_cell_volume 2262.128543
_symmetry_space_group_name_H-M "C 2/C"
_symmetry_group_IT_number 15
_symmetry_cell_setting 'monoclinic'
loop_
_space_group_symop_operation_xyz
x,y,z
-x,y,1/2-z
-x,-y,-z
x,-y,1/2+z
1/2+x,1/2+y,z
1/2-x,1/2+y,1/2-z
1/2-x,1/2-y,-z
1/2+x,1/2-y,1/2+z
loop_
_atom_site_type_symbol
_atom_site_label
_atom_site_fract_x
_atom_site_fract_y
_atom_site_fract_z
Si Si1 0.124958 0.218682 0.897001
Si Si2 0.000000 0.503239 0.250000
Si Si3 0.740222 0.638502 0.616206
Si Si4 0.670402 0.431814 0.663373
Si Si5 0.054805 0.964191 0.342894
Si Si6 0.153885 0.334534 0.966588
Si Si7 0.000000 0.330210 0.250000
O O1 0.080779 0.283619 0.913514
O O2 0.344110 0.209718 0.819592
O O3 0.898846 0.195619 0.873424
O O4 0.163171 0.187440 0.982579
O O5 0.113528 0.542325 0.309522
O O6 0.171696 0.464643 0.178494
O O7 0.561700 0.590056 0.607899
O O8 0.935729 0.638668 0.529749
O O9 0.844750 0.631674 0.701727
O O10 0.500000 0.409261 0.750000
O O11 0.553959 0.478522 0.611893
O O12 0.732582 0.381177 0.599100
O O13 0.000000 0.968410 0.250000
#
# Coordination Sequence:
#
# PCOD8145589 Si02
#       7
#     8   4   8   8   8   8   4
#     4  10  22  40  60  84 121 159 197 246 297 354
#     4   8  18  37  56  86 116 156 199 244 290 348
#     4  11  22  38  61  90 120 155 195 247 303 354
#     4   9  20  38  59  86 117 158 203 243 295 348
#     4   9  19  35  60  86 118 153 199 245 292 354
#     4  10  23  40  57  85 124 157 198 246 296 356
#     4  10  22  39  62  92 112 152 205 244 294 352
#
# _framework density 21.218954
#
# number of rings (size 3 to 8) (size 9 to 14) (size 15 to 20)
#    0.000    2.667    0.000    2.000    1.167   12.000 
#    3.000    1.667    0.000    0.000    0.000    0.000 
#    0.000    0.000    0.000    0.000    0.000    0.000 
#
# Total GULP energy -297501.630919 kJ/mol
# GULP energy per Si atom -12395.901288 kJ/mol
# Density = 2.117066 g / cm^3
# Si number density = 21.218954 Si / 1000 Ang^3
#
#
#
# Elastic Constant Matrix: (Units=GPa)
#
#
# Indices 1 2 3 4 5 6 
#
# 1 120.7768 54.0097 40.9980 0.0000 -16.3270 0.0000
# 2 54.0097 151.0630 64.2406 0.0000 -19.2489 0.0000
# 3 40.9980 64.2406 93.5108 0.0000 -18.3477 0.0000
# 4 0.0000 0.0000 0.0000 31.4582 0.0000 -3.1345
# 5 -16.3270 -19.2489 -18.3477 0.0000 22.5828 0.0000
# 6 0.0000 0.0000 0.0000 -3.1345 0.0000 26.3893
#
#
#
# Elastic Compliance Matrix: (Units=1/GPa)
#
#
# Indices 1 2 3 4 5 6 
#
# 1 0.010621 -0.002330 -0.002307 0.000000 0.003819 0.000000
# 2 -0.002330 0.010071 -0.005405 0.000000 0.002508 0.000000
# 3 -0.002307 -0.005405 0.016878 0.000000 0.007438 0.000000
# 4 0.000000 0.000000 0.000000 0.032169 0.000000 0.003821
# 5 0.003819 0.002508 0.007438 0.000000 0.055224 0.000000
# 6 0.000000 0.000000 0.000000 0.003821 0.000000 0.038348
#
#
# Mechanical properties :
#
#
# Convention : Reuss Voigt Hill
#
# Bulk Modulus (GPa) = 57.18639 75.98300 66.58470
# Shear Modulus (GPa) = 26.42405 29.82620 28.12513
#
# Velocity S-wave (km/s) = 3.53272 3.75325 3.64465
# Velocity P-wave (km/s) = 6.60676 7.39387 7.01137
#
# Compressibility (1/GPa) = 0.01748668
#
# Stress axis : x y z
#
# Youngs Moduli (GPa) = 94.15477 99.29686 59.24955
#
# Poissons Ratio (x) = 0.23133 0.13667
# Poissons Ratio (y) = 0.21935 0.32024
# Poissons Ratio (z) = 0.21719 0.53669
#
# Static dielectric constant tensor:
#      x y z
#    x 4.347900 0.000000 -0.264790 
#    y 0.000000 4.061200 0.000000 
#    z -0.264790 0.000000 3.751490 
# 
# 
# High freq. dielectric constant tensor:
#      x y z
#    x 1.841180 0.000000 -0.016680 
#    y 0.000000 1.830620 0.000000 
#    z -0.016680 0.000000 1.813640 
# 
# From -- ./inp_files/185492.got.cif
#   From: 2010.06.25/outbox.cif.g09.slc.cpg/sg15_93_cif.got.tgz:185492.got - 2010.06.28 07:06:18.
