data_PCOD8145384
_publ_section_title
;
Structure prediction by ZEFSAII (Michael W. Deem and Ramdas Pophale) SiO2 
 PCOD8145384
Probable space group: C 2/C
;
_chemical_formula_sum "Si O2"
_cell_formula_units_Z 40
_cell_length_a 14.193577
_cell_length_b 21.256865
_cell_length_c 8.667488
_cell_angle_alpha 90.000000
_cell_angle_beta 131.797356
_cell_angle_gamma 90.000000
_cell_volume 1949.556858
_symmetry_space_group_name_H-M "C 2/C"
_symmetry_group_IT_number 15
_symmetry_cell_setting 'monoclinic'
loop_
_space_group_symop_operation_xyz
x,y,z
-x,y,1/2-z
-x,-y,-z
x,-y,1/2+z
1/2+x,1/2+y,z
1/2-x,1/2+y,1/2-z
1/2-x,1/2-y,-z
1/2+x,1/2-y,1/2+z
loop_
_atom_site_type_symbol
_atom_site_label
_atom_site_fract_x
_atom_site_fract_y
_atom_site_fract_z
Si Si1 0.121480 0.189754 0.275555
Si Si2 0.571212 0.577653 0.046090
Si Si3 0.338562 0.524933 0.658756
Si Si4 0.620480 0.167168 0.773126
Si Si5 0.428498 0.945464 0.516271
O O1 0.108114 0.150209 0.103753
O O2 0.247265 0.161430 0.492665
O O3 0.125474 0.261040 0.218497
O O4 0.000000 0.178941 0.250000
O O5 0.594024 0.542137 0.234184
O O6 0.424052 0.577344 0.837985
O O7 0.660253 0.541037 0.020884
O O8 0.198544 0.521788 0.567747
O O9 0.500000 0.156254 0.750000
O O10 0.604989 0.116635 0.619447
O O11 0.500000 0.000000 0.500000
O O12 0.500000 0.924045 0.750000
#
# Coordination Sequence:
#
# PCOD8145384 Si02
#       5
#     8   8   8   8   8
#     4  10  22  42  70  89 124 169 216 264 314 386
#     4  10  22  38  65  90 124 160 206 273 308 374
#     4  10  23  39  58  96 122 159 212 249 326 368
#     4  10  24  43  65  95 123 169 219 256 321 386
#     4  12  26  41  63  94 132 174 205 265 322 394
#
# _framework density 20.517484
#
# number of rings (size 3 to 8) (size 9 to 14) (size 15 to 20)
#    0.000    1.600    0.000    3.000   16.800    0.000 
#    3.600    1.000    0.000    0.000    0.000    0.000 
#    0.000    0.000    0.000    0.000    0.000    0.000 
#
# Total GULP energy -247810.240377 kJ/mol
# GULP energy per Si atom -12390.512019 kJ/mol
# Density = 2.047078 g / cm^3
# Si number density = 20.517484 Si / 1000 Ang^3
#
#
#
# Elastic Constant Matrix: (Units=GPa)
#
#
# Indices 1 2 3 4 5 6 
#
# 1 99.2972 14.4609 26.1579 0.0000 25.2525 0.0000
# 2 14.4609 106.2411 55.8870 0.0000 -11.1507 0.0000
# 3 26.1579 55.8870 93.6493 0.0000 14.2157 0.0000
# 4 0.0000 0.0000 0.0000 38.9971 0.0000 -8.7182
# 5 25.2525 -11.1507 14.2157 0.0000 39.1248 0.0000
# 6 0.0000 0.0000 0.0000 -8.7182 0.0000 14.4420
#
#
#
# Elastic Compliance Matrix: (Units=1/GPa)
#
#
# Indices 1 2 3 4 5 6 
#
# 1 0.012806 -0.002082 -0.001048 0.000000 -0.008478 0.000000
# 2 -0.002082 0.016348 -0.010675 0.000000 0.009882 0.000000
# 3 -0.001048 -0.010675 0.018734 0.000000 -0.009173 0.000000
# 4 0.000000 0.000000 0.000000 0.029643 0.000000 0.017895
# 5 -0.008478 0.009882 -0.009173 0.000000 0.037180 0.000000
# 6 0.000000 0.000000 0.000000 0.017895 0.000000 0.080045
#
#
# Mechanical properties :
#
#
# Convention : Reuss Voigt Hill
#
# Bulk Modulus (GPa) = 49.31070 54.68880 51.99975
# Shear Modulus (GPa) = 21.82215 32.02489 26.92352
#
# Velocity S-wave (km/s) = 3.26481 3.95506 3.62639
# Velocity P-wave (km/s) = 6.18851 6.89704 6.55236
#
# Compressibility (1/GPa) = 0.02027957
#
# Stress axis : x y z
#
# Youngs Moduli (GPa) = 78.08823 61.16808 53.38023
#
# Poissons Ratio (x) = 0.12734 0.05592
# Poissons Ratio (y) = 0.16257 0.56982
# Poissons Ratio (z) = 0.08181 0.65295
#
# Static dielectric constant tensor:
#      x y z
#    x 3.754930 0.000000 0.161630 
#    y 0.000000 3.849880 0.000000 
#    z 0.161630 0.000000 3.981180 
# 
# 
# High freq. dielectric constant tensor:
#      x y z
#    x 1.805820 0.000000 0.018270 
#    y 0.000000 1.802670 0.000000 
#    z 0.018270 0.000000 1.809440 
# 
# From -- ./inp_files/41069.got.cif
#   From: 2010.06.25/outbox.cif.g09.slc.cpg/sg15_21_cif.got.tgz:41069.got - 2010.06.28 07:06:18.
