data_PCOD8145256
_publ_section_title
;
Structure prediction by ZEFSAII (Michael W. Deem and Ramdas Pophale) SiO2 
 PCOD8145256
Probable space group: C 2/C
;
_chemical_formula_sum "Si O2"
_cell_formula_units_Z 48
_cell_length_a 14.990435
_cell_length_b 18.161396
_cell_length_c 16.635279
_cell_angle_alpha 90.000000
_cell_angle_beta 34.154033
_cell_angle_gamma 90.000000
_cell_volume 2542.618264
_symmetry_space_group_name_H-M "C 2/C"
_symmetry_group_IT_number 15
_symmetry_cell_setting 'monoclinic'
loop_
_space_group_symop_operation_xyz
x,y,z
-x,y,1/2-z
-x,-y,-z
x,-y,1/2+z
1/2+x,1/2+y,z
1/2-x,1/2+y,1/2-z
1/2-x,1/2-y,-z
1/2+x,1/2-y,1/2+z
loop_
_atom_site_type_symbol
_atom_site_label
_atom_site_fract_x
_atom_site_fract_y
_atom_site_fract_z
Si Si1 0.160857 0.974387 0.581506
Si Si2 0.746464 0.817671 0.738800
Si Si3 0.657346 0.066103 0.177934
Si Si4 0.474112 0.326026 0.860731
Si Si5 0.014072 0.461864 0.074767
Si Si6 0.012188 0.298720 0.445888
O O1 0.143974 0.895668 0.548724
O O2 0.302718 0.968053 0.538622
O O3 0.000000 0.994563 0.750000
O O4 0.204897 0.037340 0.484447
O O5 0.737329 0.868268 0.667479
O O6 0.817312 0.737994 0.661335
O O7 0.858700 0.853530 0.724508
O O8 0.573169 0.807359 0.905137
O O9 0.500000 0.095962 0.250000
O O10 0.603988 0.999475 0.274527
O O11 0.500000 0.299871 0.750000
O O12 0.412484 0.255650 0.959157
O O13 0.959345 0.377334 0.115335
O O14 0.000000 0.500000 0.000000
#
# Coordination Sequence:
#
# PCOD8145256 Si02
#       6
#     8   8   8   8   8   8
#     4  10  22  40  61  96 124 162 208 258 313 367
#     4  10  22  41  58  91 124 160 204 260 298 375
#     4  10  23  42  64  89 121 167 214 257 309 365
#     4   9  21  35  60  91 127 153 192 254 304 373
#     4  11  22  39  65  87 130 167 203 255 309 377
#     4  10  22  38  60  91 124 162 204 243 323 358
#
# _framework density 18.878177000000001
#
# number of rings (size 3 to 8) (size 9 to 14) (size 15 to 20)
#    1.000    1.000    1.667    2.000    2.333    5.333 
#    3.000    0.833    0.000    0.000    0.000    0.000 
#    0.000    0.000    0.000    0.000    0.000    0.000 
#
# Total GULP energy -297459.575780 kJ/mol
# GULP energy per Si atom -12394.148991 kJ/mol
# Density = 1.883521 g / cm^3
# Si number density = 18.878177 Si / 1000 Ang^3
#
#
#
# Elastic Constant Matrix: (Units=GPa)
#
#
# Indices 1 2 3 4 5 6 
#
# 1 107.8986 71.4944 32.7536 -0.0018 6.2910 0.0000
# 2 71.4944 92.0497 41.4807 -0.0022 5.8480 0.0007
# 3 32.7536 41.4807 87.9505 -0.0034 4.7346 -0.0003
# 4 -0.0018 -0.0022 -0.0034 27.8183 0.0013 8.7967
# 5 6.2910 5.8480 4.7346 0.0013 22.4078 -0.0008
# 6 0.0000 0.0007 -0.0003 8.7967 -0.0008 35.2010
#
#
#
# Elastic Compliance Matrix: (Units=1/GPa)
#
#
# Indices 1 2 3 4 5 6 
#
# 1 0.019147 -0.014729 -0.000102 0.000000 -0.001510 0.000000
# 2 -0.014729 0.025240 -0.006359 0.000001 -0.001108 -0.000001
# 3 -0.000102 -0.006359 0.014481 0.000001 -0.001371 0.000000
# 4 0.000000 0.000001 0.000001 0.039032 -0.000003 -0.009754
# 5 -0.001510 -0.001108 -0.001371 -0.000003 0.045630 0.000002
# 6 0.000000 -0.000001 0.000000 -0.009754 0.000002 0.030846
#
#
# Mechanical properties :
#
#
# Convention : Reuss Voigt Hill
#
# Bulk Modulus (GPa) = 60.65554 64.37292 62.51423
# Shear Modulus (GPa) = 22.49702 26.56344 24.53023
#
# Velocity S-wave (km/s) = 3.45584 3.75520 3.60862
# Velocity P-wave (km/s) = 6.93711 7.27841 7.10981
#
# Compressibility (1/GPa) = 0.01648654
#
# Stress axis : x y z
#
# Youngs Moduli (GPa) = 52.22855 39.62019 69.05531
#
# Poissons Ratio (x) = 0.58357 0.00707
# Poissons Ratio (y) = 0.76928 0.43913
# Poissons Ratio (z) = 0.00535 0.25195
#
# Static dielectric constant tensor:
#      x y z
#    x 3.549220 -0.000010 0.078470 
#    y -0.000010 3.392160 0.000010 
#    z 0.078470 0.000010 3.341490 
# 
# 
# High freq. dielectric constant tensor:
#      x y z
#    x 1.729890 0.000000 0.006050 
#    y 0.000000 1.726660 0.000000 
#    z 0.006050 0.000000 1.728700 
# 
# From -- ./inp_files/206683.got.cif
#   From: 2010.06.25/outbox.cif.g09.slc.cpg/sg15_104_cif.got.tgz:206683.got - 2010.06.28 07:06:18.
