data_PCOD8145931
_publ_section_title
;
Structure prediction by ZEFSAII (Michael W. Deem and Ramdas Pophale) SiO2 
 PCOD8145931
Probable space group: C 2/C
;
_chemical_formula_sum "Si O2"
_cell_formula_units_Z 40
_cell_length_a 8.764576
_cell_length_b 23.596255
_cell_length_c 8.812695
_cell_angle_alpha 90.000000
_cell_angle_beta 74.022871
_cell_angle_gamma 90.000000
_cell_volume 1752.161129
_symmetry_space_group_name_H-M "C 2/C"
_symmetry_group_IT_number 15
_symmetry_cell_setting 'monoclinic'
loop_
_space_group_symop_operation_xyz
x,y,z
-x,y,1/2-z
-x,-y,-z
x,-y,1/2+z
1/2+x,1/2+y,z
1/2-x,1/2+y,1/2-z
1/2-x,1/2-y,-z
1/2+x,1/2-y,1/2+z
loop_
_atom_site_type_symbol
_atom_site_label
_atom_site_fract_x
_atom_site_fract_y
_atom_site_fract_z
Si Si1 0.877214 0.676994 0.403153
Si Si2 0.177677 0.541293 0.664018
Si Si3 0.447572 0.725683 0.099794
Si Si4 0.269333 0.435935 0.463696
Si Si5 0.558863 0.394642 0.561260
O O1 0.735735 0.706702 0.348867
O O2 0.971134 0.722576 0.478770
O O3 0.813845 0.625349 0.521026
O O4 0.000000 0.651467 0.250000
O O5 0.167830 0.478591 0.595988
O O6 0.280230 0.540654 0.790154
O O7 0.262988 0.582501 0.516727
O O8 0.000000 0.562803 0.750000
O O9 0.500000 0.747346 0.250000
O O10 0.554936 0.671971 0.019471
O O11 0.445586 0.431001 0.482527
O O12 0.500000 0.402625 0.750000
#
# Coordination Sequence:
#
# PCOD8145931 Si02
#       5
#     8   8   8   8   8
#     4  10  22  40  63  92 130 171 215 271 326 384
#     4  12  25  41  65  96 132 173 222 273 323 386
#     4   9  21  40  64  94 126 167 217 266 324 394
#     4  11  24  42  63  93 133 175 219 266 329 394
#     4  10  22  43  69  96 132 175 218 266 328 397
#
# _framework density 22.828951
#
# number of rings (size 3 to 8) (size 9 to 14) (size 15 to 20)
#    0.000    1.600    0.000    3.600    0.000   11.200 
#    0.000    0.000    0.000    0.000    0.000    0.000 
#    0.000    0.000    0.000    0.000    0.000    0.000 
#
# Total GULP energy -248038.640657 kJ/mol
# GULP energy per Si atom -12401.932033 kJ/mol
# Density = 2.277699 g / cm^3
# Si number density = 22.828951 Si / 1000 Ang^3
#
#
#
# Elastic Constant Matrix: (Units=GPa)
#
#
# Indices 1 2 3 4 5 6 
#
# 1 85.3841 44.9393 45.6201 0.0000 -7.5260 0.0000
# 2 44.9393 126.5514 56.8310 0.0000 -3.1361 0.0000
# 3 45.6201 56.8310 126.0294 0.0000 2.9427 0.0000
# 4 0.0000 0.0000 0.0000 15.3396 0.0000 2.7352
# 5 -7.5260 -3.1361 2.9427 0.0000 50.5216 0.0000
# 6 0.0000 0.0000 0.0000 2.7352 0.0000 20.2142
#
#
#
# Elastic Compliance Matrix: (Units=1/GPa)
#
#
# Indices 1 2 3 4 5 6 
#
# 1 0.016165 -0.003796 -0.004196 0.000000 0.002417 0.000000
# 2 -0.003796 0.010839 -0.003521 0.000000 0.000312 0.000000
# 3 -0.004196 -0.003521 0.011076 0.000000 -0.001489 0.000000
# 4 0.000000 0.000000 0.000000 0.066803 0.000000 -0.009039
# 5 0.002417 0.000312 -0.001489 0.000000 0.020260 0.000000
# 6 0.000000 0.000000 0.000000 -0.009039 0.000000 0.050693
#
#
# Mechanical properties :
#
#
# Convention : Reuss Voigt Hill
#
# Bulk Modulus (GPa) = 66.42838 70.30506 68.36672
# Shear Modulus (GPa) = 24.52445 29.92004 27.22225
#
# Velocity S-wave (km/s) = 3.28116 3.62417 3.45692
# Velocity P-wave (km/s) = 6.59668 6.95530 6.77836
#
# Compressibility (1/GPa) = 0.01505381
#
# Stress axis : x y z
#
# Youngs Moduli (GPa) = 61.86382 92.26162 90.28611
#
# Poissons Ratio (x) = 0.35022 0.37883
# Poissons Ratio (y) = 0.23483 0.31788
# Poissons Ratio (z) = 0.25958 0.32483
#
# Static dielectric constant tensor:
#      x y z
#    x 4.066430 0.000000 0.207920 
#    y 0.000000 4.128330 0.000000 
#    z 0.207920 0.000000 3.983460 
# 
# 
# High freq. dielectric constant tensor:
#      x y z
#    x 1.898490 0.000000 0.009770 
#    y 0.000000 1.904200 0.000000 
#    z 0.009770 0.000000 1.897800 
# 
# From -- ./inp_files/23398.got.cif
#   From: 2010.06.25/outbox.cif.g09.slc.cpg/sg15_12_cif.got.tgz:23398.got - 2010.06.28 07:06:18.
