data_PCOD8145512
_publ_section_title
;
Structure prediction by ZEFSAII (Michael W. Deem and Ramdas Pophale) SiO2 
 PCOD8145512
Probable space group: C 2/C
;
_chemical_formula_sum "Si O2"
_cell_formula_units_Z 52
_cell_length_a 16.378533
_cell_length_b 13.799057
_cell_length_c 21.167466
_cell_angle_alpha 90.000000
_cell_angle_beta 150.962079
_cell_angle_gamma 90.000000
_cell_volume 2322.109274
_symmetry_space_group_name_H-M "C 2/C"
_symmetry_group_IT_number 15
_symmetry_cell_setting 'monoclinic'
loop_
_space_group_symop_operation_xyz
x,y,z
-x,y,1/2-z
-x,-y,-z
x,-y,1/2+z
1/2+x,1/2+y,z
1/2-x,1/2+y,1/2-z
1/2-x,1/2-y,-z
1/2+x,1/2-y,1/2+z
loop_
_atom_site_type_symbol
_atom_site_label
_atom_site_fract_x
_atom_site_fract_y
_atom_site_fract_z
Si Si1 0.076532 0.741589 0.236730
Si Si2 0.500000 0.556006 0.250000
Si Si3 0.908642 0.715770 0.896836
Si Si4 0.434603 0.572982 0.590265
Si Si5 0.756309 0.829675 0.678774
Si Si6 0.218791 0.515608 0.722726
Si Si7 0.868043 0.466240 0.703968
O O1 0.279236 0.747179 0.363198
O O2 0.031108 0.627984 0.199737
O O3 0.000000 0.782150 0.250000
O O4 0.984170 0.812995 0.125424
O O5 0.596050 0.484134 0.364131
O O6 0.633905 0.624646 0.304191
O O7 0.870674 0.764890 0.803024
O O8 0.888075 0.599882 0.881251
O O9 0.103570 0.736150 0.047197
O O10 0.583718 0.517371 0.656428
O O11 0.275357 0.570673 0.438765
O O12 0.661833 0.912046 0.656586
O O13 0.197035 0.529721 0.782973
O O14 0.000000 0.526852 0.750000
#
# Coordination Sequence:
#
# PCOD8145512 Si02
#       7
#     8   4   8   8   8   8   8
#     4  10  22  39  59  98 126 171 210 270 330 394
#     4  10  24  46  68  92 128 176 222 280 330 398
#     4  11  25  42  71  98 135 177 224 275 334 401
#     4  10  22  42  65  90 131 175 222 269 342 389
#     4  11  25  46  70  99 133 177 227 278 335 397
#     4  10  23  44  64  98 132 181 217 272 333 395
#     4  11  24  37  64  98 131 169 218 279 327 405
#
# _framework density 22.393433999999999
#
# number of rings (size 3 to 8) (size 9 to 14) (size 15 to 20)
#    0.000    1.538    2.308    0.923    6.462    6.769 
#    1.385    0.000    0.000    0.000    0.000    0.000 
#    0.000    0.000    0.000    0.000    0.000    0.000 
#
# Total GULP energy -322145.477193 kJ/mol
# GULP energy per Si atom -12390.210661 kJ/mol
# Density = 2.234247 g / cm^3
# Si number density = 22.393434 Si / 1000 Ang^3
#
#
#
# Elastic Constant Matrix: (Units=GPa)
#
#
# Indices 1 2 3 4 5 6 
#
# 1 154.6452 8.9663 37.0799 -0.0006 -8.9540 -0.0004
# 2 8.9663 51.6630 12.6168 0.0027 -7.1575 -0.0005
# 3 37.0799 12.6168 88.2490 0.0049 -2.5825 0.0004
# 4 -0.0006 0.0027 0.0049 19.1345 0.0014 -3.7992
# 5 -8.9540 -7.1575 -2.5825 0.0014 20.6410 0.0000
# 6 -0.0004 -0.0005 0.0004 -3.7992 0.0000 16.7747
#
#
#
# Elastic Compliance Matrix: (Units=1/GPa)
#
#
# Indices 1 2 3 4 5 6 
#
# 1 0.007351 -0.000165 -0.002985 0.000001 0.002758 0.000000
# 2 -0.000165 0.021004 -0.002733 -0.000003 0.006870 0.000000
# 3 -0.002985 -0.002733 0.012958 -0.000003 -0.000621 -0.000001
# 4 0.000001 -0.000003 -0.000003 0.054722 -0.000005 0.012394
# 5 0.002758 0.006870 -0.000621 -0.000005 0.051948 -0.000001
# 6 0.000000 0.000000 -0.000001 0.012394 -0.000001 0.062421
#
#
# Mechanical properties :
#
#
# Convention : Reuss Voigt Hill
#
# Bulk Modulus (GPa) = 33.84161 45.76479 39.80320
# Shear Modulus (GPa) = 21.55002 27.03631 24.29317
#
# Velocity S-wave (km/s) = 3.10552 3.47844 3.29726
# Velocity P-wave (km/s) = 5.29189 6.05093 5.68410
#
# Compressibility (1/GPa) = 0.02954942
#
# Stress axis : x y z
#
# Youngs Moduli (GPa) = 136.03038 47.61010 77.17180
#
# Poissons Ratio (x) = 0.00785 0.23032
# Poissons Ratio (y) = 0.02242 0.21088
# Poissons Ratio (z) = 0.40599 0.13010
#
# Static dielectric constant tensor:
#      x y z
#    x 4.439090 -0.000010 0.008680 
#    y -0.000010 4.067720 -0.000010 
#    z 0.008680 -0.000010 3.715120 
# 
# 
# High freq. dielectric constant tensor:
#      x y z
#    x 1.897900 0.000000 -0.002100 
#    y 0.000000 1.874860 0.000000 
#    z -0.002100 0.000000 1.862640 
# 
# From -- ./inp_files/249135.got.cif
#   From: 2010.06.25/outbox.cif.g09.slc.cpg/sg15_125_cif.got.tgz:249135.got - 2010.06.28 07:06:18.
