data_PCOD8145426
_publ_section_title
;
Structure prediction by ZEFSAII (Michael W. Deem and Ramdas Pophale) SiO2 
 PCOD8145426
Probable space group: C 2/C
;
_chemical_formula_sum "Si O2"
_cell_formula_units_Z 40
_cell_length_a 13.477510
_cell_length_b 15.467606
_cell_length_c 9.215045
_cell_angle_alpha 90.000000
_cell_angle_beta 83.739766
_cell_angle_gamma 90.000000
_cell_volume 1909.557412
_symmetry_space_group_name_H-M "C 2/C"
_symmetry_group_IT_number 15
_symmetry_cell_setting 'monoclinic'
loop_
_space_group_symop_operation_xyz
x,y,z
-x,y,1/2-z
-x,-y,-z
x,-y,1/2+z
1/2+x,1/2+y,z
1/2-x,1/2+y,1/2-z
1/2-x,1/2-y,-z
1/2+x,1/2-y,1/2+z
loop_
_atom_site_type_symbol
_atom_site_label
_atom_site_fract_x
_atom_site_fract_y
_atom_site_fract_z
Si Si1 0.587991 0.599235 0.899516
Si Si2 0.866782 0.039318 0.905400
Si Si3 0.287108 0.837218 0.926271
Si Si4 0.170476 0.283142 0.895389
Si Si5 0.001956 0.591036 0.078630
O O1 0.469705 0.588106 0.924452
O O2 0.644414 0.542564 0.766218
O O3 0.607678 0.698739 0.862459
O O4 0.631509 0.561441 0.043965
O O5 0.779210 0.083915 0.008418
O O6 0.278764 0.825907 0.753675
O O7 0.397980 0.855192 0.968563
O O8 0.250000 0.750000 0.000000
O O9 0.092053 0.353868 0.968038
O O10 0.250000 0.250000 0.000000
O O11 0.000000 0.573746 0.250000
O O12 0.000000 0.500000 0.000000
#
# Coordination Sequence:
#
# PCOD8145426 Si02
#       5
#     8   8   8   8   8
#     4  10  22  41  62  92 129 161 215 269 330 381
#     4  10  22  38  67  90 123 164 214 269 323 387
#     4  11  22  41  68  92 124 177 222 261 334 393
#     4  11  25  42  64  94 134 172 215 274 327 393
#     4  10  25  44  67  95 133 173 220 272 331 393
#
# _framework density 20.947261999999998
#
# number of rings (size 3 to 8) (size 9 to 14) (size 15 to 20)
#    0.000    1.600    2.000    1.200   11.200    3.200 
#    0.000    2.000    0.000    0.000    0.000    0.000 
#    0.000    0.000    0.000    0.000    0.000    0.000 
#
# Total GULP energy -247917.464382 kJ/mol
# GULP energy per Si atom -12395.873219 kJ/mol
# Density = 2.089959 g / cm^3
# Si number density = 20.947262 Si / 1000 Ang^3
#
#
#
# Elastic Constant Matrix: (Units=GPa)
#
#
# Indices 1 2 3 4 5 6 
#
# 1 119.7724 44.7252 60.9064 0.0000 -8.6404 0.0000
# 2 44.7252 97.0689 36.7565 0.0000 -4.1625 0.0000
# 3 60.9064 36.7565 84.0794 0.0000 -10.0588 0.0000
# 4 0.0000 0.0000 0.0000 43.9259 0.0000 -4.0513
# 5 -8.6404 -4.1625 -10.0588 0.0000 36.2936 0.0000
# 6 0.0000 0.0000 0.0000 -4.0513 0.0000 34.5819
#
#
#
# Elastic Compliance Matrix: (Units=1/GPa)
#
#
# Indices 1 2 3 4 5 6 
#
# 1 0.013976 -0.003124 -0.008691 0.000000 0.000560 0.000000
# 2 -0.003124 0.013044 -0.003464 0.000000 -0.000208 0.000000
# 3 -0.008691 -0.003464 0.020074 0.000000 0.003097 0.000000
# 4 0.000000 0.000000 0.000000 0.023014 0.000000 0.002696
# 5 0.000560 -0.000208 0.003097 0.000000 0.028521 0.000000
# 6 0.000000 0.000000 0.000000 0.002696 0.000000 0.029233
#
#
# Mechanical properties :
#
#
# Convention : Reuss Voigt Hill
#
# Bulk Modulus (GPa) = 60.47711 65.07745 62.77728
# Shear Modulus (GPa) = 30.50019 33.52913 32.01466
#
# Velocity S-wave (km/s) = 3.81996 4.00515 3.91365
# Velocity P-wave (km/s) = 6.95629 7.24727 7.10327
#
# Compressibility (1/GPa) = 0.01653518
#
# Stress axis : x y z
#
# Youngs Moduli (GPa) = 71.55171 76.66137 49.81523
#
# Poissons Ratio (x) = 0.23953 0.43295
# Poissons Ratio (y) = 0.22356 0.17256
# Poissons Ratio (z) = 0.62186 0.26556
#
# Static dielectric constant tensor:
#      x y z
#    x 3.775970 0.000000 -0.156330 
#    y 0.000000 3.911090 0.000000 
#    z -0.156330 0.000000 3.955480 
# 
# 
# High freq. dielectric constant tensor:
#      x y z
#    x 1.821650 0.000000 -0.013580 
#    y 0.000000 1.829100 0.000000 
#    z -0.013580 0.000000 1.820210 
# 
# From -- ./inp_files/37866.got.cif
#   From: 2010.06.25/outbox.cif.g09.slc.cpg/sg15_19_cif.got.tgz:37866.got - 2010.06.28 07:06:18.
