data_PCOD8145081
_publ_section_title
;
Structure prediction by ZEFSAII (Michael W. Deem and Ramdas Pophale) SiO2 
 PCOD8145081
Probable space group: C 2/C
;
_chemical_formula_sum "Si O2"
_cell_formula_units_Z 64
_cell_length_a 14.824314
_cell_length_b 26.048965
_cell_length_c 14.625960
_cell_angle_alpha 90.000000
_cell_angle_beta 140.799055
_cell_angle_gamma 90.000000
_cell_volume 3569.730709
_symmetry_space_group_name_H-M "C 2/C"
_symmetry_group_IT_number 15
_symmetry_cell_setting 'monoclinic'
loop_
_space_group_symop_operation_xyz
x,y,z
-x,y,1/2-z
-x,-y,-z
x,-y,1/2+z
1/2+x,1/2+y,z
1/2-x,1/2+y,1/2-z
1/2-x,1/2-y,-z
1/2+x,1/2-y,1/2+z
loop_
_atom_site_type_symbol
_atom_site_label
_atom_site_fract_x
_atom_site_fract_y
_atom_site_fract_z
Si Si1 0.314530 0.303280 0.805370
Si Si2 0.395000 0.042818 0.881583
Si Si3 0.093228 0.377584 0.956969
Si Si4 0.056396 0.377783 0.393837
Si Si5 0.781429 0.385654 0.637636
Si Si6 0.863130 0.107655 0.205740
Si Si7 0.993355 0.708432 0.498675
Si Si8 0.645046 0.527872 0.137185
O O1 0.296084 0.335333 0.884143
O O2 0.371133 0.339894 0.769339
O O3 0.432179 0.260442 0.913342
O O4 0.163892 0.277294 0.661234
O O5 0.472174 0.072524 0.860890
O O6 0.255135 0.018302 0.730032
O O7 0.347859 0.081500 0.924767
O O8 0.500000 0.000000 0.000000
O O9 0.200367 0.377703 0.955944
O O10 0.932922 0.394527 0.805797
O O11 0.086435 0.320269 0.993651
O O12 0.224506 0.391018 0.531360
O O13 0.000000 0.363662 0.250000
O O14 0.020345 0.328736 0.426203
O O15 0.686153 0.435425 0.584472
O O16 0.856820 0.059579 0.269743
O O17 0.000000 0.102090 0.250000
O O18 0.500000 0.500000 0.000000
#
# Coordination Sequence:
#
# PCOD8145081 Si02
#       8
#     8   8   8   8   8   8   8   8
#     4   9  19  37  58  78 110 144 178 223 274 328
#     4  11  19  37  58  79 108 144 186 227 263 318
#     4   9  18  34  60  82 105 140 187 228 260 324
#     4  10  22  37  58  84 108 142 192 229 264 324
#     4   9  18  36  57  81 108 144 181 220 277 325
#     4  10  22  39  55  81 116 145 178 229 280 323
#     4   9  19  37  56  82 110 140 179 226 273 325
#     4  11  23  37  54  81 115 147 181 223 277 327
#
# _framework density 17.928522999999998
#
# number of rings (size 3 to 8) (size 9 to 14) (size 15 to 20)
#    0.000    2.250    2.500    1.500    1.750    4.000 
#    6.750    2.500    0.000    0.000    0.000    0.000 
#    0.000    0.000    0.000    0.000    0.000    0.000 
#
# Total GULP energy -396826.206272 kJ/mol
# GULP energy per Si atom -12400.818946 kJ/mol
# Density = 1.788772 g / cm^3
# Si number density = 17.928523 Si / 1000 Ang^3
#
#
#
# Elastic Constant Matrix: (Units=GPa)
#
#
# Indices 1 2 3 4 5 6 
#
# 1 116.1766 30.9979 35.6264 0.0000 3.4778 0.0000
# 2 30.9979 90.0905 40.7575 0.0000 17.0099 0.0000
# 3 35.6264 40.7575 89.7396 0.0000 10.7143 0.0000
# 4 0.0000 0.0000 0.0000 34.2436 0.0000 9.5114
# 5 3.4778 17.0099 10.7143 0.0000 28.2585 0.0000
# 6 0.0000 0.0000 0.0000 9.5114 0.0000 16.2614
#
#
#
# Elastic Compliance Matrix: (Units=1/GPa)
#
#
# Indices 1 2 3 4 5 6 
#
# 1 0.010149 -0.002328 -0.003132 0.000000 0.001340 0.000000
# 2 -0.002328 0.015660 -0.005338 0.000000 -0.007116 0.000000
# 3 -0.003132 -0.005338 0.015063 0.000000 -0.002113 0.000000
# 4 0.000000 0.000000 0.000000 0.034867 0.000000 -0.020394
# 5 0.001340 -0.007116 -0.002113 0.000000 0.040307 0.000000
# 6 0.000000 0.000000 0.000000 -0.020394 0.000000 0.073424
#
#
# Mechanical properties :
#
#
# Convention : Reuss Voigt Hill
#
# Bulk Modulus (GPa) = 51.87926 56.75227 54.31576
# Shear Modulus (GPa) = 22.98941 28.32770 25.65856
#
# Velocity S-wave (km/s) = 3.58478 3.97928 3.78717
# Velocity P-wave (km/s) = 6.79218 7.26886 7.03456
#
# Compressibility (1/GPa) = 0.01927553
#
# Stress axis : x y z
#
# Youngs Moduli (GPa) = 98.53152 63.85859 66.38608
#
# Poissons Ratio (x) = 0.14868 0.20790
# Poissons Ratio (y) = 0.22940 0.35439
# Poissons Ratio (z) = 0.30857 0.34090
#
# Static dielectric constant tensor:
#      x y z
#    x 3.228830 0.000000 -0.010750 
#    y 0.000000 3.192130 0.000000 
#    z -0.010750 0.000000 3.109750 
# 
# 
# High freq. dielectric constant tensor:
#      x y z
#    x 1.696460 0.000000 -0.001130 
#    y 0.000000 1.697580 0.000000 
#    z -0.001130 0.000000 1.685360 
# 
# From -- ./inp_files/156816.got.cif
#   From: 2010.06.25/outbox.cif.g09.slc.cpg/sg15_79_cif.got.tgz:156816.got - 2010.06.28 07:06:18.
