data_PCOD8145555
_publ_section_title
;
Structure prediction by ZEFSAII (Michael W. Deem and Ramdas Pophale) SiO2 
 PCOD8145555
Probable space group: C 2/C
;
_chemical_formula_sum "Si O2"
_cell_formula_units_Z 56
_cell_length_a 14.729190
_cell_length_b 11.655670
_cell_length_c 16.563863
_cell_angle_alpha 90.000000
_cell_angle_beta 67.783567
_cell_angle_gamma 90.000000
_cell_volume 2632.553289
_symmetry_space_group_name_H-M "C 2/C"
_symmetry_group_IT_number 15
_symmetry_cell_setting 'monoclinic'
loop_
_space_group_symop_operation_xyz
x,y,z
-x,y,1/2-z
-x,-y,-z
x,-y,1/2+z
1/2+x,1/2+y,z
1/2-x,1/2+y,1/2-z
1/2-x,1/2-y,-z
1/2+x,1/2-y,1/2+z
loop_
_atom_site_type_symbol
_atom_site_label
_atom_site_fract_x
_atom_site_fract_y
_atom_site_fract_z
Si Si1 0.426231 0.729128 0.710774
Si Si2 0.526355 0.627957 0.965276
Si Si3 0.225661 0.202107 0.230665
Si Si4 0.250403 0.338775 0.070903
Si Si5 0.849025 0.746592 0.572496
Si Si6 0.385524 0.504770 0.802665
Si Si7 0.256232 0.437241 0.490034
O O1 0.500000 0.792028 0.750000
O O2 0.492407 0.659160 0.623199
O O3 0.344909 0.813774 0.699389
O O4 0.364822 0.633604 0.780261
O O5 0.639431 0.640480 0.940864
O O6 0.500000 0.500000 0.000000
O O7 0.464822 0.724107 0.034721
O O8 0.195185 0.286603 0.167284
O O9 0.183895 0.258632 0.324780
O O10 0.180009 0.078047 0.230699
O O11 0.250000 0.250000 0.000000
O O12 0.203249 0.459248 0.056920
O O13 0.824848 0.624418 0.538976
O O14 0.797363 0.849247 0.541450
O O15 0.500000 0.470797 0.750000
O O16 0.345549 0.503595 0.908625
#
# Coordination Sequence:
#
# PCOD8145555 Si02
#       7
#     8   8   8   8   8   8   8
#     4  10  22  39  61  92 128 161 211 270 321 378
#     4  11  22  38  65  98 122 164 222 265 316 387
#     4  11  24  37  63  97 129 166 216 272 325 387
#     4  11  24  43  62  90 135 172 208 267 337 384
#     4  11  23  38  64 101 126 166 223 275 314 386
#     4  11  22  39  66  96 129 165 218 271 319 386
#     4  11  23  40  63  94 137 170 208 267 339 379
#
# _framework density 21.272123000000001
#
# number of rings (size 3 to 8) (size 9 to 14) (size 15 to 20)
#    0.000    1.143    4.286    2.571    6.000    0.000 
#    0.000    0.714    0.000    0.857    3.714    0.000 
#    0.000    0.000    0.000    0.000    0.000    0.000 
#
# Total GULP energy -347026.903868 kJ/mol
# GULP energy per Si atom -12393.817995 kJ/mol
# Density = 2.122371 g / cm^3
# Si number density = 21.272123 Si / 1000 Ang^3
#
#
#
# Elastic Constant Matrix: (Units=GPa)
#
#
# Indices 1 2 3 4 5 6 
#
# 1 63.5966 38.7653 19.7136 0.0000 6.5112 0.0000
# 2 38.7653 81.8621 15.0274 0.0000 8.3447 0.0000
# 3 19.7136 15.0274 114.4541 0.0000 20.8641 0.0000
# 4 0.0000 0.0000 0.0000 28.8740 0.0000 1.3728
# 5 6.5112 8.3447 20.8641 0.0000 33.7061 0.0000
# 6 0.0000 0.0000 0.0000 1.3728 0.0000 39.4707
#
#
#
# Elastic Compliance Matrix: (Units=1/GPa)
#
#
# Indices 1 2 3 4 5 6 
#
# 1 0.022824 -0.010315 -0.002523 0.000000 -0.000293 0.000000
# 2 -0.010315 0.017346 -0.000092 0.000000 -0.002245 0.000000
# 3 -0.002523 -0.000092 0.010247 0.000000 -0.005833 0.000000
# 4 0.000000 0.000000 0.000000 0.034691 0.000000 -0.001207
# 5 -0.000293 -0.002245 -0.005833 0.000000 0.033891 0.000000
# 6 0.000000 0.000000 0.000000 -0.001207 0.000000 0.025377
#
#
# Mechanical properties :
#
#
# Convention : Reuss Voigt Hill
#
# Bulk Modulus (GPa) = 40.72154 45.21392 42.96773
# Shear Modulus (GPa) = 28.02354 32.83724 30.43039
#
# Velocity S-wave (km/s) = 3.63352 3.93323 3.78634
# Velocity P-wave (km/s) = 6.06531 6.47520 6.27360
#
# Compressibility (1/GPa) = 0.02455703
#
# Stress axis : x y z
#
# Youngs Moduli (GPa) = 43.81383 57.65047 97.58898
#
# Poissons Ratio (x) = 0.59466 0.24626
# Poissons Ratio (y) = 0.45194 0.00893
# Poissons Ratio (z) = 0.11056 0.00528
#
# Static dielectric constant tensor:
#      x y z
#    x 3.921860 0.000000 0.144050 
#    y 0.000000 3.848630 0.000000 
#    z 0.144050 0.000000 4.506050 
# 
# 
# High freq. dielectric constant tensor:
#      x y z
#    x 1.825040 0.000000 0.018040 
#    y 0.000000 1.813250 0.000000 
#    z 0.018040 0.000000 1.849810 
# 
# From -- ./inp_files/204352.got.cif
#   From: 2010.06.25/outbox.cif.g09.slc.cpg/sg15_103_cif.got.tgz:204352.got - 2010.06.28 07:06:18.
