data_PCOD8145113
_publ_section_title
;
Structure prediction by ZEFSAII (Michael W. Deem and Ramdas Pophale) SiO2 
 PCOD8145113
Probable space group: C 2/C
;
_chemical_formula_sum "Si O2"
_cell_formula_units_Z 40
_cell_length_a 16.182640
_cell_length_b 9.437582
_cell_length_c 12.576587
_cell_angle_alpha 90.000000
_cell_angle_beta 104.523295
_cell_angle_gamma 90.000000
_cell_volume 1859.382754
_symmetry_space_group_name_H-M "C 2/C"
_symmetry_group_IT_number 15
_symmetry_cell_setting 'monoclinic'
loop_
_space_group_symop_operation_xyz
x,y,z
-x,y,1/2-z
-x,-y,-z
x,-y,1/2+z
1/2+x,1/2+y,z
1/2-x,1/2+y,1/2-z
1/2-x,1/2-y,-z
1/2+x,1/2-y,1/2+z
loop_
_atom_site_type_symbol
_atom_site_label
_atom_site_fract_x
_atom_site_fract_y
_atom_site_fract_z
Si Si1 0.709709 0.522972 0.957969
Si Si2 0.103774 0.710296 0.690707
Si Si3 0.218264 0.696418 0.345812
Si Si4 0.576517 0.718833 0.416650
Si Si5 0.362448 0.086630 0.379082
O O1 0.680353 0.676835 0.905576
O O2 0.626885 0.427405 0.955737
O O3 0.766999 0.444195 0.889610
O O4 0.767964 0.552130 0.081335
O O5 0.189596 0.770228 0.671177
O O6 0.111185 0.705152 0.821079
O O7 0.086294 0.554960 0.635693
O O8 0.024622 0.810922 0.629998
O O9 0.148545 0.675483 0.232380
O O10 0.586062 0.823527 0.518974
#
# Coordination Sequence:
#
# PCOD8145113 Si02
#       5
#     8   8   8   8   8
#     4  10  22  37  61  91 121 160 216 252 308 370
#     4  10  23  39  58  92 127 161 206 261 311 370
#     4  10  22  39  60  91 124 161 209 267 296 371
#     4  11  22  38  62  89 124 166 207 254 315 378
#     4  11  21  37  65  86 121 167 212 250 311 372
#
# _framework density 21.512515
#
# number of rings (size 3 to 8) (size 9 to 14) (size 15 to 20)
#    0.000    1.600    2.000    2.400    5.600    0.800 
#    0.000    2.000    0.000    0.000    0.000    0.000 
#    0.000    0.000    0.000    0.000    0.000    0.000 
#
# Total GULP energy -247977.730449 kJ/mol
# GULP energy per Si atom -12398.886522 kJ/mol
# Density = 2.146355 g / cm^3
# Si number density = 21.512515 Si / 1000 Ang^3
#
#
#
# Elastic Constant Matrix: (Units=GPa)
#
#
# Indices 1 2 3 4 5 6 
#
# 1 48.6204 27.1846 7.3148 0.0000 4.4703 0.0000
# 2 27.1846 89.1857 44.2063 0.0000 9.6042 0.0000
# 3 7.3148 44.2063 141.6518 0.0000 11.7035 0.0000
# 4 0.0000 0.0000 0.0000 34.2577 0.0000 -0.8720
# 5 4.4703 9.6042 11.7035 0.0000 25.9850 0.0000
# 6 0.0000 0.0000 0.0000 -0.8720 0.0000 31.8599
#
#
#
# Elastic Compliance Matrix: (Units=1/GPa)
#
#
# Indices 1 2 3 4 5 6 
#
# 1 0.025081 -0.008131 0.001403 0.000000 -0.001941 0.000000
# 2 -0.008131 0.016154 -0.004408 0.000000 -0.002587 0.000000
# 3 0.001403 -0.004408 0.008567 0.000000 -0.002471 0.000000
# 4 0.000000 0.000000 0.000000 0.029211 0.000000 0.000800
# 5 -0.001941 -0.002587 -0.002471 0.000000 0.040886 0.000000
# 6 0.000000 0.000000 0.000000 0.000800 0.000000 0.031409
#
#
# Mechanical properties :
#
#
# Convention : Reuss Voigt Hill
#
# Bulk Modulus (GPa) = 36.32406 48.54103 42.43255
# Shear Modulus (GPa) = 27.35852 31.80400 29.58126
#
# Velocity S-wave (km/s) = 3.57003 3.84916 3.71222
# Velocity P-wave (km/s) = 5.82368 6.50906 6.17588
#
# Compressibility (1/GPa) = 0.02752996
#
# Stress axis : x y z
#
# Youngs Moduli (GPa) = 39.87030 61.90269 116.72936
#
# Poissons Ratio (x) = 0.50335 -0.16375
# Poissons Ratio (y) = 0.32420 0.51452
# Poissons Ratio (z) = -0.05593 0.27286
#
# Static dielectric constant tensor:
#      x y z
#    x 3.578300 0.000000 -0.163040 
#    y 0.000000 3.892010 0.000000 
#    z -0.163040 0.000000 4.124650 
# 
# 
# High freq. dielectric constant tensor:
#      x y z
#    x 1.822720 0.000000 -0.003820 
#    y 0.000000 1.834830 0.000000 
#    z -0.003820 0.000000 1.864730 
# 
# From -- ./inp_files/102667.got.cif
#   From: 2010.06.25/outbox.cif.g09.slc.cpg/sg15_52_cif.got.tgz:102667.got - 2010.06.28 07:06:18.
