data_PCOD8145059
_publ_section_title
;
Structure prediction by ZEFSAII (Michael W. Deem and Ramdas Pophale) SiO2 
 PCOD8145059
Probable space group: C 2/C
;
_chemical_formula_sum "Si O2"
_cell_formula_units_Z 56
_cell_length_a 15.862309
_cell_length_b 9.440242
_cell_length_c 26.159186
_cell_angle_alpha 90.000000
_cell_angle_beta 43.164585
_cell_angle_gamma 90.000000
_cell_volume 2679.730134
_symmetry_space_group_name_H-M "C 2/C"
_symmetry_group_IT_number 15
_symmetry_cell_setting 'monoclinic'
loop_
_space_group_symop_operation_xyz
x,y,z
-x,y,1/2-z
-x,-y,-z
x,-y,1/2+z
1/2+x,1/2+y,z
1/2-x,1/2+y,1/2-z
1/2-x,1/2-y,-z
1/2+x,1/2-y,1/2+z
loop_
_atom_site_type_symbol
_atom_site_label
_atom_site_fract_x
_atom_site_fract_y
_atom_site_fract_z
Si Si1 0.210976 0.339780 0.237394
Si Si2 0.813327 0.997819 0.389517
Si Si3 0.567835 0.228365 0.627650
Si Si4 0.138931 0.494488 0.174329
Si Si5 0.290530 0.954203 0.669791
Si Si6 0.438799 0.001816 0.446643
Si Si7 0.344144 0.210769 0.413549
O O1 0.219531 0.457220 0.188577
O O2 0.298702 0.204396 0.189748
O O3 0.245720 0.424940 0.273236
O O4 0.076655 0.269350 0.297429
O O5 0.876057 0.114802 0.397643
O O6 0.811346 0.037811 0.330414
O O7 0.671116 0.963226 0.466393
O O8 0.892665 0.856305 0.366544
O O9 0.589458 0.154973 0.563177
O O10 0.637954 0.148149 0.641758
O O11 0.208278 0.617483 0.111001
O O12 0.000000 0.544691 0.250000
O O13 0.426988 0.988874 0.586704
O O14 0.447676 0.112170 0.394457
O O15 0.250000 0.250000 0.500000
#
# Coordination Sequence:
#
# PCOD8145059 Si02
#       7
#     8   8   8   8   8   8   8
#     4  10  22  37  54  80 120 150 188 238 291 343
#     4  11  20  35  61  87 110 141 197 239 272 338
#     4   9  18  36  59  83 106 146 193 235 276 337
#     4   9  17  36  57  78 109 153 189 228 289 342
#     4  11  23  37  56  84 115 152 187 233 289 344
#     4   9  20  39  58  80 116 152 182 228 294 344
#     4   9  20  36  58  84 113 145 191 238 281 337
#
# _framework density 20.897628000000001
#
# number of rings (size 3 to 8) (size 9 to 14) (size 15 to 20)
#    0.000    2.286    1.429    1.714    2.000    1.143 
#    2.571    0.000    0.000    1.714    0.000    0.000 
#    0.000    0.000    0.000    0.000    0.000    0.000 
#
# Total GULP energy -346969.432573 kJ/mol
# GULP energy per Si atom -12391.765449 kJ/mol
# Density = 2.085006 g / cm^3
# Si number density = 20.897628 Si / 1000 Ang^3
#
#
#
# Elastic Constant Matrix: (Units=GPa)
#
#
# Indices 1 2 3 4 5 6 
#
# 1 63.1932 42.2982 5.6992 0.0000 6.0627 0.0000
# 2 42.2982 151.6491 24.4819 0.0000 9.8963 -0.0001
# 3 5.6992 24.4819 50.8738 0.0000 11.4672 0.0000
# 4 0.0000 0.0000 0.0000 30.4961 0.0000 5.2594
# 5 6.0627 9.8963 11.4672 0.0000 16.7863 0.0000
# 6 0.0000 -0.0001 0.0000 5.2594 0.0000 26.9200
#
#
#
# Elastic Compliance Matrix: (Units=1/GPa)
#
#
# Indices 1 2 3 4 5 6 
#
# 1 0.019811 -0.005447 0.001526 0.000000 -0.004986 0.000000
# 2 -0.005447 0.008717 -0.003392 0.000000 -0.000855 0.000000
# 3 0.001526 -0.003392 0.024575 0.000000 -0.015340 0.000000
# 4 0.000000 0.000000 0.000000 0.033934 0.000000 -0.006630
# 5 -0.004986 -0.000855 -0.015340 0.000000 0.072356 0.000000
# 6 0.000000 0.000000 0.000000 -0.006630 0.000000 0.038442
#
#
# Mechanical properties :
#
#
# Convention : Reuss Voigt Hill
#
# Bulk Modulus (GPa) = 25.98931 45.63054 35.80992
# Shear Modulus (GPa) = 22.19386 27.72293 24.95840
#
# Velocity S-wave (km/s) = 3.26241 3.64621 3.45964
# Velocity P-wave (km/s) = 5.16281 6.29358 5.75603
#
# Compressibility (1/GPa) = 0.03847736
#
# Stress axis : x y z
#
# Youngs Moduli (GPa) = 50.47720 114.72238 40.69099
#
# Poissons Ratio (x) = 0.62485 -0.06208
# Poissons Ratio (y) = 0.27493 0.13802
# Poissons Ratio (z) = -0.07701 0.38913
#
# Static dielectric constant tensor:
#      x y z
#    x 3.613510 0.000000 0.254700 
#    y 0.000000 3.926170 0.000000 
#    z 0.254700 0.000000 3.557160 
# 
# 
# High freq. dielectric constant tensor:
#      x y z
#    x 1.800510 0.000000 0.024110 
#    y 0.000000 1.825120 0.000000 
#    z 0.024110 0.000000 1.799370 
# 
# From -- ./inp_files/247006.got.cif
#   From: 2010.06.25/outbox.cif.g09.slc.cpg/sg15_124_cif.got.tgz:247006.got - 2010.06.28 07:06:18.
