data_PCOD8145857
_publ_section_title
;
Structure prediction by ZEFSAII (Michael W. Deem and Ramdas Pophale) SiO2 
 PCOD8145857
Probable space group: C 2/C
;
_chemical_formula_sum "Si O2"
_cell_formula_units_Z 48
_cell_length_a 5.010638
_cell_length_b 17.939591
_cell_length_c 27.454542
_cell_angle_alpha 90.000000
_cell_angle_beta 113.160091
_cell_angle_gamma 90.000000
_cell_volume 2268.970042
_symmetry_space_group_name_H-M "C 2/C"
_symmetry_group_IT_number 15
_symmetry_cell_setting 'monoclinic'
loop_
_space_group_symop_operation_xyz
x,y,z
-x,y,1/2-z
-x,-y,-z
x,-y,1/2+z
1/2+x,1/2+y,z
1/2-x,1/2+y,1/2-z
1/2-x,1/2-y,-z
1/2+x,1/2-y,1/2+z
loop_
_atom_site_type_symbol
_atom_site_label
_atom_site_fract_x
_atom_site_fract_y
_atom_site_fract_z
Si Si1 0.489869 0.637928 0.424247
Si Si2 0.248638 0.859640 0.044383
Si Si3 0.682689 0.477268 0.119426
Si Si4 0.441666 0.768087 0.908408
Si Si5 0.166866 0.847292 0.362927
Si Si6 0.317823 0.075153 0.784800
O O1 0.719828 0.628289 0.484731
O O2 0.436078 0.559606 0.394859
O O3 0.635177 0.689579 0.393208
O O4 0.197278 0.671362 0.426029
O O5 0.197262 0.938359 0.067573
O O6 0.027988 0.794449 0.046529
O O7 0.571449 0.831775 0.080541
O O8 0.473226 0.428497 0.138462
O O9 0.996997 0.482075 0.168535
O O10 0.441429 0.720324 0.857553
O O11 0.271700 0.849263 0.314152
O O12 0.500000 0.097345 0.750000
O O13 0.000000 0.040558 0.750000
#
# Coordination Sequence:
#
# PCOD8145857 Si02
#       6
#     8   8   8   8   8   8
#     4  12  25  37  62  94 135 182 203 248 315 366
#     4  10  22  40  61  90 136 175 220 249 290 370
#     4  10  24  40  63  99 126 161 214 265 313 367
#     4  11  24  39  60  91 134 172 217 247 297 375
#     4  10  22  42  62  98 123 162 211 268 304 372
#     4  11  22  41  71  96 113 153 212 273 324 379
#
# _framework density 21.154972999999998
#
# number of rings (size 3 to 8) (size 9 to 14) (size 15 to 20)
#    0.000    1.333    3.333    1.500    9.333    0.667 
#    0.000    0.000    0.000    1.000   21.667    0.000 
#    0.000    0.000    0.000    0.000    0.000    0.000 
#
# Total GULP energy -297424.806784 kJ/mol
# GULP energy per Si atom -12392.700283 kJ/mol
# Density = 2.110682 g / cm^3
# Si number density = 21.154973 Si / 1000 Ang^3
#
#
#
# Elastic Constant Matrix: (Units=GPa)
#
#
# Indices 1 2 3 4 5 6 
#
# 1 127.8526 50.7794 39.6184 0.0000 -4.1842 0.0000
# 2 50.7794 134.4183 49.1102 0.0000 -6.2696 0.0000
# 3 39.6184 49.1102 87.5675 0.0000 -0.4528 0.0000
# 4 0.0000 0.0000 0.0000 6.9942 0.0000 2.3700
# 5 -4.1842 -6.2696 -0.4528 0.0000 33.5291 0.0000
# 6 0.0000 0.0000 0.0000 2.3700 0.0000 32.6866
#
#
#
# Elastic Compliance Matrix: (Units=1/GPa)
#
#
# Indices 1 2 3 4 5 6 
#
# 1 0.009792 -0.002577 -0.002981 0.000000 0.000700 0.000000
# 2 -0.002577 0.010130 -0.004508 0.000000 0.001512 0.000000
# 3 -0.002981 -0.004508 0.015291 0.000000 -0.001008 0.000000
# 4 0.000000 0.000000 0.000000 0.146578 0.000000 -0.010628
# 5 0.000700 0.001512 -0.001008 0.000000 0.030181 0.000000
# 6 0.000000 0.000000 0.000000 -0.010628 0.000000 0.031364
#
#
# Mechanical properties :
#
#
# Convention : Reuss Voigt Hill
#
# Bulk Modulus (GPa) = 66.30584 69.87268 68.08926
# Shear Modulus (GPa) = 18.62227 28.66400 23.64314
#
# Velocity S-wave (km/s) = 2.97017 3.68496 3.34670
# Velocity P-wave (km/s) = 6.57065 7.15583 6.86948
#
# Compressibility (1/GPa) = 0.01508163
#
# Stress axis : x y z
#
# Youngs Moduli (GPa) = 102.12630 98.71226 65.39679
#
# Poissons Ratio (x) = 0.25441 0.19496
# Poissons Ratio (y) = 0.26321 0.29478
# Poissons Ratio (z) = 0.30445 0.44495
#
# Static dielectric constant tensor:
#      x y z
#    x 4.167430 0.000000 -0.051310 
#    y 0.000000 3.597060 0.000000 
#    z -0.051310 0.000000 3.734870 
# 
# 
# High freq. dielectric constant tensor:
#      x y z
#    x 1.856880 0.000000 -0.006700 
#    y 0.000000 1.802100 0.000000 
#    z -0.006700 0.000000 1.801500 
# 
# From -- ./inp_files/285937.got.cif
#   From: 2010.06.25/outbox.cif.g09.slc.cpg/sg15_143_cif.got.tgz:285937.got - 2010.06.28 07:06:18.
