data_PCOD8145021
_publ_section_title
;
Structure prediction by ZEFSAII (Michael W. Deem and Ramdas Pophale) SiO2 
 PCOD8145021
Probable space group: C 2/C
;
_chemical_formula_sum "Si O2"
_cell_formula_units_Z 48
_cell_length_a 12.704976
_cell_length_b 18.862469
_cell_length_c 14.282631
_cell_angle_alpha 90.000000
_cell_angle_beta 138.179882
_cell_angle_gamma 90.000000
_cell_volume 2282.298305
_symmetry_space_group_name_H-M "C 2/C"
_symmetry_group_IT_number 15
_symmetry_cell_setting 'monoclinic'
loop_
_space_group_symop_operation_xyz
x,y,z
-x,y,1/2-z
-x,-y,-z
x,-y,1/2+z
1/2+x,1/2+y,z
1/2-x,1/2+y,1/2-z
1/2-x,1/2-y,-z
1/2+x,1/2-y,1/2+z
loop_
_atom_site_type_symbol
_atom_site_label
_atom_site_fract_x
_atom_site_fract_y
_atom_site_fract_z
Si Si1 0.346440 0.225553 0.213616
Si Si2 0.354694 0.964064 0.513813
Si Si3 0.950801 0.319477 0.497845
Si Si4 0.824355 0.921517 0.930728
Si Si5 0.455137 0.897948 0.325542
Si Si6 0.157357 0.960379 0.202688
O O1 0.500000 0.228236 0.250000
O O2 0.416386 0.229620 0.365724
O O3 0.238632 0.156813 0.127656
O O4 0.229167 0.290636 0.115683
O O5 0.453322 0.892982 0.558113
O O6 0.295815 0.963872 0.581832
O O7 0.212467 0.971110 0.345812
O O8 0.468670 0.030993 0.581733
O O9 0.003795 0.332351 0.425394
O O10 0.849020 0.962090 0.849135
O O11 0.991203 0.919757 0.094957
O O12 0.500000 0.878131 0.250000
O O13 0.268816 0.909161 0.214830
#
# Coordination Sequence:
#
# PCOD8145021 Si02
#       6
#     8   8   8   8   8   8
#     4  12  25  43  65  96 133 176 211 265 328 394
#     4  11  21  39  66  93 128 167 216 266 329 386
#     4  11  26  40  66  94 131 169 222 259 320 389
#     4  11  22  38  64  94 134 163 211 271 330 383
#     4  11  22  42  69  90 126 173 223 264 323 379
#     4  10  22  36  61  99 128 164 211 277 323 375
#
# _framework density 21.031431999999999
#
# number of rings (size 3 to 8) (size 9 to 14) (size 15 to 20)
#    0.000    1.000    3.333    5.000    4.667    0.000 
#    0.000    0.833    0.000    0.000    0.000    0.000 
#    0.000    0.000    0.000    0.000    0.000    0.000 
#
# Total GULP energy -297592.320710 kJ/mol
# GULP energy per Si atom -12399.680030 kJ/mol
# Density = 2.098356 g / cm^3
# Si number density = 21.031432 Si / 1000 Ang^3
#
#
#
# Elastic Constant Matrix: (Units=GPa)
#
#
# Indices 1 2 3 4 5 6 
#
# 1 82.5418 32.1795 19.7263 0.0000 -5.5006 0.0000
# 2 32.1795 62.2675 25.0036 0.0000 -0.7503 0.0000
# 3 19.7263 25.0036 92.5189 0.0000 -0.2570 0.0000
# 4 0.0000 0.0000 0.0000 30.7172 0.0000 6.0691
# 5 -5.5006 -0.7503 -0.2570 0.0000 36.9923 0.0000
# 6 0.0000 0.0000 0.0000 6.0691 0.0000 29.0530
#
#
#
# Elastic Compliance Matrix: (Units=1/GPa)
#
#
# Indices 1 2 3 4 5 6 
#
# 1 0.015470 -0.007456 -0.001277 0.000000 0.002140 0.000000
# 2 -0.007456 0.021612 -0.004253 0.000000 -0.000700 0.000000
# 3 -0.001277 -0.004253 0.012230 0.000000 -0.000191 0.000000
# 4 0.000000 0.000000 0.000000 0.033957 0.000000 -0.007093
# 5 0.002140 -0.000700 -0.000191 0.000000 0.027335 0.000000
# 6 0.000000 0.000000 0.000000 -0.007093 0.000000 0.035902
#
#
# Mechanical properties :
#
#
# Convention : Reuss Voigt Hill
#
# Bulk Modulus (GPa) = 42.84661 43.46079 43.15370
# Shear Modulus (GPa) = 27.73802 30.04709 28.89256
#
# Velocity S-wave (km/s) = 3.63558 3.78388 3.71047
# Velocity P-wave (km/s) = 6.16767 6.30872 6.23859
#
# Compressibility (1/GPa) = 0.02333907
#
# Stress axis : x y z
#
# Youngs Moduli (GPa) = 64.64238 46.26988 81.76726
#
# Poissons Ratio (x) = 0.34499 0.10445
# Poissons Ratio (y) = 0.48197 0.34776
# Poissons Ratio (z) = 0.08257 0.19679
#
# Static dielectric constant tensor:
#      x y z
#    x 3.743080 0.000000 -0.076480 
#    y 0.000000 3.653210 0.000000 
#    z -0.076480 0.000000 4.128370 
# 
# 
# High freq. dielectric constant tensor:
#      x y z
#    x 1.813410 0.000000 -0.004590 
#    y 0.000000 1.804950 0.000000 
#    z -0.004590 0.000000 1.846760 
# 
# From -- ./inp_files/147362.got.cif
#   From: 2010.06.25/outbox.cif.g09.slc.cpg/sg15_74_cif.got.tgz:147362.got - 2010.06.28 07:06:18.
