data_PCOD8145437
_publ_section_title
;
Structure prediction by ZEFSAII (Michael W. Deem and Ramdas Pophale) SiO2 
 PCOD8145437
Probable space group: C 2/C
;
_chemical_formula_sum "Si O2"
_cell_formula_units_Z 56
_cell_length_a 28.926662
_cell_length_b 9.026184
_cell_length_c 11.634848
_cell_angle_alpha 90.000000
_cell_angle_beta 123.890336
_cell_angle_gamma 90.000000
_cell_volume 2521.720518
_symmetry_space_group_name_H-M "C 2/C"
_symmetry_group_IT_number 15
_symmetry_cell_setting 'monoclinic'
loop_
_space_group_symop_operation_xyz
x,y,z
-x,y,1/2-z
-x,-y,-z
x,-y,1/2+z
1/2+x,1/2+y,z
1/2-x,1/2+y,1/2-z
1/2-x,1/2-y,-z
1/2+x,1/2-y,1/2+z
loop_
_atom_site_type_symbol
_atom_site_label
_atom_site_fract_x
_atom_site_fract_y
_atom_site_fract_z
Si Si1 0.941826 0.750402 0.562124
Si Si2 0.164990 0.372613 0.676096
Si Si3 0.487746 0.250321 0.060002
Si Si4 0.500000 0.998867 0.750000
Si Si5 0.500000 0.496195 0.250000
Si Si6 0.357598 0.209913 0.899177
Si Si7 0.742847 0.661529 0.371538
Si Si8 0.294844 0.859741 0.521665
O O1 0.884280 0.745563 0.414218
O O2 0.946889 0.898795 0.646307
O O3 0.993728 0.748953 0.545754
O O4 0.947059 0.605854 0.652012
O O5 0.147909 0.532891 0.608510
O O6 0.216576 0.295144 0.679334
O O7 0.171606 0.407188 0.819288
O O8 0.511675 0.103236 0.155214
O O9 0.514015 0.393327 0.159946
O O10 0.420927 0.260029 0.972385
O O11 0.320136 0.303251 0.756713
O O12 0.335747 0.236990 0.997612
O O13 0.750000 0.750000 0.500000
O O14 0.759040 0.491781 0.414872
O O15 0.250000 0.750000 0.500000
#
# Coordination Sequence:
#
# PCOD8145437 Si02
#       8
#     8   8   8   4   4   8   8   8
#     4  11  24  44  70  98 137 179 221 278 341 403
#     4  11  24  42  71 103 133 176 228 275 335 402
#     4  11  24  43  69  98 136 175 226 278 336 404
#     4  10  22  38  68 102 128 168 224 274 332 398
#     4  10  26  46  60  96 140 178 230 268 336 402
#     4  11  24  43  68 104 133 177 225 280 336 396
#     4  11  24  44  68  99 139 172 225 279 335 397
#     4  11  24  44  68  95 140 177 223 276 333 401
#
# _framework density 22.207060999999999
#
# number of rings (size 3 to 8) (size 9 to 14) (size 15 to 20)
#    0.000    1.143    4.286    0.857    4.000    3.429 
#    5.143    0.000    0.000    0.000    0.000    0.000 
#    0.000    0.000    0.000    0.000    0.000    0.000 
#
# Total GULP energy -346959.418692 kJ/mol
# GULP energy per Si atom -12391.407810 kJ/mol
# Density = 2.215652 g / cm^3
# Si number density = 22.207061 Si / 1000 Ang^3
#
#
#
# Elastic Constant Matrix: (Units=GPa)
#
#
# Indices 1 2 3 4 5 6 
#
# 1 129.5306 26.0068 56.2006 0.0000 5.8665 0.0000
# 2 26.0068 106.8546 41.0117 0.0000 10.8197 0.0000
# 3 56.2006 41.0117 129.3622 0.0000 -2.5548 0.0000
# 4 0.0000 0.0000 0.0000 35.9461 0.0000 2.7465
# 5 5.8665 10.8197 -2.5548 0.0000 30.0171 0.0000
# 6 0.0000 0.0000 0.0000 2.7465 0.0000 19.0543
#
#
#
# Elastic Compliance Matrix: (Units=1/GPa)
#
#
# Indices 1 2 3 4 5 6 
#
# 1 0.009694 -0.000595 -0.004063 0.000000 -0.002026 0.000000
# 2 -0.000595 0.011230 -0.003385 0.000000 -0.004220 0.000000
# 3 -0.004063 -0.003385 0.010626 0.000000 0.002919 0.000000
# 4 0.000000 0.000000 0.000000 0.028129 0.000000 -0.004055
# 5 -0.002026 -0.004220 0.002919 0.000000 0.035480 0.000000
# 6 0.000000 0.000000 0.000000 -0.004055 0.000000 0.053066
#
#
# Mechanical properties :
#
#
# Convention : Reuss Voigt Hill
#
# Bulk Modulus (GPa) = 64.66510 68.02064 66.34287
# Shear Modulus (GPa) = 29.50448 33.17207 31.33828
#
# Velocity S-wave (km/s) = 3.64896 3.86912 3.76065
# Velocity P-wave (km/s) = 6.85096 7.11736 6.98543
#
# Compressibility (1/GPa) = 0.01546429
#
# Stress axis : x y z
#
# Youngs Moduli (GPa) = 103.15406 89.04893 94.10697
#
# Poissons Ratio (x) = 0.05297 0.38236
# Poissons Ratio (y) = 0.06136 0.31856
# Poissons Ratio (z) = 0.41912 0.30144
#
# Static dielectric constant tensor:
#      x y z
#    x 3.833350 0.000000 0.030370 
#    y 0.000000 4.009940 0.000000 
#    z 0.030370 0.000000 3.823230 
# 
# 
# High freq. dielectric constant tensor:
#      x y z
#    x 1.854350 0.000000 -0.009170 
#    y 0.000000 1.874960 0.000000 
#    z -0.009170 0.000000 1.895440 
# 
# From -- ./inp_files/126009.got.cif
#   From: 2010.06.25/outbox.cif.g09.slc.cpg/sg15_64_cif.got.tgz:126009.got - 2010.06.28 07:06:18.
