data_PCOD8145484
_publ_section_title
;
Structure prediction by ZEFSAII (Michael W. Deem and Ramdas Pophale) SiO2 
 PCOD8145484
Probable space group: C 2/C
;
_chemical_formula_sum "Si O2"
_cell_formula_units_Z 48
_cell_length_a 10.073014
_cell_length_b 9.694326
_cell_length_c 25.470671
_cell_angle_alpha 90.000000
_cell_angle_beta 116.616129
_cell_angle_gamma 90.000000
_cell_volume 2223.661311
_symmetry_space_group_name_H-M "C 2/C"
_symmetry_group_IT_number 15
_symmetry_cell_setting 'monoclinic'
loop_
_space_group_symop_operation_xyz
x,y,z
-x,y,1/2-z
-x,-y,-z
x,-y,1/2+z
1/2+x,1/2+y,z
1/2-x,1/2+y,1/2-z
1/2-x,1/2-y,-z
1/2+x,1/2-y,1/2+z
loop_
_atom_site_type_symbol
_atom_site_label
_atom_site_fract_x
_atom_site_fract_y
_atom_site_fract_z
Si Si1 0.661135 0.002578 0.266534
Si Si2 0.233305 0.472790 0.488537
Si Si3 0.197451 0.920292 0.605297
Si Si4 0.954460 0.848781 0.080758
Si Si5 0.478171 0.760210 0.014016
Si Si6 0.584982 0.280153 0.211114
O O1 0.500000 0.932903 0.250000
O O2 0.701270 0.091459 0.325669
O O3 0.649188 0.124033 0.221040
O O4 0.778685 0.887247 0.271039
O O5 0.203195 0.554368 0.429076
O O6 0.297516 0.572439 0.545630
O O7 0.350735 0.353592 0.496574
O O8 0.079343 0.411327 0.481672
O O9 0.107921 0.779171 0.578230
O O10 0.087798 0.046543 0.595172
O O11 0.968312 0.788821 0.141964
O O12 0.964900 0.733666 0.036353
O O13 0.500000 0.315300 0.250000
#
# Coordination Sequence:
#
# PCOD8145484 Si02
#       6
#     8   8   8   8   8   8
#     4  10  22  39  58  82 114 153 196 240 284 334
#     4   8  13  23  44  75 107 137 172 221 281 338
#     4   8  15  28  46  73 108 141 178 226 278 333
#     4   8  15  28  46  73 108 141 178 226 278 333
#     4   8  13  23  44  75 107 137 172 221 281 338
#     4  10  22  39  58  82 114 153 196 240 284 334
#
# _framework density 21.586019
#
# number of rings (size 3 to 8) (size 9 to 14) (size 15 to 20)
#    0.000    3.333    0.000    2.000    0.000    3.333 
#    0.000    6.667    0.000   16.000    0.000   18.667 
#    0.000    0.000    0.000    0.000    0.000    0.000 
#
# Total GULP energy -297432.393448 kJ/mol
# GULP energy per Si atom -12393.016394 kJ/mol
# Density = 2.153689 g / cm^3
# Si number density = 21.586019 Si / 1000 Ang^3
#
#
#
# Elastic Constant Matrix: (Units=GPa)
#
#
# Indices 1 2 3 4 5 6 
#
# 1 75.0560 27.4662 18.2892 0.0000 -3.7961 0.0000
# 2 27.4662 48.5984 4.7977 0.0000 0.6460 0.0000
# 3 18.2892 4.7977 101.6922 0.0000 -0.6802 0.0000
# 4 0.0000 0.0000 0.0000 24.5728 0.0000 -0.2658
# 5 -3.7961 0.6460 -0.6802 0.0000 25.9757 0.0000
# 6 0.0000 0.0000 0.0000 -0.2658 0.0000 37.6606
#
#
#
# Elastic Compliance Matrix: (Units=1/GPa)
#
#
# Indices 1 2 3 4 5 6 
#
# 1 0.017698 -0.009772 -0.002703 0.000000 0.002759 0.000000
# 2 -0.009772 0.026076 0.000513 0.000000 -0.002063 0.000000
# 3 -0.002703 0.000513 0.010295 0.000000 -0.000138 0.000000
# 4 0.000000 0.000000 0.000000 0.040698 0.000000 0.000287
# 5 0.002759 -0.002063 -0.000138 0.000000 0.038948 0.000000
# 6 0.000000 0.000000 0.000000 0.000287 0.000000 0.026555
#
#
# Mechanical properties :
#
#
# Convention : Reuss Voigt Hill
#
# Bulk Modulus (GPa) = 33.17322 36.27251 34.72286
# Shear Modulus (GPa) = 25.74105 29.29474 27.51790
#
# Velocity S-wave (km/s) = 3.45699 3.68790 3.57431
# Velocity P-wave (km/s) = 5.59782 5.91391 5.75804
#
# Compressibility (1/GPa) = 0.03014480
#
# Stress axis : x y z
#
# Youngs Moduli (GPa) = 56.50486 38.34904 97.13786
#
# Poissons Ratio (x) = 0.37474 0.26260
# Poissons Ratio (y) = 0.55216 -0.04987
# Poissons Ratio (z) = 0.15276 -0.01969
#
# Static dielectric constant tensor:
#      x y z
#    x 3.864840 0.000000 0.006690 
#    y 0.000000 3.806330 0.000000 
#    z 0.006690 0.000000 4.267230 
# 
# 
# High freq. dielectric constant tensor:
#      x y z
#    x 1.847340 0.000000 0.006310 
#    y 0.000000 1.842500 0.000000 
#    z 0.006310 0.000000 1.848780 
# 
# From -- ./inp_files/291869.got.cif
#   From: 2010.06.25/outbox.cif.g09.slc.cpg/sg15_146_cif.got.tgz:291869.got - 2010.06.28 07:06:18.
