data_PCOD8145003
_publ_section_title
;
Structure prediction by ZEFSAII (Michael W. Deem and Ramdas Pophale) SiO2 
 PCOD8145003
Probable space group: C 2/C
;
_chemical_formula_sum "Si O2"
_cell_formula_units_Z 56
_cell_length_a 21.574067
_cell_length_b 14.415938
_cell_length_c 22.864043
_cell_angle_alpha 90.000000
_cell_angle_beta 157.394164
_cell_angle_gamma 90.000000
_cell_volume 2733.375585
_symmetry_space_group_name_H-M "C 2/C"
_symmetry_group_IT_number 15
_symmetry_cell_setting 'monoclinic'
loop_
_space_group_symop_operation_xyz
x,y,z
-x,y,1/2-z
-x,-y,-z
x,-y,1/2+z
1/2+x,1/2+y,z
1/2-x,1/2+y,1/2-z
1/2-x,1/2-y,-z
1/2+x,1/2-y,1/2+z
loop_
_atom_site_type_symbol
_atom_site_label
_atom_site_fract_x
_atom_site_fract_y
_atom_site_fract_z
Si Si1 0.821189 0.734541 0.828775
Si Si2 0.644151 0.640407 0.334963
Si Si3 0.859316 0.836212 0.081141
Si Si4 0.938430 0.931789 0.550724
Si Si5 0.861507 0.262735 0.939181
Si Si6 0.813517 0.476767 0.078319
Si Si7 0.001814 0.861579 0.423338
O O1 0.747441 0.791749 0.710407
O O2 0.688018 0.663297 0.736844
O O3 0.884226 0.806118 0.932440
O O4 0.972653 0.680494 0.929644
O O5 0.500000 0.683693 0.250000
O O6 0.572856 0.584357 0.218007
O O7 0.768314 0.718048 0.418722
O O8 0.754158 0.574032 0.468608
O O9 0.943838 0.826809 0.092485
O O10 0.000000 0.853957 0.250000
O O11 0.750000 0.750000 0.000000
O O12 0.729569 0.917263 0.968904
O O13 0.918459 0.846287 0.488128
O O14 0.767140 0.939210 0.433185
O O15 0.979411 0.027218 0.552300
O O16 0.000000 0.461338 0.250000
#
# Coordination Sequence:
#
# PCOD8145003 Si02
#       7
#     8   8   8   8   8   8   8
#     4  10  23  39  64  87 125 163 217 258 307 382
#     4  10  22  41  64  93 131 165 208 266 325 379
#     4  11  21  38  67  95 129 170 211 267 329 388
#     4  10  22  41  66  87 125 172 209 260 324 384
#     4  11  22  42  63  91 124 169 219 262 315 384
#     4  10  22  36  59  99 128 162 208 262 324 391
#     4  10  22  43  64  91 126 169 209 262 319 376
#
# _framework density 20.487489
#
# number of rings (size 3 to 8) (size 9 to 14) (size 15 to 20)
#    0.000    1.714    1.429    3.429    2.000    6.286 
#    0.000    3.571    3.143    0.000    0.000    0.000 
#    0.000    0.000    0.000    0.000    0.000    0.000 
#
# Total GULP energy -346953.447842 kJ/mol
# GULP energy per Si atom -12391.194566 kJ/mol
# Density = 2.044086 g / cm^3
# Si number density = 20.487489 Si / 1000 Ang^3
#
#
#
# Elastic Constant Matrix: (Units=GPa)
#
#
# Indices 1 2 3 4 5 6 
#
# 1 136.8805 58.0438 59.9728 0.0026 17.4886 0.0004
# 2 58.0438 79.7857 33.7370 0.0112 7.4690 -0.0180
# 3 59.9728 33.7370 144.0561 -0.0002 13.4235 -0.0101
# 4 0.0026 0.0112 -0.0002 6.4942 -0.0012 7.3833
# 5 17.4886 7.4690 13.4235 -0.0012 42.5320 -0.0032
# 6 0.0004 -0.0180 -0.0101 7.3833 -0.0032 28.8675
#
#
#
# Elastic Compliance Matrix: (Units=1/GPa)
#
#
# Indices 1 2 3 4 5 6 
#
# 1 0.012063 -0.007220 -0.003078 0.000020 -0.002721 -0.000011
# 2 -0.007220 0.018321 -0.001300 -0.000058 0.000162 0.000026
# 3 -0.003078 -0.001300 0.008642 0.000002 -0.001234 0.000002
# 4 0.000020 -0.000058 0.000002 0.217118 0.000004 -0.055531
# 5 -0.002721 0.000162 -0.001234 0.000004 0.024992 0.000002
# 6 -0.000011 0.000026 0.000002 -0.055531 0.000002 0.048844
#
#
# Mechanical properties :
#
#
# Convention : Reuss Voigt Hill
#
# Bulk Modulus (GPa) = 63.16603 73.80329 68.48466
# Shear Modulus (GPa) = 13.94887 29.50997 21.72942
#
# Velocity S-wave (km/s) = 2.61214 3.79936 3.26025
# Velocity P-wave (km/s) = 6.32425 7.43967 6.90452
#
# Compressibility (1/GPa) = 0.01583130
#
# Stress axis : x y z
#
# Youngs Moduli (GPa) = 82.89544 54.58346 115.70788
#
# Poissons Ratio (x) = 0.39409 0.35612
# Poissons Ratio (y) = 0.59850 0.15040
# Poissons Ratio (z) = 0.25513 0.07095
#
# Static dielectric constant tensor:
#      x y z
#    x 4.103640 -0.000020 0.202620 
#    y -0.000020 3.593630 0.000040 
#    z 0.202620 0.000040 4.017080 
# 
# 
# High freq. dielectric constant tensor:
#      x y z
#    x 1.822860 0.000000 0.004070 
#    y 0.000000 1.777400 0.000000 
#    z 0.004070 0.000000 1.817360 
# 
# From -- ./inp_files/282115.got.cif
#   From: 2010.06.25/outbox.cif.g09.slc.cpg/sg15_142_cif.got.tgz:282115.got - 2010.06.28 07:06:18.
