data_PCOD8145433
_publ_section_title
;
Structure prediction by ZEFSAII (Michael W. Deem and Ramdas Pophale) SiO2 
 PCOD8145433
Probable space group: C 2/C
;
_chemical_formula_sum "Si O2"
_cell_formula_units_Z 48
_cell_length_a 17.737803
_cell_length_b 16.955592
_cell_length_c 14.569513
_cell_angle_alpha 90.000000
_cell_angle_beta 33.239762
_cell_angle_gamma 90.000000
_cell_volume 2401.885589
_symmetry_space_group_name_H-M "C 2/C"
_symmetry_group_IT_number 15
_symmetry_cell_setting 'monoclinic'
loop_
_space_group_symop_operation_xyz
x,y,z
-x,y,1/2-z
-x,-y,-z
x,-y,1/2+z
1/2+x,1/2+y,z
1/2-x,1/2+y,1/2-z
1/2-x,1/2-y,-z
1/2+x,1/2-y,1/2+z
loop_
_atom_site_type_symbol
_atom_site_label
_atom_site_fract_x
_atom_site_fract_y
_atom_site_fract_z
Si Si1 0.450717 0.334090 0.666222
Si Si2 0.646100 0.811266 0.976494
Si Si3 0.138777 0.706251 0.056202
Si Si4 0.228225 0.557111 0.050788
Si Si5 0.000000 0.033135 0.250000
Si Si6 0.799058 0.829522 0.646813
Si Si7 0.000000 0.436556 0.250000
O O1 0.560883 0.267762 0.579991
O O2 0.301710 0.306864 0.860330
O O3 0.510176 0.413396 0.649343
O O4 0.428543 0.353352 0.580380
O O5 0.662259 0.821730 0.849359
O O6 0.566511 0.884663 0.101724
O O7 0.168972 0.612678 0.029126
O O8 0.000000 0.726693 0.250000
O O9 0.250000 0.750000 0.000000
O O10 0.150438 0.744173 0.943336
O O11 0.261218 0.605878 0.109453
O O12 0.115746 0.489383 0.182627
O O13 0.368440 0.521263 0.871785
#
# Coordination Sequence:
#
# PCOD8145433 Si02
#       7
#     8   8   8   8   4   8   4
#     4  10  24  43  66  93 125 167 225 266 316 378
#     4  10  24  42  66  94 122 170 220 273 308 383
#     4  10  22  38  67  96 127 171 207 257 323 387
#     4  11  24  39  69  93 138 169 207 270 329 397
#     4  12  25  44  63  96 130 180 210 264 335 382
#     4   9  24  43  65  99 127 165 221 268 318 379
#     4  12  23  44  65  94 128 178 216 260 325 388
#
# _framework density 19.984299
#
# number of rings (size 3 to 8) (size 9 to 14) (size 15 to 20)
#    1.000    0.667    2.500    0.500   11.667    2.667 
#    0.000    3.333    0.000    0.000    0.000    0.000 
#    0.000    0.000    0.000    0.000    0.000    0.000 
#
# Total GULP energy -297343.497061 kJ/mol
# GULP energy per Si atom -12389.312378 kJ/mol
# Density = 1.993881 g / cm^3
# Si number density = 19.984299 Si / 1000 Ang^3
#
#
#
# Elastic Constant Matrix: (Units=GPa)
#
#
# Indices 1 2 3 4 5 6 
#
# 1 85.8057 37.3833 34.5434 0.0001 13.4273 0.0002
# 2 37.3833 111.6242 71.8214 0.0002 16.6725 0.0002
# 3 34.5434 71.8214 109.5125 0.0007 -2.2810 0.0001
# 4 0.0001 0.0002 0.0007 32.5608 -0.0003 -13.1689
# 5 13.4273 16.6725 -2.2810 -0.0003 33.3207 -0.0001
# 6 0.0002 0.0002 0.0001 -13.1689 -0.0001 27.8394
#
#
#
# Elastic Compliance Matrix: (Units=1/GPa)
#
#
# Indices 1 2 3 4 5 6 
#
# 1 0.014707 -0.001887 -0.003510 0.000000 -0.005223 0.000000
# 2 -0.001887 0.018557 -0.011769 0.000000 -0.009331 0.000000
# 3 -0.003510 -0.011769 0.018135 0.000000 0.008545 0.000000
# 4 0.000000 0.000000 0.000000 0.037977 0.000000 0.017964
# 5 -0.005223 -0.009331 0.008545 0.000000 0.037370 0.000000
# 6 0.000000 0.000000 0.000000 0.017964 0.000000 0.044418
#
#
# Mechanical properties :
#
#
# Convention : Reuss Voigt Hill
#
# Bulk Modulus (GPa) = 58.59567 66.04874 62.32221
# Shear Modulus (GPa) = 23.67595 29.62380 26.64988
#
# Velocity S-wave (km/s) = 3.44572 3.85431 3.65573
# Velocity P-wave (km/s) = 6.72422 7.27528 7.00517
#
# Compressibility (1/GPa) = 0.01706611
#
# Stress axis : x y z
#
# Youngs Moduli (GPa) = 67.99646 53.88896 55.14118
#
# Poissons Ratio (x) = 0.10166 0.19357
# Poissons Ratio (y) = 0.12828 0.64897
# Poissons Ratio (z) = 0.23870 0.63423
#
# Static dielectric constant tensor:
#      x y z
#    x -0.614920 -0.000090 -2.565470 
#    y -0.000090 3.202910 -0.000050 
#    z -2.565470 -0.000050 2.233750 
# 
# 
# High freq. dielectric constant tensor:
#      x y z
#    x 1.777560 0.000000 -0.013500 
#    y 0.000000 1.781690 0.000000 
#    z -0.013500 0.000000 1.782210 
# 
# From -- ./inp_files/215429.got.cif
#   From: 2010.06.25/outbox.cif.g09.slc.cpg/sg15_108_cif.got.tgz:215429.got - 2010.06.28 07:06:18.
