data_PCOD8145474
_publ_section_title
;
Structure prediction by ZEFSAII (Michael W. Deem and Ramdas Pophale) SiO2 
 PCOD8145474
Probable space group: C 2/C
;
_chemical_formula_sum "Si O2"
_cell_formula_units_Z 44
_cell_length_a 9.693755
_cell_length_b 25.456448
_cell_length_c 11.959258
_cell_angle_alpha 90.000000
_cell_angle_beta 134.992427
_cell_angle_gamma 90.000000
_cell_volume 2087.067410
_symmetry_space_group_name_H-M "C 2/C"
_symmetry_group_IT_number 15
_symmetry_cell_setting 'monoclinic'
loop_
_space_group_symop_operation_xyz
x,y,z
-x,y,1/2-z
-x,-y,-z
x,-y,1/2+z
1/2+x,1/2+y,z
1/2-x,1/2+y,1/2-z
1/2-x,1/2-y,-z
1/2+x,1/2-y,1/2+z
loop_
_atom_site_type_symbol
_atom_site_label
_atom_site_fract_x
_atom_site_fract_y
_atom_site_fract_z
Si Si1 0.641123 0.323410 0.505409
Si Si2 0.196973 0.574024 0.813211
Si Si3 0.000000 0.748956 0.250000
Si Si4 0.786593 0.914505 0.128695
Si Si5 0.578790 0.042278 0.180640
Si Si6 0.041617 0.893143 0.648354
O O1 0.489720 0.286319 0.353278
O O2 0.720425 0.368120 0.465784
O O3 0.543650 0.345269 0.562263
O O4 0.814963 0.287786 0.647755
O O5 0.263472 0.607906 0.742557
O O6 0.155346 0.515533 0.746919
O O7 0.000000 0.599566 0.750000
O O8 0.364274 0.570056 0.003693
O O9 0.000000 0.942868 0.250000
O O10 0.611145 0.956448 0.009618
O O11 0.500000 0.068259 0.250000
O O12 0.753508 0.076697 0.231811
O O13 0.000000 0.872979 0.750000
#
# Coordination Sequence:
#
# PCOD8145474 Si02
#       6
#     8   8   4   8   8   8
#     4  11  21  42  66 100 122 165 212 262 336 383
#     4  11  24  39  58  95 131 174 224 266 312 361
#     4  10  22  38  72  98 124 150 214 272 320 414
#     4  12  21  40  67  90 129 168 216 266 319 381
#     4  11  22  39  61  93 129 174 225 265 305 368
#     4  12  24  43  64  92 133 174 214 265 327 380
#
# _framework density 21.082212999999999
#
# number of rings (size 3 to 8) (size 9 to 14) (size 15 to 20)
#    0.000    0.727    4.545    3.273    0.000    3.636 
#    0.000    0.909    0.000    4.364    0.000    0.000 
#    0.000    0.000    0.000    0.000    0.000    0.000 
#
# Total GULP energy -272691.176316 kJ/mol
# GULP energy per Si atom -12395.053469 kJ/mol
# Density = 2.103423 g / cm^3
# Si number density = 21.082213 Si / 1000 Ang^3
#
#
#
# Elastic Constant Matrix: (Units=GPa)
#
#
# Indices 1 2 3 4 5 6 
#
# 1 162.5898 33.6092 70.8898 0.0000 -16.7646 0.0000
# 2 33.6092 79.9121 51.7265 0.0000 -0.5828 0.0000
# 3 70.8898 51.7265 179.8435 0.0000 7.0131 0.0000
# 4 0.0000 0.0000 0.0000 39.3556 0.0000 -0.4201
# 5 -16.7646 -0.5828 7.0131 0.0000 53.4421 0.0000
# 6 0.0000 0.0000 0.0000 -0.4201 0.0000 19.2634
#
#
#
# Elastic Compliance Matrix: (Units=1/GPa)
#
#
# Indices 1 2 3 4 5 6 
#
# 1 0.007990 -0.001510 -0.002827 0.000000 0.002861 0.000000
# 2 -0.001510 0.015692 -0.003926 0.000000 0.000213 0.000000
# 3 -0.002827 -0.003926 0.007881 0.000000 -0.001964 0.000000
# 4 0.000000 0.000000 0.000000 0.025415 0.000000 0.000554
# 5 0.002861 0.000213 -0.001964 0.000000 0.019869 0.000000
# 6 0.000000 0.000000 0.000000 0.000554 0.000000 0.051924
#
#
# Mechanical properties :
#
#
# Convention : Reuss Voigt Hill
#
# Bulk Modulus (GPa) = 66.50556 81.64406 74.07481
# Shear Modulus (GPa) = 33.26479 40.15354 36.70917
#
# Velocity S-wave (km/s) = 3.97654 4.36893 4.17734
# Velocity P-wave (km/s) = 7.25935 8.01627 7.64718
#
# Compressibility (1/GPa) = 0.01503634
#
# Stress axis : x y z
#
# Youngs Moduli (GPa) = 125.15610 63.72734 126.89491
#
# Poissons Ratio (x) = 0.09622 0.35870
# Poissons Ratio (y) = 0.18896 0.49825
# Poissons Ratio (z) = 0.35379 0.25022
#
# Static dielectric constant tensor:
#      x y z
#    x 4.127910 0.000000 -0.069850 
#    y 0.000000 3.562630 0.000000 
#    z -0.069850 0.000000 4.405840 
# 
# 
# High freq. dielectric constant tensor:
#      x y z
#    x 1.829340 0.000000 -0.001620 
#    y 0.000000 1.787720 0.000000 
#    z -0.001620 0.000000 1.861920 
# 
# From -- ./inp_files/25609.got.cif
#   From: 2010.06.25/outbox.cif.g09.slc.cpg/sg15_13_cif.got.tgz:25609.got - 2010.06.28 07:06:18.
