data_PCOD8145959
_publ_section_title
;
Structure prediction by ZEFSAII (Michael W. Deem and Ramdas Pophale) SiO2 
 PCOD8145959
Probable space group: C 2/C
;
_chemical_formula_sum "Si O2"
_cell_formula_units_Z 44
_cell_length_a 10.610378
_cell_length_b 26.169104
_cell_length_c 13.788081
_cell_angle_alpha 90.000000
_cell_angle_beta 146.246236
_cell_angle_gamma 90.000000
_cell_volume 2127.184697
_symmetry_space_group_name_H-M "C 2/C"
_symmetry_group_IT_number 15
_symmetry_cell_setting 'monoclinic'
loop_
_space_group_symop_operation_xyz
x,y,z
-x,y,1/2-z
-x,-y,-z
x,-y,1/2+z
1/2+x,1/2+y,z
1/2-x,1/2+y,1/2-z
1/2-x,1/2-y,-z
1/2+x,1/2-y,1/2+z
loop_
_atom_site_type_symbol
_atom_site_label
_atom_site_fract_x
_atom_site_fract_y
_atom_site_fract_z
Si Si1 0.808224 0.913504 0.298182
Si Si2 0.291432 0.688819 0.685134
Si Si3 0.070697 0.110053 0.143273
Si Si4 0.298691 0.928932 0.968079
Si Si5 0.000000 0.979766 0.250000
Si Si6 0.886896 0.696742 0.282386
O O1 0.789780 0.852669 0.268980
O O2 0.556727 0.931515 0.167276
O O3 0.988836 0.924143 0.499225
O O4 0.882892 0.943529 0.251998
O O5 0.500000 0.676591 0.750000
O O6 0.314208 0.744644 0.745945
O O7 0.063525 0.683476 0.478459
O O8 0.268506 0.082038 0.332530
O O9 0.163044 0.163238 0.158888
O O10 0.843818 0.115206 0.065409
O O11 0.188725 0.984187 0.921291
O O12 0.000000 0.685268 0.250000
#
# Coordination Sequence:
#
# PCOD8145959 Si02
#       6
#     8   8   8   8   4   8
#     4  12  21  41  66  92 126 168 206 262 319 365
#     4  11  21  36  60  95 129 161 208 259 310 373
#     4  10  22  40  64  88 127 165 208 251 312 373
#     4  10  24  44  61  89 129 167 208 268 301 371
#     4  10  24  40  66  94 124 156 224 258 316 376
#     4  11  21  37  61  95 128 165 206 259 311 370
#
# _framework density 20.684615000000001
#
# number of rings (size 3 to 8) (size 9 to 14) (size 15 to 20)
#    0.000    1.455    2.727    5.455    0.000    2.909 
#    0.000    4.545    4.000    0.000    0.000    0.000 
#    0.000    0.000    0.000    0.000    0.000    0.000 
#
# Total GULP energy -272710.231804 kJ/mol
# GULP energy per Si atom -12395.919627 kJ/mol
# Density = 2.063754 g / cm^3
# Si number density = 20.684615 Si / 1000 Ang^3
#
#
#
# Elastic Constant Matrix: (Units=GPa)
#
#
# Indices 1 2 3 4 5 6 
#
# 1 95.6137 51.7887 27.0422 0.0000 12.5099 0.0000
# 2 51.7887 97.9449 26.2201 0.0000 12.3470 0.0000
# 3 27.0422 26.2201 96.2631 0.0001 8.3318 0.0001
# 4 0.0000 0.0000 0.0001 44.5465 0.0000 18.1195
# 5 12.5099 12.3470 8.3318 0.0000 33.1640 0.0000
# 6 0.0000 0.0000 0.0001 18.1195 0.0000 20.2575
#
#
#
# Elastic Compliance Matrix: (Units=1/GPa)
#
#
# Indices 1 2 3 4 5 6 
#
# 1 0.015289 -0.007196 -0.002114 0.000000 -0.002557 0.000000
# 2 -0.007196 0.014793 -0.001805 0.000000 -0.002340 0.000000
# 3 -0.002114 -0.001805 0.011599 0.000000 -0.001445 0.000000
# 4 0.000000 0.000000 0.000000 0.035287 0.000000 -0.031562
# 5 -0.002557 -0.002340 -0.001445 0.000000 0.032352 0.000000
# 6 0.000000 0.000000 0.000000 -0.031562 0.000000 0.077596
#
#
# Mechanical properties :
#
#
# Convention : Reuss Voigt Hill
#
# Bulk Modulus (GPa) = 51.41174 55.54706 53.47940
# Shear Modulus (GPa) = 23.18817 31.91164 27.54991
#
# Velocity S-wave (km/s) = 3.35182 3.93207 3.65348
# Velocity P-wave (km/s) = 6.31574 6.89402 6.61121
#
# Compressibility (1/GPa) = 0.01945081
#
# Stress axis : x y z
#
# Youngs Moduli (GPa) = 65.40802 67.60042 86.21647
#
# Poissons Ratio (x) = 0.48644 0.18223
# Poissons Ratio (y) = 0.47066 0.15565
# Poissons Ratio (z) = 0.13825 0.12204
#
# Static dielectric constant tensor:
#      x y z
#    x 3.641200 0.000000 -0.012900 
#    y 0.000000 3.747910 0.000000 
#    z -0.012900 0.000000 3.917060 
# 
# 
# High freq. dielectric constant tensor:
#      x y z
#    x 1.799720 0.000000 -0.000980 
#    y 0.000000 1.798400 0.000000 
#    z -0.000980 0.000000 1.825230 
# 
# From -- ./inp_files/149080.got.cif
#   From: 2010.06.25/outbox.cif.g09.slc.cpg/sg15_75_cif.got.tgz:149080.got - 2010.06.28 07:06:18.
