data_PCOD8145788
_publ_section_title
;
Structure prediction by ZEFSAII (Michael W. Deem and Ramdas Pophale) SiO2 
 PCOD8145788
Probable space group: C 2/C
;
_chemical_formula_sum "Si O2"
_cell_formula_units_Z 48
_cell_length_a 22.771436
_cell_length_b 11.011775
_cell_length_c 10.054838
_cell_angle_alpha 90.000000
_cell_angle_beta 60.357825
_cell_angle_gamma 90.000000
_cell_volume 2191.331691
_symmetry_space_group_name_H-M "C 2/C"
_symmetry_group_IT_number 15
_symmetry_cell_setting 'monoclinic'
loop_
_space_group_symop_operation_xyz
x,y,z
-x,y,1/2-z
-x,-y,-z
x,-y,1/2+z
1/2+x,1/2+y,z
1/2-x,1/2+y,1/2-z
1/2-x,1/2-y,-z
1/2+x,1/2-y,1/2+z
loop_
_atom_site_type_symbol
_atom_site_label
_atom_site_fract_x
_atom_site_fract_y
_atom_site_fract_z
Si Si1 0.853264 0.656908 0.900170
Si Si2 0.845441 0.980734 0.736950
Si Si3 0.424466 0.084328 0.367738
Si Si4 0.944334 0.809173 0.196494
Si Si5 0.435624 0.740136 0.094502
Si Si6 0.282776 0.623546 0.571895
O O1 0.871049 0.524963 0.936741
O O2 0.921067 0.714522 0.760049
O O3 0.824687 0.749689 0.044905
O O4 0.797220 0.648640 0.844817
O O5 0.888769 0.876503 0.616259
O O6 0.800833 0.931966 0.907725
O O7 0.894116 0.080199 0.746371
O O8 0.796980 0.036490 0.679235
O O9 0.500000 0.035861 0.250000
O O10 0.404789 0.183783 0.275776
O O11 0.419652 0.148310 0.515192
O O12 0.000000 0.830950 0.250000
O O13 0.985408 0.796670 0.011029
#
# Coordination Sequence:
#
# PCOD8145788 Si02
#       6
#     8   8   8   8   8   8
#     4  10  22  40  57  85 125 164 201 258 302 370
#     4  11  21  41  62  91 123 164 206 256 311 360
#     4   9  20  37  58  89 120 155 205 255 309 368
#     4   9  19  37  62  94 123 155 206 257 311 372
#     4   9  20  36  59  84 123 153 201 260 300 365
#     4  10  24  40  61  88 123 162 212 249 302 376
#
# _framework density 21.904488000000001
#
# number of rings (size 3 to 8) (size 9 to 14) (size 15 to 20)
#    0.000    2.667    0.000    2.500    2.333    5.333 
#    6.000    5.000    0.000    0.000    0.000    0.000 
#    0.000    0.000    0.000    0.000    0.000    0.000 
#
# Total GULP energy -297463.719704 kJ/mol
# GULP energy per Si atom -12394.321654 kJ/mol
# Density = 2.185463 g / cm^3
# Si number density = 21.904488 Si / 1000 Ang^3
#
#
#
# Elastic Constant Matrix: (Units=GPa)
#
#
# Indices 1 2 3 4 5 6 
#
# 1 30.2000 29.9430 1.5160 0.0000 2.5024 0.0000
# 2 29.9430 121.9732 10.3865 0.0000 -1.0719 0.0000
# 3 1.5160 10.3865 54.2634 0.0000 -3.7211 0.0000
# 4 0.0000 0.0000 0.0000 15.9365 0.0000 -3.0007
# 5 2.5024 -1.0719 -3.7211 0.0000 22.3439 0.0000
# 6 0.0000 0.0000 0.0000 -3.0007 0.0000 36.6050
#
#
#
# Elastic Compliance Matrix: (Units=1/GPa)
#
#
# Indices 1 2 3 4 5 6 
#
# 1 0.044444 -0.011000 0.000492 0.000000 -0.005423 0.000000
# 2 -0.011000 0.011057 -0.001708 0.000000 0.001478 0.000000
# 3 0.000492 -0.001708 0.018949 0.000000 0.003019 0.000000
# 4 0.000000 0.000000 0.000000 0.063733 0.000000 0.005225
# 5 -0.005423 0.001478 0.003019 0.000000 0.045936 0.000000
# 6 0.000000 0.000000 0.000000 0.005225 0.000000 0.027747
#
#
# Mechanical properties :
#
#
# Convention : Reuss Voigt Hill
#
# Bulk Modulus (GPa) = 19.99279 32.23641 26.11460
# Shear Modulus (GPa) = 19.76521 25.94981 22.85751
#
# Velocity S-wave (km/s) = 3.00715 3.44565 3.23384
# Velocity P-wave (km/s) = 4.60482 5.52981 5.08838
#
# Compressibility (1/GPa) = 0.05001803
#
# Stress axis : x y z
#
# Youngs Moduli (GPa) = 22.50041 90.43797 52.77386
#
# Poissons Ratio (x) = 0.99481 -0.02596
# Poissons Ratio (y) = 0.24750 0.09013
# Poissons Ratio (z) = -0.01107 0.15445
#
# Static dielectric constant tensor:
#      x y z
#    x 3.533580 0.000000 -0.248180 
#    y 0.000000 4.145340 0.000000 
#    z -0.248180 0.000000 3.985070 
# 
# 
# High freq. dielectric constant tensor:
#      x y z
#    x 1.826760 0.000000 -0.014400 
#    y 0.000000 1.877400 0.000000 
#    z -0.014400 0.000000 1.863990 
# 
# From -- ./inp_files/110866.got.cif
#   From: 2010.06.25/outbox.cif.g09.slc.cpg/sg15_56_cif.got.tgz:110866.got - 2010.06.28 07:06:18.
