data_PCOD8145869
_publ_section_title
;
Structure prediction by ZEFSAII (Michael W. Deem and Ramdas Pophale) SiO2 
 PCOD8145869
Probable space group: C 2/C
;
_chemical_formula_sum "Si O2"
_cell_formula_units_Z 56
_cell_length_a 12.005295
_cell_length_b 20.624564
_cell_length_c 13.184240
_cell_angle_alpha 90.000000
_cell_angle_beta 122.198148
_cell_angle_gamma 90.000000
_cell_volume 2762.428629
_symmetry_space_group_name_H-M "C 2/C"
_symmetry_group_IT_number 15
_symmetry_cell_setting 'monoclinic'
loop_
_space_group_symop_operation_xyz
x,y,z
-x,y,1/2-z
-x,-y,-z
x,-y,1/2+z
1/2+x,1/2+y,z
1/2-x,1/2+y,1/2-z
1/2-x,1/2-y,-z
1/2+x,1/2-y,1/2+z
loop_
_atom_site_type_symbol
_atom_site_label
_atom_site_fract_x
_atom_site_fract_y
_atom_site_fract_z
Si Si1 0.396107 0.452883 0.128629
Si Si2 0.475566 0.349296 0.032182
Si Si3 0.892863 0.410170 0.977182
Si Si4 0.943861 0.292176 0.870930
Si Si5 0.690023 0.560864 0.552975
Si Si6 0.798279 0.697711 0.104093
Si Si7 0.667964 0.037679 0.664588
O O1 0.500000 0.492278 0.250000
O O2 0.476221 0.387175 0.139562
O O3 0.371461 0.493255 0.014323
O O4 0.261926 0.435702 0.121307
O O5 0.517948 0.274987 0.057759
O O6 0.573356 0.386264 0.003577
O O7 0.318821 0.352992 0.927092
O O8 0.879844 0.338981 0.922943
O O9 0.788669 0.412728 0.016585
O O10 0.863318 0.462254 0.873831
O O11 0.035471 0.420587 0.096394
O O12 0.840410 0.272575 0.732967
O O13 0.069691 0.331226 0.884488
O O14 0.764924 0.547119 0.694096
O O15 0.750000 0.750000 0.000000
#
# Coordination Sequence:
#
# PCOD8145869 Si02
#       7
#     8   8   8   8   8   8   8
#     4  11  23  37  62  91 123 157 209 268 318 377
#     4  11  23  37  63  91 125 162 205 259 324 375
#     4  10  23  42  61  91 127 163 217 258 315 394
#     4  10  22  40  61  92 128 167 206 264 312 378
#     4  11  24  39  63  91 125 169 211 262 323 384
#     4   9  21  37  60  91 123 160 209 255 309 372
#     4  10  22  42  64  88 121 169 211 269 313 372
#
# _framework density 20.272017999999999
#
# number of rings (size 3 to 8) (size 9 to 14) (size 15 to 20)
#    0.000    1.714    1.429    1.714    6.000    4.000 
#    5.143    0.000    0.000    1.714    0.000    0.000 
#    0.000    0.000    0.000    0.000    0.000    0.000 
#
# Total GULP energy -346979.167468 kJ/mol
# GULP energy per Si atom -12392.113124 kJ/mol
# Density = 2.022588 g / cm^3
# Si number density = 20.272018 Si / 1000 Ang^3
#
#
#
# Elastic Constant Matrix: (Units=GPa)
#
#
# Indices 1 2 3 4 5 6 
#
# 1 135.6885 52.0444 43.0227 0.0000 2.5099 0.0000
# 2 52.0444 107.6497 39.9854 0.0000 -9.1244 0.0000
# 3 43.0227 39.9854 108.7385 0.0000 2.6645 0.0000
# 4 0.0000 0.0000 0.0000 22.3466 0.0000 1.4966
# 5 2.5099 -9.1244 2.6645 0.0000 31.5859 0.0000
# 6 0.0000 0.0000 0.0000 1.4966 0.0000 36.2027
#
#
#
# Elastic Compliance Matrix: (Units=1/GPa)
#
#
# Indices 1 2 3 4 5 6 
#
# 1 0.009653 -0.003948 -0.002326 0.000000 -0.001711 0.000000
# 2 -0.003948 0.012762 -0.003236 0.000000 0.004273 0.000000
# 3 -0.002326 -0.003236 0.011348 0.000000 -0.001707 0.000000
# 4 0.000000 0.000000 0.000000 0.044874 0.000000 -0.001855
# 5 -0.001711 0.004273 -0.001707 0.000000 0.033174 0.000000
# 6 0.000000 0.000000 0.000000 -0.001855 0.000000 0.027699
#
#
# Mechanical properties :
#
#
# Convention : Reuss Voigt Hill
#
# Bulk Modulus (GPa) = 67.81982 69.13128 68.47555
# Shear Modulus (GPa) = 30.59155 32.49534 31.54344
#
# Velocity S-wave (km/s) = 3.88887 4.00805 3.94891
# Velocity P-wave (km/s) = 7.32748 7.45621 7.39213
#
# Compressibility (1/GPa) = 0.01474495
#
# Stress axis : x y z
#
# Youngs Moduli (GPa) = 103.59255 78.35643 88.12066
#
# Poissons Ratio (x) = 0.30937 0.20493
# Poissons Ratio (y) = 0.40900 0.28512
# Poissons Ratio (z) = 0.24091 0.25352
#
# Static dielectric constant tensor:
#      x y z
#    x 4.066050 0.000000 0.301820 
#    y 0.000000 3.461960 0.000000 
#    z 0.301820 0.000000 3.781600 
# 
# 
# High freq. dielectric constant tensor:
#      x y z
#    x 1.806350 0.000000 0.013980 
#    y 0.000000 1.769210 0.000000 
#    z 0.013980 0.000000 1.796690 
# 
# From -- ./inp_files/90910.got.cif
#   From: 2010.06.25/outbox.cif.g09.slc.cpg/sg15_46_cif.got.tgz:90910.got - 2010.06.28 07:06:18.
