data_PCOD8145438
_publ_section_title
;
Structure prediction by ZEFSAII (Michael W. Deem and Ramdas Pophale) SiO2 
 PCOD8145438
Probable space group: C 2/C
;
_chemical_formula_sum "Si O2"
_cell_formula_units_Z 60
_cell_length_a 11.803732
_cell_length_b 26.731792
_cell_length_c 17.788533
_cell_angle_alpha 90.000000
_cell_angle_beta 151.289886
_cell_angle_gamma 90.000000
_cell_volume 2696.317013
_symmetry_space_group_name_H-M "C 2/C"
_symmetry_group_IT_number 15
_symmetry_cell_setting 'monoclinic'
loop_
_space_group_symop_operation_xyz
x,y,z
-x,y,1/2-z
-x,-y,-z
x,-y,1/2+z
1/2+x,1/2+y,z
1/2-x,1/2+y,1/2-z
1/2-x,1/2-y,-z
1/2+x,1/2-y,1/2+z
loop_
_atom_site_type_symbol
_atom_site_label
_atom_site_fract_x
_atom_site_fract_y
_atom_site_fract_z
Si Si1 0.000000 0.654956 0.250000
Si Si2 0.004942 0.478989 0.088244
Si Si3 0.223926 0.300347 0.434687
Si Si4 0.453974 0.280715 0.005774
Si Si5 0.781650 0.909015 0.169726
Si Si6 0.887237 0.101322 0.105342
Si Si7 0.832435 0.202319 0.718298
Si Si8 0.120927 0.415828 0.683433
O O1 0.777944 0.689866 0.102514
O O2 0.951749 0.620585 0.292963
O O3 0.228580 0.441262 0.213891
O O4 0.059746 0.526627 0.172983
O O5 0.000000 0.500000 0.000000
O O6 0.773017 0.448919 0.980225
O O7 0.250000 0.250000 0.500000
O O8 0.437262 0.309731 0.501249
O O9 0.225900 0.351211 0.485935
O O10 0.000000 0.295669 0.250000
O O11 0.417617 0.223859 0.954006
O O12 0.619602 0.272461 0.173633
O O13 0.859489 0.856036 0.246517
O O14 0.000000 0.933071 0.250000
O O15 0.542685 0.901889 0.982982
O O16 0.000000 0.116245 0.250000
O O17 0.101971 0.089067 0.173766
O O18 0.000000 0.221975 0.750000
#
# Coordination Sequence:
#
# PCOD8145438 Si02
#       8
#     4   8   8   8   8   8   8   8
#     4  12  24  48  66 104 144 186 238 296 366 436
#     4  10  23  40  70 104 139 183 241 309 357 436
#     4  12  29  50  72 108 153 199 247 302 375 451
#     4  12  26  43  72  97 149 187 238 295 359 437
#     4  10  22  38  68 103 138 177 243 300 360 420
#     4  12  24  47  77 108 142 197 252 306 371 435
#     4  11  24  41  66 105 136 183 233 293 357 432
#     4  11  25  44  71 101 142 190 241 303 365 436
#
# _framework density 22.252576000000001
#
# number of rings (size 3 to 8) (size 9 to 14) (size 15 to 20)
#    0.000    0.800    4.667    3.200    9.333    1.067 
#    1.200    0.667    0.000    0.000    0.000    0.000 
#    0.000    0.000    0.000    0.000    0.000    0.000 
#
# Total GULP energy -371703.138215 kJ/mol
# GULP energy per Si atom -12390.104607 kJ/mol
# Density = 2.220193 g / cm^3
# Si number density = 22.252576 Si / 1000 Ang^3
#
#
#
# Elastic Constant Matrix: (Units=GPa)
#
#
# Indices 1 2 3 4 5 6 
#
# 1 107.2699 39.2031 24.4005 -0.0006 14.2967 -0.0002
# 2 39.2031 122.4468 42.2371 -0.0030 -0.2298 0.0001
# 3 24.4005 42.2371 84.6391 -0.0022 2.1203 0.0071
# 4 -0.0006 -0.0030 -0.0022 29.0827 -0.0012 2.8009
# 5 14.2967 -0.2298 2.1203 -0.0012 42.6726 -0.0007
# 6 -0.0002 0.0001 0.0071 2.8009 -0.0007 20.0974
#
#
#
# Elastic Compliance Matrix: (Units=1/GPa)
#
#
# Indices 1 2 3 4 5 6 
#
# 1 0.011311 -0.003063 -0.001639 0.000000 -0.003725 0.000001
# 2 -0.003063 0.010698 -0.004488 0.000001 0.001307 0.000001
# 3 -0.001639 -0.004488 0.014532 0.000001 -0.000197 -0.000005
# 4 0.000000 0.000001 0.000001 0.034852 0.000001 -0.004857
# 5 -0.003725 0.001307 -0.000197 0.000001 0.024699 0.000001
# 6 0.000001 0.000001 -0.000005 -0.004857 0.000001 0.050435
#
#
# Mechanical properties :
#
#
# Convention : Reuss Voigt Hill
#
# Bulk Modulus (GPa) = 55.06458 58.44858 56.75658
# Shear Modulus (GPa) = 29.24634 32.27153 30.75893
#
# Velocity S-wave (km/s) = 3.62925 3.81233 3.72191
# Velocity P-wave (km/s) = 6.50852 6.76029 6.63560
#
# Compressibility (1/GPa) = 0.01816049
#
# Stress axis : x y z
#
# Youngs Moduli (GPa) = 88.41023 93.47401 68.81299
#
# Poissons Ratio (x) = 0.28631 0.11278
# Poissons Ratio (y) = 0.27080 0.30886
# Poissons Ratio (z) = 0.14490 0.41955
#
# Static dielectric constant tensor:
#      x y z
#    x 4.005040 0.000080 0.284220 
#    y 0.000080 4.767330 0.000000 
#    z 0.284220 0.000000 3.911620 
# 
# 
# High freq. dielectric constant tensor:
#      x y z
#    x 1.881400 0.000000 0.018240 
#    y 0.000000 1.893920 0.000000 
#    z 0.018240 0.000000 1.858180 
# 
# From -- ./inp_files/201410.got.cif
#   From: 2010.06.25/outbox.cif.g09.slc.cpg/sg15_101_cif.got.tgz:201410.got - 2010.06.28 07:06:18.
