data_PCOD8145733
_publ_section_title
;
Structure prediction by ZEFSAII (Michael W. Deem and Ramdas Pophale) SiO2 
 PCOD8145733
Probable space group: C 2/C
;
_chemical_formula_sum "Si O2"
_cell_formula_units_Z 52
_cell_length_a 14.618837
_cell_length_b 11.513084
_cell_length_c 15.137742
_cell_angle_alpha 90.000000
_cell_angle_beta 95.113786
_cell_angle_gamma 90.000000
_cell_volume 2537.660394
_symmetry_space_group_name_H-M "C 2/C"
_symmetry_group_IT_number 15
_symmetry_cell_setting 'monoclinic'
loop_
_space_group_symop_operation_xyz
x,y,z
-x,y,1/2-z
-x,-y,-z
x,-y,1/2+z
1/2+x,1/2+y,z
1/2-x,1/2+y,1/2-z
1/2-x,1/2-y,-z
1/2+x,1/2-y,1/2+z
loop_
_atom_site_type_symbol
_atom_site_label
_atom_site_fract_x
_atom_site_fract_y
_atom_site_fract_z
Si Si1 0.678910 0.580781 0.773149
Si Si2 0.500000 0.552484 0.250000
Si Si3 0.191672 0.966648 0.957577
Si Si4 0.125523 0.193091 0.031200
Si Si5 0.191897 0.690829 0.369474
Si Si6 0.937069 0.774563 0.596199
Si Si7 0.819905 0.560356 0.630881
O O1 0.585391 0.526472 0.726924
O O2 0.719646 0.503755 0.858975
O O3 0.654120 0.710296 0.802504
O O4 0.747932 0.600420 0.698395
O O5 0.530847 0.632932 0.330616
O O6 0.146432 0.838772 0.960692
O O7 0.279320 0.956797 0.028710
O O8 0.120563 0.065073 0.986295
O O9 0.195071 0.186860 0.121874
O O10 0.025356 0.244399 0.043080
O O11 0.164881 0.288683 0.968276
O O12 0.147720 0.568069 0.335356
O O13 0.903466 0.652045 0.633981
#
# Coordination Sequence:
#
# PCOD8145733 Si02
#       7
#     8   4   8   8   8   8   8
#     4  10  22  39  67  85 126 166 217 261 307 383
#     4  10  22  40  60  90 116 166 216 256 310 376
#     4   9  20  40  61  93 121 170 213 254 311 370
#     4   9  18  36  63  82 118 161 211 256 302 381
#     4   9  20  38  58  85 116 167 207 249 325 370
#     4  11  22  35  62  93 126 160 210 266 316 365
#     4  11  23  37  61  96 128 166 206 267 320 374
#
# _framework density 20.491313999999999
#
# number of rings (size 3 to 8) (size 9 to 14) (size 15 to 20)
#    0.000    2.154    0.000    3.692    6.462    3.077 
#    0.000    0.769    0.000    0.000    0.000    0.000 
#    0.000    0.000    0.000    0.000    0.000    0.000 
#
# Total GULP energy -322220.103932 kJ/mol
# GULP energy per Si atom -12393.080920 kJ/mol
# Density = 2.044468 g / cm^3
# Si number density = 20.491314 Si / 1000 Ang^3
#
#
#
# Elastic Constant Matrix: (Units=GPa)
#
#
# Indices 1 2 3 4 5 6 
#
# 1 73.0437 49.6830 28.4191 0.0000 -13.8751 0.0000
# 2 49.6830 152.3895 25.1557 0.0000 -2.0113 0.0000
# 3 28.4191 25.1557 49.6621 0.0000 -5.2707 0.0000
# 4 0.0000 0.0000 0.0000 68.0639 0.0000 70.6299
# 5 -13.8751 -2.0113 -5.2707 0.0000 25.4492 0.0000
# 6 0.0000 0.0000 0.0000 70.6299 0.0000 134.6839
#
#
#
# Elastic Compliance Matrix: (Units=1/GPa)
#
#
# Indices 1 2 3 4 5 6 
#
# 1 0.023267 -0.005928 -0.009218 0.000000 0.010308 0.000000
# 2 -0.005928 0.008672 -0.001299 0.000000 -0.002816 0.000000
# 3 -0.009218 -0.001299 0.026098 0.000000 0.000277 0.000000
# 4 0.000000 0.000000 0.000000 0.032232 0.000000 -0.016903
# 5 0.010308 -0.002816 0.000277 0.000000 0.044749 0.000000
# 6 0.000000 0.000000 0.000000 -0.016903 0.000000 0.016289
#
#
# Mechanical properties :
#
#
# Convention : Reuss Voigt Hill
#
# Bulk Modulus (GPa) = 39.76548 53.51231 46.63890
# Shear Modulus (GPa) = 25.96323 57.09524 41.52924
#
# Velocity S-wave (km/s) = 3.56341 5.28428 4.50674
# Velocity P-wave (km/s) = 6.03147 7.96259 7.06334
#
# Compressibility (1/GPa) = 0.02514744
#
# Stress axis : x y z
#
# Youngs Moduli (GPa) = 42.97945 115.31199 38.31638
#
# Poissons Ratio (x) = 0.68357 0.35319
# Poissons Ratio (y) = 0.25478 0.04978
# Poissons Ratio (z) = 0.39618 0.14983
#
# Static dielectric constant tensor:
#      x y z
#    x 2.688100 0.000000 -0.837980 
#    y 0.000000 4.044730 0.000000 
#    z -0.837980 0.000000 2.963960 
# 
# 
# High freq. dielectric constant tensor:
#      x y z
#    x 1.772420 0.000000 -0.006150 
#    y 0.000000 1.812500 0.000000 
#    z -0.006150 0.000000 1.792700 
# 
# From -- ./inp_files/203570.got.cif
#   From: 2010.06.25/outbox.cif.g09.slc.cpg/sg15_102_cif.got.tgz:203570.got - 2010.06.28 07:06:18.
