data_PCOD8145325
_publ_section_title
;
Structure prediction by ZEFSAII (Michael W. Deem and Ramdas Pophale) SiO2 
 PCOD8145325
Probable space group: C 2/C
;
_chemical_formula_sum "Si O2"
_cell_formula_units_Z 64
_cell_length_a 21.695017
_cell_length_b 17.158638
_cell_length_c 16.585402
_cell_angle_alpha 90.000000
_cell_angle_beta 31.196799
_cell_angle_gamma 90.000000
_cell_volume 3198.019794
_symmetry_space_group_name_H-M "C 2/C"
_symmetry_group_IT_number 15
_symmetry_cell_setting 'monoclinic'
loop_
_space_group_symop_operation_xyz
x,y,z
-x,y,1/2-z
-x,-y,-z
x,-y,1/2+z
1/2+x,1/2+y,z
1/2-x,1/2+y,1/2-z
1/2-x,1/2-y,-z
1/2+x,1/2-y,1/2+z
loop_
_atom_site_type_symbol
_atom_site_label
_atom_site_fract_x
_atom_site_fract_y
_atom_site_fract_z
Si Si1 0.018007 0.667266 0.440276
Si Si2 0.781336 0.944271 0.031747
Si Si3 0.773807 0.599985 0.743210
Si Si4 0.515399 0.446576 0.141984
Si Si5 0.064125 0.551673 0.259280
Si Si6 0.852651 0.918792 0.784751
Si Si7 0.627941 0.949594 0.936975
Si Si8 0.022396 0.152820 0.964549
O O1 0.083011 0.631734 0.288382
O O2 0.073228 0.624633 0.455003
O O3 0.043709 0.757291 0.423207
O O4 0.875815 0.654570 0.591613
O O5 0.730604 0.884292 0.155229
O O6 0.687046 0.007223 0.102832
O O7 0.837965 0.893083 0.895394
O O8 0.880428 0.990627 0.971576
O O9 0.806821 0.508526 0.697214
O O10 0.651054 0.615934 0.835124
O O11 0.500000 0.410703 0.250000
O O12 0.399632 0.492472 0.238563
O O13 0.539872 0.381363 0.046808
O O14 0.000000 0.577649 0.250000
O O15 0.981847 0.492961 0.400247
O O16 0.720921 0.917121 0.896943
O O17 0.938589 0.862787 0.636251
#
# Coordination Sequence:
#
# PCOD8145325 Si02
#       8
#     8   8   8   8   8   8   8   8
#     4  11  26  38  61  94 128 168 209 249 327 390
#     4  11  20  38  67  91 115 155 221 272 295 357
#     4  11  21  41  65  85 121 165 215 260 302 368
#     4  10  22  38  63  93 119 158 213 258 304 366
#     4  11  21  39  65  93 119 160 217 270 310 364
#     4  11  22  36  64  93 117 160 214 260 309 366
#     4  11  20  39  66  90 116 164 219 258 304 375
#     4  12  25  40  60  94 135 166 198 260 328 385
#
# _framework density 20.012384000000001
#
# number of rings (size 3 to 8) (size 9 to 14) (size 15 to 20)
#    0.000    1.000    6.250    1.875    1.750    0.500 
#    0.000    0.625    5.500    4.500    0.000    0.000 
#    0.000    0.000    0.000    0.000    0.000    0.000 
#
# Total GULP energy -396693.285558 kJ/mol
# GULP energy per Si atom -12396.665174 kJ/mol
# Density = 1.996683 g / cm^3
# Si number density = 20.012384 Si / 1000 Ang^3
#
#
#
# Elastic Constant Matrix: (Units=GPa)
#
#
# Indices 1 2 3 4 5 6 
#
# 1 113.5693 36.0645 32.0475 0.0000 4.2840 0.0001
# 2 36.0645 72.2002 9.0148 0.0000 10.3676 0.0001
# 3 32.0475 9.0148 64.2136 0.0000 9.9008 0.0001
# 4 0.0000 0.0000 0.0000 8.0273 0.0000 3.1012
# 5 4.2840 10.3676 9.9008 0.0000 40.4023 0.0000
# 6 0.0001 0.0001 0.0001 3.1012 0.0000 19.0620
#
#
#
# Elastic Compliance Matrix: (Units=1/GPa)
#
#
# Indices 1 2 3 4 5 6 
#
# 1 0.012055 -0.005552 -0.005466 0.000000 0.001486 0.000000
# 2 -0.005552 0.017079 0.000996 0.000000 -0.004038 0.000000
# 3 -0.005466 0.000996 0.018822 0.000000 -0.004288 0.000000
# 4 0.000000 0.000000 0.000000 0.132930 0.000000 -0.021627
# 5 0.001486 -0.004038 -0.004288 0.000000 0.026681 0.000000
# 6 0.000000 0.000000 0.000000 -0.021627 0.000000 0.055979
#
#
# Mechanical properties :
#
#
# Convention : Reuss Voigt Hill
#
# Bulk Modulus (GPa) = 35.82719 44.91519 40.37119
# Shear Modulus (GPa) = 17.07101 25.02208 21.04654
#
# Velocity S-wave (km/s) = 2.92382 3.53984 3.24647
# Velocity P-wave (km/s) = 5.41661 6.26096 5.85403
#
# Compressibility (1/GPa) = 0.02791176
#
# Stress axis : x y z
#
# Youngs Moduli (GPa) = 82.95530 58.55043 53.12849
#
# Poissons Ratio (x) = 0.32509 0.29039
# Poissons Ratio (y) = 0.46059 -0.05291
# Poissons Ratio (z) = 0.45342 -0.05831
#
# Static dielectric constant tensor:
#      x y z
#    x 3.933600 0.000000 0.099190 
#    y 0.000000 3.227700 0.000000 
#    z 0.099190 0.000000 3.958330 
# 
# 
# High freq. dielectric constant tensor:
#      x y z
#    x 1.801600 0.000000 -0.002160 
#    y 0.000000 1.729170 0.000000 
#    z -0.002160 0.000000 1.795150 
# 
# From -- ./inp_files/219698.got.cif
#   From: 2010.06.25/outbox.cif.g09.slc.cpg/sg15_110_cif.got.tgz:219698.got - 2010.06.28 07:06:18.
