data_PCOD8145690
_publ_section_title
;
Structure prediction by ZEFSAII (Michael W. Deem and Ramdas Pophale) SiO2 
 PCOD8145690
Probable space group: C 2/C
;
_chemical_formula_sum "Si O2"
_cell_formula_units_Z 56
_cell_length_a 17.472853
_cell_length_b 21.455070
_cell_length_c 14.558432
_cell_angle_alpha 90.000000
_cell_angle_beta 154.004213
_cell_angle_gamma 90.000000
_cell_volume 2392.130356
_symmetry_space_group_name_H-M "C 2/C"
_symmetry_group_IT_number 15
_symmetry_cell_setting 'monoclinic'
loop_
_space_group_symop_operation_xyz
x,y,z
-x,y,1/2-z
-x,-y,-z
x,-y,1/2+z
1/2+x,1/2+y,z
1/2-x,1/2+y,1/2-z
1/2-x,1/2-y,-z
1/2+x,1/2-y,1/2+z
loop_
_atom_site_type_symbol
_atom_site_label
_atom_site_fract_x
_atom_site_fract_y
_atom_site_fract_z
Si Si1 0.382698 0.074539 0.948887
Si Si2 0.798653 0.486156 0.172206
Si Si3 0.782182 0.683786 0.421441
Si Si4 0.128384 0.179408 0.058398
Si Si5 0.500000 0.287937 0.750000
Si Si6 0.026748 0.955934 0.115204
Si Si7 0.534308 0.196934 0.179283
Si Si8 0.500000 0.086369 0.750000
O O1 0.311003 0.063886 0.768390
O O2 0.235571 0.046122 0.861160
O O3 0.404828 0.147921 0.990421
O O4 0.567915 0.042174 0.163565
O O5 0.846350 0.454535 0.127810
O O6 0.603418 0.514991 0.948551
O O7 0.738049 0.691798 0.268343
O O8 0.612771 0.669533 0.302330
O O9 0.870275 0.747747 0.547682
O O10 0.917174 0.627105 0.578907
O O11 0.264555 0.177688 0.120653
O O12 0.026642 0.115223 0.961574
O O13 0.992495 0.234952 0.893607
O O14 0.000000 0.000000 0.000000
O O15 0.500000 0.197052 0.250000
#
# Coordination Sequence:
#
# PCOD8145690 Si02
#       8
#     8   8   8   8   4   8   8   4
#     4  10  22  43  71  93 136 183 231 289 350 419
#     4  10  22  43  65  97 136 182 232 285 351 412
#     4  10  22  39  65  95 136 177 221 279 351 416
#     4  12  24  44  69  98 140 183 232 291 355 424
#     4   9  20  40  60  98 136 172 221 276 336 430
#     4  10  23  42  70  98 130 182 238 280 341 423
#     4  12  26  44  70 103 140 182 240 299 356 423
#     4  11  24  38  64  98 134 174 229 284 342 414
#
# _framework density 23.410095999999999
#
# number of rings (size 3 to 8) (size 9 to 14) (size 15 to 20)
#    0.000    1.429    1.429    3.000    5.000    4.571 
#    0.000    1.429    0.000    0.000    0.000    0.000 
#    0.000    0.000    0.000    0.000    0.000    0.000 
#
# Total GULP energy -347157.432947 kJ/mol
# GULP energy per Si atom -12398.479748 kJ/mol
# Density = 2.335681 g / cm^3
# Si number density = 23.410096 Si / 1000 Ang^3
#
#
#
# Elastic Constant Matrix: (Units=GPa)
#
#
# Indices 1 2 3 4 5 6 
#
# 1 112.7712 36.8448 22.6934 0.0000 18.8802 0.0000
# 2 36.8448 135.7747 16.0280 0.0000 0.5953 0.0000
# 3 22.6934 16.0280 42.1638 0.0000 10.3610 0.0000
# 4 0.0000 0.0000 0.0000 17.5676 0.0000 13.3234
# 5 18.8802 0.5953 10.3610 0.0000 50.0615 0.0000
# 6 0.0000 0.0000 0.0000 13.3234 0.0000 33.1653
#
#
#
# Elastic Compliance Matrix: (Units=1/GPa)
#
#
# Indices 1 2 3 4 5 6 
#
# 1 0.011078 -0.002495 -0.004209 0.000000 -0.003277 0.000000
# 2 -0.002495 0.008287 -0.002122 0.000000 0.001282 0.000000
# 3 -0.004209 -0.002122 0.027807 0.000000 -0.004143 0.000000
# 4 0.000000 0.000000 0.000000 0.081865 0.000000 -0.032887
# 5 -0.003277 0.001282 -0.004143 0.000000 0.022054 0.000000
# 6 0.000000 0.000000 0.000000 -0.032887 0.000000 0.043364
#
#
# Mechanical properties :
#
#
# Convention : Reuss Voigt Hill
#
# Bulk Modulus (GPa) = 33.87511 49.09356 41.48434
# Shear Modulus (GPa) = 22.52789 34.50177 28.51483
#
# Velocity S-wave (km/s) = 3.10549 3.84317 3.49385
# Velocity P-wave (km/s) = 5.23072 6.38043 5.83397
#
# Compressibility (1/GPa) = 0.02952020
#
# Stress axis : x y z
#
# Youngs Moduli (GPa) = 90.26611 120.66881 35.96218
#
# Poissons Ratio (x) = 0.30108 0.15136
# Poissons Ratio (y) = 0.22522 0.07632
# Poissons Ratio (z) = 0.37991 0.25610
#
# Static dielectric constant tensor:
#      x y z
#    x 4.430660 0.000000 0.491880 
#    y 0.000000 4.214070 0.000000 
#    z 0.491880 0.000000 4.081430 
# 
# 
# High freq. dielectric constant tensor:
#      x y z
#    x 1.935630 0.000000 0.026550 
#    y 0.000000 1.928270 0.000000 
#    z 0.026550 0.000000 1.913740 
# 
# From -- ./inp_files/163847.got.cif
#   From: 2010.06.25/outbox.cif.g09.slc.cpg/sg15_82_cif.got.tgz:163847.got - 2010.06.28 07:06:18.
