data_PCOD8145726
_publ_section_title
;
Structure prediction by ZEFSAII (Michael W. Deem and Ramdas Pophale) SiO2 
 PCOD8145726
Probable space group: C 2/C
;
_chemical_formula_sum "Si O2"
_cell_formula_units_Z 48
_cell_length_a 18.621698
_cell_length_b 21.364518
_cell_length_c 11.991339
_cell_angle_alpha 90.000000
_cell_angle_beta 30.100571
_cell_angle_gamma 90.000000
_cell_volume 2392.587123
_symmetry_space_group_name_H-M "C 2/C"
_symmetry_group_IT_number 15
_symmetry_cell_setting 'monoclinic'
loop_
_space_group_symop_operation_xyz
x,y,z
-x,y,1/2-z
-x,-y,-z
x,-y,1/2+z
1/2+x,1/2+y,z
1/2-x,1/2+y,1/2-z
1/2-x,1/2-y,-z
1/2+x,1/2-y,1/2+z
loop_
_atom_site_type_symbol
_atom_site_label
_atom_site_fract_x
_atom_site_fract_y
_atom_site_fract_z
Si Si1 0.141305 0.306742 0.376497
Si Si2 0.500000 0.888201 0.750000
Si Si3 0.167793 0.212378 0.516227
Si Si4 0.584657 0.740227 0.244919
Si Si5 0.799994 0.914734 0.420852
Si Si6 0.917822 0.121485 0.526712
Si Si7 0.500000 0.483451 0.750000
O O1 0.035382 0.343832 0.599067
O O2 0.210484 0.244196 0.340979
O O3 0.046144 0.286934 0.398367
O O4 0.276180 0.349345 0.160315
O O5 0.638274 0.930359 0.596141
O O6 0.250000 0.250000 0.500000
O O7 0.205274 0.139129 0.477362
O O8 0.000000 0.222860 0.750000
O O9 0.500000 0.761954 0.250000
O O10 0.549303 0.668818 0.328385
O O11 0.750000 0.750000 0.000000
O O12 0.896007 0.890292 0.187982
O O13 0.866322 0.975479 0.388279
O O14 0.949006 0.056521 0.423817
#
# Coordination Sequence:
#
# PCOD8145726 Si02
#       7
#     8   4   8   8   8   8   4
#     4  11  22  38  68  97 138 162 212 273 345 385
#     4  10  22  39  66  98 129 156 202 290 344 360
#     4  12  20  35  61 101 129 157 201 274 339 385
#     4  12  24  41  62  94 132 178 215 259 328 396
#     4  11  24  40  65  96 126 169 217 271 328 384
#     4  11  23  43  65  90 132 179 211 273 316 384
#     4  12  24  45  64  84 129 180 240 244 300 402
#
# _framework density 20.061965000000001
#
# number of rings (size 3 to 8) (size 9 to 14) (size 15 to 20)
#    0.000    0.667    7.500    1.500    2.333    0.000 
#    0.000    3.333    7.333    0.000    0.000    0.000 
#    0.000    0.000    0.000    0.000    0.000    0.000 
#
# Total GULP energy -297566.906182 kJ/mol
# GULP energy per Si atom -12398.621091 kJ/mol
# Density = 2.001630 g / cm^3
# Si number density = 20.061965 Si / 1000 Ang^3
#
#
#
# Elastic Constant Matrix: (Units=GPa)
#
#
# Indices 1 2 3 4 5 6 
#
# 1 132.8773 50.1684 43.4496 -0.0004 -12.3560 0.0011
# 2 50.1684 121.2273 45.7167 0.0001 -9.1992 0.0003
# 3 43.4496 45.7167 100.9691 0.0005 -16.7168 0.0009
# 4 -0.0004 0.0001 0.0005 32.4539 0.0005 -0.6860
# 5 -12.3560 -9.1992 -16.7168 0.0005 35.9550 -0.0017
# 6 0.0011 0.0003 0.0009 -0.6860 -0.0017 38.6742
#
#
#
# Elastic Compliance Matrix: (Units=1/GPa)
#
#
# Indices 1 2 3 4 5 6 
#
# 1 0.009590 -0.002887 -0.002596 0.000000 0.001350 0.000000
# 2 -0.002887 0.010825 -0.003645 0.000000 0.000083 0.000000
# 3 -0.002596 -0.003645 0.013401 0.000000 0.004406 0.000000
# 4 0.000000 0.000000 0.000000 0.030825 0.000000 0.000547
# 5 0.001350 0.000083 0.004406 0.000000 0.030346 0.000001
# 6 0.000000 0.000000 0.000000 0.000547 0.000001 0.025867
#
#
# Mechanical properties :
#
#
# Convention : Reuss Voigt Hill
#
# Bulk Modulus (GPa) = 64.27121 70.41589 67.34355
# Shear Modulus (GPa) = 34.65083 35.79923 35.22503
#
# Velocity S-wave (km/s) = 4.16046 4.22884 4.19479
# Velocity P-wave (km/s) = 7.42867 7.68241 7.55661
#
# Compressibility (1/GPa) = 0.01555907
#
# Stress axis : x y z
#
# Youngs Moduli (GPa) = 104.27198 92.38118 74.62108
#
# Poissons Ratio (x) = 0.26674 0.19373
# Poissons Ratio (y) = 0.30107 0.27200
# Poissons Ratio (z) = 0.27070 0.33673
#
# Static dielectric constant tensor:
#      x y z
#    x 3.788070 -0.000020 0.068840 
#    y -0.000020 3.587540 0.000000 
#    z 0.068840 0.000000 3.835730 
# 
# 
# High freq. dielectric constant tensor:
#      x y z
#    x 1.793020 0.000000 -0.002590 
#    y 0.000000 1.758330 0.000000 
#    z -0.002590 0.000000 1.789810 
# 
# From -- ./inp_files/108064.got.cif
#   From: 2010.06.25/outbox.cif.g09.slc.cpg/sg15_55_cif.got.tgz:108064.got - 2010.06.28 07:06:18.
