data_PCOD8145989
_publ_section_title
;
Structure prediction by ZEFSAII (Michael W. Deem and Ramdas Pophale) SiO2 
 PCOD8145989
Probable space group: C 2/C
;
_chemical_formula_sum "Si O2"
_cell_formula_units_Z 36
_cell_length_a 23.098608
_cell_length_b 5.046188
_cell_length_c 12.622589
_cell_angle_alpha 90.000000
_cell_angle_beta 111.192457
_cell_angle_gamma 90.000000
_cell_volume 1371.786803
_symmetry_space_group_name_H-M "C 2/C"
_symmetry_group_IT_number 15
_symmetry_cell_setting 'monoclinic'
loop_
_space_group_symop_operation_xyz
x,y,z
-x,y,1/2-z
-x,-y,-z
x,-y,1/2+z
1/2+x,1/2+y,z
1/2-x,1/2+y,1/2-z
1/2-x,1/2-y,-z
1/2+x,1/2-y,1/2+z
loop_
_atom_site_type_symbol
_atom_site_label
_atom_site_fract_x
_atom_site_fract_y
_atom_site_fract_z
Si Si1 0.786194 0.804977 0.150243
Si Si2 0.000000 0.395392 0.250000
Si Si3 0.794678 0.802886 0.399033
Si Si4 0.382783 0.915896 0.555614
Si Si5 0.462445 0.746349 0.438787
O O1 0.811306 0.773011 0.285922
O O2 0.728933 0.599830 0.088767
O O3 0.841919 0.755271 0.107644
O O4 0.761728 0.100508 0.111811
O O5 0.049858 0.567223 0.346591
O O6 0.041078 0.228516 0.191929
O O7 0.853845 0.705353 0.507377
O O8 0.394220 0.755395 0.451100
O O9 0.500000 0.500000 0.500000
O O10 0.500000 0.000000 0.500000
#
# Coordination Sequence:
#
# PCOD8145989 Si02
#       5
#     8   4   8   8   8
#     4  10  22  40  64  94 128 168 217 274 333 395
#     4  10  24  44  66  96 134 176 222 274 332 400
#     4  10  22  40  64  96 129 168 217 272 336 396
#     4  11  22  42  66  95 131 175 221 275 332 401
#     4  10  24  43  64  92 128 173 222 269 324 388
#
# _framework density 26.243141999999999
#
# number of rings (size 3 to 8) (size 9 to 14) (size 15 to 20)
#    0.000    1.778    0.000    2.667    0.000   10.667 
#    0.000   13.333    0.000    0.000    0.000    0.000 
#    0.000    0.000    0.000    0.000    0.000    0.000 
#
# Total GULP energy -223136.635182 kJ/mol
# GULP energy per Si atom -12396.479732 kJ/mol
# Density = 2.618341 g / cm^3
# Si number density = 26.243142 Si / 1000 Ang^3
#
#
#
# Elastic Constant Matrix: (Units=GPa)
#
#
# Indices 1 2 3 4 5 6 
#
# 1 181.6669 17.9933 55.9157 0.0000 -51.4035 0.0000
# 2 17.9933 114.2510 2.2348 0.0000 -8.2723 0.0000
# 3 55.9157 2.2348 101.8830 0.0000 -6.4240 0.0000
# 4 0.0000 0.0000 0.0000 32.7304 0.0000 4.7256
# 5 -51.4035 -8.2723 -6.4240 0.0000 68.1034 0.0000
# 6 0.0000 0.0000 0.0000 4.7256 0.0000 13.3182
#
#
#
# Elastic Compliance Matrix: (Units=1/GPa)
#
#
# Indices 1 2 3 4 5 6 
#
# 1 0.008617 -0.000838 -0.004333 0.000000 0.005994 0.000000
# 2 -0.000838 0.008914 0.000295 0.000000 0.000478 0.000000
# 3 -0.004333 0.000295 0.012055 0.000000 -0.002098 0.000000
# 4 0.000000 0.000000 0.000000 0.032202 0.000000 -0.011426
# 5 0.005994 0.000478 -0.002098 0.000000 0.019068 0.000000
# 6 0.000000 0.000000 0.000000 -0.011426 0.000000 0.079140
#
#
# Mechanical properties :
#
#
# Convention : Reuss Voigt Hill
#
# Bulk Modulus (GPa) = 50.42388 61.12095 55.77241
# Shear Modulus (GPa) = 28.35129 44.27419 36.31274
#
# Velocity S-wave (km/s) = 3.29041 4.11186 3.72385
# Velocity P-wave (km/s) = 5.80444 6.77377 6.30775
#
# Compressibility (1/GPa) = 0.01983187
#
# Stress axis : x y z
#
# Youngs Moduli (GPa) = 116.04688 112.18909 82.95648
#
# Poissons Ratio (x) = 0.09406 0.35945
# Poissons Ratio (y) = 0.09729 -0.02445
# Poissons Ratio (z) = 0.50283 -0.03307
#
# Static dielectric constant tensor:
#      x y z
#    x 5.577990 0.000000 -0.917160 
#    y 0.000000 4.461600 0.000000 
#    z -0.917160 0.000000 5.286350 
# 
# 
# High freq. dielectric constant tensor:
#      x y z
#    x 2.065650 0.000000 -0.033570 
#    y 0.000000 2.039730 0.000000 
#    z -0.033570 0.000000 2.071510 
# 
# From -- ./inp_files/170624.got.cif
#   From: 2010.06.25/outbox.cif.g09.slc.cpg/sg15_86_cif.got.tgz:170624.got - 2010.06.28 07:06:18.
