data_PCOD8145119
_publ_section_title
;
Structure prediction by ZEFSAII (Michael W. Deem and Ramdas Pophale) SiO2 
 PCOD8145119
Probable space group: C 2/C
;
_chemical_formula_sum "Si O2"
_cell_formula_units_Z 56
_cell_length_a 8.823239
_cell_length_b 19.000354
_cell_length_c 25.790148
_cell_angle_alpha 90.000000
_cell_angle_beta 142.825641
_cell_angle_gamma 90.000000
_cell_volume 2612.491610
_symmetry_space_group_name_H-M "C 2/C"
_symmetry_group_IT_number 15
_symmetry_cell_setting 'monoclinic'
loop_
_space_group_symop_operation_xyz
x,y,z
-x,y,1/2-z
-x,-y,-z
x,-y,1/2+z
1/2+x,1/2+y,z
1/2-x,1/2+y,1/2-z
1/2-x,1/2-y,-z
1/2+x,1/2-y,1/2+z
loop_
_atom_site_type_symbol
_atom_site_label
_atom_site_fract_x
_atom_site_fract_y
_atom_site_fract_z
Si Si1 0.188283 0.300878 0.342654
Si Si2 0.445301 0.394417 0.572625
Si Si3 0.089224 0.729295 0.382278
Si Si4 0.085188 0.103348 0.999164
Si Si5 0.805318 0.237872 0.311732
Si Si6 0.627712 0.153825 0.585714
Si Si7 0.223834 0.973159 0.433873
O O1 0.392607 0.254610 0.370026
O O2 0.321283 0.361984 0.410934
O O3 0.000000 0.337569 0.250000
O O4 0.034026 0.244604 0.334248
O O5 0.525515 0.429906 0.539385
O O6 0.630838 0.329407 0.634547
O O7 0.458730 0.457684 0.619516
O O8 0.162014 0.365817 0.492993
O O9 0.187730 0.656693 0.430367
O O10 0.321704 0.784193 0.442530
O O11 0.960625 0.724225 0.289611
O O12 0.188906 0.051644 0.983677
O O13 0.792808 0.313646 0.337373
O O14 0.814356 0.088759 0.619269
O O15 0.500000 0.000000 0.500000
#
# Coordination Sequence:
#
# PCOD8145119 Si02
#       7
#     8   8   8   8   8   8   8
#     4  10  22  37  61  97 127 156 205 273 323 371
#     4  11  23  39  64  92 127 172 202 265 319 391
#     4  11  23  35  66  98 123 164 206 276 313 375
#     4  12  21  40  66  89 124 169 214 256 321 382
#     4  11  22  39  63  96 133 154 217 266 328 365
#     4  11  20  39  64  93 124 162 207 264 315 381
#     4  10  25  40  63  90 125 167 217 254 319 392
#
# _framework density 21.435476000000001
#
# number of rings (size 3 to 8) (size 9 to 14) (size 15 to 20)
#    0.000    1.143    4.286    2.571    4.000    0.000 
#    0.000    0.000   18.857    0.000    0.000    0.000 
#    0.000    0.000    0.000    0.000    0.000    0.000 
#
# Total GULP energy -346912.013729 kJ/mol
# GULP energy per Si atom -12389.714776 kJ/mol
# Density = 2.138669 g / cm^3
# Si number density = 21.435476 Si / 1000 Ang^3
#
#
#
# Elastic Constant Matrix: (Units=GPa)
#
#
# Indices 1 2 3 4 5 6 
#
# 1 112.8042 36.4179 22.7407 -0.0024 4.6356 -0.0013
# 2 36.4179 87.2882 9.9262 -0.0012 -1.5035 -0.0007
# 3 22.7407 9.9262 49.2317 -0.0044 0.6642 -0.0024
# 4 -0.0024 -0.0012 -0.0044 8.6932 -0.0016 -4.4894
# 5 4.6356 -1.5035 0.6642 -0.0016 32.5525 -0.0008
# 6 -0.0013 -0.0007 -0.0024 -4.4894 -0.0008 43.2998
#
#
#
# Elastic Compliance Matrix: (Units=1/GPa)
#
#
# Indices 1 2 3 4 5 6 
#
# 1 0.011152 -0.004195 -0.004283 0.000000 -0.001694 0.000000
# 2 -0.004195 0.013314 -0.000763 0.000001 0.001228 0.000000
# 3 -0.004283 -0.000763 0.022443 0.000011 0.000117 0.000002
# 4 0.000000 0.000001 0.000011 0.121540 0.000006 0.012601
# 5 -0.001694 0.001228 0.000117 0.000006 0.031015 0.000001
# 6 0.000000 0.000000 0.000002 0.012601 0.000001 0.024401
#
#
# Mechanical properties :
#
#
# Convention : Reuss Voigt Hill
#
# Bulk Modulus (GPa) = 35.17743 43.05485 39.11614
# Shear Modulus (GPa) = 19.85512 28.92505 24.39008
#
# Velocity S-wave (km/s) = 3.04678 3.67740 3.37684
# Velocity P-wave (km/s) = 5.36876 6.17742 5.78723
#
# Compressibility (1/GPa) = 0.02842732
#
# Stress axis : x y z
#
# Youngs Moduli (GPa) = 89.66794 75.10615 44.55797
#
# Poissons Ratio (x) = 0.31507 0.19083
# Poissons Ratio (y) = 0.37616 0.03401
# Poissons Ratio (z) = 0.38402 0.05733
#
# Static dielectric constant tensor:
#      x y z
#    x 4.495880 0.000000 -0.099520 
#    y 0.000000 4.102460 0.000000 
#    z -0.099520 0.000000 3.815040 
# 
# 
# High freq. dielectric constant tensor:
#      x y z
#    x 1.887830 0.000000 0.006140 
#    y 0.000000 1.829870 0.000000 
#    z 0.006140 0.000000 1.807970 
# 
# From -- ./inp_files/265578.got.cif
#   From: 2010.06.25/outbox.cif.g09.slc.cpg/sg15_133_cif.got.tgz:265578.got - 2010.06.28 07:06:18.
