data_PCOD8145886
_publ_section_title
;
Structure prediction by ZEFSAII (Michael W. Deem and Ramdas Pophale) SiO2 
 PCOD8145886
Probable space group: C 2/C
;
_chemical_formula_sum "Si O2"
_cell_formula_units_Z 64
_cell_length_a 13.103979
_cell_length_b 26.220881
_cell_length_c 17.374727
_cell_angle_alpha 90.000000
_cell_angle_beta 34.191842
_cell_angle_gamma 90.000000
_cell_volume 3354.889313
_symmetry_space_group_name_H-M "C 2/C"
_symmetry_group_IT_number 15
_symmetry_cell_setting 'monoclinic'
loop_
_space_group_symop_operation_xyz
x,y,z
-x,y,1/2-z
-x,-y,-z
x,-y,1/2+z
1/2+x,1/2+y,z
1/2-x,1/2+y,1/2-z
1/2-x,1/2-y,-z
1/2+x,1/2-y,1/2+z
loop_
_atom_site_type_symbol
_atom_site_label
_atom_site_fract_x
_atom_site_fract_y
_atom_site_fract_z
Si Si1 0.652850 0.957869 0.211036
Si Si2 0.332250 0.561842 0.303055
Si Si3 0.796107 0.051489 0.884688
Si Si4 0.307590 0.066333 0.376265
Si Si5 0.807280 0.201825 0.555418
Si Si6 0.005516 0.295865 0.366960
Si Si7 0.546367 0.101355 0.923821
Si Si8 0.513701 0.401945 0.950915
O O1 0.500000 0.933420 0.250000
O O2 0.608770 0.941402 0.324651
O O3 0.655520 0.018560 0.203416
O O4 0.850445 0.940174 0.064854
O O5 0.500000 0.579825 0.250000
O O6 0.283647 0.502878 0.349258
O O7 0.374839 0.573976 0.188512
O O8 0.165567 0.597196 0.428836
O O9 0.661601 0.092018 0.929226
O O10 0.000000 0.072908 0.750000
O O11 0.741304 0.046336 0.008068
O O12 0.500000 0.097172 0.250000
O O13 0.144011 0.099989 0.444569
O O14 0.948623 0.247303 0.452512
O O15 0.674458 0.187734 0.567684
O O16 0.677882 0.218116 0.706530
O O17 0.936914 0.154242 0.488714
O O18 0.078657 0.341580 0.374209
#
# Coordination Sequence:
#
# PCOD8145886 Si02
#       8
#     8   8   8   8   8   8   8   8
#     4  11  20  35  58  87 118 154 197 242 286 357
#     4  11  22  35  54  89 125 154 193 240 291 346
#     4  11  23  39  55  84 122 161 201 247 280 330
#     4  11  23  39  57  82 122 164 204 242 282 331
#     4  10  22  40  62  90 118 145 187 240 301 360
#     4  10  22  40  62  90 117 148 184 241 304 358
#     4  12  22  37  61  85 118 160 200 237 293 351
#     4  12  22  37  61  87 116 162 200 236 291 357
#
# _framework density 19.076636000000001
#
# number of rings (size 3 to 8) (size 9 to 14) (size 15 to 20)
#    0.000    1.000    1.250    8.250    1.750    0.000 
#    0.000    0.000    0.000    1.500    0.000    0.000 
#    0.000    0.000    0.000    0.000    0.000    0.000 
#
# Total GULP energy -396825.956532 kJ/mol
# GULP energy per Si atom -12400.811142 kJ/mol
# Density = 1.903322 g / cm^3
# Si number density = 19.076636 Si / 1000 Ang^3
#
#
#
# Elastic Constant Matrix: (Units=GPa)
#
#
# Indices 1 2 3 4 5 6 
#
# 1 113.7192 35.9323 46.2943 -0.0252 -15.5423 -0.0025
# 2 35.9323 86.4705 27.5195 0.0160 4.4602 0.0050
# 3 46.2943 27.5195 134.6974 -0.0814 -4.0242 -0.0118
# 4 -0.0252 0.0160 -0.0814 55.1341 0.0163 7.3863
# 5 -15.5423 4.4602 -4.0242 0.0163 37.0906 0.0025
# 6 -0.0025 0.0050 -0.0118 7.3863 0.0025 27.7678
#
#
#
# Elastic Compliance Matrix: (Units=1/GPa)
#
#
# Indices 1 2 3 4 5 6 
#
# 1 0.012159 -0.004326 -0.003137 0.000001 0.005275 0.000000
# 2 -0.004326 0.014025 -0.001488 -0.000007 -0.003661 -0.000001
# 3 -0.003137 -0.001488 0.008801 0.000012 -0.000181 0.000001
# 4 0.000001 -0.000007 0.000012 0.018808 -0.000006 -0.005003
# 5 0.005275 -0.003661 -0.000181 -0.000006 0.029592 0.000000
# 6 0.000000 -0.000001 0.000001 -0.005003 0.000000 0.037344
#
#
# Mechanical properties :
#
#
# Convention : Reuss Voigt Hill
#
# Bulk Modulus (GPa) = 58.54254 61.59771 60.07012
# Shear Modulus (GPa) = 34.64425 39.00791 36.82608
#
# Velocity S-wave (km/s) = 4.26614 4.52685 4.39843
# Velocity P-wave (km/s) = 7.41764 7.72547 7.57312
#
# Compressibility (1/GPa) = 0.01708160
#
# Stress axis : x y z
#
# Youngs Moduli (GPa) = 82.24620 71.30314 113.62442
#
# Poissons Ratio (x) = 0.30846 0.35648
# Poissons Ratio (y) = 0.35580 0.16906
# Poissons Ratio (z) = 0.25804 0.10609
#
# Static dielectric constant tensor:
#      x y z
#    x 3.662360 -0.000020 -0.198040 
#    y -0.000020 3.184150 -0.000010 
#    z -0.198040 -0.000010 3.811080 
# 
# 
# High freq. dielectric constant tensor:
#      x y z
#    x 1.738380 0.000000 -0.007550 
#    y 0.000000 1.706390 0.000000 
#    z -0.007550 0.000000 1.769070 
# 
# From -- ./inp_files/148749.got.cif
#   From: 2010.06.25/outbox.cif.g09.slc.cpg/sg15_75_cif.got.tgz:148749.got - 2010.06.28 07:06:18.
