data_PCOD8145948
_publ_section_title
;
Structure prediction by ZEFSAII (Michael W. Deem and Ramdas Pophale) SiO2 
 PCOD8145948
Probable space group: C 2/C
;
_chemical_formula_sum "Si O2"
_cell_formula_units_Z 52
_cell_length_a 10.967352
_cell_length_b 8.694103
_cell_length_c 25.783426
_cell_angle_alpha 90.000000
_cell_angle_beta 72.646459
_cell_angle_gamma 90.000000
_cell_volume 2346.578871
_symmetry_space_group_name_H-M "C 2/C"
_symmetry_group_IT_number 15
_symmetry_cell_setting 'monoclinic'
loop_
_space_group_symop_operation_xyz
x,y,z
-x,y,1/2-z
-x,-y,-z
x,-y,1/2+z
1/2+x,1/2+y,z
1/2-x,1/2+y,1/2-z
1/2-x,1/2-y,-z
1/2+x,1/2-y,1/2+z
loop_
_atom_site_type_symbol
_atom_site_label
_atom_site_fract_x
_atom_site_fract_y
_atom_site_fract_z
Si Si1 0.000000 0.568386 0.250000
Si Si2 0.598168 0.644377 0.166143
Si Si3 0.351239 0.703349 0.825223
Si Si4 0.539149 0.836917 0.518631
Si Si5 0.343507 0.790053 0.238078
Si Si6 0.227100 0.140747 0.433515
Si Si7 0.227192 0.215369 0.941775
O O1 0.965710 0.674756 0.304007
O O2 0.881096 0.463598 0.248349
O O3 0.593947 0.459896 0.163485
O O4 0.455242 0.709895 0.189943
O O5 0.680717 0.695505 0.205756
O O6 0.659054 0.707229 0.105162
O O7 0.286308 0.695711 0.776917
O O8 0.248364 0.768075 0.878023
O O9 0.647803 0.842406 0.547552
O O10 0.594804 0.715239 0.470176
O O11 0.408006 0.779737 0.560165
O O12 0.500000 0.000000 0.500000
O O13 0.212234 0.960863 0.428338
O O14 0.250000 0.250000 0.000000
#
# Coordination Sequence:
#
# PCOD8145948 Si02
#       7
#     4   8   8   8   8   8   8
#     4  10  22  40  64 100 124 170 224 258 332 402
#     4  10  24  42  66 102 129 176 223 268 339 395
#     4  12  24  40  71  96 134 171 219 276 330 402
#     4  11  24  45  66  92 136 170 225 278 321 400
#     4  10  23  45  68  93 140 170 214 275 332 401
#     4  11  26  42  66 101 127 181 222 266 345 394
#     4  12  25  43  72  94 134 180 223 279 333 390
#
# _framework density 22.15992
#
# number of rings (size 3 to 8) (size 9 to 14) (size 15 to 20)
#    0.000    1.231    1.538    5.077    4.308    6.154 
#    0.000    0.000    0.000    0.000    0.000    0.000 
#    0.000    0.000    0.000    0.000    0.000    0.000 
#
# Total GULP energy -322337.425367 kJ/mol
# GULP energy per Si atom -12397.593283 kJ/mol
# Density = 2.210948 g / cm^3
# Si number density = 22.159920 Si / 1000 Ang^3
#
#
#
# Elastic Constant Matrix: (Units=GPa)
#
#
# Indices 1 2 3 4 5 6 
#
# 1 53.6190 7.3335 7.2709 0.0000 -3.6707 0.0000
# 2 7.3335 186.7766 43.9070 0.0000 -11.7487 0.0000
# 3 7.2709 43.9070 120.6134 0.0000 -10.6184 0.0000
# 4 0.0000 0.0000 0.0000 42.6974 0.0000 -7.7217
# 5 -3.6707 -11.7487 -10.6184 0.0000 29.1783 0.0000
# 6 0.0000 0.0000 0.0000 -7.7217 0.0000 24.0488
#
#
#
# Elastic Compliance Matrix: (Units=1/GPa)
#
#
# Indices 1 2 3 4 5 6 
#
# 1 0.018951 -0.000432 -0.000817 0.000000 0.001913 0.000000
# 2 -0.000432 0.005941 -0.001995 0.000000 0.001612 0.000000
# 3 -0.000817 -0.001995 0.009284 0.000000 0.002473 0.000000
# 4 0.000000 0.000000 0.000000 0.024864 0.000000 0.007984
# 5 0.001913 0.001612 0.002473 0.000000 0.036062 0.000000
# 6 0.000000 0.000000 0.000000 0.007984 0.000000 0.044145
#
#
# Mechanical properties :
#
#
# Convention : Reuss Voigt Hill
#
# Bulk Modulus (GPa) = 36.11493 53.11464 44.61479
# Shear Modulus (GPa) = 32.26547 39.35141 35.80844
#
# Velocity S-wave (km/s) = 3.81993 4.21859 4.02420
# Velocity P-wave (km/s) = 5.98236 6.91010 6.46290
#
# Compressibility (1/GPa) = 0.02768938
#
# Stress axis : x y z
#
# Youngs Moduli (GPa) = 52.76797 168.31364 107.71133
#
# Poissons Ratio (x) = 0.07266 0.08798
# Poissons Ratio (y) = 0.02278 0.21487
# Poissons Ratio (z) = 0.04310 0.33576
#
# Static dielectric constant tensor:
#      x y z
#    x 3.876830 0.000000 -0.128260 
#    y 0.000000 4.299210 0.000000 
#    z -0.128260 0.000000 4.015570 
# 
# 
# High freq. dielectric constant tensor:
#      x y z
#    x 1.865770 0.000000 -0.009130 
#    y 0.000000 1.895520 0.000000 
#    z -0.009130 0.000000 1.873230 
# 
# From -- ./inp_files/291462.got.cif
#   From: 2010.06.25/outbox.cif.g09.slc.cpg/sg15_146_cif.got.tgz:291462.got - 2010.06.28 07:06:18.
