data_PCOD8145661
_publ_section_title
;
Structure prediction by ZEFSAII (Michael W. Deem and Ramdas Pophale) SiO2 
 PCOD8145661
Probable space group: C 2/C
;
_chemical_formula_sum "Si O2"
_cell_formula_units_Z 40
_cell_length_a 8.593510
_cell_length_b 22.950258
_cell_length_c 8.994210
_cell_angle_alpha 90.000000
_cell_angle_beta 90.174043
_cell_angle_gamma 90.000000
_cell_volume 1773.859338
_symmetry_space_group_name_H-M "C 2/C"
_symmetry_group_IT_number 15
_symmetry_cell_setting 'monoclinic'
loop_
_space_group_symop_operation_xyz
x,y,z
-x,y,1/2-z
-x,-y,-z
x,-y,1/2+z
1/2+x,1/2+y,z
1/2-x,1/2+y,1/2-z
1/2-x,1/2-y,-z
1/2+x,1/2-y,1/2+z
loop_
_atom_site_type_symbol
_atom_site_label
_atom_site_fract_x
_atom_site_fract_y
_atom_site_fract_z
Si Si1 0.585545 0.451411 0.597466
Si Si2 0.521711 0.784234 0.924164
Si Si3 0.153857 0.649315 0.848803
Si Si4 0.884641 0.476957 0.118186
Si Si5 0.826492 0.834349 0.060816
O O1 0.500000 0.435300 0.750000
O O2 0.500000 0.500000 0.500000
O O3 0.752817 0.475570 0.648563
O O4 0.600024 0.394786 0.493706
O O5 0.500000 0.793430 0.750000
O O6 0.551446 0.717251 0.969961
O O7 0.368374 0.805168 0.015134
O O8 0.667964 0.824146 0.970120
O O9 0.189985 0.585951 0.921087
O O10 0.296866 0.665573 0.739798
O O11 0.000000 0.650326 0.750000
O O12 0.000000 0.465095 0.250000
O O13 0.000000 0.500000 0.000000
#
# Coordination Sequence:
#
# PCOD8145661 Si02
#       5
#     8   8   8   8   8
#     4  12  26  43  66  99 138 175 215 270 335 396
#     4  10  22  39  64  92 119 164 225 277 321 379
#     4   9  19  38  61  87 124 163 210 272 327 383
#     4  11  22  40  65  93 127 172 221 264 315 388
#     4  10  23  42  60  89 131 169 209 265 334 399
#
# _framework density 22.549702
#
# number of rings (size 3 to 8) (size 9 to 14) (size 15 to 20)
#    0.000    1.600    0.000    6.000    0.000   12.000 
#    0.000    0.000    0.000    0.000    0.000    0.000 
#    0.000    0.000    0.000    0.000    0.000    0.000 
#
# Total GULP energy -247952.692754 kJ/mol
# GULP energy per Si atom -12397.634638 kJ/mol
# Density = 2.249838 g / cm^3
# Si number density = 22.549702 Si / 1000 Ang^3
#
#
#
# Elastic Constant Matrix: (Units=GPa)
#
#
# Indices 1 2 3 4 5 6 
#
# 1 74.8047 51.2359 43.5010 0.0000 -31.6339 0.0000
# 2 51.2359 176.7533 77.9624 0.0000 -30.7671 0.0000
# 3 43.5010 77.9624 145.2232 0.0000 -33.2806 0.0000
# 4 0.0000 0.0000 0.0000 39.3773 0.0000 -8.6133
# 5 -31.6339 -30.7671 -33.2806 0.0000 41.4795 0.0000
# 6 0.0000 0.0000 0.0000 -8.6133 0.0000 29.5589
#
#
#
# Elastic Compliance Matrix: (Units=1/GPa)
#
#
# Indices 1 2 3 4 5 6 
#
# 1 0.022249 -0.003359 -0.001891 0.000000 0.012959 0.000000
# 2 -0.003359 0.008201 -0.003173 0.000000 0.000975 0.000000
# 3 -0.001891 -0.003173 0.010153 0.000000 0.004350 0.000000
# 4 0.000000 0.000000 0.000000 0.027124 0.000000 0.007904
# 5 0.012959 0.000975 0.004350 0.000000 0.038205 0.000000
# 6 0.000000 0.000000 0.000000 0.007904 0.000000 0.036134
#
#
# Mechanical properties :
#
#
# Convention : Reuss Voigt Hill
#
# Bulk Modulus (GPa) = 42.09594 82.46444 62.28019
# Shear Modulus (GPa) = 29.97054 37.02191 33.49623
#
# Velocity S-wave (km/s) = 3.64962 4.05630 3.85832
# Velocity P-wave (km/s) = 6.03889 7.65425 6.89405
#
# Compressibility (1/GPa) = 0.02375526
#
# Stress axis : x y z
#
# Youngs Moduli (GPa) = 44.94567 121.94313 98.49639
#
# Poissons Ratio (x) = 0.40966 0.18630
# Poissons Ratio (y) = 0.15099 0.31249
# Poissons Ratio (z) = 0.08501 0.38688
#
# Static dielectric constant tensor:
#      x y z
#    x 4.092890 0.000000 -0.246020 
#    y 0.000000 4.326790 0.000000 
#    z -0.246020 0.000000 4.161220 
# 
# 
# High freq. dielectric constant tensor:
#      x y z
#    x 1.884020 0.000000 -0.009710 
#    y 0.000000 1.901500 0.000000 
#    z -0.009710 0.000000 1.891090 
# 
# From -- ./inp_files/23615.got.cif
#   From: 2010.06.25/outbox.cif.g09.slc.cpg/sg15_12_cif.got.tgz:23615.got - 2010.06.28 07:06:18.
