data_PCOD8145936
_publ_section_title
;
Structure prediction by ZEFSAII (Michael W. Deem and Ramdas Pophale) SiO2 
 PCOD8145936
Probable space group: C 2/C
;
_chemical_formula_sum "Si O2"
_cell_formula_units_Z 48
_cell_length_a 20.152687
_cell_length_b 12.272112
_cell_length_c 10.739128
_cell_angle_alpha 90.000000
_cell_angle_beta 58.543661
_cell_angle_gamma 90.000000
_cell_volume 2265.633747
_symmetry_space_group_name_H-M "C 2/C"
_symmetry_group_IT_number 15
_symmetry_cell_setting 'monoclinic'
loop_
_space_group_symop_operation_xyz
x,y,z
-x,y,1/2-z
-x,-y,-z
x,-y,1/2+z
1/2+x,1/2+y,z
1/2-x,1/2+y,1/2-z
1/2-x,1/2-y,-z
1/2+x,1/2-y,1/2+z
loop_
_atom_site_type_symbol
_atom_site_label
_atom_site_fract_x
_atom_site_fract_y
_atom_site_fract_z
Si Si1 0.552980 0.758073 0.321713
Si Si2 0.717698 0.239034 0.195112
Si Si3 0.274263 0.931671 0.016690
Si Si4 0.573992 0.990100 0.252343
Si Si5 0.784658 0.161647 0.374548
Si Si6 0.458316 0.219899 0.156028
O O1 0.500000 0.744713 0.250000
O O2 0.594674 0.877109 0.300685
O O3 0.624296 0.674855 0.242513
O O4 0.505736 0.728942 0.494272
O O5 0.764912 0.354828 0.148884
O O6 0.728275 0.175421 0.312493
O O7 0.627750 0.270875 0.256500
O O8 0.753486 0.151853 0.063156
O O9 0.220892 0.038397 0.070080
O O10 0.362332 0.969544 0.909508
O O11 0.500000 0.951828 0.250000
O O12 0.553123 0.090585 0.363510
O O13 0.750000 0.250000 0.500000
O O14 0.500000 0.237042 0.250000
#
# Coordination Sequence:
#
# PCOD8145936 Si02
#       6
#     8   8   8   8   8   8
#     4  11  23  40  62  96 134 171 222 275 338 392
#     4  10  25  43  70  93 136 172 226 273 327 401
#     4  10  23  44  63  99 130 176 219 272 334 392
#     4   9  19  35  63  91 130 164 211 274 334 388
#     4  12  25  41  69  99 134 175 222 275 334 400
#     4  10  22  40  63  94 133 174 220 273 334 397
#
# _framework density 21.186126000000002
#
# number of rings (size 3 to 8) (size 9 to 14) (size 15 to 20)
#    0.000    1.667    1.667    1.500   14.000    0.000 
#    0.000    1.667    0.000    0.000    0.000    0.000 
#    0.000    0.000    0.000    0.000    0.000    0.000 
#
# Total GULP energy -297369.534626 kJ/mol
# GULP energy per Si atom -12390.397276 kJ/mol
# Density = 2.113791 g / cm^3
# Si number density = 21.186126 Si / 1000 Ang^3
#
#
#
# Elastic Constant Matrix: (Units=GPa)
#
#
# Indices 1 2 3 4 5 6 
#
# 1 106.8667 30.3363 50.5949 0.0000 -6.8659 0.0000
# 2 30.3363 131.5494 56.5033 0.0000 -11.3324 0.0000
# 3 50.5949 56.5033 137.1681 0.0000 -9.9147 0.0000
# 4 0.0000 0.0000 0.0000 38.1330 0.0000 -5.2288
# 5 -6.8659 -11.3324 -9.9147 0.0000 38.3342 0.0000
# 6 0.0000 0.0000 0.0000 -5.2288 0.0000 26.8367
#
#
#
# Elastic Compliance Matrix: (Units=1/GPa)
#
#
# Indices 1 2 3 4 5 6 
#
# 1 0.011469 -0.000953 -0.003780 0.000000 0.000795 0.000000
# 2 -0.000953 0.009436 -0.003410 0.000000 0.001737 0.000000
# 3 -0.003780 -0.003410 0.010157 0.000000 0.000942 0.000000
# 4 0.000000 0.000000 0.000000 0.026944 0.000000 0.005250
# 5 0.000795 0.001737 0.000942 0.000000 0.026986 0.000000
# 6 0.000000 0.000000 0.000000 0.005250 0.000000 0.038285
#
#
# Mechanical properties :
#
#
# Convention : Reuss Voigt Hill
#
# Bulk Modulus (GPa) = 67.67713 72.27259 69.97486
# Shear Modulus (GPa) = 34.60497 36.53741 35.57119
#
# Velocity S-wave (km/s) = 4.04589 4.15733 4.10199
# Velocity P-wave (km/s) = 7.33751 7.56516 7.45221
#
# Compressibility (1/GPa) = 0.01477604
#
# Stress axis : x y z
#
# Youngs Moduli (GPa) = 87.19364 105.98147 98.44956
#
# Poissons Ratio (x) = 0.10095 0.37218
# Poissons Ratio (y) = 0.08305 0.33570
# Poissons Ratio (z) = 0.32963 0.36139
#
# Static dielectric constant tensor:
#      x y z
#    x 3.769160 0.000000 0.008510 
#    y 0.000000 5.557900 0.000000 
#    z 0.008510 0.000000 4.125000 
# 
# 
# High freq. dielectric constant tensor:
#      x y z
#    x 1.818500 0.000000 -0.008470 
#    y 0.000000 1.819550 0.000000 
#    z -0.008470 0.000000 1.840800 
# 
# From -- ./inp_files/111464.got.cif
#   From: 2010.06.25/outbox.cif.g09.slc.cpg/sg15_56_cif.got.tgz:111464.got - 2010.06.28 07:06:18.
