data_PCOD8145223
_publ_section_title
;
Structure prediction by ZEFSAII (Michael W. Deem and Ramdas Pophale) SiO2 
 PCOD8145223
Probable space group: C 2/C
;
_chemical_formula_sum "Si O2"
_cell_formula_units_Z 64
_cell_length_a 9.633196
_cell_length_b 30.006302
_cell_length_c 15.176786
_cell_angle_alpha 90.000000
_cell_angle_beta 42.500052
_cell_angle_gamma 90.000000
_cell_volume 2963.783386
_symmetry_space_group_name_H-M "C 2/C"
_symmetry_group_IT_number 15
_symmetry_cell_setting 'monoclinic'
loop_
_space_group_symop_operation_xyz
x,y,z
-x,y,1/2-z
-x,-y,-z
x,-y,1/2+z
1/2+x,1/2+y,z
1/2-x,1/2+y,1/2-z
1/2-x,1/2-y,-z
1/2+x,1/2-y,1/2+z
loop_
_atom_site_type_symbol
_atom_site_label
_atom_site_fract_x
_atom_site_fract_y
_atom_site_fract_z
Si Si1 0.657139 0.462683 0.895810
Si Si2 0.981844 0.429255 0.457510
Si Si3 0.293132 0.652031 0.401614
Si Si4 0.904948 0.294627 0.031838
Si Si5 0.474002 0.020255 0.389817
Si Si6 0.836006 0.864014 0.253560
Si Si7 0.790812 0.297237 0.889994
Si Si8 0.495971 0.366451 0.981604
O O1 0.783205 0.476338 0.748886
O O2 0.828070 0.454710 0.890031
O O3 0.500000 0.500000 0.000000
O O4 0.531489 0.417516 0.939100
O O5 0.800501 0.396770 0.574469
O O6 0.073646 0.455505 0.497100
O O7 0.909403 0.467763 0.423355
O O8 0.159617 0.400848 0.328793
O O9 0.500000 0.657835 0.250000
O O10 0.334890 0.654387 0.487221
O O11 0.139375 0.691475 0.443533
O O12 0.757201 0.316413 0.174202
O O13 0.881481 0.241281 0.040301
O O14 0.830103 0.312467 0.971944
O O15 0.923223 0.858690 0.115189
O O16 0.000000 0.879830 0.250000
O O17 0.000000 0.279201 0.750000
O O18 0.711167 0.339909 0.872851
#
# Coordination Sequence:
#
# PCOD8145223 Si02
#       8
#     8   8   8   8   8   8   8   8
#     4  11  23  39  61  92 133 170 227 284 336 392
#     4  10  22  38  62  88 130 176 223 272 340 395
#     4  11  24  44  66  99 138 176 220 281 336 400
#     4  10  24  43  68  96 135 173 212 279 335 394
#     4  10  22  38  59  89 125 178 224 277 331 400
#     4  11  21  41  66  96 132 169 226 281 336 402
#     4  11  24  42  71 100 128 172 225 266 337 404
#     4  12  25  39  70 100 130 182 225 274 340 403
#
# _framework density 21.59402
#
# number of rings (size 3 to 8) (size 9 to 14) (size 15 to 20)
#    0.000    1.250    1.250    4.125    5.250    3.500 
#    0.000    2.500    0.000    0.000    0.000    0.000 
#    0.000    0.000    0.000    0.000    0.000    0.000 
#
# Total GULP energy -396810.469837 kJ/mol
# GULP energy per Si atom -12400.327182 kJ/mol
# Density = 2.154487 g / cm^3
# Si number density = 21.594020 Si / 1000 Ang^3
#
#
#
# Elastic Constant Matrix: (Units=GPa)
#
#
# Indices 1 2 3 4 5 6 
#
# 1 112.7027 52.2480 32.3420 0.0000 -1.9219 0.0000
# 2 52.2480 105.1788 35.7013 0.0000 -7.3997 0.0000
# 3 32.3420 35.7013 102.3477 0.0000 -6.1395 0.0000
# 4 0.0000 0.0000 0.0000 28.5524 0.0000 -2.9244
# 5 -1.9219 -7.3997 -6.1395 0.0000 36.9750 0.0000
# 6 0.0000 0.0000 0.0000 -2.9244 0.0000 34.8061
#
#
#
# Elastic Compliance Matrix: (Units=1/GPa)
#
#
# Indices 1 2 3 4 5 6 
#
# 1 0.011872 -0.005288 -0.001953 0.000000 -0.000766 0.000000
# 2 -0.005288 0.013229 -0.002829 0.000000 0.001903 0.000000
# 3 -0.001953 -0.002829 0.011449 0.000000 0.001233 0.000000
# 4 0.000000 0.000000 0.000000 0.035327 0.000000 0.002968
# 5 -0.000766 0.001903 0.001233 0.000000 0.027591 0.000000
# 6 0.000000 0.000000 0.000000 0.002968 0.000000 0.028980
#
#
# Mechanical properties :
#
#
# Convention : Reuss Voigt Hill
#
# Bulk Modulus (GPa) = 60.94397 62.31243 61.62820
# Shear Modulus (GPa) = 32.45527 33.39589 32.92558
#
# Velocity S-wave (km/s) = 3.88103 3.93687 3.90905
# Velocity P-wave (km/s) = 6.95464 7.04160 6.99826
#
# Compressibility (1/GPa) = 0.01640851
#
# Stress axis : x y z
#
# Youngs Moduli (GPa) = 84.23248 75.59209 87.34723
#
# Poissons Ratio (x) = 0.39977 0.17056
# Poissons Ratio (y) = 0.44546 0.24713
# Poissons Ratio (z) = 0.16448 0.21387
#
# Static dielectric constant tensor:
#      x y z
#    x 3.960410 0.000000 -0.025030 
#    y 0.000000 3.879540 0.000000 
#    z -0.025030 0.000000 3.917750 
# 
# 
# High freq. dielectric constant tensor:
#      x y z
#    x 1.848280 0.000000 0.000270 
#    y 0.000000 1.848970 0.000000 
#    z 0.000270 0.000000 1.852060 
# 
# From -- ./inp_files/139824.got.cif
#   From: 2010.06.25/outbox.cif.g09.slc.cpg/sg15_70_cif.got.tgz:139824.got - 2010.06.28 07:06:18.
