data_PCOD8145783
_publ_section_title
;
Structure prediction by ZEFSAII (Michael W. Deem and Ramdas Pophale) SiO2 
 PCOD8145783
Probable space group: C 2/C
;
_chemical_formula_sum "Si O2"
_cell_formula_units_Z 36
_cell_length_a 16.606675
_cell_length_b 15.662787
_cell_length_c 7.365145
_cell_angle_alpha 90.000000
_cell_angle_beta 90.496313
_cell_angle_gamma 90.000000
_cell_volume 1915.652522
_symmetry_space_group_name_H-M "C 2/C"
_symmetry_group_IT_number 15
_symmetry_cell_setting 'monoclinic'
loop_
_space_group_symop_operation_xyz
x,y,z
-x,y,1/2-z
-x,-y,-z
x,-y,1/2+z
1/2+x,1/2+y,z
1/2-x,1/2+y,1/2-z
1/2-x,1/2-y,-z
1/2+x,1/2-y,1/2+z
loop_
_atom_site_type_symbol
_atom_site_label
_atom_site_fract_x
_atom_site_fract_y
_atom_site_fract_z
Si Si1 0.335101 0.594134 0.719302
Si Si2 0.500000 0.703518 0.250000
Si Si3 0.569469 0.761588 0.891529
Si Si4 0.149887 0.094651 0.365460
Si Si5 0.228487 0.656815 0.432709
O O1 0.394898 0.667232 0.647025
O O2 0.374412 0.502268 0.682549
O O3 0.250854 0.404371 0.103571
O O4 0.317103 0.606197 0.930370
O O5 0.463585 0.763536 0.404699
O O6 0.568307 0.646523 0.343268
O O7 0.500000 0.784535 0.750000
O O8 0.634405 0.838883 0.877933
O O9 0.220712 0.129620 0.240793
O O10 0.250000 0.750000 0.500000
#
# Coordination Sequence:
#
# PCOD8145783 Si02
#       5
#     8   4   8   8   8
#     4  11  22  37  60  89 118 157 188 237 290 357
#     4  12  22  34  58  90 124 152 186 230 296 358
#     4  11  23  38  58  87 122 153 194 236 292 341
#     4  12  22  36  62  88 121 155 188 235 298 347
#     4  10  22  40  56  88 121 149 201 237 280 356
#
# _framework density 18.792552000000001
#
# number of rings (size 3 to 8) (size 9 to 14) (size 15 to 20)
#    0.000    0.889    8.889    0.000    1.556    7.111 
#    0.000    0.000    0.000    1.333    0.000    0.000 
#    0.000    0.000    0.000    0.000    0.000    0.000 
#
# Total GULP energy -223156.969273 kJ/mol
# GULP energy per Si atom -12397.609404 kJ/mol
# Density = 1.874978 g / cm^3
# Si number density = 18.792552 Si / 1000 Ang^3
#
#
#
# Elastic Constant Matrix: (Units=GPa)
#
#
# Indices 1 2 3 4 5 6 
#
# 1 130.5321 19.6550 48.8507 0.0000 1.1414 0.0000
# 2 19.6550 19.1637 19.3966 0.0000 -9.2482 0.0000
# 3 48.8507 19.3966 170.0691 0.0000 -0.7023 0.0000
# 4 0.0000 0.0000 0.0000 23.4062 0.0000 -6.2032
# 5 1.1414 -9.2482 -0.7023 0.0000 24.6794 0.0000
# 6 0.0000 0.0000 0.0000 -6.2032 0.0000 7.7441
#
#
#
# Elastic Compliance Matrix: (Units=1/GPa)
#
#
# Indices 1 2 3 4 5 6 
#
# 1 0.009928 -0.010688 -0.001651 0.000000 -0.004511 0.000000
# 2 -0.010688 0.085333 -0.006529 0.000000 0.032286 0.000000
# 3 -0.001651 -0.006529 0.007090 0.000000 -0.002168 0.000000
# 4 0.000000 0.000000 0.000000 0.054238 0.000000 0.043446
# 5 -0.004511 0.032286 -0.002168 0.000000 0.052765 0.000000
# 6 0.000000 0.000000 0.000000 0.043446 0.000000 0.163932
#
#
# Mechanical properties :
#
#
# Convention : Reuss Voigt Hill
#
# Bulk Modulus (GPa) = 15.47649 55.06328 35.26988
# Shear Modulus (GPa) = 11.55907 26.62343 19.09125
#
# Velocity S-wave (km/s) = 2.48279 3.76799 3.19077
# Velocity P-wave (km/s) = 4.05861 6.94943 5.69064
#
# Compressibility (1/GPa) = 0.06461415
#
# Stress axis : x y z
#
# Youngs Moduli (GPa) = 100.72776 11.71879 141.04444
#
# Poissons Ratio (x) = 0.12525 0.23291
# Poissons Ratio (y) = 1.07658 0.92087
# Poissons Ratio (z) = 0.16633 0.07651
#
# Static dielectric constant tensor:
#      x y z
#    x 4.083990 0.000000 0.273800 
#    y 0.000000 3.530090 0.000000 
#    z 0.273800 0.000000 3.645110 
# 
# 
# High freq. dielectric constant tensor:
#      x y z
#    x 1.725220 0.000000 0.014180 
#    y 0.000000 1.700320 0.000000 
#    z 0.014180 0.000000 1.751430 
# 
# From -- ./inp_files/46017.got.cif
#   From: 2010.06.25/outbox.cif.g09.slc.cpg/sg15_24_cif.got.tgz:46017.got - 2010.06.28 07:06:18.
